2


 38 41  0  0  0  0  0  0  0  0999 V2000
    8.1255    6.9081   11.8935 C   0  0  0  0  0  0  0  0  0  0  0  0
    6.8544    6.4725   11.5846 N   0  0  0  0  0  0  0  0  0  0  0  0
    6.0165    7.3576   12.0202 N   0  0  0  0  0  0  0  0  0  0  0  0
    6.7011    8.3740   12.6137 N   0  0  0  0  0  0  0  0  0  0  0  0
    8.0079    8.1256   12.5509 C   0  0  0  0  0  0  0  0  0  0  0  0
    5.9808    9.4705   13.1818 C   0  0  0  0  0  0  0  0  0  0  0  0
    6.1730   10.7823   13.1248 N   0  0  0  0  0  0  0  0  0  0  0  0
    5.2154   11.3466   13.7840 O   0  0  0  0  0  0  0  0  0  0  0  0
    4.3931   10.4755   14.2790 N   0  0  0  0  0  0  0  0  0  0  0  0
    4.8149    9.2658   13.9370 C   0  0  0  0  0  0  0  0  0  0  0  0
    4.2559    7.9972   14.2373 N   0  0  0  0  0  0  0  0  0  0  0  0
    3.2719    7.7939   13.9648 H   0  0  0  0  0  0  0  0  0  0  0  0
    4.8021    7.2363   14.7346 H   0  0  0  0  0  0  0  0  0  0  0  0
   10.0175    5.1936   12.2654 N   0  0  0  0  0  0  0  0  0  0  0  0
    9.3092    6.1606   11.5430 C   0  0  0  0  0  0  0  0  0  0  0  0
    9.7848    6.4374   10.3591 O   0  0  0  0  0  0  0  0  0  0  0  0
    9.7817    4.8589   13.1848 H   0  0  0  0  0  0  0  0  0  0  0  0
   11.2115    3.3905   11.3204 C   0  0  0  0  0  0  0  0  0  0  0  0
   11.1746    4.6342   11.6206 N   0  0  0  0  0  0  0  0  0  0  0  0
   12.9821   -0.1203    7.7180 Br  0  0  0  0  0  0  0  0  0  0  0  0
   13.2710    1.2186    9.0636 C   0  0  0  0  0  0  0  0  0  0  0  0
   14.5709    1.5662    9.3776 C   0  0  0  0  0  0  0  0  0  0  0  0
   14.7560    2.5293   10.3454 C   0  0  0  0  0  0  0  0  0  0  0  0
   13.6694    3.1170   10.9715 C   0  0  0  0  0  0  0  0  0  0  0  0
   12.3698    2.7728   10.6613 C   0  0  0  0  0  0  0  0  0  0  0  0
   12.1926    1.8079    9.6917 C   0  0  0  0  0  0  0  0  0  0  0  0
   10.8663    1.4593    9.3778 O   0  0  0  0  0  0  0  0  0  0  0  0
   16.5564    3.0077   10.7770 Br  0  0  0  0  0  0  0  0  0  0  0  0
   15.6426    0.9529    8.7260 O   0  0  0  0  0  0  0  0  0  0  0  0
   10.6928    0.7589    8.6735 H   0  0  0  0  0  0  0  0  0  0  0  0
    9.1240    8.9303   13.0466 C   0  0  0  0  0  0  0  0  0  0  0  0
    9.5503    8.7896   14.3877 N   0  0  0  0  0  0  0  0  0  0  0  0
   10.0394   10.0298   14.9720 C   0  0  0  0  0  0  0  0  0  0  0  0
   11.0603   10.6616   14.1133 C   0  0  0  0  0  0  0  0  0  0  0  0
   11.8891    9.9162   13.3796 O   0  0  0  0  0  0  0  0  0  0  0  0
   11.7560    8.5656   13.3780 C   0  0  0  0  0  0  0  0  0  0  0  0
   10.8106    7.9786   14.3455 C   0  0  0  0  0  0  0  0  0  0  0  0
    8.8834    8.3088   14.9733 H   0  0  0  0  0  0  0  0  0  0  0  0
 20 21  1  0  0  0
 21 22  2  0  0  0
 21 26  1  0  0  0
 22 23  1  0  0  0
 22 29  1  0  0  0
 23 24  2  0  0  0
 23 28  1  0  0  0
 24 25  1  0  0  0
 25 26  2  0  0  0
 25 18  1  0  0  0
 26 27  1  0  0  0
 18 19  2  0  0  0
 19 14  1  0  0  0
 14 15  1  0  0  0
 15 16  2  0  0  0
 15  1  1  0  0  0
  1  2  1  0  0  0
  1  5  2  0  0  0
  2  3  2  0  0  0
  3  4  1  0  0  0
  4  5  1  0  0  0
  4  6  1  0  0  0
  5 31  1  0  0  0
 31 32  1  0  0  0
 32 33  1  0  0  0
 32 37  1  0  0  0
 33 34  1  0  0  0
 34 35  1  0  0  0
 35 36  1  0  0  0
 36 37  1  0  0  0
  6  7  2  0  0  0
  6 10  1  0  0  0
  7  8  1  0  0  0
  8  9  1  0  0  0
  9 10  2  0  0  0
 10 11  1  0  0  0
 27 30  1  0  0  0
 14 17  1  0  0  0
 32 38  1  0  0  0
 11 12  1  0  0  0
 11 13  1  0  0  0
M  CHG 1  29  -1
M  CHG 1  32   1
M  END
> <minimizedAffinity>
-9.85785

$$$$
3


 38 41  0  0  0  0  0  0  0  0999 V2000
    8.0009    6.8398   11.7742 C   0  0  0  0  0  0  0  0  0  0  0  0
    6.7323    6.4256   11.4536 N   0  0  0  0  0  0  0  0  0  0  0  0
    5.8661    7.2798   11.9236 N   0  0  0  0  0  0  0  0  0  0  0  0
    6.4634    8.2742   12.5573 N   0  0  0  0  0  0  0  0  0  0  0  0
    7.7820    8.0266   12.4820 C   0  0  0  0  0  0  0  0  0  0  0  0
    5.7776    9.3665   13.1434 C   0  0  0  0  0  0  0  0  0  0  0  0
    6.0776   10.6826   13.1142 N   0  0  0  0  0  0  0  0  0  0  0  0
    5.1747   11.3570   13.7754 O   0  0  0  0  0  0  0  0  0  0  0  0
    4.2649   10.5497   14.2580 N   0  0  0  0  0  0  0  0  0  0  0  0
    4.6073    9.3054   13.8845 C   0  0  0  0  0  0  0  0  0  0  0  0
    3.8703    8.1468   14.2120 N   0  0  0  0  0  0  0  0  0  0  0  0
    2.9508    7.9942   13.7594 H   0  0  0  0  0  0  0  0  0  0  0  0
    4.2118    7.4402   14.8881 H   0  0  0  0  0  0  0  0  0  0  0  0
    9.9777    5.2626   12.1889 N   0  0  0  0  0  0  0  0  0  0  0  0
    9.2229    6.1411   11.4236 C   0  0  0  0  0  0  0  0  0  0  0  0
    9.6523    6.3830   10.2332 O   0  0  0  0  0  0  0  0  0  0  0  0
    9.7889    4.9524   13.1716 H   0  0  0  0  0  0  0  0  0  0  0  0
   11.1450    3.4851   11.1921 C   0  0  0  0  0  0  0  0  0  0  0  0
   11.1561    4.7102   11.5810 N   0  0  0  0  0  0  0  0  0  0  0  0
   12.8810   -0.1447    7.7344 Br  0  0  0  0  0  0  0  0  0  0  0  0
   13.1926    1.2102    9.0214 C   0  0  0  0  0  0  0  0  0  0  0  0
   14.4700    1.5580    9.3507 C   0  0  0  0  0  0  0  0  0  0  0  0
   14.6670    2.5566   10.3010 C   0  0  0  0  0  0  0  0  0  0  0  0
   13.5670    3.1724   10.8896 C   0  0  0  0  0  0  0  0  0  0  0  0
   12.2819    2.8290   10.5647 C   0  0  0  0  0  0  0  0  0  0  0  0
   12.1022    1.8398    9.6236 C   0  0  0  0  0  0  0  0  0  0  0  0
   10.7970    1.5005    9.3023 O   0  0  0  0  0  0  0  0  0  0  0  0
   16.4293    3.0641   10.7805 Br  0  0  0  0  0  0  0  0  0  0  0  0
   15.5802    0.9570    8.7756 O   0  0  0  0  0  0  0  0  0  0  0  0
   10.6123    0.7793    8.6164 H   0  0  0  0  0  0  0  0  0  0  0  0
   16.5131    1.2313    9.0367 H   0  0  0  0  0  0  0  0  0  0  0  0
    8.8661    8.8618   13.0073 C   0  0  0  0  0  0  0  0  0  0  0  0
    8.8874    8.9747   14.4681 N   0  0  0  0  0  0  0  0  0  0  0  0
   10.2253    9.4416   14.8817 C   0  0  0  0  0  0  0  0  0  0  0  0
   11.2745    8.6540   14.1779 C   0  0  0  0  0  0  0  0  0  0  0  0
   11.0620    7.3131   14.3848 O   0  0  0  0  0  0  0  0  0  0  0  0
   10.1028    7.0296   15.3213 C   0  0  0  0  0  0  0  0  0  0  0  0
    8.7436    7.6127   15.0349 C   0  0  0  0  0  0  0  0  0  0  0  0
 20 21  1  0  0  0
 21 22  2  0  0  0
 21 26  1  0  0  0
 22 23  1  0  0  0
 22 29  1  0  0  0
 23 24  2  0  0  0
 23 28  1  0  0  0
 24 25  1  0  0  0
 25 26  2  0  0  0
 25 18  1  0  0  0
 26 27  1  0  0  0
 18 19  2  0  0  0
 19 14  1  0  0  0
 14 15  1  0  0  0
 15 16  2  0  0  0
 15  1  1  0  0  0
  1  2  1  0  0  0
  1  5  2  0  0  0
  2  3  2  0  0  0
  3  4  1  0  0  0
  4  5  1  0  0  0
  4  6  1  0  0  0
  5 32  1  0  0  0
 32 33  1  0  0  0
 33 34  1  0  0  0
 33 38  1  0  0  0
 34 35  1  0  0  0
 35 36  1  0  0  0
 36 37  1  0  0  0
 37 38  1  0  0  0
  6  7  2  0  0  0
  6 10  1  0  0  0
  7  8  1  0  0  0
  8  9  1  0  0  0
  9 10  2  0  0  0
 10 11  1  0  0  0
 27 30  1  0  0  0
 14 17  1  0  0  0
 11 12  1  0  0  0
 11 13  1  0  0  0
 29 31  1  0  0  0
M  END
> <minimizedAffinity>
-9.78459

$$$$
4


 34 37  0  0  0  0  0  0  0  0999 V2000
    9.1592    6.1173   11.4181 C   0  0  0  0  0  0  0  0  0  0  0  0
   10.3543    6.6313   11.6998 N   0  0  0  0  0  0  0  0  0  0  0  0
   10.5227    7.9231   12.1048 C   0  0  0  0  0  0  0  0  0  0  0  0
    9.4154    8.6548   12.2058 N   0  0  0  0  0  0  0  0  0  0  0  0
    8.1653    8.2128   11.9407 C   0  0  0  0  0  0  0  0  0  0  0  0
    8.0867    6.9084   11.5408 N   0  0  0  0  0  0  0  0  0  0  0  0
    7.0223    9.0239   12.0618 N   0  0  0  0  0  0  0  0  0  0  0  0
    7.0579   10.2297   12.8290 C   0  0  0  0  0  0  0  0  0  0  0  0
    5.8739   10.1827   13.7989 C   0  0  0  0  0  0  0  0  0  0  0  0
    5.1830    8.9934   13.7134 O   0  0  0  0  0  0  0  0  0  0  0  0
    4.6970    8.7066   12.4620 C   0  0  0  0  0  0  0  0  0  0  0  0
    5.8027    8.6493   11.4146 C   0  0  0  0  0  0  0  0  0  0  0  0
   11.7989    8.4485   12.3988 N   0  0  0  0  0  0  0  0  0  0  0  0
   12.9686    7.9131   11.7601 C   0  0  0  0  0  0  0  0  0  0  0  0
   14.0109    7.6865   12.8437 C   0  0  0  0  0  0  0  0  0  0  0  0
   14.1304    8.7833   13.6881 O   0  0  0  0  0  0  0  0  0  0  0  0
   12.9731    9.0782   14.3723 C   0  0  0  0  0  0  0  0  0  0  0  0
   11.9296    9.5241   13.3403 C   0  0  0  0  0  0  0  0  0  0  0  0
    9.0255    4.7652   10.9989 N   0  0  0  0  0  0  0  0  0  0  0  0
    8.1790    4.2012   11.1276 H   0  0  0  0  0  0  0  0  0  0  0  0
   10.8687    3.2919   10.9434 C   0  0  0  0  0  0  0  0  0  0  0  0
   10.1117    4.1350   10.3609 N   0  0  0  0  0  0  0  0  0  0  0  0
   12.7098   -0.3874    7.4821 Br  0  0  0  0  0  0  0  0  0  0  0  0
   12.9224    1.0025    8.7760 C   0  0  0  0  0  0  0  0  0  0  0  0
   14.2093    1.3795    9.1064 C   0  0  0  0  0  0  0  0  0  0  0  0
   14.3682    2.3811   10.0390 C   0  0  0  0  0  0  0  0  0  0  0  0
   13.2793    2.9969   10.6297 C   0  0  0  0  0  0  0  0  0  0  0  0
   11.9947    2.6285   10.3071 C   0  0  0  0  0  0  0  0  0  0  0  0
   11.8373    1.6254    9.3733 C   0  0  0  0  0  0  0  0  0  0  0  0
   10.5616    1.2413    9.0344 O   0  0  0  0  0  0  0  0  0  0  0  0
   16.1476    2.9126   10.5070 Br  0  0  0  0  0  0  0  0  0  0  0  0
   15.2940    0.7482    8.5017 O   0  0  0  0  0  0  0  0  0  0  0  0
   10.4037    0.4998    8.3455 H   0  0  0  0  0  0  0  0  0  0  0  0
   16.2294    1.0270    8.7465 H   0  0  0  0  0  0  0  0  0  0  0  0
 23 24  1  0  0  0
 24 25  2  0  0  0
 24 29  1  0  0  0
 25 26  1  0  0  0
 25 32  1  0  0  0
 26 27  2  0  0  0
 26 31  1  0  0  0
 27 28  1  0  0  0
 28 29  2  0  0  0
 28 21  1  0  0  0
 29 30  1  0  0  0
 21 22  2  0  0  0
 22 19  1  0  0  0
 19  1  1  0  0  0
  1  2  2  0  0  0
  1  6  1  0  0  0
  2  3  1  0  0  0
  3  4  2  0  0  0
  3 13  1  0  0  0
  4  5  1  0  0  0
  5  6  2  0  0  0
  5  7  1  0  0  0
  7  8  1  0  0  0
  7 12  1  0  0  0
  8  9  1  0  0  0
  9 10  1  0  0  0
 10 11  1  0  0  0
 11 12  1  0  0  0
 13 14  1  0  0  0
 13 18  1  0  0  0
 14 15  1  0  0  0
 15 16  1  0  0  0
 16 17  1  0  0  0
 17 18  1  0  0  0
 30 33  1  0  0  0
 19 20  1  0  0  0
 32 34  1  0  0  0
M  END
> <minimizedAffinity>
-8.91276

$$$$
5


 38 41  0  0  0  0  0  0  0  0999 V2000
   12.3390    3.2376   10.2846 N   0  0  0  0  0  0  0  0  0  0  0  0
   12.3137    2.0943    9.5495 C   0  0  0  0  0  0  0  0  0  0  0  0
   11.0529    1.5606    9.5776 C   0  0  0  0  0  0  0  0  0  0  0  0
   10.3426    2.3849   10.3199 N   0  0  0  0  0  0  0  0  0  0  0  0
   11.0964    3.4261   10.7674 C   0  0  0  0  0  0  0  0  0  0  0  0
   10.6844    0.4153    8.9251 N   0  0  0  0  0  0  0  0  0  0  0  0
   11.6376   -0.2026    8.2169 C   0  0  0  0  0  0  0  0  0  0  0  0
   11.2946   -1.2599    7.6163 O   0  0  0  0  0  0  0  0  0  0  0  0
   12.8922    0.2837    8.1539 N   0  0  0  0  0  0  0  0  0  0  0  0
   13.2677    1.4054    8.7893 C   0  0  0  0  0  0  0  0  0  0  0  0
   14.5548    1.8839    8.7036 O   0  0  0  0  0  0  0  0  0  0  0  0
    9.3139   -0.0652    9.0343 C   0  0  0  0  0  0  0  0  0  0  0  0
   10.5249    4.5252   11.5001 N   0  0  0  0  0  0  0  0  0  0  0  0
   10.7732    4.8891   12.8417 C   0  0  0  0  0  0  0  0  0  0  0  0
    9.9864    6.1976   13.1283 C   0  0  0  0  0  0  0  0  0  0  0  0
    8.5935    5.8324   12.9559 N   0  0  0  0  0  0  0  0  0  0  0  0
    8.4185    5.8649   11.4914 C   0  0  0  0  0  0  0  0  0  0  0  0
    9.6081    5.3968   10.7533 C   0  0  0  0  0  0  0  0  0  0  0  0
    8.3773    4.8535   13.2407 H   0  0  0  0  0  0  0  0  0  0  0  0
    7.7068    6.7980   13.5737 C   0  0  0  0  0  0  0  0  0  0  0  0
    6.6355    6.0544   14.3407 C   0  0  0  0  0  0  0  0  0  0  0  0
    7.2401    5.2916   15.3475 O   0  0  0  0  0  0  0  0  0  0  0  0
    7.0446    4.3225   15.2220 H   0  0  0  0  0  0  0  0  0  0  0  0
   13.4717    4.0685   10.4875 C   0  0  0  0  0  0  0  0  0  0  0  0
   14.4036    3.8683   11.5846 C   0  0  0  0  0  0  0  0  0  0  0  0
   14.2147    4.5977   12.7721 O   0  0  0  0  0  0  0  0  0  0  0  0
   13.3887    4.3514   13.2256 H   0  0  0  0  0  0  0  0  0  0  0  0
   15.8536    3.6706   11.4512 C   0  0  0  0  0  0  0  0  0  0  0  0
   16.5631    4.6432   12.2153 O   0  0  0  0  0  0  0  0  0  0  0  0
   15.9452    7.4578   11.4072 Br  0  0  0  0  0  0  0  0  0  0  0  0
   17.6576    6.6035   11.4401 C   0  0  0  0  0  0  0  0  0  0  0  0
   17.7085    5.2651   11.8593 C   0  0  0  0  0  0  0  0  0  0  0  0
   18.9299    4.6731   11.8770 C   0  0  0  0  0  0  0  0  0  0  0  0
   20.0952    5.3521   11.4994 C   0  0  0  0  0  0  0  0  0  0  0  0
   20.0192    6.6640   11.0925 C   0  0  0  0  0  0  0  0  0  0  0  0
   18.7882    7.2837   11.0664 C   0  0  0  0  0  0  0  0  0  0  0  0
   21.5340    7.6870   10.5558 Br  0  0  0  0  0  0  0  0  0  0  0  0
   19.1291    2.8753   12.4000 Br  0  0  0  0  0  0  0  0  0  0  0  0
 30 31  1  0  0  0
 31 32  2  0  0  0
 31 36  1  0  0  0
 32 33  1  0  0  0
 32 29  1  0  0  0
 33 34  2  0  0  0
 33 38  1  0  0  0
 34 35  1  0  0  0
 35 36  2  0  0  0
 35 37  1  0  0  0
 29 28  1  0  0  0
 28 25  1  0  0  0
 25 26  1  0  0  0
 25 24  1  0  0  0
 24  1  1  0  0  0
  1  2  1  0  0  0
  1  5  1  0  0  0
  2  3  2  0  0  0
  2 10  1  0  0  0
  3  4  1  0  0  0
  3  6  1  0  0  0
  4  5  2  0  0  0
  5 13  1  0  0  0
 13 14  1  0  0  0
 13 18  1  0  0  0
 14 15  1  0  0  0
 15 16  1  0  0  0
 16 17  1  0  0  0
 16 20  1  0  0  0
 17 18  1  0  0  0
 20 21  1  0  0  0
 21 22  1  0  0  0
  6  7  1  0  0  0
  6 12  1  0  0  0
  7  8  2  0  0  0
  7  9  1  0  0  0
  9 10  2  0  0  0
 10 11  1  0  0  0
 26 27  1  0  0  0
 16 19  1  0  0  0
 22 23  1  0  0  0
M  CHG 1  11  -1
M  CHG 1  16   1
M  END
> <minimizedAffinity>
-8.52556

$$$$
6


 34 37  0  0  0  0  0  0  0  0999 V2000
    9.5703    7.4994   12.9021 N   0  0  0  0  0  0  0  0  0  0  0  0
   10.1857    7.5682   14.1123 C   0  0  0  0  0  0  0  0  0  0  0  0
    9.2816    7.3387   15.1119 C   0  0  0  0  0  0  0  0  0  0  0  0
    8.1107    7.1298   14.4898 N   0  0  0  0  0  0  0  0  0  0  0  0
    8.2843    7.2277   13.1340 C   0  0  0  0  0  0  0  0  0  0  0  0
    9.7178    7.3667   16.4202 C   0  0  0  0  0  0  0  0  0  0  0  0
   11.0399    7.6197   16.7475 C   0  0  0  0  0  0  0  0  0  0  0  0
   11.9317    7.8486   15.7144 C   0  0  0  0  0  0  0  0  0  0  0  0
   11.4977    7.8209   14.4043 C   0  0  0  0  0  0  0  0  0  0  0  0
    7.2102    7.0525   12.1642 C   0  0  0  0  0  0  0  0  0  0  0  0
    7.0168    5.9673   11.4038 N   0  0  0  0  0  0  0  0  0  0  0  0
    5.9516    6.1613   10.6470 O   0  0  0  0  0  0  0  0  0  0  0  0
    5.4418    7.3291   10.8823 N   0  0  0  0  0  0  0  0  0  0  0  0
    6.1999    7.9251   11.8287 C   0  0  0  0  0  0  0  0  0  0  0  0
    5.9972    9.2131   12.3805 N   0  0  0  0  0  0  0  0  0  0  0  0
    5.3127    9.2152   13.1487 H   0  0  0  0  0  0  0  0  0  0  0  0
    5.5795    9.7994   11.6068 H   0  0  0  0  0  0  0  0  0  0  0  0
    6.8975    9.6810   12.6635 H   0  0  0  0  0  0  0  0  0  0  0  0
   10.1610    7.6768   11.6125 C   0  0  0  0  0  0  0  0  0  0  0  0
    9.9299    5.4578   10.4477 N   0  0  0  0  0  0  0  0  0  0  0  0
   10.7192    6.4979   10.9969 C   0  0  0  0  0  0  0  0  0  0  0  0
   11.9629    6.3576   10.9287 O   0  0  0  0  0  0  0  0  0  0  0  0
    8.8941    5.5639   10.4998 H   0  0  0  0  0  0  0  0  0  0  0  0
   10.6877    3.2328   10.4822 C   0  0  0  0  0  0  0  0  0  0  0  0
   10.4375    4.3157    9.8512 N   0  0  0  0  0  0  0  0  0  0  0  0
   14.8846    0.9145    8.3198 Br  0  0  0  0  0  0  0  0  0  0  0  0
   13.0367    0.9630    8.7474 C   0  0  0  0  0  0  0  0  0  0  0  0
   12.5420    2.0477    9.4402 C   0  0  0  0  0  0  0  0  0  0  0  0
   11.2187    2.0971    9.7544 C   0  0  0  0  0  0  0  0  0  0  0  0
   10.3429    1.0682    9.3899 C   0  0  0  0  0  0  0  0  0  0  0  0
   10.8620   -0.0001    8.6999 C   0  0  0  0  0  0  0  0  0  0  0  0
   12.1937   -0.0691    8.3733 C   0  0  0  0  0  0  0  0  0  0  0  0
    9.7093   -1.4346    8.1769 Br  0  0  0  0  0  0  0  0  0  0  0  0
   13.3942    3.0737    9.8084 O   0  0  0  0  0  0  0  0  0  0  0  0
 26 27  1  0  0  0
 27 28  2  0  0  0
 27 32  1  0  0  0
 28 29  1  0  0  0
 28 34  1  0  0  0
 29 30  2  0  0  0
 29 24  1  0  0  0
 30 31  1  0  0  0
 31 32  2  0  0  0
 31 33  1  0  0  0
 24 25  2  0  0  0
 25 20  1  0  0  0
 20 21  1  0  0  0
 21 22  2  0  0  0
 21 19  1  0  0  0
 19  1  1  0  0  0
  1  2  1  0  0  0
  1  5  1  0  0  0
  2  3  2  0  0  0
  2  9  1  0  0  0
  3  4  1  0  0  0
  3  6  1  0  0  0
  4  5  2  0  0  0
  5 10  1  0  0  0
 10 11  2  0  0  0
 10 14  1  0  0  0
 11 12  1  0  0  0
 12 13  1  0  0  0
 13 14  2  0  0  0
 14 15  1  0  0  0
  6  7  2  0  0  0
  7  8  1  0  0  0
  8  9  2  0  0  0
 20 23  1  0  0  0
 15 16  1  0  0  0
 15 17  1  0  0  0
 15 18  1  0  0  0
M  CHG 1  15   1
M  CHG 1  34  -1
M  END
> <minimizedAffinity>
-9.64169

$$$$
11


 36 39  0  0  0  0  0  0  0  0999 V2000
   11.1128    3.0122   11.1198 C   0  0  0  0  0  0  0  0  0  0  0  0
   11.8080    2.0624   10.3537 N   0  0  0  0  0  0  0  0  0  0  0  0
   11.1093    1.0549    9.7062 C   0  0  0  0  0  0  0  0  0  0  0  0
   12.0160    0.2851    9.0788 C   0  0  0  0  0  0  0  0  0  0  0  0
   13.2074    0.8010    9.3373 N   0  0  0  0  0  0  0  0  0  0  0  0
   13.0895    1.9257   10.1411 C   0  0  0  0  0  0  0  0  0  0  0  0
   11.6648   -0.8271    8.3298 C   0  0  0  0  0  0  0  0  0  0  0  0
   10.3233   -1.1145    8.2534 C   0  0  0  0  0  0  0  0  0  0  0  0
    9.3498   -0.3561    8.8749 C   0  0  0  0  0  0  0  0  0  0  0  0
    9.7598    0.7506    9.6161 C   0  0  0  0  0  0  0  0  0  0  0  0
   14.3304    2.5802   10.5144 C   0  0  0  0  0  0  0  0  0  0  0  0
   14.4349    3.3893   11.6441 N   0  0  0  0  0  0  0  0  0  0  0  0
   15.6217    3.8265   11.7715 O   0  0  0  0  0  0  0  0  0  0  0  0
   16.3589    3.3955   10.8282 N   0  0  0  0  0  0  0  0  0  0  0  0
   15.5811    2.6035   10.0137 C   0  0  0  0  0  0  0  0  0  0  0  0
   16.1122    1.9512    8.8810 N   0  0  0  0  0  0  0  0  0  0  0  0
   17.1969    2.0367    8.9194 H   0  0  0  0  0  0  0  0  0  0  0  0
   15.8653    2.4674    8.0280 H   0  0  0  0  0  0  0  0  0  0  0  0
   15.9709    0.9451    8.9226 H   0  0  0  0  0  0  0  0  0  0  0  0
    9.6027    4.8290   10.7378 N   0  0  0  0  0  0  0  0  0  0  0  0
   10.7618    4.2750   10.3027 C   0  0  0  0  0  0  0  0  0  0  0  0
   11.5919    4.5222    9.4303 O   0  0  0  0  0  0  0  0  0  0  0  0
    9.7751    5.8367    9.7728 H   0  0  0  0  0  0  0  0  0  0  0  0
    7.5876    5.8931   11.5300 C   0  0  0  0  0  0  0  0  0  0  0  0
    8.5496    5.3354   11.1316 N   0  0  0  0  0  0  0  0  0  0  0  0
    9.3906   10.2671   13.9609 Br  0  0  0  0  0  0  0  0  0  0  0  0
    7.9963    9.2304   13.1966 C   0  0  0  0  0  0  0  0  0  0  0  0
    6.6989    9.6927   13.2118 C   0  0  0  0  0  0  0  0  0  0  0  0
    5.6725    8.8921   12.6549 C   0  0  0  0  0  0  0  0  0  0  0  0
    6.0309    7.6858   12.1269 C   0  0  0  0  0  0  0  0  0  0  0  0
    7.3366    7.1752   12.0918 C   0  0  0  0  0  0  0  0  0  0  0  0
    8.2917    7.9985   12.6461 C   0  0  0  0  0  0  0  0  0  0  0  0
    6.3343   10.8958   13.7427 O   0  0  0  0  0  0  0  0  0  0  0  0
    4.3797    9.3804   12.6863 O   0  0  0  0  0  0  0  0  0  0  0  0
    3.3963    8.8631   13.5155 C   0  0  0  0  0  0  0  0  0  0  0  0
    2.9914    9.7219   14.6800 C   0  0  0  0  0  0  0  0  0  0  0  0
 26 27  1  0  0  0
 27 28  2  0  0  0
 27 32  1  0  0  0
 28 29  1  0  0  0
 28 33  1  0  0  0
 29 30  2  0  0  0
 29 34  1  0  0  0
 30 31  1  0  0  0
 31 32  2  0  0  0
 31 24  1  0  0  0
 24 25  2  0  0  0
 25 20  1  0  0  0
 20 21  1  0  0  0
 21 22  2  0  0  0
 21  1  1  0  0  0
  1  2  1  0  0  0
  2  3  1  0  0  0
  2  6  1  0  0  0
  3  4  2  0  0  0
  3 10  1  0  0  0
  4  5  1  0  0  0
  4  7  1  0  0  0
  5  6  2  0  0  0
  6 11  1  0  0  0
 11 12  2  0  0  0
 11 15  1  0  0  0
 12 13  1  0  0  0
 13 14  1  0  0  0
 14 15  2  0  0  0
 15 16  1  0  0  0
  7  8  2  0  0  0
  8  9  1  0  0  0
  9 10  2  0  0  0
 34 35  1  0  0  0
 35 36  1  0  0  0
 20 23  1  0  0  0
 16 17  1  0  0  0
 16 18  1  0  0  0
 16 19  1  0  0  0
M  CHG 1  16   1
M  CHG 1  33  -1
M  END
> <minimizedAffinity>
-10.10126

$$$$
17


 38 41  0  0  0  0  0  0  0  0999 V2000
    8.3288    6.3798   11.5149 C   0  0  0  0  0  0  0  0  0  0  0  0
    7.1082    5.8285   11.5165 N   0  0  0  0  0  0  0  0  0  0  0  0
    6.2608    6.6388   12.1017 N   0  0  0  0  0  0  0  0  0  0  0  0
    6.8819    7.7597   12.5115 N   0  0  0  0  0  0  0  0  0  0  0  0
    8.1631    7.6208   12.1587 C   0  0  0  0  0  0  0  0  0  0  0  0
    6.2104    8.8180   13.2034 C   0  0  0  0  0  0  0  0  0  0  0  0
    6.6986    9.6740   14.1151 N   0  0  0  0  0  0  0  0  0  0  0  0
    5.7445   10.4916   14.4914 O   0  0  0  0  0  0  0  0  0  0  0  0
    4.6281   10.2130   13.8620 N   0  0  0  0  0  0  0  0  0  0  0  0
    4.8917    9.1721   13.0515 C   0  0  0  0  0  0  0  0  0  0  0  0
    3.9239    8.5820   12.1980 N   0  0  0  0  0  0  0  0  0  0  0  0
    3.2691    7.8293   12.4939 H   0  0  0  0  0  0  0  0  0  0  0  0
    3.8268    8.8942   11.1977 H   0  0  0  0  0  0  0  0  0  0  0  0
   10.2754    4.8021   11.6228 N   0  0  0  0  0  0  0  0  0  0  0  0
    9.5730    5.8447   10.9779 C   0  0  0  0  0  0  0  0  0  0  0  0
   10.0303    6.3204    9.9202 O   0  0  0  0  0  0  0  0  0  0  0  0
    9.8727    4.4087   12.5218 H   0  0  0  0  0  0  0  0  0  0  0  0
   12.5517    4.2016   11.8250 C   0  0  0  0  0  0  0  0  0  0  0  0
   11.4501    4.2529   11.1716 N   0  0  0  0  0  0  0  0  0  0  0  0
   17.8065    4.2231   11.8220 Br  0  0  0  0  0  0  0  0  0  0  0  0
   16.1376    3.5428   11.2029 C   0  0  0  0  0  0  0  0  0  0  0  0
   16.0704    2.5219   10.2617 C   0  0  0  0  0  0  0  0  0  0  0  0
   14.8687    2.0262    9.8101 C   0  0  0  0  0  0  0  0  0  0  0  0
   13.7201    2.5792   10.3241 C   0  0  0  0  0  0  0  0  0  0  0  0
   13.7493    3.5980   11.2634 C   0  0  0  0  0  0  0  0  0  0  0  0
   14.9742    4.0637   11.6876 C   0  0  0  0  0  0  0  0  0  0  0  0
   17.2665    2.0015    9.7761 O   0  0  0  0  0  0  0  0  0  0  0  0
   17.2493    1.2566    9.0897 H   0  0  0  0  0  0  0  0  0  0  0  0
   14.8784    1.0161    8.8782 O   0  0  0  0  0  0  0  0  0  0  0  0
   14.1162    0.9403    7.7183 C   0  0  0  0  0  0  0  0  0  0  0  0
   13.0242   -0.0799    7.7437 C   0  0  0  0  0  0  0  0  0  0  0  0
    9.2870    8.5307   12.3873 C   0  0  0  0  0  0  0  0  0  0  0  0
    9.8136    8.5952   13.7270 N   0  0  0  0  0  0  0  0  0  0  0  0
   10.9530    7.6689   13.7203 C   0  0  0  0  0  0  0  0  0  0  0  0
   12.0340    8.0160   12.7755 C   0  0  0  0  0  0  0  0  0  0  0  0
   12.1535    9.3886   12.6226 O   0  0  0  0  0  0  0  0  0  0  0  0
   11.8259    9.9884   13.8194 C   0  0  0  0  0  0  0  0  0  0  0  0
   10.3197    9.9448   13.9871 C   0  0  0  0  0  0  0  0  0  0  0  0
 20 21  1  0  0  0
 21 22  2  0  0  0
 21 26  1  0  0  0
 22 23  1  0  0  0
 22 27  1  0  0  0
 23 24  2  0  0  0
 23 29  1  0  0  0
 24 25  1  0  0  0
 25 26  2  0  0  0
 25 18  1  0  0  0
 18 19  2  0  0  0
 19 14  1  0  0  0
 14 15  1  0  0  0
 15 16  2  0  0  0
 15  1  1  0  0  0
  1  2  1  0  0  0
  1  5  2  0  0  0
  2  3  2  0  0  0
  3  4  1  0  0  0
  4  5  1  0  0  0
  4  6  1  0  0  0
  5 32  1  0  0  0
 32 33  1  0  0  0
 33 34  1  0  0  0
 33 38  1  0  0  0
 34 35  1  0  0  0
 35 36  1  0  0  0
 36 37  1  0  0  0
 37 38  1  0  0  0
  6  7  2  0  0  0
  6 10  1  0  0  0
  7  8  1  0  0  0
  8  9  1  0  0  0
  9 10  2  0  0  0
 10 11  1  0  0  0
 29 30  1  0  0  0
 30 31  1  0  0  0
 14 17  1  0  0  0
 11 12  1  0  0  0
 11 13  1  0  0  0
 27 28  1  0  0  0
M  END
> <minimizedAffinity>
-9.11633

$$$$
18


 37 40  0  0  0  0  0  0  0  0999 V2000
    7.9497    6.4703   11.7554 C   0  0  0  0  0  0  0  0  0  0  0  0
    6.8126    6.2893   11.1818 N   0  0  0  0  0  0  0  0  0  0  0  0
    5.9079    7.0985   11.7061 N   0  0  0  0  0  0  0  0  0  0  0  0
    6.4831    7.8206   12.6569 N   0  0  0  0  0  0  0  0  0  0  0  0
    7.7641    7.5136   12.8031 C   0  0  0  0  0  0  0  0  0  0  0  0
    5.8713    9.0560   13.1022 C   0  0  0  0  0  0  0  0  0  0  0  0
    6.1702   10.2821   12.9871 N   0  0  0  0  0  0  0  0  0  0  0  0
    5.3108   11.0783   13.6241 O   0  0  0  0  0  0  0  0  0  0  0  0
    4.4342   10.3078   14.1589 N   0  0  0  0  0  0  0  0  0  0  0  0
    4.6857    9.0243   13.8990 C   0  0  0  0  0  0  0  0  0  0  0  0
    3.9692    7.8929   14.3230 N   0  0  0  0  0  0  0  0  0  0  0  0
    4.3406    7.2178   15.0151 H   0  0  0  0  0  0  0  0  0  0  0  0
    2.9816    7.6730   13.9587 H   0  0  0  0  0  0  0  0  0  0  0  0
   10.0172    5.0529   11.8421 N   0  0  0  0  0  0  0  0  0  0  0  0
    9.3342    6.2490   11.4024 C   0  0  0  0  0  0  0  0  0  0  0  0
    9.9023    7.0481   10.6592 O   0  0  0  0  0  0  0  0  0  0  0  0
   10.0354    4.3619   12.4663 H   0  0  0  0  0  0  0  0  0  0  0  0
   11.0009    3.5949   10.5531 C   0  0  0  0  0  0  0  0  0  0  0  0
   11.1808    4.9133   10.7587 N   0  0  0  0  0  0  0  0  0  0  0  0
   15.2205    1.4174    8.4529 Br  0  0  0  0  0  0  0  0  0  0  0  0
   13.3323    1.4318    8.8540 C   0  0  0  0  0  0  0  0  0  0  0  0
   12.5593    0.3660    8.4448 C   0  0  0  0  0  0  0  0  0  0  0  0
   11.2231    0.3403    8.7334 C   0  0  0  0  0  0  0  0  0  0  0  0
   10.6938    1.4021    9.4299 C   0  0  0  0  0  0  0  0  0  0  0  0
   11.4235    2.4952    9.8613 C   0  0  0  0  0  0  0  0  0  0  0  0
   12.8277    2.4594    9.5277 C   0  0  0  0  0  0  0  0  0  0  0  0
   13.1510   -0.6828    7.7350 O   0  0  0  0  0  0  0  0  0  0  0  0
   14.1626   -0.6024    7.4977 H   0  0  0  0  0  0  0  0  0  0  0  0
   10.4085   -0.7319    8.3500 O   0  0  0  0  0  0  0  0  0  0  0  0
    8.9929   -0.6548    8.6134 C   0  0  0  0  0  0  0  0  0  0  0  0
    8.8623    8.0565   13.5496 C   0  0  0  0  0  0  0  0  0  0  0  0
    9.0719    7.5719   14.9155 N   0  0  0  0  0  0  0  0  0  0  0  0
    8.0770    8.0475   15.8207 C   0  0  0  0  0  0  0  0  0  0  0  0
    8.1256    9.5236   16.0936 C   0  0  0  0  0  0  0  0  0  0  0  0
    9.2044    9.8078   16.9139 O   0  0  0  0  0  0  0  0  0  0  0  0
   10.1914    8.8232   16.7905 C   0  0  0  0  0  0  0  0  0  0  0  0
   10.2844    8.3824   15.3682 C   0  0  0  0  0  0  0  0  0  0  0  0
 20 21  1  0  0  0
 21 22  2  0  0  0
 21 26  1  0  0  0
 22 23  1  0  0  0
 22 27  1  0  0  0
 23 24  2  0  0  0
 23 29  1  0  0  0
 24 25  1  0  0  0
 25 26  2  0  0  0
 25 18  1  0  0  0
 18 19  2  0  0  0
 19 14  1  0  0  0
 14 15  1  0  0  0
 15 16  2  0  0  0
 15  1  1  0  0  0
  1  2  1  0  0  0
  1  5  2  0  0  0
  2  3  2  0  0  0
  3  4  1  0  0  0
  4  5  1  0  0  0
  4  6  1  0  0  0
  5 31  1  0  0  0
 31 32  1  0  0  0
 32 33  1  0  0  0
 32 37  1  0  0  0
 33 34  1  0  0  0
 34 35  1  0  0  0
 35 36  1  0  0  0
 36 37  1  0  0  0
  6  7  2  0  0  0
  6 10  1  0  0  0
  7  8  1  0  0  0
  8  9  1  0  0  0
  9 10  2  0  0  0
 10 11  1  0  0  0
 29 30  1  0  0  0
 14 17  1  0  0  0
 11 12  1  0  0  0
 11 13  1  0  0  0
 27 28  1  0  0  0
M  END
> <minimizedAffinity>
-9.46339

$$$$
20


 34 37  0  0  0  0  0  0  0  0999 V2000
    9.6442    5.9024   11.0304 C   0  0  0  0  0  0  0  0  0  0  0  0
    8.3613    6.2008   11.1092 N   0  0  0  0  0  0  0  0  0  0  0  0
    7.8966    7.0537   12.0665 C   0  0  0  0  0  0  0  0  0  0  0  0
    8.8291    7.5601   12.9078 N   0  0  0  0  0  0  0  0  0  0  0  0
   10.1480    7.2913   12.8767 C   0  0  0  0  0  0  0  0  0  0  0  0
   10.5394    6.4354   11.9059 N   0  0  0  0  0  0  0  0  0  0  0  0
   11.0602    7.9613   13.6730 N   0  0  0  0  0  0  0  0  0  0  0  0
   10.9107    9.1476   14.4237 C   0  0  0  0  0  0  0  0  0  0  0  0
   11.9021   10.1601   13.8430 C   0  0  0  0  0  0  0  0  0  0  0  0
   13.1536    9.5860   13.8781 O   0  0  0  0  0  0  0  0  0  0  0  0
   13.3032    8.4367   13.1364 C   0  0  0  0  0  0  0  0  0  0  0  0
   12.4086    7.3243   13.7551 C   0  0  0  0  0  0  0  0  0  0  0  0
    6.5449    7.4665   12.1310 N   0  0  0  0  0  0  0  0  0  0  0  0
    5.5984    7.0143   11.0987 C   0  0  0  0  0  0  0  0  0  0  0  0
    4.8249    8.2920   10.6825 C   0  0  0  0  0  0  0  0  0  0  0  0
    4.0839    8.6151   11.7832 O   0  0  0  0  0  0  0  0  0  0  0  0
    4.8241    9.0724   12.8371 C   0  0  0  0  0  0  0  0  0  0  0  0
    6.0853    8.3346   13.1458 C   0  0  0  0  0  0  0  0  0  0  0  0
   10.2622    5.1625    9.9055 N   0  0  0  0  0  0  0  0  0  0  0  0
   10.5070    5.7180    9.1094 H   0  0  0  0  0  0  0  0  0  0  0  0
   10.4653    2.7743   10.5010 C   0  0  0  0  0  0  0  0  0  0  0  0
   10.3748    3.8949   10.2118 N   0  0  0  0  0  0  0  0  0  0  0  0
   14.9834    0.9934    8.3844 Br  0  0  0  0  0  0  0  0  0  0  0  0
   13.0972    0.8416    8.7016 C   0  0  0  0  0  0  0  0  0  0  0  0
   12.3856   -0.1407    8.0699 C   0  0  0  0  0  0  0  0  0  0  0  0
   11.0131   -0.2384    8.2890 C   0  0  0  0  0  0  0  0  0  0  0  0
   10.3773    0.6568    9.1378 C   0  0  0  0  0  0  0  0  0  0  0  0
   11.0750    1.6470    9.7660 C   0  0  0  0  0  0  0  0  0  0  0  0
   12.4304    1.7146    9.5329 C   0  0  0  0  0  0  0  0  0  0  0  0
   13.0603   -1.0032    7.2324 O   0  0  0  0  0  0  0  0  0  0  0  0
   14.0317   -0.9487    7.0413 H   0  0  0  0  0  0  0  0  0  0  0  0
   10.3860   -1.2477    7.6278 O   0  0  0  0  0  0  0  0  0  0  0  0
    9.2479   -1.9560    7.9698 C   0  0  0  0  0  0  0  0  0  0  0  0
    8.3593   -2.2608    6.7728 C   0  0  0  0  0  0  0  0  0  0  0  0
 23 24  1  0  0  0
 24 25  2  0  0  0
 24 29  1  0  0  0
 25 26  1  0  0  0
 25 30  1  0  0  0
 26 27  2  0  0  0
 26 32  1  0  0  0
 27 28  1  0  0  0
 28 29  2  0  0  0
 28 21  1  0  0  0
 21 22  2  0  0  0
 22 19  1  0  0  0
 19  1  1  0  0  0
  1  2  2  0  0  0
  1  6  1  0  0  0
  2  3  1  0  0  0
  3  4  2  0  0  0
  3 13  1  0  0  0
  4  5  1  0  0  0
  5  6  2  0  0  0
  5  7  1  0  0  0
  7  8  1  0  0  0
  7 12  1  0  0  0
  8  9  1  0  0  0
  9 10  1  0  0  0
 10 11  1  0  0  0
 11 12  1  0  0  0
 13 14  1  0  0  0
 13 18  1  0  0  0
 14 15  1  0  0  0
 15 16  1  0  0  0
 16 17  1  0  0  0
 17 18  1  0  0  0
 32 33  1  0  0  0
 33 34  1  0  0  0
 19 20  1  0  0  0
 30 31  1  0  0  0
M  END
> <minimizedAffinity>
-9.22554

$$$$
23


 37 40  0  0  0  0  0  0  0  0999 V2000
   10.6546    7.4860   11.4610 C   0  0  0  0  0  0  0  0  0  0  0  0
   11.6095    8.0107   12.4143 N   0  0  0  0  0  0  0  0  0  0  0  0
   12.4226    7.0001   12.9381 C   0  0  0  0  0  0  0  0  0  0  0  0
   13.2417    7.1223   13.8610 O   0  0  0  0  0  0  0  0  0  0  0  0
   12.1305    5.7702   12.2009 C   0  0  0  0  0  0  0  0  0  0  0  0
   12.7050    4.6788   12.4474 O   0  0  0  0  0  0  0  0  0  0  0  0
   11.1173    6.0715   11.2125 C   0  0  0  0  0  0  0  0  0  0  0  0
   10.6691    5.2376   10.3134 C   0  0  0  0  0  0  0  0  0  0  0  0
    9.6475    5.6300    9.4635 O   0  0  0  0  0  0  0  0  0  0  0  0
   11.2092    3.9085   10.1641 C   0  0  0  0  0  0  0  0  0  0  0  0
   12.5209    3.8604    9.6746 C   0  0  0  0  0  0  0  0  0  0  0  0
   13.1751    2.6639    9.5154 C   0  0  0  0  0  0  0  0  0  0  0  0
   12.5447    1.4844    9.8362 C   0  0  0  0  0  0  0  0  0  0  0  0
   11.2504    1.5573   10.3165 C   0  0  0  0  0  0  0  0  0  0  0  0
   10.5784    2.7486   10.4844 C   0  0  0  0  0  0  0  0  0  0  0  0
   13.4391    0.4251    9.5764 O   0  0  0  0  0  0  0  0  0  0  0  0
   14.4784    0.9109    8.7327 C   0  0  0  0  0  0  0  0  0  0  0  0
   14.5586    2.3951    9.0064 C   0  0  0  0  0  0  0  0  0  0  0  0
   14.1482    0.7325    7.2628 C   0  0  0  0  0  0  0  0  0  0  0  0
    7.3736    6.0786   15.4522 Br  0  0  0  0  0  0  0  0  0  0  0  0
    7.7790    6.9445   13.8148 C   0  0  0  0  0  0  0  0  0  0  0  0
    6.7640    7.6494   13.1523 C   0  0  0  0  0  0  0  0  0  0  0  0
    7.0601    8.2833   11.9525 C   0  0  0  0  0  0  0  0  0  0  0  0
    8.3212    8.1971   11.4652 C   0  0  0  0  0  0  0  0  0  0  0  0
    9.3231    7.4999   12.1212 C   0  0  0  0  0  0  0  0  0  0  0  0
    9.0608    6.8631   13.3088 C   0  0  0  0  0  0  0  0  0  0  0  0
    5.4909    7.7289   13.6577 O   0  0  0  0  0  0  0  0  0  0  0  0
    4.7878    8.2302   13.1735 H   0  0  0  0  0  0  0  0  0  0  0  0
    6.0521    8.9873   11.2886 O   0  0  0  0  0  0  0  0  0  0  0  0
    4.9990    8.3620   10.6069 C   0  0  0  0  0  0  0  0  0  0  0  0
   11.6514    9.4216   12.7388 C   0  0  0  0  0  0  0  0  0  0  0  0
   11.2274    9.7993   14.0947 C   0  0  0  0  0  0  0  0  0  0  0  0
    9.8915   10.4229   14.2612 C   0  0  0  0  0  0  0  0  0  0  0  0
    9.3641   10.3470   15.6014 N   0  0  0  0  0  0  0  0  0  0  0  0
    9.8208    9.0958   16.2237 C   0  0  0  0  0  0  0  0  0  0  0  0
    7.9190   10.2629   15.4903 C   0  0  0  0  0  0  0  0  0  0  0  0
    9.5812   11.1470   16.2020 H   0  0  0  0  0  0  0  0  0  0  0  0
 20 21  1  0  0  0
 21 22  2  0  0  0
 21 26  1  0  0  0
 22 23  1  0  0  0
 22 27  1  0  0  0
 23 24  2  0  0  0
 23 29  1  0  0  0
 24 25  1  0  0  0
 25 26  2  0  0  0
 25  1  1  0  0  0
  1  2  1  0  0  0
  1  7  1  0  0  0
  2  3  1  0  0  0
  2 31  1  0  0  0
  3  4  2  0  0  0
  3  5  1  0  0  0
  5  6  2  0  0  0
  5  7  1  0  0  0
  7  8  2  0  0  0
  8  9  1  0  0  0
  8 10  1  0  0  0
 10 11  2  0  0  0
 10 15  1  0  0  0
 11 12  1  0  0  0
 12 13  2  0  0  0
 12 18  1  0  0  0
 13 14  1  0  0  0
 13 16  1  0  0  0
 14 15  2  0  0  0
 16 17  1  0  0  0
 17 18  1  0  0  0
 17 19  1  0  0  0
 31 32  1  0  0  0
 32 33  1  0  0  0
 33 34  1  0  0  0
 34 35  1  0  0  0
 34 36  1  0  0  0
 29 30  1  0  0  0
 34 37  1  0  0  0
 27 28  1  0  0  0
M  CHG 1   9  -1
M  CHG 1  34   1
M  END
> <minimizedAffinity>
-8.08262

$$$$
26


 29 32  0  0  0  0  0  0  0  0999 V2000
   11.3122    2.7912   11.4390 C   0  0  0  0  0  0  0  0  0  0  0  0
   10.2331    3.6383   11.1415 N   0  0  0  0  0  0  0  0  0  0  0  0
   10.3446    5.0251   11.3905 C   0  0  0  0  0  0  0  0  0  0  0  0
   11.4077    5.4219   12.3788 C   0  0  0  0  0  0  0  0  0  0  0  0
   12.6848    4.7096   12.1369 C   0  0  0  0  0  0  0  0  0  0  0  0
   13.9933    5.0836   12.2833 C   0  0  0  0  0  0  0  0  0  0  0  0
   14.7275    3.9769   11.8941 C   0  0  0  0  0  0  0  0  0  0  0  0
   13.8735    2.9832   11.5306 N   0  0  0  0  0  0  0  0  0  0  0  0
   12.6190    3.4292   11.6786 C   0  0  0  0  0  0  0  0  0  0  0  0
   16.1002    4.0913   11.9484 C   0  0  0  0  0  0  0  0  0  0  0  0
   16.7148    5.2514   12.3694 C   0  0  0  0  0  0  0  0  0  0  0  0
   15.9812    6.3539   12.7568 C   0  0  0  0  0  0  0  0  0  0  0  0
   14.6005    6.2558   12.7090 C   0  0  0  0  0  0  0  0  0  0  0  0
    9.8954    3.5113   10.1444 H   0  0  0  0  0  0  0  0  0  0  0  0
    9.3855    3.2858   11.6921 H   0  0  0  0  0  0  0  0  0  0  0  0
   14.2308    2.0591   11.2040 H   0  0  0  0  0  0  0  0  0  0  0  0
   14.6701    1.0399    7.6913 Br  0  0  0  0  0  0  0  0  0  0  0  0
   12.9995    0.9962    8.5971 C   0  0  0  0  0  0  0  0  0  0  0  0
   12.0325    0.0992    8.2117 C   0  0  0  0  0  0  0  0  0  0  0  0
   10.8304    0.0899    8.8871 C   0  0  0  0  0  0  0  0  0  0  0  0
   10.5340    0.9337    9.9355 C   0  0  0  0  0  0  0  0  0  0  0  0
   11.5091    1.8305   10.3170 C   0  0  0  0  0  0  0  0  0  0  0  0
   12.7190    1.8611    9.6593 C   0  0  0  0  0  0  0  0  0  0  0  0
    9.5040   -1.1623    8.3343 Br  0  0  0  0  0  0  0  0  0  0  0  0
   12.2577   -0.7976    7.1478 O   0  0  0  0  0  0  0  0  0  0  0  0
   13.1524   -0.7563    6.6802 H   0  0  0  0  0  0  0  0  0  0  0  0
   10.5786    5.8169   10.1515 C   0  0  0  0  0  0  0  0  0  0  0  0
   10.0080    6.9529   10.0180 O   0  0  0  0  0  0  0  0  0  0  0  0
   11.4060    5.3138    9.1607 O   0  0  0  0  0  0  0  0  0  0  0  0
 17 18  1  0  0  0
 18 19  2  0  0  0
 18 23  1  0  0  0
 19 20  1  0  0  0
 19 25  1  0  0  0
 20 21  2  0  0  0
 20 24  1  0  0  0
 21 22  1  0  0  0
 22 23  2  0  0  0
 22  1  1  0  0  0
  1  2  1  0  0  0
  1  9  1  0  0  0
  2  3  1  0  0  0
  3  4  1  0  0  0
  3 27  1  0  0  0
  4  5  1  0  0  0
  5  6  1  0  0  0
  5  9  2  0  0  0
  6  7  2  0  0  0
  6 13  1  0  0  0
  7  8  1  0  0  0
  7 10  1  0  0  0
  8  9  1  0  0  0
 10 11  2  0  0  0
 11 12  1  0  0  0
 12 13  2  0  0  0
 27 28  2  0  0  0
 27 29  1  0  0  0
  2 14  1  0  0  0
  2 15  1  0  0  0
  8 16  1  0  0  0
 25 26  1  0  0  0
M  CHG 1   2   1
M  END
> <minimizedAffinity>
-9.32326

$$$$
31


 24 27  0  0  0  0  0  0  0  0999 V2000
   15.3543    1.5022    9.9126 Br  0  0  0  0  0  0  0  0  0  0  0  0
   14.8850    3.1003   10.8693 C   0  0  0  0  0  0  0  0  0  0  0  0
   13.6676    3.6666   10.7341 C   0  0  0  0  0  0  0  0  0  0  0  0
   13.3537    4.8872   11.4002 C   0  0  0  0  0  0  0  0  0  0  0  0
   14.3179    5.4546   12.1590 C   0  0  0  0  0  0  0  0  0  0  0  0
   15.5615    4.8651   12.2750 C   0  0  0  0  0  0  0  0  0  0  0  0
   15.8574    3.6961   11.6435 C   0  0  0  0  0  0  0  0  0  0  0  0
   12.1682    5.5643   10.8393 C   0  0  0  0  0  0  0  0  0  0  0  0
   11.0764    5.9266   11.6464 N   0  0  0  0  0  0  0  0  0  0  0  0
   10.7215    5.2109   12.7663 C   0  0  0  0  0  0  0  0  0  0  0  0
    9.6447    5.8550   13.5148 N   0  0  0  0  0  0  0  0  0  0  0  0
    8.5077    5.9869   12.6187 C   0  0  0  0  0  0  0  0  0  0  0  0
    8.8472    6.7046   11.4074 N   0  0  0  0  0  0  0  0  0  0  0  0
    9.9289    6.1432   10.6999 C   0  0  0  0  0  0  0  0  0  0  0  0
    9.1455    8.0751   11.7680 C   0  0  0  0  0  0  0  0  0  0  0  0
   10.3020    8.0160   12.7342 C   0  0  0  0  0  0  0  0  0  0  0  0
   11.4275    7.3333   12.0494 C   0  0  0  0  0  0  0  0  0  0  0  0
    9.9778    7.1821   13.9708 C   0  0  0  0  0  0  0  0  0  0  0  0
   12.7122    3.0999    9.9683 O   0  0  0  0  0  0  0  0  0  0  0  0
   11.7833    2.1072   10.4488 C   0  0  0  0  0  0  0  0  0  0  0  0
   11.2777    1.1386    9.4798 C   0  0  0  0  0  0  0  0  0  0  0  0
   10.1424    1.1208    9.0259 O   0  0  0  0  0  0  0  0  0  0  0  0
   12.1762    0.1745    9.0091 O   0  0  0  0  0  0  0  0  0  0  0  0
   12.3098   -0.1501    7.6511 C   0  0  0  0  0  0  0  0  0  0  0  0
  1  2  1  0  0  0
  2  3  2  0  0  0
  2  7  1  0  0  0
  3  4  1  0  0  0
  3 19  1  0  0  0
  4  5  2  0  0  0
  4  8  1  0  0  0
  5  6  1  0  0  0
  6  7  2  0  0  0
  8  9  1  0  0  0
  9 10  1  0  0  0
  9 14  1  0  0  0
  9 17  1  0  0  0
 10 11  1  0  0  0
 11 12  1  0  0  0
 11 18  1  0  0  0
 12 13  1  0  0  0
 13 14  1  0  0  0
 13 15  1  0  0  0
 15 16  1  0  0  0
 16 17  1  0  0  0
 16 18  1  0  0  0
 19 20  1  0  0  0
 20 21  1  0  0  0
 21 22  2  0  0  0
 21 23  1  0  0  0
 23 24  1  0  0  0
M  CHG 1   9   1
M  END
> <minimizedAffinity>
-6.90225

$$$$
33


 33 36  0  0  0  0  0  0  0  0999 V2000
   11.7196    4.9215    9.8763 C   0  0  0  0  0  0  0  0  0  0  0  0
   11.2788    3.7222    9.5312 N   0  0  0  0  0  0  0  0  0  0  0  0
   11.9000    2.5697    9.8364 C   0  0  0  0  0  0  0  0  0  0  0  0
   13.0472    2.6689   10.5428 N   0  0  0  0  0  0  0  0  0  0  0  0
   13.5505    3.8723   10.9273 C   0  0  0  0  0  0  0  0  0  0  0  0
   12.8677    4.9924   10.5829 N   0  0  0  0  0  0  0  0  0  0  0  0
   14.7569    3.9621   11.6503 N   0  0  0  0  0  0  0  0  0  0  0  0
   15.9267    3.2219   11.2521 C   0  0  0  0  0  0  0  0  0  0  0  0
   17.0489    4.2648   11.1455 C   0  0  0  0  0  0  0  0  0  0  0  0
   17.1146    4.9751   12.3269 O   0  0  0  0  0  0  0  0  0  0  0  0
   15.9979    5.7984   12.4648 C   0  0  0  0  0  0  0  0  0  0  0  0
   14.8473    4.8252   12.8005 C   0  0  0  0  0  0  0  0  0  0  0  0
   11.3843    1.2896    9.4352 N   0  0  0  0  0  0  0  0  0  0  0  0
    9.9999    0.9537    9.6096 C   0  0  0  0  0  0  0  0  0  0  0  0
    9.5245   -0.2757    8.9390 C   0  0  0  0  0  0  0  0  0  0  0  0
   10.5327   -1.1392    8.5337 O   0  0  0  0  0  0  0  0  0  0  0  0
   11.5380   -0.4802    7.8393 C   0  0  0  0  0  0  0  0  0  0  0  0
   12.2929    0.3478    8.8502 C   0  0  0  0  0  0  0  0  0  0  0  0
   11.0104    6.0888    9.4799 N   0  0  0  0  0  0  0  0  0  0  0  0
   11.2932    6.5848    8.6265 H   0  0  0  0  0  0  0  0  0  0  0  0
    9.9651    6.6605   11.5202 C   0  0  0  0  0  0  0  0  0  0  0  0
    9.9489    6.5575   10.2358 N   0  0  0  0  0  0  0  0  0  0  0  0
    7.8892   10.0346   15.1390 Br  0  0  0  0  0  0  0  0  0  0  0  0
    7.7586    8.6265   13.8682 C   0  0  0  0  0  0  0  0  0  0  0  0
    6.5129    8.0627   13.6419 C   0  0  0  0  0  0  0  0  0  0  0  0
    6.4444    7.0374   12.7181 C   0  0  0  0  0  0  0  0  0  0  0  0
    7.5637    6.6006   12.0580 C   0  0  0  0  0  0  0  0  0  0  0  0
    8.8265    7.1538   12.2674 C   0  0  0  0  0  0  0  0  0  0  0  0
    8.8757    8.1741   13.1919 C   0  0  0  0  0  0  0  0  0  0  0  0
    7.4873    5.5610   11.1251 O   0  0  0  0  0  0  0  0  0  0  0  0
    5.3691    8.4981   14.3076 O   0  0  0  0  0  0  0  0  0  0  0  0
    6.5810    5.1368   10.9516 H   0  0  0  0  0  0  0  0  0  0  0  0
    5.3654    9.2453   14.9854 H   0  0  0  0  0  0  0  0  0  0  0  0
 23 24  1  0  0  0
 24 25  2  0  0  0
 24 29  1  0  0  0
 25 26  1  0  0  0
 25 31  1  0  0  0
 26 27  2  0  0  0
 27 28  1  0  0  0
 27 30  1  0  0  0
 28 29  2  0  0  0
 28 21  1  0  0  0
 21 22  2  0  0  0
 22 19  1  0  0  0
 19  1  1  0  0  0
  1  2  2  0  0  0
  1  6  1  0  0  0
  2  3  1  0  0  0
  3  4  2  0  0  0
  3 13  1  0  0  0
  4  5  1  0  0  0
  5  6  2  0  0  0
  5  7  1  0  0  0
  7  8  1  0  0  0
  7 12  1  0  0  0
  8  9  1  0  0  0
  9 10  1  0  0  0
 10 11  1  0  0  0
 11 12  1  0  0  0
 13 14  1  0  0  0
 13 18  1  0  0  0
 14 15  1  0  0  0
 15 16  1  0  0  0
 16 17  1  0  0  0
 17 18  1  0  0  0
 19 20  1  0  0  0
 30 32  1  0  0  0
 31 33  1  0  0  0
M  END
> <minimizedAffinity>
-8.99635

$$$$
35


 33 36  0  0  0  0  0  0  0  0999 V2000
    9.9000    5.5480   11.0916 C   0  0  0  0  0  0  0  0  0  0  0  0
    8.8000    6.2818   11.2840 N   0  0  0  0  0  0  0  0  0  0  0  0
    8.8503    7.5479   11.7773 C   0  0  0  0  0  0  0  0  0  0  0  0
   10.0464    8.0760   12.0811 N   0  0  0  0  0  0  0  0  0  0  0  0
   11.1694    7.3654   11.8992 C   0  0  0  0  0  0  0  0  0  0  0  0
   11.0787    6.0962   11.4016 N   0  0  0  0  0  0  0  0  0  0  0  0
   12.4450    7.9187   12.2216 N   0  0  0  0  0  0  0  0  0  0  0  0
   13.6068    7.7905   11.3749 C   0  0  0  0  0  0  0  0  0  0  0  0
   14.8248    7.4063   12.1875 C   0  0  0  0  0  0  0  0  0  0  0  0
   14.5367    7.2482   13.5348 O   0  0  0  0  0  0  0  0  0  0  0  0
   13.9866    8.4475   14.0275 C   0  0  0  0  0  0  0  0  0  0  0  0
   12.5925    8.6459   13.4662 C   0  0  0  0  0  0  0  0  0  0  0  0
    7.6297    8.2329   11.9452 N   0  0  0  0  0  0  0  0  0  0  0  0
    6.4705    7.5085   12.3923 C   0  0  0  0  0  0  0  0  0  0  0  0
    5.9991    8.2438   13.6568 C   0  0  0  0  0  0  0  0  0  0  0  0
    5.6564    9.5281   13.2327 O   0  0  0  0  0  0  0  0  0  0  0  0
    6.7708   10.2680   12.8518 C   0  0  0  0  0  0  0  0  0  0  0  0
    7.4993    9.6447   11.6783 C   0  0  0  0  0  0  0  0  0  0  0  0
    9.7793    4.2440   10.5689 N   0  0  0  0  0  0  0  0  0  0  0  0
    8.9124    3.7089   10.7843 H   0  0  0  0  0  0  0  0  0  0  0  0
   11.4723    2.6445   10.1991 C   0  0  0  0  0  0  0  0  0  0  0  0
   10.7982    3.6589    9.7671 N   0  0  0  0  0  0  0  0  0  0  0  0
   10.5621    0.0565    8.8437 Br  0  0  0  0  0  0  0  0  0  0  0  0
   12.3143    0.8054    8.7850 C   0  0  0  0  0  0  0  0  0  0  0  0
   13.3251    0.1717    8.0853 C   0  0  0  0  0  0  0  0  0  0  0  0
   14.5907    0.7374    8.0583 C   0  0  0  0  0  0  0  0  0  0  0  0
   14.8237    1.9174    8.7284 C   0  0  0  0  0  0  0  0  0  0  0  0
   13.7844    2.5221    9.4189 C   0  0  0  0  0  0  0  0  0  0  0  0
   12.5211    1.9842    9.4617 C   0  0  0  0  0  0  0  0  0  0  0  0
   16.1034    2.4473    8.6764 O   0  0  0  0  0  0  0  0  0  0  0  0
   13.0863   -1.0134    7.4143 O   0  0  0  0  0  0  0  0  0  0  0  0
   16.4223    3.0959    7.9696 H   0  0  0  0  0  0  0  0  0  0  0  0
   12.1537   -1.4040    7.4494 H   0  0  0  0  0  0  0  0  0  0  0  0
 23 24  1  0  0  0
 24 25  2  0  0  0
 24 29  1  0  0  0
 25 26  1  0  0  0
 25 31  1  0  0  0
 26 27  2  0  0  0
 27 28  1  0  0  0
 27 30  1  0  0  0
 28 29  2  0  0  0
 29 21  1  0  0  0
 21 22  2  0  0  0
 22 19  1  0  0  0
 19  1  1  0  0  0
  1  2  2  0  0  0
  1  6  1  0  0  0
  2  3  1  0  0  0
  3  4  2  0  0  0
  3 13  1  0  0  0
  4  5  1  0  0  0
  5  6  2  0  0  0
  5  7  1  0  0  0
  7  8  1  0  0  0
  7 12  1  0  0  0
  8  9  1  0  0  0
  9 10  1  0  0  0
 10 11  1  0  0  0
 11 12  1  0  0  0
 13 14  1  0  0  0
 13 18  1  0  0  0
 14 15  1  0  0  0
 15 16  1  0  0  0
 16 17  1  0  0  0
 17 18  1  0  0  0
 19 20  1  0  0  0
 30 32  1  0  0  0
 31 33  1  0  0  0
M  END
> <minimizedAffinity>
-9.21111

$$$$
37


 27 30  0  0  0  0  0  0  0  0999 V2000
   11.3484    4.2401   10.8054 N   0  0  0  0  0  0  0  0  0  0  0  0
   10.4053    5.2687   10.4349 C   0  0  0  0  0  0  0  0  0  0  0  0
   10.0661    5.8772   11.7781 C   0  0  0  0  0  0  0  0  0  0  0  0
   11.4463    6.0087   12.3976 C   0  0  0  0  0  0  0  0  0  0  0  0
   12.0410    4.7240   11.9419 C   0  0  0  0  0  0  0  0  0  0  0  0
   13.0124    4.1633   12.4921 O   0  0  0  0  0  0  0  0  0  0  0  0
   12.0610   -1.0437    7.7883 Br  0  0  0  0  0  0  0  0  0  0  0  0
   11.8516    0.6035    8.7241 C   0  0  0  0  0  0  0  0  0  0  0  0
   10.6026    0.9153    9.2478 C   0  0  0  0  0  0  0  0  0  0  0  0
   10.4781    2.1021    9.9169 C   0  0  0  0  0  0  0  0  0  0  0  0
   11.4967    3.0101   10.1090 C   0  0  0  0  0  0  0  0  0  0  0  0
   12.7357    2.6589    9.5670 C   0  0  0  0  0  0  0  0  0  0  0  0
   12.9121    1.4720    8.8832 C   0  0  0  0  0  0  0  0  0  0  0  0
    9.4789   -0.0418    9.0579 C   0  0  0  0  0  0  0  0  0  0  0  0
    9.3949    7.1868   11.6434 C   0  0  0  0  0  0  0  0  0  0  0  0
    9.4551    7.8424   10.5757 O   0  0  0  0  0  0  0  0  0  0  0  0
    8.6741    7.7017   12.7409 N   0  0  0  0  0  0  0  0  0  0  0  0
    8.6203    7.1681   13.6267 H   0  0  0  0  0  0  0  0  0  0  0  0
    8.0011    8.9745   12.6527 C   0  0  0  0  0  0  0  0  0  0  0  0
    6.5534    8.7985   12.3479 C   0  0  0  0  0  0  0  0  0  0  0  0
    5.4978    9.0205   13.1707 N   0  0  0  0  0  0  0  0  0  0  0  0
    4.3567    8.7461   12.5167 C   0  0  0  0  0  0  0  0  0  0  0  0
    4.7414    8.3525   11.2759 N   0  0  0  0  0  0  0  0  0  0  0  0
    6.0545    8.3824   11.1729 N   0  0  0  0  0  0  0  0  0  0  0  0
    3.1665    8.9807   13.3986 C   0  0  0  0  0  0  0  0  0  0  0  0
    3.7982    9.0650   14.7702 C   0  0  0  0  0  0  0  0  0  0  0  0
    5.2409    9.4580   14.5309 C   0  0  0  0  0  0  0  0  0  0  0  0
  7  8  1  0  0  0
  8  9  2  0  0  0
  8 13  1  0  0  0
  9 10  1  0  0  0
  9 14  1  0  0  0
 10 11  2  0  0  0
 11 12  1  0  0  0
 11  1  1  0  0  0
 12 13  2  0  0  0
  1  2  1  0  0  0
  1  5  1  0  0  0
  2  3  1  0  0  0
  3  4  1  0  0  0
  3 15  1  0  0  0
  4  5  1  0  0  0
  5  6  2  0  0  0
 15 16  2  0  0  0
 15 17  1  0  0  0
 17 19  1  0  0  0
 19 20  1  0  0  0
 20 21  1  0  0  0
 20 24  2  0  0  0
 21 22  1  0  0  0
 21 27  1  0  0  0
 22 23  2  0  0  0
 22 25  1  0  0  0
 23 24  1  0  0  0
 25 26  1  0  0  0
 26 27  1  0  0  0
 17 18  1  0  0  0
M  END
> <minimizedAffinity>
-9.14984

$$$$
39


 21 23  0  0  0  0  0  0  0  0999 V2000
   11.2006    3.7894   11.2497 N   0  0  0  0  0  0  0  0  0  0  0  0
   11.0658    5.0863   10.7516 C   0  0  0  0  0  0  0  0  0  0  0  0
   11.0212    5.3105    9.5336 O   0  0  0  0  0  0  0  0  0  0  0  0
   11.2289    3.6997   12.3091 H   0  0  0  0  0  0  0  0  0  0  0  0
   14.0631    2.8835   11.1008 Br  0  0  0  0  0  0  0  0  0  0  0  0
   12.5540    1.9687   10.3388 C   0  0  0  0  0  0  0  0  0  0  0  0
   11.3046    2.5760   10.5313 C   0  0  0  0  0  0  0  0  0  0  0  0
   10.2405    1.8993    9.9740 C   0  0  0  0  0  0  0  0  0  0  0  0
   10.4143    0.7018    9.2760 C   0  0  0  0  0  0  0  0  0  0  0  0
   11.6488    0.1260    9.1003 C   0  0  0  0  0  0  0  0  0  0  0  0
   12.7178    0.7915    9.6505 C   0  0  0  0  0  0  0  0  0  0  0  0
   11.8148   -1.1555    8.3494 C   0  0  0  0  0  0  0  0  0  0  0  0
   10.9747    6.2110   11.7030 C   0  0  0  0  0  0  0  0  0  0  0  0
    9.6710    6.4995   12.2060 N   0  0  0  0  0  0  0  0  0  0  0  0
    9.4799    7.9563   12.1311 C   0  0  0  0  0  0  0  0  0  0  0  0
    7.9933    8.2074   12.0796 C   0  0  0  0  0  0  0  0  0  0  0  0
    7.3903    7.2415   12.9973 N   0  0  0  0  0  0  0  0  0  0  0  0
    7.3136    5.9895   12.2503 C   0  0  0  0  0  0  0  0  0  0  0  0
    8.6050    5.8371   11.4591 C   0  0  0  0  0  0  0  0  0  0  0  0
    8.2984    7.0103   14.1096 C   0  0  0  0  0  0  0  0  0  0  0  0
    9.4778    6.1644   13.6021 C   0  0  0  0  0  0  0  0  0  0  0  0
  5  6  1  0  0  0
  6  7  2  0  0  0
  6 11  1  0  0  0
  7  8  1  0  0  0
  7  1  1  0  0  0
  8  9  2  0  0  0
  9 10  1  0  0  0
 10 11  2  0  0  0
 10 12  1  0  0  0
  1  2  1  0  0  0
  2  3  2  0  0  0
  2 13  1  0  0  0
 13 14  1  0  0  0
 14 15  1  0  0  0
 14 19  1  0  0  0
 14 21  1  0  0  0
 15 16  1  0  0  0
 16 17  1  0  0  0
 17 18  1  0  0  0
 17 20  1  0  0  0
 18 19  1  0  0  0
 20 21  1  0  0  0
  1  4  1  0  0  0
M  CHG 1  14   1
M  END
> <minimizedAffinity>
-7.13557

$$$$
56


 24 27  0  0  0  0  0  0  0  0999 V2000
    6.4157    8.3874   13.7727 C   0  0  0  0  0  0  0  0  0  0  0  0
    7.5312    8.3090   12.9371 C   0  0  0  0  0  0  0  0  0  0  0  0
    8.6466    7.3571   12.6818 C   0  0  0  0  0  0  0  0  0  0  0  0
    7.9683    6.6920   11.5409 N   0  0  0  0  0  0  0  0  0  0  0  0
    6.7130    6.5730   11.8412 C   0  0  0  0  0  0  0  0  0  0  0  0
    6.5348    7.1275   13.1464 C   0  0  0  0  0  0  0  0  0  0  0  0
    5.6965    5.9855   10.9985 N   0  0  0  0  0  0  0  0  0  0  0  0
    9.7389    8.0868   12.2000 O   0  0  0  0  0  0  0  0  0  0  0  0
   10.8366    7.7156   12.9520 C   0  0  0  0  0  0  0  0  0  0  0  0
   10.4471    6.3268   13.4297 C   0  0  0  0  0  0  0  0  0  0  0  0
    9.0659    6.5462   13.6580 O   0  0  0  0  0  0  0  0  0  0  0  0
    5.9084    5.1714   10.3908 H   0  0  0  0  0  0  0  0  0  0  0  0
    4.7330    6.3684   10.9857 H   0  0  0  0  0  0  0  0  0  0  0  0
    3.9384    7.8069   15.6947 Br  0  0  0  0  0  0  0  0  0  0  0  0
    5.6960    8.3810   16.1689 C   0  0  0  0  0  0  0  0  0  0  0  0
    6.6689    8.5856   15.2234 C   0  0  0  0  0  0  0  0  0  0  0  0
    7.9259    8.9926   15.6028 C   0  0  0  0  0  0  0  0  0  0  0  0
    8.2470    9.2083   16.9361 C   0  0  0  0  0  0  0  0  0  0  0  0
    7.2879    9.0090   17.8996 C   0  0  0  0  0  0  0  0  0  0  0  0
    6.0112    8.5947   17.5040 C   0  0  0  0  0  0  0  0  0  0  0  0
    6.9185    6.0758   14.1356 C   0  0  0  0  0  0  0  0  0  0  0  0
    7.1965    5.2364   14.9220 N   0  0  0  0  0  0  0  0  0  0  0  0
    7.3398    9.0764   11.6548 C   0  0  0  0  0  0  0  0  0  0  0  0
    7.1965    9.6962   10.6594 N   0  0  0  0  0  0  0  0  0  0  0  0
 14 15  1  0  0  0
 15 16  2  0  0  0
 15 20  1  0  0  0
 16 17  1  0  0  0
 16  1  1  0  0  0
 17 18  2  0  0  0
 18 19  1  0  0  0
 19 20  2  0  0  0
  1  2  1  0  0  0
  1  6  1  0  0  0
  2  3  1  0  0  0
  2  6  1  0  0  0
  2 23  1  0  0  0
  3  4  1  0  0  0
  3  8  1  0  0  0
  3 11  1  0  0  0
  4  5  2  0  0  0
  5  6  1  0  0  0
  5  7  1  0  0  0
  6 21  1  0  0  0
 21 22  3  0  0  0
  8  9  1  0  0  0
  9 10  1  0  0  0
 10 11  1  0  0  0
 23 24  3  0  0  0
  7 12  1  0  0  0
  7 13  1  0  0  0
M  END
> <minimizedAffinity>
-6.34666

$$$$
64


 22 25  0  0  0  0  0  0  0  0999 V2000
    5.5128    9.1281   14.9313 N   0  0  0  0  0  0  0  0  0  0  0  0
    5.6894    7.8452   14.3526 C   0  0  0  0  0  0  0  0  0  0  0  0
    5.7491    6.7857   15.0013 O   0  0  0  0  0  0  0  0  0  0  0  0
    5.7922    7.9350   12.8779 C   0  0  0  0  0  0  0  0  0  0  0  0
    7.1231    7.5206   12.3541 C   0  0  0  0  0  0  0  0  0  0  0  0
    7.5548    8.5964   11.5337 O   0  0  0  0  0  0  0  0  0  0  0  0
    7.3689    9.6154   12.5038 C   0  0  0  0  0  0  0  0  0  0  0  0
    5.8508    9.4560   12.6499 C   0  0  0  0  0  0  0  0  0  0  0  0
    5.3546   10.0877   13.8817 C   0  0  0  0  0  0  0  0  0  0  0  0
    4.8787   11.2349   14.0257 O   0  0  0  0  0  0  0  0  0  0  0  0
    8.0969    9.0335   13.6512 C   0  0  0  0  0  0  0  0  0  0  0  0
    8.1062    7.7139   13.4644 C   0  0  0  0  0  0  0  0  0  0  0  0
    2.8046    8.6088   16.3192 Br  0  0  0  0  0  0  0  0  0  0  0  0
    4.3911    9.3573   17.1165 C   0  0  0  0  0  0  0  0  0  0  0  0
    5.4916    9.4990   16.3022 C   0  0  0  0  0  0  0  0  0  0  0  0
    6.6214   10.0440   16.9027 C   0  0  0  0  0  0  0  0  0  0  0  0
    6.6437   10.4203   18.2318 C   0  0  0  0  0  0  0  0  0  0  0  0
    5.5132   10.2623   19.0252 C   0  0  0  0  0  0  0  0  0  0  0  0
    4.3955    9.7265   18.4432 C   0  0  0  0  0  0  0  0  0  0  0  0
    7.2165    6.2147   11.6848 C   0  0  0  0  0  0  0  0  0  0  0  0
    6.0058    5.9849   11.0046 O   0  0  0  0  0  0  0  0  0  0  0  0
    5.2962    5.7386   11.6673 H   0  0  0  0  0  0  0  0  0  0  0  0
 13 14  1  0  0  0
 14 15  2  0  0  0
 14 19  1  0  0  0
 15 16  1  0  0  0
 15  1  1  0  0  0
 16 17  2  0  0  0
 17 18  1  0  0  0
 18 19  2  0  0  0
  1  2  1  0  0  0
  1  9  1  0  0  0
  2  3  2  0  0  0
  2  4  1  0  0  0
  4  5  1  0  0  0
  4  8  1  0  0  0
  5  6  1  0  0  0
  5 12  1  0  0  0
  5 20  1  0  0  0
  6  7  1  0  0  0
  7  8  1  0  0  0
  7 11  1  0  0  0
  8  9  1  0  0  0
  9 10  2  0  0  0
 11 12  2  0  0  0
 20 21  1  0  0  0
 21 22  1  0  0  0
M  END
> <minimizedAffinity>
-7.38287

$$$$
67


 22 25  0  0  0  0  0  0  0  0999 V2000
   12.1647    2.0814    9.6078 N   0  0  0  0  0  0  0  0  0  0  0  0
   13.6055    1.9218    9.8829 C   0  0  0  0  0  0  0  0  0  0  0  0
   13.8576    3.0394   10.7834 C   0  0  0  0  0  0  0  0  0  0  0  0
   13.5892    2.8087   12.1433 O   0  0  0  0  0  0  0  0  0  0  0  0
   13.7727    4.1550   12.5570 C   0  0  0  0  0  0  0  0  0  0  0  0
   12.6202    4.7686   11.7502 C   0  0  0  0  0  0  0  0  0  0  0  0
   12.9043    4.1848   10.4015 C   0  0  0  0  0  0  0  0  0  0  0  0
   11.8228    3.4537    9.7620 C   0  0  0  0  0  0  0  0  0  0  0  0
   10.7352    3.9408    9.3898 O   0  0  0  0  0  0  0  0  0  0  0  0
   15.1006    4.4500   11.9427 C   0  0  0  0  0  0  0  0  0  0  0  0
   15.1899    3.6287   10.8726 C   0  0  0  0  0  0  0  0  0  0  0  0
   13.2122    0.0055    7.4603 Br  0  0  0  0  0  0  0  0  0  0  0  0
   11.5402    0.0783    8.3276 C   0  0  0  0  0  0  0  0  0  0  0  0
   11.2412    1.0644    9.2519 C   0  0  0  0  0  0  0  0  0  0  0  0
    9.9720    0.9932    9.8124 C   0  0  0  0  0  0  0  0  0  0  0  0
    9.0544    0.0248    9.4913 C   0  0  0  0  0  0  0  0  0  0  0  0
    9.3676   -0.9351    8.5820 C   0  0  0  0  0  0  0  0  0  0  0  0
   10.6071   -0.9083    8.0006 C   0  0  0  0  0  0  0  0  0  0  0  0
   11.3811    4.1591   12.3294 C   0  0  0  0  0  0  0  0  0  0  0  0
   11.3556    3.0200   12.8172 O   0  0  0  0  0  0  0  0  0  0  0  0
   10.2096    4.9056   12.3168 O   0  0  0  0  0  0  0  0  0  0  0  0
   10.2960    6.3101   12.0476 C   0  0  0  0  0  0  0  0  0  0  0  0
 12 13  1  0  0  0
 13 14  2  0  0  0
 13 18  1  0  0  0
 14 15  1  0  0  0
 14  1  1  0  0  0
 15 16  2  0  0  0
 16 17  1  0  0  0
 17 18  2  0  0  0
  1  2  1  0  0  0
  1  8  1  0  0  0
  2  3  1  0  0  0
  3  4  1  0  0  0
  3  7  1  0  0  0
  3 11  1  0  0  0
  4  5  1  0  0  0
  5  6  1  0  0  0
  5 10  1  0  0  0
  6  7  1  0  0  0
  6 19  1  0  0  0
  7  8  1  0  0  0
  8  9  2  0  0  0
 19 20  2  0  0  0
 19 21  1  0  0  0
 21 22  1  0  0  0
 10 11  2  0  0  0
M  END
> <minimizedAffinity>
-7.47779

$$$$
81


 22 25  0  0  0  0  0  0  0  0999 V2000
   11.6450    4.1574   11.5835 C   0  0  0  0  0  0  0  0  0  0  0  0
   11.4968    5.1980   10.7437 N   0  0  0  0  0  0  0  0  0  0  0  0
   10.5571    6.0190   11.2163 N   0  0  0  0  0  0  0  0  0  0  0  0
   10.0825    5.5179   12.3748 C   0  0  0  0  0  0  0  0  0  0  0  0
   10.7659    4.3761   12.5771 N   0  0  0  0  0  0  0  0  0  0  0  0
    9.0926    6.2045   13.0509 C   0  0  0  0  0  0  0  0  0  0  0  0
    8.5673    7.3923   12.5836 C   0  0  0  0  0  0  0  0  0  0  0  0
    7.6229    7.8468   13.4313 N   0  0  0  0  0  0  0  0  0  0  0  0
    7.5374    6.9791   14.4210 N   0  0  0  0  0  0  0  0  0  0  0  0
    8.4204    5.9548   14.2298 C   0  0  0  0  0  0  0  0  0  0  0  0
    6.8241    9.0564   13.3198 C   0  0  0  0  0  0  0  0  0  0  0  0
    9.0677    7.8573   11.4246 N   0  0  0  0  0  0  0  0  0  0  0  0
   10.0421    7.1764   10.7646 C   0  0  0  0  0  0  0  0  0  0  0  0
   12.5926    2.9983   11.4394 C   0  0  0  0  0  0  0  0  0  0  0  0
   12.4159   -0.6875    7.5495 Br  0  0  0  0  0  0  0  0  0  0  0  0
   11.9657    0.5109    8.9520 C   0  0  0  0  0  0  0  0  0  0  0  0
   12.8198    1.3511    9.6180 C   0  0  0  0  0  0  0  0  0  0  0  0
   12.0791    2.0084   10.5212 N   0  0  0  0  0  0  0  0  0  0  0  0
   10.8254    1.6092   10.4338 N   0  0  0  0  0  0  0  0  0  0  0  0
   10.7057    0.6723    9.4657 C   0  0  0  0  0  0  0  0  0  0  0  0
    9.4387   -0.0340    9.0553 C   0  0  0  0  0  0  0  0  0  0  0  0
   14.2890    1.4757    9.3533 C   0  0  0  0  0  0  0  0  0  0  0  0
 15 16  1  0  0  0
 16 17  2  0  0  0
 16 20  1  0  0  0
 17 18  1  0  0  0
 17 22  1  0  0  0
 18 19  1  0  0  0
 18 14  1  0  0  0
 19 20  2  0  0  0
 20 21  1  0  0  0
 14  1  1  0  0  0
  1  2  2  0  0  0
  1  5  1  0  0  0
  2  3  1  0  0  0
  3  4  1  0  0  0
  3 13  1  0  0  0
  4  5  2  0  0  0
  4  6  1  0  0  0
  6  7  2  0  0  0
  6 10  1  0  0  0
  7  8  1  0  0  0
  7 12  1  0  0  0
  8  9  1  0  0  0
  8 11  1  0  0  0
  9 10  2  0  0  0
 12 13  2  0  0  0
M  END
> <minimizedAffinity>
-7.70432

$$$$
85


 26 29  0  0  0  0  0  0  0  0999 V2000
   10.6850    6.0645   11.5399 C   0  0  0  0  0  0  0  0  0  0  0  0
    9.2799    6.1128   11.4383 C   0  0  0  0  0  0  0  0  0  0  0  0
    8.4096    5.2964   10.7847 N   0  0  0  0  0  0  0  0  0  0  0  0
    7.2166    5.7630   10.9963 O   0  0  0  0  0  0  0  0  0  0  0  0
    7.2663    6.8232   11.7412 N   0  0  0  0  0  0  0  0  0  0  0  0
    8.5415    7.0910   12.0505 C   0  0  0  0  0  0  0  0  0  0  0  0
    9.1207    8.0911   12.8049 C   0  0  0  0  0  0  0  0  0  0  0  0
   10.4984    8.0406   12.9019 C   0  0  0  0  0  0  0  0  0  0  0  0
   11.2593    7.0503   12.2836 C   0  0  0  0  0  0  0  0  0  0  0  0
    8.3764    9.1025   13.4386 N   0  0  0  0  0  0  0  0  0  0  0  0
    7.9260    8.8778   14.8096 C   0  0  0  0  0  0  0  0  0  0  0  0
    7.0030    9.9693   15.2769 C   0  0  0  0  0  0  0  0  0  0  0  0
    6.1167   10.4328   14.3617 O   0  0  0  0  0  0  0  0  0  0  0  0
    6.4697   10.4158   13.0440 C   0  0  0  0  0  0  0  0  0  0  0  0
    7.9783   10.3750   12.9170 C   0  0  0  0  0  0  0  0  0  0  0  0
   11.6711    3.7731   11.4204 C   0  0  0  0  0  0  0  0  0  0  0  0
   11.3681    3.5218   12.6460 O   0  0  0  0  0  0  0  0  0  0  0  0
   11.3431    5.0062   10.8640 N   0  0  0  0  0  0  0  0  0  0  0  0
   11.6114    5.1289    9.8414 H   0  0  0  0  0  0  0  0  0  0  0  0
   15.1641    3.4601   11.2591 Br  0  0  0  0  0  0  0  0  0  0  0  0
   13.6946    2.4803   10.5330 C   0  0  0  0  0  0  0  0  0  0  0  0
   12.3636    2.6954   10.6835 C   0  0  0  0  0  0  0  0  0  0  0  0
   11.6865    1.7180    9.9887 N   0  0  0  0  0  0  0  0  0  0  0  0
   12.5921    0.9497    9.4434 N   0  0  0  0  0  0  0  0  0  0  0  0
   13.8320    1.3370    9.7205 C   0  0  0  0  0  0  0  0  0  0  0  0
   10.2578    1.5757    9.8845 C   0  0  0  0  0  0  0  0  0  0  0  0
 20 21  1  0  0  0
 21 22  2  0  0  0
 21 25  1  0  0  0
 22 23  1  0  0  0
 22 16  1  0  0  0
 23 24  1  0  0  0
 23 26  1  0  0  0
 24 25  2  0  0  0
 16 17  2  0  0  0
 16 18  1  0  0  0
 18  1  1  0  0  0
  1  2  1  0  0  0
  1  9  2  0  0  0
  2  3  2  0  0  0
  2  6  1  0  0  0
  3  4  1  0  0  0
  4  5  1  0  0  0
  5  6  2  0  0  0
  6  7  1  0  0  0
  7  8  2  0  0  0
  7 10  1  0  0  0
  8  9  1  0  0  0
 10 11  1  0  0  0
 10 15  1  0  0  0
 11 12  1  0  0  0
 12 13  1  0  0  0
 13 14  1  0  0  0
 14 15  1  0  0  0
 18 19  1  0  0  0
M  END
> <minimizedAffinity>
-8.19416

$$$$
95


 26 29  0  0  0  0  0  0  0  0999 V2000
   10.5834    5.3072   10.0251 C   0  0  0  0  0  0  0  0  0  0  0  0
    9.9791    5.7817    9.0095 O   0  0  0  0  0  0  0  0  0  0  0  0
   10.6488    3.9820   10.3835 N   0  0  0  0  0  0  0  0  0  0  0  0
    9.8869    3.6401    9.3080 H   0  0  0  0  0  0  0  0  0  0  0  0
   15.1152    7.6683   11.6606 Br  0  0  0  0  0  0  0  0  0  0  0  0
   13.2370    7.4343   11.6942 C   0  0  0  0  0  0  0  0  0  0  0  0
   12.6447    6.4818   10.8563 C   0  0  0  0  0  0  0  0  0  0  0  0
   11.2827    6.3257   10.8953 C   0  0  0  0  0  0  0  0  0  0  0  0
   10.5075    7.0828   11.7332 C   0  0  0  0  0  0  0  0  0  0  0  0
   11.0974    8.0392   12.5771 C   0  0  0  0  0  0  0  0  0  0  0  0
   12.4681    8.1972   12.5386 C   0  0  0  0  0  0  0  0  0  0  0  0
    9.1072    6.8726   11.7146 N   0  0  0  0  0  0  0  0  0  0  0  0
    8.2384    7.7633   11.2764 N   0  0  0  0  0  0  0  0  0  0  0  0
    7.0088    7.3050   11.3740 N   0  0  0  0  0  0  0  0  0  0  0  0
    7.0634    6.0865   11.8869 N   0  0  0  0  0  0  0  0  0  0  0  0
    8.3582    5.8268   12.0947 C   0  0  0  0  0  0  0  0  0  0  0  0
   10.7132    2.6644   10.7392 C   0  0  0  0  0  0  0  0  0  0  0  0
   11.4934    1.7985    9.7640 C   0  0  0  0  0  0  0  0  0  0  0  0
   10.9998    0.7176    9.1212 N   0  0  0  0  0  0  0  0  0  0  0  0
   11.9398    0.1780    8.3347 C   0  0  0  0  0  0  0  0  0  0  0  0
   13.0318    0.9416    8.4955 N   0  0  0  0  0  0  0  0  0  0  0  0
   12.7631    1.9273    9.3642 N   0  0  0  0  0  0  0  0  0  0  0  0
   11.6596   -0.9579    7.5636 C   0  0  0  0  0  0  0  0  0  0  0  0
   10.4185   -1.5299    7.6060 C   0  0  0  0  0  0  0  0  0  0  0  0
    9.4495   -0.9730    8.4170 C   0  0  0  0  0  0  0  0  0  0  0  0
    9.7607    0.1512    9.1679 C   0  0  0  0  0  0  0  0  0  0  0  0
  5  6  1  0  0  0
  6  7  2  0  0  0
  6 11  1  0  0  0
  7  8  1  0  0  0
  8  9  2  0  0  0
  8  1  1  0  0  0
  9 10  1  0  0  0
  9 12  1  0  0  0
 10 11  2  0  0  0
 12 13  1  0  0  0
 12 16  1  0  0  0
 13 14  2  0  0  0
 14 15  1  0  0  0
 15 16  2  0  0  0
  1  2  2  0  0  0
  1  3  1  0  0  0
  3 17  1  0  0  0
 17 18  1  0  0  0
 18 19  1  0  0  0
 18 22  2  0  0  0
 19 20  1  0  0  0
 19 26  1  0  0  0
 20 21  2  0  0  0
 20 23  1  0  0  0
 21 22  1  0  0  0
 23 24  2  0  0  0
 24 25  1  0  0  0
 25 26  2  0  0  0
  3  4  1  0  0  0
M  END
> <minimizedAffinity>
-9.03375

$$$$
106


 29 32  0  0  0  0  0  0  0  0999 V2000
   16.2679    2.8256   10.3396 C   0  0  0  0  0  0  0  0  0  0  0  0
   15.1534    2.2589    9.9683 C   0  0  0  0  0  0  0  0  0  0  0  0
   13.9076    2.5538   10.4998 O   0  0  0  0  0  0  0  0  0  0  0  0
   12.9073    1.7980    9.9175 C   0  0  0  0  0  0  0  0  0  0  0  0
   13.4313    0.9544    8.9646 C   0  0  0  0  0  0  0  0  0  0  0  0
   12.6032    0.1071    8.2589 C   0  0  0  0  0  0  0  0  0  0  0  0
   11.2490    0.1124    8.5178 C   0  0  0  0  0  0  0  0  0  0  0  0
   10.7380    0.9850    9.4988 C   0  0  0  0  0  0  0  0  0  0  0  0
   11.5356    1.8309   10.2064 C   0  0  0  0  0  0  0  0  0  0  0  0
    9.3467    0.8794    9.6542 O   0  0  0  0  0  0  0  0  0  0  0  0
   14.8731    1.2235    8.9690 C   0  0  0  0  0  0  0  0  0  0  0  0
   15.7326    0.6705    8.2478 O   0  0  0  0  0  0  0  0  0  0  0  0
   14.1795    6.9743   13.0763 Br  0  0  0  0  0  0  0  0  0  0  0  0
   15.5400    5.7224   12.6177 C   0  0  0  0  0  0  0  0  0  0  0  0
   15.4166    4.7439   11.6738 C   0  0  0  0  0  0  0  0  0  0  0  0
   16.4165    3.8499   11.3596 C   0  0  0  0  0  0  0  0  0  0  0  0
   17.6190    3.9735   12.0622 C   0  0  0  0  0  0  0  0  0  0  0  0
   17.7991    4.9340   13.0191 C   0  0  0  0  0  0  0  0  0  0  0  0
   16.7539    5.8081   13.2932 C   0  0  0  0  0  0  0  0  0  0  0  0
   18.6397    3.0924   11.7626 O   0  0  0  0  0  0  0  0  0  0  0  0
   19.8916    3.5715   11.3466 C   0  0  0  0  0  0  0  0  0  0  0  0
   11.0681    2.7548   11.2029 C   0  0  0  0  0  0  0  0  0  0  0  0
   11.5756    4.0591   11.3327 N   0  0  0  0  0  0  0  0  0  0  0  0
   11.4323    4.9050   10.1792 C   0  0  0  0  0  0  0  0  0  0  0  0
   10.0752    5.5523   10.0543 C   0  0  0  0  0  0  0  0  0  0  0  0
    9.1641    5.1202   11.0083 O   0  0  0  0  0  0  0  0  0  0  0  0
    9.7202    5.4239   12.2462 C   0  0  0  0  0  0  0  0  0  0  0  0
   11.0312    4.7591   12.5104 C   0  0  0  0  0  0  0  0  0  0  0  0
   12.5908    4.0093   11.5565 H   0  0  0  0  0  0  0  0  0  0  0  0
 13 14  1  0  0  0
 14 15  2  0  0  0
 14 19  1  0  0  0
 15 16  1  0  0  0
 16 17  2  0  0  0
 16  1  1  0  0  0
 17 18  1  0  0  0
 17 20  1  0  0  0
 18 19  2  0  0  0
 20 21  1  0  0  0
  1  2  2  0  0  0
  2  3  1  0  0  0
  2 11  1  0  0  0
  3  4  1  0  0  0
  4  5  2  0  0  0
  4  9  1  0  0  0
  5  6  1  0  0  0
  5 11  1  0  0  0
  6  7  2  0  0  0
  7  8  1  0  0  0
  8  9  2  0  0  0
  8 10  1  0  0  0
  9 22  1  0  0  0
 22 23  1  0  0  0
 23 24  1  0  0  0
 23 28  1  0  0  0
 24 25  1  0  0  0
 25 26  1  0  0  0
 26 27  1  0  0  0
 27 28  1  0  0  0
 11 12  2  0  0  0
 23 29  1  0  0  0
M  CHG 1  10  -1
M  CHG 1  23   1
M  END
> <minimizedAffinity>
-8.89783

$$$$
107


 31 34  0  0  0  0  0  0  0  0999 V2000
    9.7116    5.7872   11.1991 C   0  0  0  0  0  0  0  0  0  0  0  0
   10.9639    6.2552   11.3906 N   0  0  0  0  0  0  0  0  0  0  0  0
   11.1886    7.4808   11.8779 C   0  0  0  0  0  0  0  0  0  0  0  0
   10.1326    8.2526   12.1787 N   0  0  0  0  0  0  0  0  0  0  0  0
    8.8456    7.8462   12.0121 C   0  0  0  0  0  0  0  0  0  0  0  0
    8.6933    6.5890   11.5121 N   0  0  0  0  0  0  0  0  0  0  0  0
   12.5061    7.9735   12.0784 N   0  0  0  0  0  0  0  0  0  0  0  0
   13.5483    7.8248   11.0868 C   0  0  0  0  0  0  0  0  0  0  0  0
   14.8713    7.4401   11.7315 C   0  0  0  0  0  0  0  0  0  0  0  0
   15.1112    8.2253   12.8648 O   0  0  0  0  0  0  0  0  0  0  0  0
   14.1401    8.0490   13.8211 C   0  0  0  0  0  0  0  0  0  0  0  0
   12.8514    8.6533   13.3069 C   0  0  0  0  0  0  0  0  0  0  0  0
    7.7431    8.6600   12.3292 N   0  0  0  0  0  0  0  0  0  0  0  0
    7.3351    9.7313   11.4701 C   0  0  0  0  0  0  0  0  0  0  0  0
    7.2595   10.9900   12.3317 C   0  0  0  0  0  0  0  0  0  0  0  0
    6.3956   10.7137   13.3772 O   0  0  0  0  0  0  0  0  0  0  0  0
    6.8904    9.7735   14.2499 C   0  0  0  0  0  0  0  0  0  0  0  0
    7.0035    8.4268   13.5349 C   0  0  0  0  0  0  0  0  0  0  0  0
    9.4370    4.4902   10.6838 N   0  0  0  0  0  0  0  0  0  0  0  0
    8.4842    4.0498   10.8000 H   0  0  0  0  0  0  0  0  0  0  0  0
   10.5528    2.4722   10.1703 C   0  0  0  0  0  0  0  0  0  0  0  0
   10.3908    3.7305   10.0046 N   0  0  0  0  0  0  0  0  0  0  0  0
   15.6703    1.7632    8.8378 Br  0  0  0  0  0  0  0  0  0  0  0  0
   13.8241    1.2912    8.7976 C   0  0  0  0  0  0  0  0  0  0  0  0
   12.8863    2.0333    9.4807 C   0  0  0  0  0  0  0  0  0  0  0  0
   11.5554    1.6941    9.4514 C   0  0  0  0  0  0  0  0  0  0  0  0
   11.1837    0.5885    8.7177 C   0  0  0  0  0  0  0  0  0  0  0  0
   12.1248   -0.1734    8.0208 C   0  0  0  0  0  0  0  0  0  0  0  0
   13.4656    0.1741    8.0538 C   0  0  0  0  0  0  0  0  0  0  0  0
    9.8314    0.2674    8.7057 O   0  0  0  0  0  0  0  0  0  0  0  0
    9.3302   -1.0025    8.3587 C   0  0  0  0  0  0  0  0  0  0  0  0
 23 24  1  0  0  0
 24 25  2  0  0  0
 24 29  1  0  0  0
 25 26  1  0  0  0
 26 27  2  0  0  0
 26 21  1  0  0  0
 27 28  1  0  0  0
 27 30  1  0  0  0
 28 29  2  0  0  0
 30 31  1  0  0  0
 21 22  2  0  0  0
 22 19  1  0  0  0
 19  1  1  0  0  0
  1  2  2  0  0  0
  1  6  1  0  0  0
  2  3  1  0  0  0
  3  4  2  0  0  0
  3  7  1  0  0  0
  4  5  1  0  0  0
  5  6  2  0  0  0
  5 13  1  0  0  0
 13 14  1  0  0  0
 13 18  1  0  0  0
 14 15  1  0  0  0
 15 16  1  0  0  0
 16 17  1  0  0  0
 17 18  1  0  0  0
  7  8  1  0  0  0
  7 12  1  0  0  0
  8  9  1  0  0  0
  9 10  1  0  0  0
 10 11  1  0  0  0
 11 12  1  0  0  0
 19 20  1  0  0  0
M  END
> <minimizedAffinity>
-8.63674

$$$$
111


 29 32  0  0  0  0  0  0  0  0999 V2000
    7.5495    7.0201   12.4312 C   0  0  0  0  0  0  0  0  0  0  0  0
    8.8261    7.1044   12.1258 N   0  0  0  0  0  0  0  0  0  0  0  0
    9.1701    6.1287   11.2268 C   0  0  0  0  0  0  0  0  0  0  0  0
    8.0445    5.4186   10.9861 N   0  0  0  0  0  0  0  0  0  0  0  0
    7.0873    5.9275   11.6846 N   0  0  0  0  0  0  0  0  0  0  0  0
   10.4675    6.2282   10.9287 N   0  0  0  0  0  0  0  0  0  0  0  0
   10.9551    7.2598   11.6367 C   0  0  0  0  0  0  0  0  0  0  0  0
    9.9421    7.8262   12.4021 C   0  0  0  0  0  0  0  0  0  0  0  0
   10.1466    8.8456   13.2142 N   0  0  0  0  0  0  0  0  0  0  0  0
   11.4220    9.3425   13.2711 C   0  0  0  0  0  0  0  0  0  0  0  0
   11.7280   10.3131   14.0089 O   0  0  0  0  0  0  0  0  0  0  0  0
   12.4293    8.8211   12.5395 N   0  0  0  0  0  0  0  0  0  0  0  0
   12.2272    7.7922   11.7250 C   0  0  0  0  0  0  0  0  0  0  0  0
   13.1226    7.2624   11.0191 O   0  0  0  0  0  0  0  0  0  0  0  0
    9.2310    9.4786   14.1145 C   0  0  0  0  0  0  0  0  0  0  0  0
   13.3936    9.2112   12.5930 H   0  0  0  0  0  0  0  0  0  0  0  0
    5.3220    7.9506   17.2098 Br  0  0  0  0  0  0  0  0  0  0  0  0
    5.4312    8.2378   15.3274 C   0  0  0  0  0  0  0  0  0  0  0  0
    6.3825    7.5857   14.5979 C   0  0  0  0  0  0  0  0  0  0  0  0
    6.5820    7.6879   13.2546 C   0  0  0  0  0  0  0  0  0  0  0  0
    5.6751    8.5746   12.6296 C   0  0  0  0  0  0  0  0  0  0  0  0
    4.7014    9.2518   13.3239 C   0  0  0  0  0  0  0  0  0  0  0  0
    4.5714    9.0855   14.6940 C   0  0  0  0  0  0  0  0  0  0  0  0
    5.7702    8.7685   11.2625 O   0  0  0  0  0  0  0  0  0  0  0  0
    4.7987    8.3809   10.3416 C   0  0  0  0  0  0  0  0  0  0  0  0
   11.2221    5.4063   10.0288 C   0  0  0  0  0  0  0  0  0  0  0  0
   11.1128    3.9577   10.4571 C   0  0  0  0  0  0  0  0  0  0  0  0
   10.5421    3.2425    9.4229 O   0  0  0  0  0  0  0  0  0  0  0  0
   10.5925    1.8581    9.6609 C   0  0  0  0  0  0  0  0  0  0  0  0
 17 18  1  0  0  0
 18 19  2  0  0  0
 18 23  1  0  0  0
 19 20  1  0  0  0
 20 21  2  0  0  0
 20  1  1  0  0  0
 21 22  1  0  0  0
 21 24  1  0  0  0
 22 23  2  0  0  0
 24 25  1  0  0  0
  1  2  1  0  0  0
  1  5  2  0  0  0
  2  3  1  0  0  0
  2  8  1  0  0  0
  3  4  2  0  0  0
  3  6  1  0  0  0
  4  5  1  0  0  0
  6  7  1  0  0  0
  6 26  1  0  0  0
  7  8  2  0  0  0
  7 13  1  0  0  0
  8  9  1  0  0  0
  9 10  1  0  0  0
  9 15  1  0  0  0
 10 11  2  0  0  0
 10 12  1  0  0  0
 12 13  1  0  0  0
 13 14  2  0  0  0
 26 27  1  0  0  0
 27 28  1  0  0  0
 28 29  1  0  0  0
 12 16  1  0  0  0
M  END
> <minimizedAffinity>
-7.84957

$$$$
127


 29 32  0  0  0  0  0  0  0  0999 V2000
    9.9438    6.0404   11.4437 N   0  0  0  0  0  0  0  0  0  0  0  0
    9.9543    7.0811   12.4032 C   0  0  0  0  0  0  0  0  0  0  0  0
    8.7630    7.9599   12.4240 C   0  0  0  0  0  0  0  0  0  0  0  0
    7.5594    7.1971   12.5136 N   0  0  0  0  0  0  0  0  0  0  0  0
    7.5881    5.8224   12.1041 C   0  0  0  0  0  0  0  0  0  0  0  0
    8.6730    5.5035   11.1017 C   0  0  0  0  0  0  0  0  0  0  0  0
    6.3363    7.7587   12.9664 C   0  0  0  0  0  0  0  0  0  0  0  0
    6.0345    7.6400   14.2578 C   0  0  0  0  0  0  0  0  0  0  0  0
    6.6603    7.0548   15.3859 N   0  0  0  0  0  0  0  0  0  0  0  0
    5.7794    7.2967   16.4647 N   0  0  0  0  0  0  0  0  0  0  0  0
    4.6540    8.0092   15.9882 C   0  0  0  0  0  0  0  0  0  0  0  0
    4.7524    8.2401   14.6879 C   0  0  0  0  0  0  0  0  0  0  0  0
    3.9211    8.8974   13.7377 N   0  0  0  0  0  0  0  0  0  0  0  0
    4.2600    8.9852   12.4992 C   0  0  0  0  0  0  0  0  0  0  0  0
    5.4683    8.4333   12.0322 N   0  0  0  0  0  0  0  0  0  0  0  0
    3.4870    8.4667   16.7884 C   0  0  0  0  0  0  0  0  0  0  0  0
    7.9252    6.3618   15.4203 C   0  0  0  0  0  0  0  0  0  0  0  0
    5.9924    6.9706   17.4304 H   0  0  0  0  0  0  0  0  0  0  0  0
    5.7830    8.4781   11.0478 H   0  0  0  0  0  0  0  0  0  0  0  0
   11.0212    5.1310   11.4820 C   0  0  0  0  0  0  0  0  0  0  0  0
   11.4830    4.6916   10.1640 C   0  0  0  0  0  0  0  0  0  0  0  0
   11.6553    5.5487    9.2595 O   0  0  0  0  0  0  0  0  0  0  0  0
    9.4462   -0.1344    9.1247 Br  0  0  0  0  0  0  0  0  0  0  0  0
   10.8902    1.0556    9.4694 C   0  0  0  0  0  0  0  0  0  0  0  0
   10.6912    2.4126    9.6893 C   0  0  0  0  0  0  0  0  0  0  0  0
   11.7297    3.2715    9.9367 C   0  0  0  0  0  0  0  0  0  0  0  0
   13.0123    2.7751    9.9692 C   0  0  0  0  0  0  0  0  0  0  0  0
   13.2155    1.4357    9.7528 C   0  0  0  0  0  0  0  0  0  0  0  0
   12.1728    0.5534    9.5012 C   0  0  0  0  0  0  0  0  0  0  0  0
 23 24  1  0  0  0
 24 25  2  0  0  0
 24 29  1  0  0  0
 25 26  1  0  0  0
 26 27  2  0  0  0
 26 21  1  0  0  0
 27 28  1  0  0  0
 28 29  2  0  0  0
 21 22  2  0  0  0
 21 20  1  0  0  0
 20  1  1  0  0  0
  1  2  1  0  0  0
  1  6  1  0  0  0
  2  3  1  0  0  0
  3  4  1  0  0  0
  4  5  1  0  0  0
  4  7  1  0  0  0
  5  6  1  0  0  0
  7  8  2  0  0  0
  7 15  1  0  0  0
  8  9  1  0  0  0
  8 12  1  0  0  0
  9 10  1  0  0  0
  9 17  1  0  0  0
 10 11  1  0  0  0
 11 12  2  0  0  0
 11 16  1  0  0  0
 12 13  1  0  0  0
 13 14  2  0  0  0
 14 15  1  0  0  0
 10 18  1  0  0  0
 15 19  1  0  0  0
M  END
> <minimizedAffinity>
-8.91743

$$$$
129


 31 34  0  0  0  0  0  0  0  0999 V2000
   10.6225    4.9006   11.8171 C   0  0  0  0  0  0  0  0  0  0  0  0
   10.9045    5.3269   12.9805 O   0  0  0  0  0  0  0  0  0  0  0  0
   11.1307    3.6498   11.3624 N   0  0  0  0  0  0  0  0  0  0  0  0
   10.9798    3.1989   10.0024 C   0  0  0  0  0  0  0  0  0  0  0  0
   12.4375    3.1778    9.4832 C   0  0  0  0  0  0  0  0  0  0  0  0
   13.0590    1.9767   10.1438 C   0  0  0  0  0  0  0  0  0  0  0  0
   14.5053    2.1216    9.9873 N   0  0  0  0  0  0  0  0  0  0  0  0
   14.9137    2.2462    8.6382 C   0  0  0  0  0  0  0  0  0  0  0  0
   14.6149    1.0114    7.8076 C   0  0  0  0  0  0  0  0  0  0  0  0
   13.3730    0.3452    8.2427 C   0  0  0  0  0  0  0  0  0  0  0  0
   12.7534   -0.7247    7.7170 N   0  0  0  0  0  0  0  0  0  0  0  0
   11.6559   -0.9631    8.4683 C   0  0  0  0  0  0  0  0  0  0  0  0
   11.6095   -0.0313    9.4541 N   0  0  0  0  0  0  0  0  0  0  0  0
   12.6640    0.7992    9.3380 C   0  0  0  0  0  0  0  0  0  0  0  0
   12.7637    1.8211   11.5938 C   0  0  0  0  0  0  0  0  0  0  0  0
   11.8338    2.7882   12.2438 C   0  0  0  0  0  0  0  0  0  0  0  0
   15.0355    1.3773   10.5083 H   0  0  0  0  0  0  0  0  0  0  0  0
   10.8268   -0.0605   10.1379 H   0  0  0  0  0  0  0  0  0  0  0  0
    9.7823    5.7573   10.9931 C   0  0  0  0  0  0  0  0  0  0  0  0
   10.6041    6.3409    9.8548 C   0  0  0  0  0  0  0  0  0  0  0  0
    7.6272    6.7404   11.7713 C   0  0  0  0  0  0  0  0  0  0  0  0
    6.7954    6.0022   11.2728 O   0  0  0  0  0  0  0  0  0  0  0  0
    9.0174    6.7017   11.7222 N   0  0  0  0  0  0  0  0  0  0  0  0
    9.5779    7.3914   12.3079 H   0  0  0  0  0  0  0  0  0  0  0  0
    3.2861    9.0445   13.8059 Br  0  0  0  0  0  0  0  0  0  0  0  0
    5.1839    8.9982   13.4772 C   0  0  0  0  0  0  0  0  0  0  0  0
    5.7280    7.9383   12.7913 C   0  0  0  0  0  0  0  0  0  0  0  0
    7.0875    7.9052   12.5679 C   0  0  0  0  0  0  0  0  0  0  0  0
    7.8879    8.9075   13.0144 C   0  0  0  0  0  0  0  0  0  0  0  0
    7.3268    9.9548   13.6923 C   0  0  0  0  0  0  0  0  0  0  0  0
    5.9569   10.0385   13.9500 C   0  0  0  0  0  0  0  0  0  0  0  0
 25 26  1  0  0  0
 26 27  2  0  0  0
 26 31  1  0  0  0
 27 28  1  0  0  0
 28 29  2  0  0  0
 28 21  1  0  0  0
 29 30  1  0  0  0
 30 31  2  0  0  0
 21 22  2  0  0  0
 21 23  1  0  0  0
 23 19  1  0  0  0
 19 20  1  0  0  0
 19  1  1  0  0  0
  1  2  2  0  0  0
  1  3  1  0  0  0
  3  4  1  0  0  0
  3 16  1  0  0  0
  4  5  1  0  0  0
  5  6  1  0  0  0
  6  7  1  0  0  0
  6 14  1  0  0  0
  6 15  1  0  0  0
  7  8  1  0  0  0
  8  9  1  0  0  0
  9 10  1  0  0  0
 10 11  1  0  0  0
 10 14  2  0  0  0
 11 12  2  0  0  0
 12 13  1  0  0  0
 13 14  1  0  0  0
 15 16  1  0  0  0
 23 24  1  0  0  0
  7 17  1  0  0  0
 13 18  1  0  0  0
M  END
> <minimizedAffinity>
-9.85029

$$$$
130


 30 33  0  0  0  0  0  0  0  0999 V2000
    9.4867    7.3810   12.9333 C   0  0  0  0  0  0  0  0  0  0  0  0
    9.4445    6.1500   13.2868 O   0  0  0  0  0  0  0  0  0  0  0  0
    8.8931    8.3847   13.7103 N   0  0  0  0  0  0  0  0  0  0  0  0
    8.9164    9.7652   13.3459 C   0  0  0  0  0  0  0  0  0  0  0  0
    7.6525   10.4861   13.7204 C   0  0  0  0  0  0  0  0  0  0  0  0
    6.4453    9.5944   13.9120 C   0  0  0  0  0  0  0  0  0  0  0  0
    5.4658   10.4688   14.5426 N   0  0  0  0  0  0  0  0  0  0  0  0
    4.1536    9.9569   14.6529 C   0  0  0  0  0  0  0  0  0  0  0  0
    3.7819    8.8041   13.7944 C   0  0  0  0  0  0  0  0  0  0  0  0
    4.5818    8.7742   12.5304 C   0  0  0  0  0  0  0  0  0  0  0  0
    4.2634    8.4242   11.2849 N   0  0  0  0  0  0  0  0  0  0  0  0
    5.3855    8.5987   10.5557 C   0  0  0  0  0  0  0  0  0  0  0  0
    6.3883    9.0506   11.3402 N   0  0  0  0  0  0  0  0  0  0  0  0
    5.8936    9.1682   12.6064 C   0  0  0  0  0  0  0  0  0  0  0  0
    6.7076    8.3889   14.7775 C   0  0  0  0  0  0  0  0  0  0  0  0
    8.1833    8.0763   14.9465 C   0  0  0  0  0  0  0  0  0  0  0  0
    5.8873   10.6764   15.4933 H   0  0  0  0  0  0  0  0  0  0  0  0
    7.3503    9.2636   11.0272 H   0  0  0  0  0  0  0  0  0  0  0  0
   10.2153    7.6348   11.6384 C   0  0  0  0  0  0  0  0  0  0  0  0
   10.2052    5.4444   10.0447 C   0  0  0  0  0  0  0  0  0  0  0  0
    9.5557    5.2501    8.9574 O   0  0  0  0  0  0  0  0  0  0  0  0
   10.2101    6.5139   10.8231 N   0  0  0  0  0  0  0  0  0  0  0  0
    9.3069    7.1442    9.9858 H   0  0  0  0  0  0  0  0  0  0  0  0
   11.4424    0.2905    9.4078 Br  0  0  0  0  0  0  0  0  0  0  0  0
   11.6774    1.9608   10.2536 C   0  0  0  0  0  0  0  0  0  0  0  0
   10.9086    3.0432    9.8539 C   0  0  0  0  0  0  0  0  0  0  0  0
   11.0584    4.2698   10.4445 C   0  0  0  0  0  0  0  0  0  0  0  0
   11.9580    4.4920   11.4435 C   0  0  0  0  0  0  0  0  0  0  0  0
   12.7368    3.4052   11.8532 C   0  0  0  0  0  0  0  0  0  0  0  0
   12.5882    2.1654   11.2603 C   0  0  0  0  0  0  0  0  0  0  0  0
 24 25  1  0  0  0
 25 26  2  0  0  0
 25 30  1  0  0  0
 26 27  1  0  0  0
 27 28  2  0  0  0
 27 20  1  0  0  0
 28 29  1  0  0  0
 29 30  2  0  0  0
 20 21  2  0  0  0
 20 22  1  0  0  0
 22 19  1  0  0  0
 19  1  1  0  0  0
  1  2  2  0  0  0
  1  3  1  0  0  0
  3  4  1  0  0  0
  3 16  1  0  0  0
  4  5  1  0  0  0
  5  6  1  0  0  0
  6  7  1  0  0  0
  6 14  1  0  0  0
  6 15  1  0  0  0
  7  8  1  0  0  0
  8  9  1  0  0  0
  9 10  1  0  0  0
 10 11  1  0  0  0
 10 14  2  0  0  0
 11 12  2  0  0  0
 12 13  1  0  0  0
 13 14  1  0  0  0
 15 16  1  0  0  0
 22 23  1  0  0  0
  7 17  1  0  0  0
 13 18  1  0  0  0
M  END
> <minimizedAffinity>
-9.22859

$$$$
131


 30 33  0  0  0  0  0  0  0  0999 V2000
   10.1356    5.7452   11.1115 C   0  0  0  0  0  0  0  0  0  0  0  0
   10.3449    6.0453    9.9104 O   0  0  0  0  0  0  0  0  0  0  0  0
    9.3791    6.6126   11.9147 N   0  0  0  0  0  0  0  0  0  0  0  0
    9.0973    6.3362   13.3015 C   0  0  0  0  0  0  0  0  0  0  0  0
    7.5990    6.1589   13.4179 C   0  0  0  0  0  0  0  0  0  0  0  0
    6.8964    7.3264   12.7671 C   0  0  0  0  0  0  0  0  0  0  0  0
    6.1202    6.8183   11.6559 N   0  0  0  0  0  0  0  0  0  0  0  0
    5.2959    7.7800   11.0115 C   0  0  0  0  0  0  0  0  0  0  0  0
    4.6050    8.7687   11.8773 C   0  0  0  0  0  0  0  0  0  0  0  0
    4.7914    8.5559   13.3279 C   0  0  0  0  0  0  0  0  0  0  0  0
    4.0526    8.9266   14.4183 N   0  0  0  0  0  0  0  0  0  0  0  0
    4.7009    8.4658   15.4949 C   0  0  0  0  0  0  0  0  0  0  0  0
    5.8125    7.8239   15.1001 N   0  0  0  0  0  0  0  0  0  0  0  0
    5.9031    7.8603   13.7469 C   0  0  0  0  0  0  0  0  0  0  0  0
    7.8069    8.4232   12.3177 C   0  0  0  0  0  0  0  0  0  0  0  0
    8.8501    7.8335   11.3635 C   0  0  0  0  0  0  0  0  0  0  0  0
    6.7876    6.4279   10.9397 H   0  0  0  0  0  0  0  0  0  0  0  0
    3.1452    9.4757   14.3670 H   0  0  0  0  0  0  0  0  0  0  0  0
   10.7181    4.4667   11.5983 C   0  0  0  0  0  0  0  0  0  0  0  0
   11.6570    2.3560   10.6384 C   0  0  0  0  0  0  0  0  0  0  0  0
   12.3307    2.2266   11.6926 O   0  0  0  0  0  0  0  0  0  0  0  0
   10.8141    3.4861   10.5384 N   0  0  0  0  0  0  0  0  0  0  0  0
   10.2478    3.6146    9.6768 H   0  0  0  0  0  0  0  0  0  0  0  0
    9.4351   -1.6021    7.8504 Br  0  0  0  0  0  0  0  0  0  0  0  0
   10.8880   -0.4535    8.2461 C   0  0  0  0  0  0  0  0  0  0  0  0
   10.7504    0.4876    9.2505 C   0  0  0  0  0  0  0  0  0  0  0  0
   11.7723    1.3555    9.5871 C   0  0  0  0  0  0  0  0  0  0  0  0
   12.9633    1.2586    8.8819 C   0  0  0  0  0  0  0  0  0  0  0  0
   13.0932    0.3210    7.8848 C   0  0  0  0  0  0  0  0  0  0  0  0
   12.0858   -0.5509    7.5362 C   0  0  0  0  0  0  0  0  0  0  0  0
 24 25  1  0  0  0
 25 26  2  0  0  0
 25 30  1  0  0  0
 26 27  1  0  0  0
 27 28  2  0  0  0
 27 20  1  0  0  0
 28 29  1  0  0  0
 29 30  2  0  0  0
 20 21  2  0  0  0
 20 22  1  0  0  0
 22 19  1  0  0  0
 19  1  1  0  0  0
  1  2  2  0  0  0
  1  3  1  0  0  0
  3  4  1  0  0  0
  3 16  1  0  0  0
  4  5  1  0  0  0
  5  6  1  0  0  0
  6  7  1  0  0  0
  6 14  1  0  0  0
  6 15  1  0  0  0
  7  8  1  0  0  0
  8  9  1  0  0  0
  9 10  1  0  0  0
 10 11  1  0  0  0
 10 14  2  0  0  0
 11 12  1  0  0  0
 12 13  2  0  0  0
 13 14  1  0  0  0
 15 16  1  0  0  0
 22 23  1  0  0  0
  7 17  1  0  0  0
 11 18  1  0  0  0
M  END
> <minimizedAffinity>
-9.81787

$$$$
136


 30 33  0  0  0  0  0  0  0  0999 V2000
    9.2665    6.0085   13.0628 C   0  0  0  0  0  0  0  0  0  0  0  0
   10.7684    6.2122   13.1148 C   0  0  0  0  0  0  0  0  0  0  0  0
   11.2531    5.3076   12.0906 N   0  0  0  0  0  0  0  0  0  0  0  0
   10.1554    4.7591   11.3205 C   0  0  0  0  0  0  0  0  0  0  0  0
    9.0413    5.7781   11.5953 C   0  0  0  0  0  0  0  0  0  0  0  0
   10.5384    4.7419    9.9097 C   0  0  0  0  0  0  0  0  0  0  0  0
    9.8249    5.2586    9.0375 O   0  0  0  0  0  0  0  0  0  0  0  0
   11.7606    4.1108    9.5623 N   0  0  0  0  0  0  0  0  0  0  0  0
   12.8260    4.0382   10.5365 C   0  0  0  0  0  0  0  0  0  0  0  0
   12.5741    4.8814   11.7267 C   0  0  0  0  0  0  0  0  0  0  0  0
   13.5390    5.2431   12.4503 O   0  0  0  0  0  0  0  0  0  0  0  0
   11.9287    3.6913    8.6201 H   0  0  0  0  0  0  0  0  0  0  0  0
    7.3689    6.9407   14.2927 C   0  0  0  0  0  0  0  0  0  0  0  0
    6.9656    5.7344   14.4812 O   0  0  0  0  0  0  0  0  0  0  0  0
    8.5546    7.1697   13.5658 N   0  0  0  0  0  0  0  0  0  0  0  0
    8.8799    8.1331   13.4069 H   0  0  0  0  0  0  0  0  0  0  0  0
    2.6989    9.4784   14.3858 Br  0  0  0  0  0  0  0  0  0  0  0  0
    4.5091    9.2314   14.9548 C   0  0  0  0  0  0  0  0  0  0  0  0
    5.2606    8.2137   14.4361 C   0  0  0  0  0  0  0  0  0  0  0  0
    6.5760    8.0270   14.8432 C   0  0  0  0  0  0  0  0  0  0  0  0
    7.0871    8.8818   15.7690 C   0  0  0  0  0  0  0  0  0  0  0  0
    6.3168    9.9101   16.2890 C   0  0  0  0  0  0  0  0  0  0  0  0
    5.0176   10.0932   15.8841 C   0  0  0  0  0  0  0  0  0  0  0  0
   13.1734    2.6134   10.9120 C   0  0  0  0  0  0  0  0  0  0  0  0
   13.0384    1.6679    9.7917 C   0  0  0  0  0  0  0  0  0  0  0  0
   14.0147    1.6170    8.8132 C   0  0  0  0  0  0  0  0  0  0  0  0
   13.8959    0.7361    7.7630 C   0  0  0  0  0  0  0  0  0  0  0  0
   12.8228   -0.1244    7.6292 C   0  0  0  0  0  0  0  0  0  0  0  0
   11.8479   -0.0760    8.6027 C   0  0  0  0  0  0  0  0  0  0  0  0
   11.9505    0.8019    9.6643 C   0  0  0  0  0  0  0  0  0  0  0  0
 17 18  1  0  0  0
 18 19  2  0  0  0
 18 23  1  0  0  0
 19 20  1  0  0  0
 20 21  2  0  0  0
 20 13  1  0  0  0
 21 22  1  0  0  0
 22 23  2  0  0  0
 13 14  2  0  0  0
 13 15  1  0  0  0
 15  1  1  0  0  0
  1  2  1  0  0  0
  1  5  1  0  0  0
  2  3  1  0  0  0
  3  4  1  0  0  0
  3 10  1  0  0  0
  4  5  1  0  0  0
  4  6  1  0  0  0
  6  7  2  0  0  0
  6  8  1  0  0  0
  8  9  1  0  0  0
  9 10  1  0  0  0
  9 24  1  0  0  0
 10 11  2  0  0  0
 24 25  1  0  0  0
 25 26  2  0  0  0
 25 30  1  0  0  0
 26 27  1  0  0  0
 27 28  2  0  0  0
 28 29  1  0  0  0
 29 30  2  0  0  0
 15 16  1  0  0  0
  8 12  1  0  0  0
M  END
> <minimizedAffinity>
-9.33330

$$$$
137


 25 28  0  0  0  0  0  0  0  0999 V2000
   11.7729    4.9830   10.6918 C   0  0  0  0  0  0  0  0  0  0  0  0
   11.8348    5.6360   12.1219 C   0  0  0  0  0  0  0  0  0  0  0  0
   10.7693    6.5795   12.1041 N   0  0  0  0  0  0  0  0  0  0  0  0
    9.8237    6.2123   11.0602 C   0  0  0  0  0  0  0  0  0  0  0  0
   10.2193    4.8511   10.6574 C   0  0  0  0  0  0  0  0  0  0  0  0
    8.4434    6.4052   11.5328 C   0  0  0  0  0  0  0  0  0  0  0  0
    7.5725    5.5695   11.2338 O   0  0  0  0  0  0  0  0  0  0  0  0
    8.1089    7.5305   12.3191 N   0  0  0  0  0  0  0  0  0  0  0  0
    9.0912    8.0908   13.2204 C   0  0  0  0  0  0  0  0  0  0  0  0
    8.8104    9.5795   13.2541 C   0  0  0  0  0  0  0  0  0  0  0  0
    7.5805    9.7575   12.4347 C   0  0  0  0  0  0  0  0  0  0  0  0
    6.9254    8.3688   12.4808 C   0  0  0  0  0  0  0  0  0  0  0  0
   10.4627    7.7428   12.8642 C   0  0  0  0  0  0  0  0  0  0  0  0
   11.4299    8.4945   13.2377 O   0  0  0  0  0  0  0  0  0  0  0  0
   13.2293    2.7169   10.4962 C   0  0  0  0  0  0  0  0  0  0  0  0
   14.2754    2.3660   11.1245 O   0  0  0  0  0  0  0  0  0  0  0  0
   12.4866    3.8674   10.5939 N   0  0  0  0  0  0  0  0  0  0  0  0
   13.3550    4.3214   11.5619 H   0  0  0  0  0  0  0  0  0  0  0  0
    9.4126   -0.6714    8.7786 Br  0  0  0  0  0  0  0  0  0  0  0  0
   11.1460    0.1040    8.7016 C   0  0  0  0  0  0  0  0  0  0  0  0
   11.5606    1.0734    9.5815 C   0  0  0  0  0  0  0  0  0  0  0  0
   12.8061    1.6484    9.5121 C   0  0  0  0  0  0  0  0  0  0  0  0
   13.6735    1.2436    8.5302 C   0  0  0  0  0  0  0  0  0  0  0  0
   13.2948    0.2657    7.6189 C   0  0  0  0  0  0  0  0  0  0  0  0
   12.0484   -0.2866    7.7163 C   0  0  0  0  0  0  0  0  0  0  0  0
 19 20  1  0  0  0
 20 21  2  0  0  0
 20 25  1  0  0  0
 21 22  1  0  0  0
 22 23  2  0  0  0
 22 15  1  0  0  0
 23 24  1  0  0  0
 24 25  2  0  0  0
 15 16  2  0  0  0
 15 17  1  0  0  0
 17  1  1  0  0  0
  1  2  1  0  0  0
  1  5  1  0  0  0
  2  3  1  0  0  0
  3  4  1  0  0  0
  3 13  1  0  0  0
  4  5  1  0  0  0
  4  6  1  0  0  0
  6  7  2  0  0  0
  6  8  1  0  0  0
  8  9  1  0  0  0
  8 12  1  0  0  0
  9 10  1  0  0  0
  9 13  1  0  0  0
 10 11  1  0  0  0
 11 12  1  0  0  0
 13 14  2  0  0  0
 17 18  1  0  0  0
M  END
> <minimizedAffinity>
-9.12775

$$$$
138


 25 28  0  0  0  0  0  0  0  0999 V2000
   10.1335    5.1473   11.8293 C   0  0  0  0  0  0  0  0  0  0  0  0
    8.8498    5.5030   11.1563 C   0  0  0  0  0  0  0  0  0  0  0  0
    8.3164    6.5753   12.0144 N   0  0  0  0  0  0  0  0  0  0  0  0
    9.3648    7.0337   12.9141 C   0  0  0  0  0  0  0  0  0  0  0  0
   10.6212    6.5364   12.2676 C   0  0  0  0  0  0  0  0  0  0  0  0
    9.2707    8.4877   13.0109 C   0  0  0  0  0  0  0  0  0  0  0  0
   10.2846    9.1885   13.1137 O   0  0  0  0  0  0  0  0  0  0  0  0
    7.9820    9.1173   12.9863 N   0  0  0  0  0  0  0  0  0  0  0  0
    6.8445    8.2411   13.1267 C   0  0  0  0  0  0  0  0  0  0  0  0
    5.5898    8.9999   12.9846 C   0  0  0  0  0  0  0  0  0  0  0  0
    6.0504   10.4299   13.1871 C   0  0  0  0  0  0  0  0  0  0  0  0
    7.5030   10.4586   12.8521 C   0  0  0  0  0  0  0  0  0  0  0  0
    7.0266    7.1768   12.0797 C   0  0  0  0  0  0  0  0  0  0  0  0
    6.0971    6.8414   11.3119 O   0  0  0  0  0  0  0  0  0  0  0  0
   11.6753    3.2728   11.4753 C   0  0  0  0  0  0  0  0  0  0  0  0
   11.3603    2.8125   12.6282 O   0  0  0  0  0  0  0  0  0  0  0  0
   11.0747    4.4667   11.0197 N   0  0  0  0  0  0  0  0  0  0  0  0
   11.3315    4.8358   10.0864 H   0  0  0  0  0  0  0  0  0  0  0  0
   12.6872   -0.3851    7.7014 Br  0  0  0  0  0  0  0  0  0  0  0  0
   13.2091    0.8468    9.0518 C   0  0  0  0  0  0  0  0  0  0  0  0
   12.3004    1.5934    9.7569 C   0  0  0  0  0  0  0  0  0  0  0  0
   12.6496    2.4891   10.7361 C   0  0  0  0  0  0  0  0  0  0  0  0
   13.9906    2.6252   11.0039 C   0  0  0  0  0  0  0  0  0  0  0  0
   14.9534    1.8809   10.3057 C   0  0  0  0  0  0  0  0  0  0  0  0
   14.5523    0.9876    9.3253 C   0  0  0  0  0  0  0  0  0  0  0  0
 19 20  1  0  0  0
 20 21  2  0  0  0
 20 25  1  0  0  0
 21 22  1  0  0  0
 22 23  2  0  0  0
 22 15  1  0  0  0
 23 24  1  0  0  0
 24 25  2  0  0  0
 15 16  2  0  0  0
 15 17  1  0  0  0
 17  1  1  0  0  0
  1  2  1  0  0  0
  1  5  1  0  0  0
  2  3  1  0  0  0
  3  4  1  0  0  0
  3 13  1  0  0  0
  4  5  1  0  0  0
  4  6  1  0  0  0
  6  7  2  0  0  0
  6  8  1  0  0  0
  8  9  1  0  0  0
  8 12  1  0  0  0
  9 10  1  0  0  0
  9 13  1  0  0  0
 10 11  1  0  0  0
 11 12  1  0  0  0
 13 14  2  0  0  0
 17 18  1  0  0  0
M  END
> <minimizedAffinity>
-8.83099

$$$$
141


 23 26  0  0  0  0  0  0  0  0999 V2000
   11.0457    5.2073   10.5031 N   0  0  0  0  0  0  0  0  0  0  0  0
   12.0886    5.9375   11.1772 C   0  0  0  0  0  0  0  0  0  0  0  0
   13.3319    5.6732   11.2110 O   0  0  0  0  0  0  0  0  0  0  0  0
   11.4892    7.0761   11.8466 C   0  0  0  0  0  0  0  0  0  0  0  0
   10.1179    7.2967   11.1781 C   0  0  0  0  0  0  0  0  0  0  0  0
    9.1784    7.6533   12.2835 C   0  0  0  0  0  0  0  0  0  0  0  0
   10.1501    8.0776   13.4029 C   0  0  0  0  0  0  0  0  0  0  0  0
   11.0026    6.7982   13.2616 C   0  0  0  0  0  0  0  0  0  0  0  0
    9.9060    5.7879   13.2515 C   0  0  0  0  0  0  0  0  0  0  0  0
    8.7402    6.3550   12.9140 C   0  0  0  0  0  0  0  0  0  0  0  0
    9.8367    5.8698   10.7510 C   0  0  0  0  0  0  0  0  0  0  0  0
    8.6873    5.3858   10.6469 O   0  0  0  0  0  0  0  0  0  0  0  0
   11.3855    2.7374   10.2809 C   0  0  0  0  0  0  0  0  0  0  0  0
   11.1643    2.5127   11.4836 O   0  0  0  0  0  0  0  0  0  0  0  0
   11.3360    4.0435    9.7640 N   0  0  0  0  0  0  0  0  0  0  0  0
   11.5430    4.1262    8.7182 H   0  0  0  0  0  0  0  0  0  0  0  0
    9.5077   -1.5847    7.9310 Br  0  0  0  0  0  0  0  0  0  0  0  0
   10.9360   -0.3869    8.3178 C   0  0  0  0  0  0  0  0  0  0  0  0
   10.6861    0.6992    9.1194 C   0  0  0  0  0  0  0  0  0  0  0  0
   11.6980    1.6025    9.4351 C   0  0  0  0  0  0  0  0  0  0  0  0
   12.9399    1.3794    8.9268 C   0  0  0  0  0  0  0  0  0  0  0  0
   13.1846    0.2879    8.1231 C   0  0  0  0  0  0  0  0  0  0  0  0
   12.2039   -0.6167    7.7973 C   0  0  0  0  0  0  0  0  0  0  0  0
 17 18  1  0  0  0
 18 19  2  0  0  0
 18 23  1  0  0  0
 19 20  1  0  0  0
 20 21  2  0  0  0
 20 13  1  0  0  0
 21 22  1  0  0  0
 22 23  2  0  0  0
 13 14  2  0  0  0
 13 15  1  0  0  0
 15  1  1  0  0  0
  1  2  1  0  0  0
  1 11  1  0  0  0
  2  3  2  0  0  0
  2  4  1  0  0  0
  4  5  1  0  0  0
  4  8  1  0  0  0
  5  6  1  0  0  0
  5 11  1  0  0  0
  6  7  1  0  0  0
  6 10  1  0  0  0
  7  8  1  0  0  0
  8  9  1  0  0  0
  9 10  2  0  0  0
 11 12  2  0  0  0
 15 16  1  0  0  0
M  END
> <minimizedAffinity>
-8.56133

$$$$
152


 27 30  0  0  0  0  0  0  0  0999 V2000
   13.0800    0.2699    8.7973 C   0  0  0  0  0  0  0  0  0  0  0  0
   13.7367    1.2111    9.4849 C   0  0  0  0  0  0  0  0  0  0  0  0
   13.2336    1.9779   10.4517 O   0  0  0  0  0  0  0  0  0  0  0  0
   14.2421    2.8332   10.9633 C   0  0  0  0  0  0  0  0  0  0  0  0
   15.4204    2.6252   10.3297 C   0  0  0  0  0  0  0  0  0  0  0  0
   16.5345    3.3364   10.7686 C   0  0  0  0  0  0  0  0  0  0  0  0
   16.4268    4.2290   11.7886 C   0  0  0  0  0  0  0  0  0  0  0  0
   15.2042    4.4415   12.3936 C   0  0  0  0  0  0  0  0  0  0  0  0
   14.0649    3.7711   12.0177 C   0  0  0  0  0  0  0  0  0  0  0  0
   15.1411    5.3764   13.4296 O   0  0  0  0  0  0  0  0  0  0  0  0
   15.1530    1.5673    9.3267 C   0  0  0  0  0  0  0  0  0  0  0  0
   15.9648    1.0865    8.5149 O   0  0  0  0  0  0  0  0  0  0  0  0
    8.7115   -2.2321    7.1237 Br  0  0  0  0  0  0  0  0  0  0  0  0
    9.5492   -0.9633    8.2773 C   0  0  0  0  0  0  0  0  0  0  0  0
   10.9498   -0.9212    8.2940 C   0  0  0  0  0  0  0  0  0  0  0  0
   11.6494   -0.0082    9.0975 C   0  0  0  0  0  0  0  0  0  0  0  0
   10.9042    0.8335    9.8725 C   0  0  0  0  0  0  0  0  0  0  0  0
    9.4926    0.8122    9.8740 C   0  0  0  0  0  0  0  0  0  0  0  0
    8.8247   -0.1248    9.0426 C   0  0  0  0  0  0  0  0  0  0  0  0
   12.6863    4.1791   12.1975 C   0  0  0  0  0  0  0  0  0  0  0  0
   11.8045    5.1285   11.8270 N   0  0  0  0  0  0  0  0  0  0  0  0
   11.9924    6.1367   10.8785 C   0  0  0  0  0  0  0  0  0  0  0  0
   11.4507    5.7855    9.4753 C   0  0  0  0  0  0  0  0  0  0  0  0
   10.0833    5.6531    9.4353 O   0  0  0  0  0  0  0  0  0  0  0  0
    9.6409    5.0114   10.5976 C   0  0  0  0  0  0  0  0  0  0  0  0
   10.6652    4.2414   11.2485 C   0  0  0  0  0  0  0  0  0  0  0  0
   11.3405    5.5576   12.7137 H   0  0  0  0  0  0  0  0  0  0  0  0
 13 14  1  0  0  0
 14 15  2  0  0  0
 14 19  1  0  0  0
 15 16  1  0  0  0
 16 17  2  0  0  0
 16  1  1  0  0  0
 17 18  1  0  0  0
 18 19  2  0  0  0
  1  2  2  0  0  0
  2  3  1  0  0  0
  2 11  1  0  0  0
  3  4  1  0  0  0
  4  5  2  0  0  0
  4  9  1  0  0  0
  5  6  1  0  0  0
  5 11  1  0  0  0
  6  7  2  0  0  0
  7  8  1  0  0  0
  8  9  2  0  0  0
  8 10  1  0  0  0
  9 20  1  0  0  0
 20 21  1  0  0  0
 21 22  1  0  0  0
 21 26  1  0  0  0
 22 23  1  0  0  0
 23 24  1  0  0  0
 24 25  1  0  0  0
 25 26  1  0  0  0
 11 12  2  0  0  0
 21 27  1  0  0  0
M  CHG 1  10  -1
M  CHG 1  21   1
M  END
> <minimizedAffinity>
-9.53124

$$$$
153


 34 37  0  0  0  0  0  0  0  0999 V2000
    8.7361    7.9469   11.9481 C   0  0  0  0  0  0  0  0  0  0  0  0
    8.4342    8.7021   10.9481 N   0  0  0  0  0  0  0  0  0  0  0  0
    7.2579    9.2847   11.1577 N   0  0  0  0  0  0  0  0  0  0  0  0
    6.7755    8.8695   12.3584 N   0  0  0  0  0  0  0  0  0  0  0  0
    7.6451    8.0785   12.8942 C   0  0  0  0  0  0  0  0  0  0  0  0
    5.3401    8.9939   12.5645 C   0  0  0  0  0  0  0  0  0  0  0  0
    4.9903    9.8640   13.6616 N   0  0  0  0  0  0  0  0  0  0  0  0
    3.7526    9.9331   13.8018 O   0  0  0  0  0  0  0  0  0  0  0  0
    3.1804    9.1859   12.9081 N   0  0  0  0  0  0  0  0  0  0  0  0
    4.1885    8.6059   12.1388 C   0  0  0  0  0  0  0  0  0  0  0  0
    3.8386    7.7430   11.0805 N   0  0  0  0  0  0  0  0  0  0  0  0
    3.1675    8.2057   10.3719 H   0  0  0  0  0  0  0  0  0  0  0  0
    4.0921    6.7975   10.8691 H   0  0  0  0  0  0  0  0  0  0  0  0
    9.6835    5.7571   11.4562 N   0  0  0  0  0  0  0  0  0  0  0  0
    9.8479    6.9259   12.1418 C   0  0  0  0  0  0  0  0  0  0  0  0
   10.7955    7.2604   12.8861 O   0  0  0  0  0  0  0  0  0  0  0  0
    8.6944    5.9788   10.7710 H   0  0  0  0  0  0  0  0  0  0  0  0
   11.1919    4.1121   10.7084 C   0  0  0  0  0  0  0  0  0  0  0  0
   10.0179    4.5443   11.0747 N   0  0  0  0  0  0  0  0  0  0  0  0
    9.5180   -0.6777    8.7618 Br  0  0  0  0  0  0  0  0  0  0  0  0
   10.8222    0.5887    9.3720 C   0  0  0  0  0  0  0  0  0  0  0  0
   10.4507    1.8307    9.8850 C   0  0  0  0  0  0  0  0  0  0  0  0
   11.4310    2.7204   10.2797 C   0  0  0  0  0  0  0  0  0  0  0  0
   12.7521    2.3301   10.1537 C   0  0  0  0  0  0  0  0  0  0  0  0
   13.0700    1.1030    9.6491 C   0  0  0  0  0  0  0  0  0  0  0  0
   12.1447    0.1835    9.2297 C   0  0  0  0  0  0  0  0  0  0  0  0
    7.7706    7.3644   14.1606 C   0  0  0  0  0  0  0  0  0  0  0  0
    8.4731    7.8599   15.2545 N   0  0  0  0  0  0  0  0  0  0  0  0
    8.9801    9.0474   15.6218 C   0  0  0  0  0  0  0  0  0  0  0  0
    8.1204    9.6087   16.7871 C   0  0  0  0  0  0  0  0  0  0  0  0
    6.8313    9.0251   16.6787 N   0  0  0  0  0  0  0  0  0  0  0  0
    6.8655    7.6349   17.0198 C   0  0  0  0  0  0  0  0  0  0  0  0
    8.1787    7.0559   16.4781 C   0  0  0  0  0  0  0  0  0  0  0  0
    5.7037    9.7478   17.0920 C   0  0  0  0  0  0  0  0  0  0  0  0
 20 21  1  0  0  0
 21 22  2  0  0  0
 21 26  1  0  0  0
 22 23  1  0  0  0
 23 24  2  0  0  0
 23 18  1  0  0  0
 24 25  1  0  0  0
 25 26  2  0  0  0
 18 19  2  0  0  0
 19 14  1  0  0  0
 14 15  1  0  0  0
 15 16  2  0  0  0
 15  1  1  0  0  0
  1  2  1  0  0  0
  1  5  2  0  0  0
  2  3  2  0  0  0
  3  4  1  0  0  0
  4  5  1  0  0  0
  4  6  1  0  0  0
  5 27  1  0  0  0
 27 28  1  0  0  0
 28 29  1  0  0  0
 28 33  1  0  0  0
 29 30  1  0  0  0
 30 31  1  0  0  0
 31 32  1  0  0  0
 31 34  1  0  0  0
 32 33  1  0  0  0
  6  7  2  0  0  0
  6 10  1  0  0  0
  7  8  1  0  0  0
  8  9  1  0  0  0
  9 10  2  0  0  0
 10 11  1  0  0  0
 14 17  1  0  0  0
 11 12  1  0  0  0
 11 13  1  0  0  0
M  END
> <minimizedAffinity>
-9.29006

$$$$
156


 29 32  0  0  0  0  0  0  0  0999 V2000
   10.2287    7.0125   10.9533 C   0  0  0  0  0  0  0  0  0  0  0  0
    8.9076    7.1141   11.1304 N   0  0  0  0  0  0  0  0  0  0  0  0
    8.3471    7.6509   12.2500 C   0  0  0  0  0  0  0  0  0  0  0  0
    9.2178    8.0822   13.1880 N   0  0  0  0  0  0  0  0  0  0  0  0
   10.5543    8.0075   13.0684 C   0  0  0  0  0  0  0  0  0  0  0  0
   11.0261    7.4597   11.9213 N   0  0  0  0  0  0  0  0  0  0  0  0
   11.4385    8.4639   14.0601 N   0  0  0  0  0  0  0  0  0  0  0  0
   12.7621    7.9220   14.2120 C   0  0  0  0  0  0  0  0  0  0  0  0
   13.6606    9.1096   14.5830 C   0  0  0  0  0  0  0  0  0  0  0  0
   13.1255   10.2946   14.0840 O   0  0  0  0  0  0  0  0  0  0  0  0
   11.9665   10.6916   14.7015 C   0  0  0  0  0  0  0  0  0  0  0  0
   11.0316    9.5026   14.9630 C   0  0  0  0  0  0  0  0  0  0  0  0
    6.9482    7.7471   12.4146 N   0  0  0  0  0  0  0  0  0  0  0  0
    6.3869    8.3753   13.5781 C   0  0  0  0  0  0  0  0  0  0  0  0
    5.4282    9.4515   13.0809 C   0  0  0  0  0  0  0  0  0  0  0  0
    4.4631    8.7935   12.3228 O   0  0  0  0  0  0  0  0  0  0  0  0
    4.9799    8.2745   11.1496 C   0  0  0  0  0  0  0  0  0  0  0  0
    6.0473    7.2205   11.4262 C   0  0  0  0  0  0  0  0  0  0  0  0
   10.7472    6.4414    9.7578 N   0  0  0  0  0  0  0  0  0  0  0  0
   11.0546    7.0514    8.9722 H   0  0  0  0  0  0  0  0  0  0  0  0
   11.8265    4.3499   10.0305 C   0  0  0  0  0  0  0  0  0  0  0  0
   10.8580    5.0573    9.5991 N   0  0  0  0  0  0  0  0  0  0  0  0
    9.2732   -0.2526    9.0551 Br  0  0  0  0  0  0  0  0  0  0  0  0
   10.8545    0.7668    9.4133 C   0  0  0  0  0  0  0  0  0  0  0  0
   10.8020    2.1284    9.5887 C   0  0  0  0  0  0  0  0  0  0  0  0
   11.9164    2.9070    9.8485 C   0  0  0  0  0  0  0  0  0  0  0  0
   13.1224    2.2449    9.9292 C   0  0  0  0  0  0  0  0  0  0  0  0
   13.2172    0.8660    9.7575 C   0  0  0  0  0  0  0  0  0  0  0  0
   12.0775    0.1340    9.4994 C   0  0  0  0  0  0  0  0  0  0  0  0
 23 24  1  0  0  0
 24 25  2  0  0  0
 24 29  1  0  0  0
 25 26  1  0  0  0
 26 27  2  0  0  0
 26 21  1  0  0  0
 27 28  1  0  0  0
 28 29  2  0  0  0
 21 22  2  0  0  0
 22 19  1  0  0  0
 19  1  1  0  0  0
  1  2  2  0  0  0
  1  6  1  0  0  0
  2  3  1  0  0  0
  3  4  2  0  0  0
  3 13  1  0  0  0
  4  5  1  0  0  0
  5  6  2  0  0  0
  5  7  1  0  0  0
  7  8  1  0  0  0
  7 12  1  0  0  0
  8  9  1  0  0  0
  9 10  1  0  0  0
 10 11  1  0  0  0
 11 12  1  0  0  0
 13 14  1  0  0  0
 13 18  1  0  0  0
 14 15  1  0  0  0
 15 16  1  0  0  0
 16 17  1  0  0  0
 17 18  1  0  0  0
 19 20  1  0  0  0
M  END
> <minimizedAffinity>
-8.57913

$$$$
167


 35 38  0  0  0  0  0  0  0  0999 V2000
    8.7914    6.5109   13.9889 C   0  0  0  0  0  0  0  0  0  0  0  0
    7.4121    6.3060   13.7483 N   0  0  0  0  0  0  0  0  0  0  0  0
    7.2190    5.8716   12.4122 C   0  0  0  0  0  0  0  0  0  0  0  0
    6.0887    5.6919   11.8609 O   0  0  0  0  0  0  0  0  0  0  0  0
    8.5154    5.6666   11.8032 C   0  0  0  0  0  0  0  0  0  0  0  0
    8.6325    5.2806   10.6088 O   0  0  0  0  0  0  0  0  0  0  0  0
    9.5170    5.9893   12.8012 C   0  0  0  0  0  0  0  0  0  0  0  0
   10.8133    5.8768   12.6205 C   0  0  0  0  0  0  0  0  0  0  0  0
   11.6668    6.2790   13.6219 O   0  0  0  0  0  0  0  0  0  0  0  0
   10.4389   10.0355   17.6224 Br  0  0  0  0  0  0  0  0  0  0  0  0
    9.8398    9.5715   15.8700 C   0  0  0  0  0  0  0  0  0  0  0  0
    9.5144    8.3054   15.4897 C   0  0  0  0  0  0  0  0  0  0  0  0
    9.0778    7.9287   14.2313 C   0  0  0  0  0  0  0  0  0  0  0  0
    8.9606    8.9308   13.2718 C   0  0  0  0  0  0  0  0  0  0  0  0
    9.2816   10.2276   13.6240 C   0  0  0  0  0  0  0  0  0  0  0  0
    9.7165   10.5718   14.8921 C   0  0  0  0  0  0  0  0  0  0  0  0
   11.3540    5.3344   11.3990 C   0  0  0  0  0  0  0  0  0  0  0  0
   11.6850    3.9795   11.2206 C   0  0  0  0  0  0  0  0  0  0  0  0
   12.1239    3.7970    9.9692 N   0  0  0  0  0  0  0  0  0  0  0  0
   12.0799    4.9719    9.3685 N   0  0  0  0  0  0  0  0  0  0  0  0
   11.6203    5.9236   10.1944 C   0  0  0  0  0  0  0  0  0  0  0  0
   11.5490    2.9442   12.2860 C   0  0  0  0  0  0  0  0  0  0  0  0
   12.5469    2.5780    9.3750 C   0  0  0  0  0  0  0  0  0  0  0  0
   13.8828    2.4336    9.0250 C   0  0  0  0  0  0  0  0  0  0  0  0
   14.3655    1.2731    8.4536 C   0  0  0  0  0  0  0  0  0  0  0  0
   13.5212    0.1903    8.2042 C   0  0  0  0  0  0  0  0  0  0  0  0
   12.1902    0.3342    8.5529 C   0  0  0  0  0  0  0  0  0  0  0  0
   11.7354    1.4972    9.1189 C   0  0  0  0  0  0  0  0  0  0  0  0
    6.2990    6.4805   14.7233 C   0  0  0  0  0  0  0  0  0  0  0  0
    5.6640    7.8332   14.5289 C   0  0  0  0  0  0  0  0  0  0  0  0
    4.2382    7.8932   14.9777 C   0  0  0  0  0  0  0  0  0  0  0  0
    3.3338    8.5798   14.1159 N   0  0  0  0  0  0  0  0  0  0  0  0
    2.6966    9.7358   14.6554 C   0  0  0  0  0  0  0  0  0  0  0  0
    4.0220    8.9873   12.8804 C   0  0  0  0  0  0  0  0  0  0  0  0
    2.5796    7.9060   13.7824 H   0  0  0  0  0  0  0  0  0  0  0  0
 10 11  1  0  0  0
 11 12  2  0  0  0
 11 16  1  0  0  0
 12 13  1  0  0  0
 13 14  2  0  0  0
 13  1  1  0  0  0
 14 15  1  0  0  0
 15 16  2  0  0  0
  1  2  1  0  0  0
  1  7  1  0  0  0
  2  3  1  0  0  0
  2 29  1  0  0  0
  3  4  2  0  0  0
  3  5  1  0  0  0
  5  6  2  0  0  0
  5  7  1  0  0  0
  7  8  2  0  0  0
  8  9  1  0  0  0
  8 17  1  0  0  0
 17 18  2  0  0  0
 17 21  1  0  0  0
 18 19  1  0  0  0
 18 22  1  0  0  0
 19 20  1  0  0  0
 19 23  1  0  0  0
 20 21  2  0  0  0
 23 24  2  0  0  0
 23 28  1  0  0  0
 24 25  1  0  0  0
 25 26  2  0  0  0
 26 27  1  0  0  0
 27 28  2  0  0  0
 29 30  1  0  0  0
 30 31  1  0  0  0
 31 32  1  0  0  0
 32 33  1  0  0  0
 32 34  1  0  0  0
 32 35  1  0  0  0
M  CHG 1   9  -1
M  CHG 1  32   1
M  END
> <minimizedAffinity>
-8.48281

$$$$
169


 37 40  0  0  0  0  0  0  0  0999 V2000
   11.2227    5.1047   12.6297 C   0  0  0  0  0  0  0  0  0  0  0  0
   11.0690    4.2338   11.4805 N   0  0  0  0  0  0  0  0  0  0  0  0
   10.8016    5.0815   10.3729 C   0  0  0  0  0  0  0  0  0  0  0  0
   11.0248    4.8473    9.1644 O   0  0  0  0  0  0  0  0  0  0  0  0
   10.2012    6.3197   10.9170 C   0  0  0  0  0  0  0  0  0  0  0  0
    9.8141    7.3208   10.2757 O   0  0  0  0  0  0  0  0  0  0  0  0
   10.1501    6.1257   12.3599 C   0  0  0  0  0  0  0  0  0  0  0  0
    9.3156    6.6945   13.1749 C   0  0  0  0  0  0  0  0  0  0  0  0
    9.3720    6.3369   14.5383 O   0  0  0  0  0  0  0  0  0  0  0  0
    8.3135    7.6856   12.8104 C   0  0  0  0  0  0  0  0  0  0  0  0
    8.2686    9.0372   12.8802 C   0  0  0  0  0  0  0  0  0  0  0  0
    7.0999    9.4484   12.3460 N   0  0  0  0  0  0  0  0  0  0  0  0
    6.3662    8.4104   11.9257 C   0  0  0  0  0  0  0  0  0  0  0  0
    7.1037    7.2907   12.2047 C   0  0  0  0  0  0  0  0  0  0  0  0
    6.6861    5.8864   11.9120 C   0  0  0  0  0  0  0  0  0  0  0  0
    9.2853    9.9636   13.4824 C   0  0  0  0  0  0  0  0  0  0  0  0
    6.8075   10.4662   12.2745 H   0  0  0  0  0  0  0  0  0  0  0  0
    5.0339    8.4608   11.2908 C   0  0  0  0  0  0  0  0  0  0  0  0
    4.9445    8.3319   10.0609 O   0  0  0  0  0  0  0  0  0  0  0  0
    3.8963    8.6491   12.0523 O   0  0  0  0  0  0  0  0  0  0  0  0
    3.9158    8.9453   13.4298 C   0  0  0  0  0  0  0  0  0  0  0  0
   16.4663    4.5164   11.7407 Br  0  0  0  0  0  0  0  0  0  0  0  0
   14.9482    5.5818   12.1860 C   0  0  0  0  0  0  0  0  0  0  0  0
   13.6982    5.0031   12.2424 C   0  0  0  0  0  0  0  0  0  0  0  0
   12.5626    5.7358   12.5618 C   0  0  0  0  0  0  0  0  0  0  0  0
   12.7702    7.0825   12.8194 C   0  0  0  0  0  0  0  0  0  0  0  0
   14.0161    7.6703   12.7660 C   0  0  0  0  0  0  0  0  0  0  0  0
   15.1280    6.9227   12.4461 C   0  0  0  0  0  0  0  0  0  0  0  0
   11.1641    2.7720   11.4534 C   0  0  0  0  0  0  0  0  0  0  0  0
   10.3560    2.1940   10.3126 C   0  0  0  0  0  0  0  0  0  0  0  0
   11.1339    1.4743    9.3578 N   0  0  0  0  0  0  0  0  0  0  0  0
   10.7841    0.0623    9.2560 C   0  0  0  0  0  0  0  0  0  0  0  0
   11.3261   -0.4451    7.9472 C   0  0  0  0  0  0  0  0  0  0  0  0
   12.3664    0.3544    7.5442 O   0  0  0  0  0  0  0  0  0  0  0  0
   13.2436    0.7043    8.5557 C   0  0  0  0  0  0  0  0  0  0  0  0
   12.5579    1.4956    9.6684 C   0  0  0  0  0  0  0  0  0  0  0  0
   11.0459    1.9283    8.4309 H   0  0  0  0  0  0  0  0  0  0  0  0
 22 23  1  0  0  0
 23 24  2  0  0  0
 23 28  1  0  0  0
 24 25  1  0  0  0
 25 26  2  0  0  0
 25  1  1  0  0  0
 26 27  1  0  0  0
 27 28  2  0  0  0
  1  2  1  0  0  0
  1  7  1  0  0  0
  2  3  1  0  0  0
  2 29  1  0  0  0
  3  4  2  0  0  0
  3  5  1  0  0  0
  5  6  2  0  0  0
  5  7  1  0  0  0
  7  8  2  0  0  0
  8  9  1  0  0  0
  8 10  1  0  0  0
 10 11  2  0  0  0
 10 14  1  0  0  0
 11 12  1  0  0  0
 11 16  1  0  0  0
 12 13  1  0  0  0
 13 14  2  0  0  0
 13 18  1  0  0  0
 14 15  1  0  0  0
 18 19  2  0  0  0
 18 20  1  0  0  0
 20 21  1  0  0  0
 29 30  1  0  0  0
 30 31  1  0  0  0
 31 32  1  0  0  0
 31 36  1  0  0  0
 32 33  1  0  0  0
 33 34  1  0  0  0
 34 35  1  0  0  0
 35 36  1  0  0  0
 12 17  1  0  0  0
 31 37  1  0  0  0
M  CHG 1   9  -1
M  CHG 1  31   1
M  END
> <minimizedAffinity>
-9.39857

$$$$
170


 35 38  0  0  0  0  0  0  0  0999 V2000
   12.1314    5.1216   12.4065 C   0  0  0  0  0  0  0  0  0  0  0  0
   11.0799    6.1037   12.2289 N   0  0  0  0  0  0  0  0  0  0  0  0
   10.5302    6.0193   10.9322 C   0  0  0  0  0  0  0  0  0  0  0  0
    9.8445    6.8397   10.2696 O   0  0  0  0  0  0  0  0  0  0  0  0
   10.9229    4.6837   10.4164 C   0  0  0  0  0  0  0  0  0  0  0  0
   10.6041    4.2590    9.2879 O   0  0  0  0  0  0  0  0  0  0  0  0
   11.7033    4.0374   11.4558 C   0  0  0  0  0  0  0  0  0  0  0  0
   11.9317    2.7533   11.5571 C   0  0  0  0  0  0  0  0  0  0  0  0
   12.6494    2.2697   12.6648 O   0  0  0  0  0  0  0  0  0  0  0  0
   17.3864    4.2295   11.8613 Br  0  0  0  0  0  0  0  0  0  0  0  0
   15.8474    5.3508   11.7999 C   0  0  0  0  0  0  0  0  0  0  0  0
   14.5924    4.8423   12.1148 C   0  0  0  0  0  0  0  0  0  0  0  0
   13.4710    5.6396   12.0769 C   0  0  0  0  0  0  0  0  0  0  0  0
   13.6091    6.9617   11.7175 C   0  0  0  0  0  0  0  0  0  0  0  0
   14.8531    7.4722   11.4043 C   0  0  0  0  0  0  0  0  0  0  0  0
   15.9820    6.6821   11.4399 C   0  0  0  0  0  0  0  0  0  0  0  0
   11.4803    1.8102   10.5695 C   0  0  0  0  0  0  0  0  0  0  0  0
   12.4528    1.2891    9.7033 C   0  0  0  0  0  0  0  0  0  0  0  0
   12.1072    0.4177    8.7082 C   0  0  0  0  0  0  0  0  0  0  0  0
   10.7932    0.0124    8.5100 C   0  0  0  0  0  0  0  0  0  0  0  0
    9.8671    0.5306    9.3606 C   0  0  0  0  0  0  0  0  0  0  0  0
   10.1981    1.4119   10.3697 C   0  0  0  0  0  0  0  0  0  0  0  0
   13.1586   -0.1288    7.7917 C   0  0  0  0  0  0  0  0  0  0  0  0
   10.5269   -0.8705    7.4835 O   0  0  0  0  0  0  0  0  0  0  0  0
    9.4644   -1.8066    7.5850 C   0  0  0  0  0  0  0  0  0  0  0  0
   10.6180    7.0653   13.2426 C   0  0  0  0  0  0  0  0  0  0  0  0
    9.4477    6.4929   13.9933 C   0  0  0  0  0  0  0  0  0  0  0  0
    8.1722    7.2508   13.8487 C   0  0  0  0  0  0  0  0  0  0  0  0
    7.8823    7.6471   12.4878 N   0  0  0  0  0  0  0  0  0  0  0  0
    6.7064    6.9761   11.9703 C   0  0  0  0  0  0  0  0  0  0  0  0
    5.6085    7.9647   11.6842 C   0  0  0  0  0  0  0  0  0  0  0  0
    6.0825    8.8584   10.7023 O   0  0  0  0  0  0  0  0  0  0  0  0
    7.1535    9.6011   11.1942 C   0  0  0  0  0  0  0  0  0  0  0  0
    7.6903    9.1004   12.4968 C   0  0  0  0  0  0  0  0  0  0  0  0
    8.6744    7.4839   11.8314 H   0  0  0  0  0  0  0  0  0  0  0  0
 10 11  1  0  0  0
 11 12  2  0  0  0
 11 16  1  0  0  0
 12 13  1  0  0  0
 13 14  2  0  0  0
 13  1  1  0  0  0
 14 15  1  0  0  0
 15 16  2  0  0  0
  1  2  1  0  0  0
  1  7  1  0  0  0
  2  3  1  0  0  0
  2 26  1  0  0  0
  3  4  2  0  0  0
  3  5  1  0  0  0
  5  6  2  0  0  0
  5  7  1  0  0  0
  7  8  2  0  0  0
  8  9  1  0  0  0
  8 17  1  0  0  0
 17 18  2  0  0  0
 17 22  1  0  0  0
 18 19  1  0  0  0
 19 20  2  0  0  0
 19 23  1  0  0  0
 20 21  1  0  0  0
 20 24  1  0  0  0
 21 22  2  0  0  0
 24 25  1  0  0  0
 26 27  1  0  0  0
 27 28  1  0  0  0
 28 29  1  0  0  0
 29 30  1  0  0  0
 29 34  1  0  0  0
 30 31  1  0  0  0
 31 32  1  0  0  0
 32 33  1  0  0  0
 33 34  1  0  0  0
 29 35  1  0  0  0
M  CHG 1   9  -1
M  CHG 1  29   1
M  END
> <minimizedAffinity>
-9.41490

$$$$
175


 32 35  0  0  0  0  0  0  0  0999 V2000
   11.8396    4.8739   12.3675 C   0  0  0  0  0  0  0  0  0  0  0  0
   11.8017    3.7122   11.5303 N   0  0  0  0  0  0  0  0  0  0  0  0
   11.0286    4.0651   10.3934 C   0  0  0  0  0  0  0  0  0  0  0  0
   11.0293    3.4660    9.2893 O   0  0  0  0  0  0  0  0  0  0  0  0
   10.2105    5.2592   10.7116 C   0  0  0  0  0  0  0  0  0  0  0  0
    9.4109    5.8542    9.9697 O   0  0  0  0  0  0  0  0  0  0  0  0
   10.5440    5.5889   12.0843 C   0  0  0  0  0  0  0  0  0  0  0  0
    9.8495    6.3124   12.9347 C   0  0  0  0  0  0  0  0  0  0  0  0
   10.2947    6.4637   14.2307 O   0  0  0  0  0  0  0  0  0  0  0  0
   17.1372    5.8183   12.6959 Br  0  0  0  0  0  0  0  0  0  0  0  0
   15.3649    6.2875   12.1607 C   0  0  0  0  0  0  0  0  0  0  0  0
   14.2852    5.4558   12.4395 C   0  0  0  0  0  0  0  0  0  0  0  0
   12.9940    5.7665   12.0669 C   0  0  0  0  0  0  0  0  0  0  0  0
   12.8190    6.9648   11.3890 C   0  0  0  0  0  0  0  0  0  0  0  0
   13.8751    7.8030   11.1020 C   0  0  0  0  0  0  0  0  0  0  0  0
   15.1416    7.4511   11.4938 C   0  0  0  0  0  0  0  0  0  0  0  0
    8.6253    6.9666   12.5492 C   0  0  0  0  0  0  0  0  0  0  0  0
    8.4898    8.2590   12.1322 C   0  0  0  0  0  0  0  0  0  0  0  0
    7.2530    8.7458   11.7519 C   0  0  0  0  0  0  0  0  0  0  0  0
    6.1022    7.9910   11.7651 C   0  0  0  0  0  0  0  0  0  0  0  0
    6.2404    6.6855   12.1874 C   0  0  0  0  0  0  0  0  0  0  0  0
    7.4596    6.1827   12.5697 C   0  0  0  0  0  0  0  0  0  0  0  0
    4.7810    8.5403   11.3504 C   0  0  0  0  0  0  0  0  0  0  0  0
   12.4296    2.3965   11.7635 C   0  0  0  0  0  0  0  0  0  0  0  0
   13.6968    2.3573   10.9561 C   0  0  0  0  0  0  0  0  0  0  0  0
   14.0018    1.1034   10.3682 N   0  0  0  0  0  0  0  0  0  0  0  0
   12.9369    0.4690    9.6475 C   0  0  0  0  0  0  0  0  0  0  0  0
   12.8942    0.8054    8.1821 C   0  0  0  0  0  0  0  0  0  0  0  0
   14.1336    0.8344    7.5823 O   0  0  0  0  0  0  0  0  0  0  0  0
   14.9948    1.7079    8.2040 C   0  0  0  0  0  0  0  0  0  0  0  0
   15.2208    1.2116    9.6072 C   0  0  0  0  0  0  0  0  0  0  0  0
   14.2501    0.4483   11.1692 H   0  0  0  0  0  0  0  0  0  0  0  0
 10 11  1  0  0  0
 11 12  2  0  0  0
 11 16  1  0  0  0
 12 13  1  0  0  0
 13 14  2  0  0  0
 13  1  1  0  0  0
 14 15  1  0  0  0
 15 16  2  0  0  0
  1  2  1  0  0  0
  1  7  1  0  0  0
  2  3  1  0  0  0
  2 24  1  0  0  0
  3  4  2  0  0  0
  3  5  1  0  0  0
  5  6  2  0  0  0
  5  7  1  0  0  0
  7  8  2  0  0  0
  8  9  1  0  0  0
  8 17  1  0  0  0
 17 18  2  0  0  0
 17 22  1  0  0  0
 18 19  1  0  0  0
 19 20  2  0  0  0
 20 21  1  0  0  0
 20 23  1  0  0  0
 21 22  2  0  0  0
 24 25  1  0  0  0
 25 26  1  0  0  0
 26 27  1  0  0  0
 26 31  1  0  0  0
 27 28  1  0  0  0
 28 29  1  0  0  0
 29 30  1  0  0  0
 30 31  1  0  0  0
 26 32  1  0  0  0
M  CHG 1   9  -1
M  CHG 1  26   1
M  END
> <minimizedAffinity>
-8.98956

$$$$
176


 33 36  0  0  0  0  0  0  0  0999 V2000
   11.6243    4.7422   12.3760 C   0  0  0  0  0  0  0  0  0  0  0  0
   10.3773    5.4884   12.4177 N   0  0  0  0  0  0  0  0  0  0  0  0
    9.7997    5.4135   11.0978 C   0  0  0  0  0  0  0  0  0  0  0  0
    8.9139    6.1881   10.6596 O   0  0  0  0  0  0  0  0  0  0  0  0
   10.4337    4.3023   10.4204 C   0  0  0  0  0  0  0  0  0  0  0  0
   10.2281    3.8818    9.2389 O   0  0  0  0  0  0  0  0  0  0  0  0
   11.3918    3.7128   11.3457 C   0  0  0  0  0  0  0  0  0  0  0  0
   11.9407    2.5133   11.2209 C   0  0  0  0  0  0  0  0  0  0  0  0
   12.8817    2.2034   12.2253 O   0  0  0  0  0  0  0  0  0  0  0  0
   16.9007    5.6615   12.7086 Br  0  0  0  0  0  0  0  0  0  0  0  0
   15.1340    6.1141   12.1756 C   0  0  0  0  0  0  0  0  0  0  0  0
   14.0387    5.3064   12.4490 C   0  0  0  0  0  0  0  0  0  0  0  0
   12.7626    5.6399   12.0559 C   0  0  0  0  0  0  0  0  0  0  0  0
   12.5877    6.8072   11.3745 C   0  0  0  0  0  0  0  0  0  0  0  0
   13.6859    7.6318   11.0935 C   0  0  0  0  0  0  0  0  0  0  0  0
   14.9612    7.2963   11.4872 C   0  0  0  0  0  0  0  0  0  0  0  0
   11.6313    1.5638   10.1646 C   0  0  0  0  0  0  0  0  0  0  0  0
   12.5056    1.1440    9.1904 C   0  0  0  0  0  0  0  0  0  0  0  0
   12.1649    0.2120    8.2309 C   0  0  0  0  0  0  0  0  0  0  0  0
   10.9061   -0.3446    8.2115 C   0  0  0  0  0  0  0  0  0  0  0  0
   10.0141    0.0656    9.1823 C   0  0  0  0  0  0  0  0  0  0  0  0
   10.3646    0.9985   10.1384 C   0  0  0  0  0  0  0  0  0  0  0  0
   10.4461   -1.5396    6.9943 Cl  0  0  0  0  0  0  0  0  0  0  0  0
    9.8907    6.2362   13.5317 C   0  0  0  0  0  0  0  0  0  0  0  0
    9.8593    7.7075   13.4555 C   0  0  0  0  0  0  0  0  0  0  0  0
    8.5620    8.4262   13.4416 C   0  0  0  0  0  0  0  0  0  0  0  0
    7.5035    7.8948   12.6513 N   0  0  0  0  0  0  0  0  0  0  0  0
    6.3974    7.4875   13.4802 C   0  0  0  0  0  0  0  0  0  0  0  0
    5.3498    8.5671   13.6543 C   0  0  0  0  0  0  0  0  0  0  0  0
    4.7349    8.8397   12.4302 O   0  0  0  0  0  0  0  0  0  0  0  0
    5.5795    8.5168   11.3666 C   0  0  0  0  0  0  0  0  0  0  0  0
    6.9638    8.9601   11.7507 C   0  0  0  0  0  0  0  0  0  0  0  0
    7.8125    7.1768   12.0009 H   0  0  0  0  0  0  0  0  0  0  0  0
 10 11  1  0  0  0
 11 12  2  0  0  0
 11 16  1  0  0  0
 12 13  1  0  0  0
 13 14  2  0  0  0
 13  1  1  0  0  0
 14 15  1  0  0  0
 15 16  2  0  0  0
  1  2  1  0  0  0
  1  7  1  0  0  0
  2  3  1  0  0  0
  2 24  1  0  0  0
  3  4  2  0  0  0
  3  5  1  0  0  0
  5  6  2  0  0  0
  5  7  1  0  0  0
  7  8  2  0  0  0
  8  9  1  0  0  0
  8 17  1  0  0  0
 17 18  2  0  0  0
 17 22  1  0  0  0
 18 19  1  0  0  0
 19 20  2  0  0  0
 20 21  1  0  0  0
 20 23  1  0  0  0
 21 22  2  0  0  0
 24 25  1  0  0  0
 25 26  1  0  0  0
 26 27  1  0  0  0
 27 28  1  0  0  0
 27 32  1  0  0  0
 28 29  1  0  0  0
 29 30  1  0  0  0
 30 31  1  0  0  0
 31 32  1  0  0  0
 27 33  1  0  0  0
M  CHG 1   9  -1
M  CHG 1  27   1
M  END
> <minimizedAffinity>
-9.13136

$$$$
182


 36 40  0  0  0  0  0  0  0  0999 V2000
   12.8817    6.9950   11.3079 C   0  0  0  0  0  0  0  0  0  0  0  0
   11.6259    7.4295   11.8121 N   0  0  0  0  0  0  0  0  0  0  0  0
   10.6666    6.8763   10.8515 C   0  0  0  0  0  0  0  0  0  0  0  0
    9.5487    7.3427   10.5800 O   0  0  0  0  0  0  0  0  0  0  0  0
   11.2983    5.6718   10.2878 C   0  0  0  0  0  0  0  0  0  0  0  0
   10.8342    4.8832    9.4333 O   0  0  0  0  0  0  0  0  0  0  0  0
   12.6016    5.5756   10.9409 C   0  0  0  0  0  0  0  0  0  0  0  0
   13.2894    4.4861   11.1662 C   0  0  0  0  0  0  0  0  0  0  0  0
   14.5019    4.6275   11.8755 O   0  0  0  0  0  0  0  0  0  0  0  0
   12.8623    3.1701   10.7149 C   0  0  0  0  0  0  0  0  0  0  0  0
   13.2511    2.4091    9.6818 N   0  0  0  0  0  0  0  0  0  0  0  0
   12.5282    1.2862    9.6533 C   0  0  0  0  0  0  0  0  0  0  0  0
   11.6598    1.3389   10.6974 N   0  0  0  0  0  0  0  0  0  0  0  0
   11.8335    2.4806   11.3760 C   0  0  0  0  0  0  0  0  0  0  0  0
   11.0865    2.9292   12.5850 C   0  0  0  0  0  0  0  0  0  0  0  0
   12.7361    0.3058    8.6856 C   0  0  0  0  0  0  0  0  0  0  0  0
   13.7276    0.5410    7.7532 C   0  0  0  0  0  0  0  0  0  0  0  0
   14.4586    1.7130    7.8118 C   0  0  0  0  0  0  0  0  0  0  0  0
   14.2344    2.6663    8.7750 C   0  0  0  0  0  0  0  0  0  0  0  0
   11.9018   -0.9208    8.7015 C   0  0  0  0  0  0  0  0  0  0  0  0
   17.9326    8.5755   10.9063 Br  0  0  0  0  0  0  0  0  0  0  0  0
   16.4316    7.9623   11.9269 C   0  0  0  0  0  0  0  0  0  0  0  0
   15.2291    7.7036   11.3230 C   0  0  0  0  0  0  0  0  0  0  0  0
   14.0938    7.2520   12.0257 C   0  0  0  0  0  0  0  0  0  0  0  0
   14.3161    7.0963   13.3761 C   0  0  0  0  0  0  0  0  0  0  0  0
   15.5160    7.3510   14.0046 C   0  0  0  0  0  0  0  0  0  0  0  0
   16.5968    7.7911   13.2749 C   0  0  0  0  0  0  0  0  0  0  0  0
   11.2063    8.2557   12.9306 C   0  0  0  0  0  0  0  0  0  0  0  0
   10.5804    7.5198   14.0645 C   0  0  0  0  0  0  0  0  0  0  0  0
    9.2599    8.0152   14.3994 N   0  0  0  0  0  0  0  0  0  0  0  0
    8.2227    7.2025   13.8041 C   0  0  0  0  0  0  0  0  0  0  0  0
    8.1351    5.8611   14.5388 C   0  0  0  0  0  0  0  0  0  0  0  0
    7.7030    6.1658   15.8344 O   0  0  0  0  0  0  0  0  0  0  0  0
    8.7968    6.7991   16.4596 C   0  0  0  0  0  0  0  0  0  0  0  0
    9.0869    8.1426   15.8330 C   0  0  0  0  0  0  0  0  0  0  0  0
    9.1476    8.9791   13.9997 H   0  0  0  0  0  0  0  0  0  0  0  0
 21 22  1  0  0  0
 22 23  2  0  0  0
 22 27  1  0  0  0
 23 24  1  0  0  0
 24 25  2  0  0  0
 24  1  1  0  0  0
 25 26  1  0  0  0
 26 27  2  0  0  0
  1  2  1  0  0  0
  1  7  1  0  0  0
  2  3  1  0  0  0
  2 28  1  0  0  0
  3  4  2  0  0  0
  3  5  1  0  0  0
  5  6  2  0  0  0
  5  7  1  0  0  0
  7  8  2  0  0  0
  8  9  1  0  0  0
  8 10  1  0  0  0
 10 11  1  0  0  0
 10 14  2  0  0  0
 11 12  1  0  0  0
 11 19  1  0  0  0
 12 13  2  0  0  0
 12 16  1  0  0  0
 13 14  1  0  0  0
 14 15  1  0  0  0
 16 17  2  0  0  0
 16 20  1  0  0  0
 17 18  1  0  0  0
 18 19  2  0  0  0
 28 29  1  0  0  0
 29 30  1  0  0  0
 30 31  1  0  0  0
 30 35  1  0  0  0
 31 32  1  0  0  0
 32 33  1  0  0  0
 33 34  1  0  0  0
 34 35  1  0  0  0
 30 36  1  0  0  0
M  CHG 1   9  -1
M  CHG 1  30   1
M  END
> <minimizedAffinity>
-9.16398

$$$$
184


 33 36  0  0  0  0  0  0  0  0999 V2000
    9.8237    6.9275   13.5750 C   0  0  0  0  0  0  0  0  0  0  0  0
   10.0295    6.6415   12.1686 N   0  0  0  0  0  0  0  0  0  0  0  0
    8.7556    6.1908   11.6887 C   0  0  0  0  0  0  0  0  0  0  0  0
    8.5295    5.4523   10.7138 O   0  0  0  0  0  0  0  0  0  0  0  0
    7.7440    6.7662   12.5669 C   0  0  0  0  0  0  0  0  0  0  0  0
    6.4817    6.6568   12.5511 O   0  0  0  0  0  0  0  0  0  0  0  0
    8.4652    7.5544   13.5549 C   0  0  0  0  0  0  0  0  0  0  0  0
    7.9679    8.5461   14.2671 C   0  0  0  0  0  0  0  0  0  0  0  0
    8.8330    9.1207   15.2090 O   0  0  0  0  0  0  0  0  0  0  0  0
    6.6186    9.0762   14.1405 C   0  0  0  0  0  0  0  0  0  0  0  0
    5.5218    8.6908   14.8093 N   0  0  0  0  0  0  0  0  0  0  0  0
    4.4498    9.4456   14.4559 C   0  0  0  0  0  0  0  0  0  0  0  0
    4.9277   10.3233   13.5307 N   0  0  0  0  0  0  0  0  0  0  0  0
    6.2182   10.1366   13.3133 C   0  0  0  0  0  0  0  0  0  0  0  0
    7.1681   10.8276   12.4134 C   0  0  0  0  0  0  0  0  0  0  0  0
    3.1844    9.2515   14.9869 C   0  0  0  0  0  0  0  0  0  0  0  0
    2.9771    8.2534   15.9163 C   0  0  0  0  0  0  0  0  0  0  0  0
    4.0793    7.4843   16.2711 C   0  0  0  0  0  0  0  0  0  0  0  0
    5.3078    7.7035   15.7291 C   0  0  0  0  0  0  0  0  0  0  0  0
   13.1723    8.1788   17.5499 Br  0  0  0  0  0  0  0  0  0  0  0  0
   12.3535    8.5167   15.8694 C   0  0  0  0  0  0  0  0  0  0  0  0
   11.4201    7.6087   15.3685 C   0  0  0  0  0  0  0  0  0  0  0  0
   10.8204    7.8238   14.1734 C   0  0  0  0  0  0  0  0  0  0  0  0
   11.1656    8.9778   13.4617 C   0  0  0  0  0  0  0  0  0  0  0  0
   12.0778    9.8625   13.9547 C   0  0  0  0  0  0  0  0  0  0  0  0
   12.6991    9.6631   15.1683 C   0  0  0  0  0  0  0  0  0  0  0  0
   11.2615    6.7609   11.3852 C   0  0  0  0  0  0  0  0  0  0  0  0
   12.1394    5.5668   11.4721 C   0  0  0  0  0  0  0  0  0  0  0  0
   11.8936    4.4433   10.5519 C   0  0  0  0  0  0  0  0  0  0  0  0
   10.9947    3.4371   10.9982 N   0  0  0  0  0  0  0  0  0  0  0  0
   11.4481    2.8879   12.2534 C   0  0  0  0  0  0  0  0  0  0  0  0
   11.0090    2.3142   10.0418 C   0  0  0  0  0  0  0  0  0  0  0  0
    9.9938    3.7307   11.0221 H   0  0  0  0  0  0  0  0  0  0  0  0
 20 21  1  0  0  0
 21 22  2  0  0  0
 21 26  1  0  0  0
 22 23  1  0  0  0
 23 24  2  0  0  0
 23  1  1  0  0  0
 24 25  1  0  0  0
 25 26  2  0  0  0
  1  2  1  0  0  0
  1  7  1  0  0  0
  2  3  1  0  0  0
  2 27  1  0  0  0
  3  4  2  0  0  0
  3  5  1  0  0  0
  5  6  2  0  0  0
  5  7  1  0  0  0
  7  8  2  0  0  0
  8  9  1  0  0  0
  8 10  1  0  0  0
 10 11  1  0  0  0
 10 14  2  0  0  0
 11 12  1  0  0  0
 11 19  1  0  0  0
 12 13  2  0  0  0
 12 16  1  0  0  0
 13 14  1  0  0  0
 14 15  1  0  0  0
 16 17  2  0  0  0
 17 18  1  0  0  0
 18 19  2  0  0  0
 27 28  1  0  0  0
 28 29  1  0  0  0
 29 30  1  0  0  0
 30 31  1  0  0  0
 30 32  1  0  0  0
 30 33  1  0  0  0
M  CHG 1   9  -1
M  CHG 1  30   1
M  END
> <minimizedAffinity>
-7.53171

$$$$
188


 31 34  0  0  0  0  0  0  0  0999 V2000
   11.6609    5.0907   12.5714 C   0  0  0  0  0  0  0  0  0  0  0  0
   11.4787    3.9454   11.6922 N   0  0  0  0  0  0  0  0  0  0  0  0
   10.9874    4.5453   10.4701 C   0  0  0  0  0  0  0  0  0  0  0  0
   11.0813    4.0710    9.3178 O   0  0  0  0  0  0  0  0  0  0  0  0
   10.3538    5.8163   10.7948 C   0  0  0  0  0  0  0  0  0  0  0  0
    9.7970    6.6744   10.0627 O   0  0  0  0  0  0  0  0  0  0  0  0
   10.4754    5.9641   12.2446 C   0  0  0  0  0  0  0  0  0  0  0  0
    9.7672    6.6834   13.0668 C   0  0  0  0  0  0  0  0  0  0  0  0
   10.1237    6.6736   14.4323 O   0  0  0  0  0  0  0  0  0  0  0  0
   16.9793    5.1202   11.8106 Br  0  0  0  0  0  0  0  0  0  0  0  0
   15.2655    5.9810   11.8226 C   0  0  0  0  0  0  0  0  0  0  0  0
   14.1130    5.2934   12.1705 C   0  0  0  0  0  0  0  0  0  0  0  0
   12.8675    5.8815   12.1873 C   0  0  0  0  0  0  0  0  0  0  0  0
   12.7891    7.2159   11.8379 C   0  0  0  0  0  0  0  0  0  0  0  0
   13.9404    7.9236   11.4841 C   0  0  0  0  0  0  0  0  0  0  0  0
   15.1807    7.3134   11.4740 C   0  0  0  0  0  0  0  0  0  0  0  0
    8.6439    7.4676   12.5875 C   0  0  0  0  0  0  0  0  0  0  0  0
    8.7435    8.7174   12.2209 O   0  0  0  0  0  0  0  0  0  0  0  0
    7.5904    9.1909   11.8357 C   0  0  0  0  0  0  0  0  0  0  0  0
    6.6648    8.1987   11.9511 C   0  0  0  0  0  0  0  0  0  0  0  0
    7.3418    7.0758   12.4409 C   0  0  0  0  0  0  0  0  0  0  0  0
   11.7192    2.5410   11.8924 C   0  0  0  0  0  0  0  0  0  0  0  0
   12.9274    2.0154   11.1521 C   0  0  0  0  0  0  0  0  0  0  0  0
   12.5600    0.7942   10.4065 C   0  0  0  0  0  0  0  0  0  0  0  0
   11.9709    1.0221    9.1064 N   0  0  0  0  0  0  0  0  0  0  0  0
   12.8151    0.5645    8.0279 C   0  0  0  0  0  0  0  0  0  0  0  0
   12.5003   -0.7974    7.5205 C   0  0  0  0  0  0  0  0  0  0  0  0
   11.1588   -1.0891    7.3919 O   0  0  0  0  0  0  0  0  0  0  0  0
   10.4118   -0.7907    8.5236 C   0  0  0  0  0  0  0  0  0  0  0  0
   10.6077    0.6344    8.9726 C   0  0  0  0  0  0  0  0  0  0  0  0
   11.9771    2.0869    9.0080 H   0  0  0  0  0  0  0  0  0  0  0  0
 10 11  1  0  0  0
 11 12  2  0  0  0
 11 16  1  0  0  0
 12 13  1  0  0  0
 13 14  2  0  0  0
 13  1  1  0  0  0
 14 15  1  0  0  0
 15 16  2  0  0  0
  1  2  1  0  0  0
  1  7  1  0  0  0
  2  3  1  0  0  0
  2 22  1  0  0  0
  3  4  2  0  0  0
  3  5  1  0  0  0
  5  6  2  0  0  0
  5  7  1  0  0  0
  7  8  2  0  0  0
  8  9  1  0  0  0
  8 17  1  0  0  0
 17 18  1  0  0  0
 17 21  2  0  0  0
 18 19  1  0  0  0
 19 20  2  0  0  0
 20 21  1  0  0  0
 22 23  1  0  0  0
 23 24  1  0  0  0
 24 25  1  0  0  0
 25 26  1  0  0  0
 25 30  1  0  0  0
 26 27  1  0  0  0
 27 28  1  0  0  0
 28 29  1  0  0  0
 29 30  1  0  0  0
 25 31  1  0  0  0
M  CHG 1   9  -1
M  CHG 1  25   1
M  END
> <minimizedAffinity>
-8.28467

$$$$
191


 34 37  0  0  0  0  0  0  0  0999 V2000
   11.5405    5.7440   12.9002 C   0  0  0  0  0  0  0  0  0  0  0  0
   12.6631    6.6008   12.5762 N   0  0  0  0  0  0  0  0  0  0  0  0
   12.7881    6.5536   11.1383 C   0  0  0  0  0  0  0  0  0  0  0  0
   13.3452    7.4242   10.4267 O   0  0  0  0  0  0  0  0  0  0  0  0
   12.1464    5.3098   10.7018 C   0  0  0  0  0  0  0  0  0  0  0  0
   12.0222    4.8622    9.5329 O   0  0  0  0  0  0  0  0  0  0  0  0
   11.6432    4.6273   11.8883 C   0  0  0  0  0  0  0  0  0  0  0  0
   11.3430    3.3464   12.0192 C   0  0  0  0  0  0  0  0  0  0  0  0
   10.8598    2.8888   13.2190 O   0  0  0  0  0  0  0  0  0  0  0  0
   11.5191    2.3983   10.9032 C   0  0  0  0  0  0  0  0  0  0  0  0
   12.6621    2.0494   10.3778 O   0  0  0  0  0  0  0  0  0  0  0  0
   12.5503    1.2027    9.4096 C   0  0  0  0  0  0  0  0  0  0  0  0
   11.2085    0.9490    9.2582 C   0  0  0  0  0  0  0  0  0  0  0  0
   10.5558    1.7086   10.2062 C   0  0  0  0  0  0  0  0  0  0  0  0
   10.8192    0.0660    8.2749 C   0  0  0  0  0  0  0  0  0  0  0  0
   11.7367   -0.5571    7.4532 C   0  0  0  0  0  0  0  0  0  0  0  0
   13.0921   -0.2698    7.6436 C   0  0  0  0  0  0  0  0  0  0  0  0
   13.5170    0.6039    8.6122 C   0  0  0  0  0  0  0  0  0  0  0  0
   14.8560    0.8566    8.7670 O   0  0  0  0  0  0  0  0  0  0  0  0
   15.5014    2.0770    8.5916 C   0  0  0  0  0  0  0  0  0  0  0  0
    8.7412   10.2492   13.7071 Br  0  0  0  0  0  0  0  0  0  0  0  0
    8.8721    8.4189   13.1247 C   0  0  0  0  0  0  0  0  0  0  0  0
   10.0615    7.7538   13.2000 C   0  0  0  0  0  0  0  0  0  0  0  0
   10.2264    6.4277   12.7945 C   0  0  0  0  0  0  0  0  0  0  0  0
    9.0922    5.8205   12.3026 C   0  0  0  0  0  0  0  0  0  0  0  0
    7.8733    6.4888   12.2205 C   0  0  0  0  0  0  0  0  0  0  0  0
    7.7691    7.7868   12.6320 C   0  0  0  0  0  0  0  0  0  0  0  0
   13.4915    7.3743   13.4686 C   0  0  0  0  0  0  0  0  0  0  0  0
   14.9379    6.9494   13.3907 C   0  0  0  0  0  0  0  0  0  0  0  0
   15.1805    5.4954   13.5771 C   0  0  0  0  0  0  0  0  0  0  0  0
   16.0099    4.8877   12.5838 N   0  0  0  0  0  0  0  0  0  0  0  0
   16.5176    5.8940   11.6469 C   0  0  0  0  0  0  0  0  0  0  0  0
   15.3408    3.8535   11.8566 C   0  0  0  0  0  0  0  0  0  0  0  0
   16.8872    4.4594   12.9976 H   0  0  0  0  0  0  0  0  0  0  0  0
 21 22  1  0  0  0
 22 23  2  0  0  0
 22 27  1  0  0  0
 23 24  1  0  0  0
 24 25  2  0  0  0
 24  1  1  0  0  0
 25 26  1  0  0  0
 26 27  2  0  0  0
  1  2  1  0  0  0
  1  7  1  0  0  0
  2  3  1  0  0  0
  2 28  1  0  0  0
  3  4  2  0  0  0
  3  5  1  0  0  0
  5  6  2  0  0  0
  5  7  1  0  0  0
  7  8  2  0  0  0
  8  9  1  0  0  0
  8 10  1  0  0  0
 10 11  1  0  0  0
 10 14  2  0  0  0
 11 12  1  0  0  0
 12 13  2  0  0  0
 12 18  1  0  0  0
 13 14  1  0  0  0
 13 15  1  0  0  0
 15 16  2  0  0  0
 16 17  1  0  0  0
 17 18  2  0  0  0
 18 19  1  0  0  0
 19 20  1  0  0  0
 28 29  1  0  0  0
 29 30  1  0  0  0
 30 31  1  0  0  0
 31 32  1  0  0  0
 31 33  1  0  0  0
 31 34  1  0  0  0
M  CHG 1   9  -1
M  CHG 1  31   1
M  END
> <minimizedAffinity>
-8.14783

$$$$
199


 25 28  0  0  0  0  0  0  0  0999 V2000
   12.1278    4.9552   11.6049 C   0  0  0  0  0  0  0  0  0  0  0  0
   10.9690    4.8279   12.5593 C   0  0  0  0  0  0  0  0  0  0  0  0
   10.2718    5.9466   11.9076 N   0  0  0  0  0  0  0  0  0  0  0  0
   11.5572    6.3188   11.3461 C   0  0  0  0  0  0  0  0  0  0  0  0
    8.9208    6.3897   11.8949 C   0  0  0  0  0  0  0  0  0  0  0  0
    7.9219    5.6464   11.3517 N   0  0  0  0  0  0  0  0  0  0  0  0
    6.6322    6.0944   11.3529 C   0  0  0  0  0  0  0  0  0  0  0  0
    6.3102    7.2765   11.8871 N   0  0  0  0  0  0  0  0  0  0  0  0
    7.2409    8.0581   12.4374 C   0  0  0  0  0  0  0  0  0  0  0  0
    7.1745    9.2677   13.0284 N   0  0  0  0  0  0  0  0  0  0  0  0
    8.4018    9.5713   13.3911 N   0  0  0  0  0  0  0  0  0  0  0  0
    9.2473    8.5925   13.0490 N   0  0  0  0  0  0  0  0  0  0  0  0
    8.5439    7.6034   12.4350 C   0  0  0  0  0  0  0  0  0  0  0  0
    5.9951   10.1027   13.2419 C   0  0  0  0  0  0  0  0  0  0  0  0
   12.3985    2.6668   10.6159 N   0  0  0  0  0  0  0  0  0  0  0  0
   12.0572    4.0157   10.4320 C   0  0  0  0  0  0  0  0  0  0  0  0
   11.6920    4.5320    9.3658 O   0  0  0  0  0  0  0  0  0  0  0  0
   12.7044    2.3391   11.6044 H   0  0  0  0  0  0  0  0  0  0  0  0
    9.5834   -1.2078    8.3795 Br  0  0  0  0  0  0  0  0  0  0  0  0
   11.1442   -0.1247    8.5273 C   0  0  0  0  0  0  0  0  0  0  0  0
   11.2455    0.8638    9.4781 C   0  0  0  0  0  0  0  0  0  0  0  0
   12.3801    1.6779    9.6134 C   0  0  0  0  0  0  0  0  0  0  0  0
   13.4015    1.4382    8.7375 C   0  0  0  0  0  0  0  0  0  0  0  0
   13.2895    0.4314    7.7757 C   0  0  0  0  0  0  0  0  0  0  0  0
   12.1786   -0.3426    7.6667 C   0  0  0  0  0  0  0  0  0  0  0  0
 19 20  1  0  0  0
 20 21  2  0  0  0
 20 25  1  0  0  0
 21 22  1  0  0  0
 22 23  2  0  0  0
 22 15  1  0  0  0
 23 24  1  0  0  0
 24 25  2  0  0  0
 15 16  1  0  0  0
 16 17  2  0  0  0
 16  1  1  0  0  0
  1  2  1  0  0  0
  1  4  1  0  0  0
  2  3  1  0  0  0
  3  4  1  0  0  0
  3  5  1  0  0  0
  5  6  2  0  0  0
  5 13  1  0  0  0
  6  7  1  0  0  0
  7  8  2  0  0  0
  8  9  1  0  0  0
  9 10  1  0  0  0
  9 13  2  0  0  0
 10 11  1  0  0  0
 10 14  1  0  0  0
 11 12  2  0  0  0
 12 13  1  0  0  0
 15 18  1  0  0  0
M  END
> <minimizedAffinity>
-8.59800

$$$$
200


 21 24  0  0  0  0  0  0  0  0999 V2000
   11.7435    3.3667   10.9875 C   0  0  0  0  0  0  0  0  0  0  0  0
   10.4865    3.7551   10.8021 N   0  0  0  0  0  0  0  0  0  0  0  0
   10.0502    5.0243   10.8649 C   0  0  0  0  0  0  0  0  0  0  0  0
    8.8728    5.6569   10.7201 N   0  0  0  0  0  0  0  0  0  0  0  0
    9.0014    6.9354   10.8876 O   0  0  0  0  0  0  0  0  0  0  0  0
   10.2399    7.1699   11.1406 N   0  0  0  0  0  0  0  0  0  0  0  0
   10.9588    6.0354   11.1444 C   0  0  0  0  0  0  0  0  0  0  0  0
   12.2406    5.6921   11.3404 N   0  0  0  0  0  0  0  0  0  0  0  0
   13.2839    6.4697   11.6189 N   0  0  0  0  0  0  0  0  0  0  0  0
   14.3557    5.6695   11.7258 N   0  0  0  0  0  0  0  0  0  0  0  0
   13.9559    4.4146   11.5109 N   0  0  0  0  0  0  0  0  0  0  0  0
   12.6424    4.4136   11.2700 C   0  0  0  0  0  0  0  0  0  0  0  0
   12.2478    2.0460   10.9318 N   0  0  0  0  0  0  0  0  0  0  0  0
   12.7261    1.6321   11.7823 H   0  0  0  0  0  0  0  0  0  0  0  0
    9.5820   -1.5413    7.9665 Br  0  0  0  0  0  0  0  0  0  0  0  0
   11.0855   -0.4320    8.3465 C   0  0  0  0  0  0  0  0  0  0  0  0
   11.1247    0.3824    9.4664 C   0  0  0  0  0  0  0  0  0  0  0  0
   12.1670    1.2030    9.8036 C   0  0  0  0  0  0  0  0  0  0  0  0
   13.2483    1.1657    8.8977 C   0  0  0  0  0  0  0  0  0  0  0  0
   13.2433    0.3707    7.7782 C   0  0  0  0  0  0  0  0  0  0  0  0
   12.1614   -0.4333    7.4970 C   0  0  0  0  0  0  0  0  0  0  0  0
 15 16  1  0  0  0
 16 17  2  0  0  0
 16 21  1  0  0  0
 17 18  1  0  0  0
 18 19  2  0  0  0
 18 13  1  0  0  0
 19 20  1  0  0  0
 20 21  2  0  0  0
 13  1  1  0  0  0
  1  2  2  0  0  0
  1 12  1  0  0  0
  2  3  1  0  0  0
  3  4  2  0  0  0
  3  7  1  0  0  0
  4  5  1  0  0  0
  5  6  1  0  0  0
  6  7  2  0  0  0
  7  8  1  0  0  0
  8  9  1  0  0  0
  8 12  1  0  0  0
  9 10  2  0  0  0
 10 11  1  0  0  0
 11 12  2  0  0  0
 13 14  1  0  0  0
M  END
> <minimizedAffinity>
-7.85354

$$$$
201


 25 28  0  0  0  0  0  0  0  0999 V2000
   10.7709    5.4269   11.8160 C   0  0  0  0  0  0  0  0  0  0  0  0
   11.1161    6.5102   11.2824 O   0  0  0  0  0  0  0  0  0  0  0  0
    9.7078    5.4321   12.7419 N   0  0  0  0  0  0  0  0  0  0  0  0
    9.4349    4.5216   13.1754 H   0  0  0  0  0  0  0  0  0  0  0  0
   12.1033    2.3733   10.3897 N   0  0  0  0  0  0  0  0  0  0  0  0
   12.9136    2.5766   11.3944 N   0  0  0  0  0  0  0  0  0  0  0  0
   12.5766    3.6743   12.0519 N   0  0  0  0  0  0  0  0  0  0  0  0
   11.4921    4.2156   11.4456 C   0  0  0  0  0  0  0  0  0  0  0  0
   11.2083    3.3749   10.3934 C   0  0  0  0  0  0  0  0  0  0  0  0
    9.5348   -1.6130    7.9166 Br  0  0  0  0  0  0  0  0  0  0  0  0
   11.0518   -0.5043    8.2379 C   0  0  0  0  0  0  0  0  0  0  0  0
   11.0054    0.5166    9.1930 C   0  0  0  0  0  0  0  0  0  0  0  0
   12.1000    1.3140    9.4230 C   0  0  0  0  0  0  0  0  0  0  0  0
   13.2395    1.0764    8.6855 C   0  0  0  0  0  0  0  0  0  0  0  0
   13.2987    0.0583    7.7275 C   0  0  0  0  0  0  0  0  0  0  0  0
   12.1961   -0.7348    7.5059 C   0  0  0  0  0  0  0  0  0  0  0  0
    8.9699    6.6114   13.1339 C   0  0  0  0  0  0  0  0  0  0  0  0
    7.6997    6.7450   12.3389 C   0  0  0  0  0  0  0  0  0  0  0  0
    6.7705    7.7287   12.4025 N   0  0  0  0  0  0  0  0  0  0  0  0
    5.7922    7.4757   11.5269 C   0  0  0  0  0  0  0  0  0  0  0  0
    6.1299    6.3140   10.9174 N   0  0  0  0  0  0  0  0  0  0  0  0
    7.2740    5.8764   11.4042 N   0  0  0  0  0  0  0  0  0  0  0  0
    4.7355    8.5510   11.5689 C   0  0  0  0  0  0  0  0  0  0  0  0
    5.0395    9.1977   12.9038 C   0  0  0  0  0  0  0  0  0  0  0  0
    6.5201    8.9598   13.1322 C   0  0  0  0  0  0  0  0  0  0  0  0
 10 11  1  0  0  0
 11 12  2  0  0  0
 11 16  1  0  0  0
 12 13  1  0  0  0
 13 14  2  0  0  0
 13  5  1  0  0  0
 14 15  1  0  0  0
 15 16  2  0  0  0
  5  6  1  0  0  0
  5  9  1  0  0  0
  6  7  2  0  0  0
  7  8  1  0  0  0
  8  9  2  0  0  0
  8  1  1  0  0  0
  1  2  2  0  0  0
  1  3  1  0  0  0
  3 17  1  0  0  0
 17 18  1  0  0  0
 18 19  1  0  0  0
 18 22  2  0  0  0
 19 20  1  0  0  0
 19 25  1  0  0  0
 20 21  2  0  0  0
 20 23  1  0  0  0
 21 22  1  0  0  0
 23 24  1  0  0  0
 24 25  1  0  0  0
  3  4  1  0  0  0
M  END
> <minimizedAffinity>
-9.03446

$$$$
205


 25 28  0  0  0  0  0  0  0  0999 V2000
   13.3864    2.3281    9.8175 N   0  0  0  0  0  0  0  0  0  0  0  0
   12.8415    3.5944   10.2399 C   0  0  0  0  0  0  0  0  0  0  0  0
   11.8723    4.1661    9.6654 O   0  0  0  0  0  0  0  0  0  0  0  0
   13.5836    4.0719   11.4051 C   0  0  0  0  0  0  0  0  0  0  0  0
   13.7993    5.4166   11.5237 O   0  0  0  0  0  0  0  0  0  0  0  0
   15.0550    5.4601   12.1252 N   0  0  0  0  0  0  0  0  0  0  0  0
   15.8481    4.4459   11.5562 C   0  0  0  0  0  0  0  0  0  0  0  0
   14.9659    3.5540   11.0840 C   0  0  0  0  0  0  0  0  0  0  0  0
   14.7206    2.3151   10.3549 C   0  0  0  0  0  0  0  0  0  0  0  0
   15.5437    1.3860   10.2168 O   0  0  0  0  0  0  0  0  0  0  0  0
   15.3507    6.1192   12.8562 H   0  0  0  0  0  0  0  0  0  0  0  0
    9.0679   -0.6573    8.8779 Br  0  0  0  0  0  0  0  0  0  0  0  0
   10.8603   -0.1006    8.5403 C   0  0  0  0  0  0  0  0  0  0  0  0
   11.4798    0.8842    9.2675 C   0  0  0  0  0  0  0  0  0  0  0  0
   12.7880    1.3083    9.0441 C   0  0  0  0  0  0  0  0  0  0  0  0
   13.4542    0.6622    8.0143 C   0  0  0  0  0  0  0  0  0  0  0  0
   12.8431   -0.3249    7.2791 C   0  0  0  0  0  0  0  0  0  0  0  0
   11.5350   -0.7357    7.5179 C   0  0  0  0  0  0  0  0  0  0  0  0
   17.2970    4.3223   11.5165 C   0  0  0  0  0  0  0  0  0  0  0  0
   18.1653    5.3087   11.0397 C   0  0  0  0  0  0  0  0  0  0  0  0
   19.4026    4.8749   11.1759 N   0  0  0  0  0  0  0  0  0  0  0  0
   19.3650    3.6590   11.7157 N   0  0  0  0  0  0  0  0  0  0  0  0
   18.1094    3.3034   11.9286 C   0  0  0  0  0  0  0  0  0  0  0  0
   20.6257    5.5823   10.8006 C   0  0  0  0  0  0  0  0  0  0  0  0
   17.7705    6.6107   10.4525 C   0  0  0  0  0  0  0  0  0  0  0  0
 12 13  1  0  0  0
 13 14  2  0  0  0
 13 18  1  0  0  0
 14 15  1  0  0  0
 15 16  2  0  0  0
 15  1  1  0  0  0
 16 17  1  0  0  0
 17 18  2  0  0  0
  1  2  1  0  0  0
  1  9  1  0  0  0
  2  3  2  0  0  0
  2  4  1  0  0  0
  4  5  1  0  0  0
  4  8  1  0  0  0
  5  6  1  0  0  0
  6  7  1  0  0  0
  7  8  2  0  0  0
  7 19  1  0  0  0
  8  9  1  0  0  0
  9 10  2  0  0  0
 19 20  2  0  0  0
 19 23  1  0  0  0
 20 21  1  0  0  0
 20 25  1  0  0  0
 21 22  1  0  0  0
 21 24  1  0  0  0
 22 23  2  0  0  0
  6 11  1  0  0  0
M  END
> <minimizedAffinity>
-8.85548

$$$$
211


 22 25  0  0  0  0  0  0  0  0999 V2000
   11.5399    4.8751   10.4263 N   0  0  0  0  0  0  0  0  0  0  0  0
   10.4467    5.6859   10.0199 C   0  0  0  0  0  0  0  0  0  0  0  0
    9.7485    5.4942    8.9568 O   0  0  0  0  0  0  0  0  0  0  0  0
   10.2553    6.7593   11.0059 C   0  0  0  0  0  0  0  0  0  0  0  0
    9.2457    6.3003   12.0122 C   0  0  0  0  0  0  0  0  0  0  0  0
   10.0117    5.3140   12.6849 O   0  0  0  0  0  0  0  0  0  0  0  0
   11.0304    6.1928   13.1399 C   0  0  0  0  0  0  0  0  0  0  0  0
   11.5228    6.7418   11.8136 C   0  0  0  0  0  0  0  0  0  0  0  0
   12.3799    5.6967   11.2190 C   0  0  0  0  0  0  0  0  0  0  0  0
   13.6204    5.5736   11.3947 O   0  0  0  0  0  0  0  0  0  0  0  0
   10.2024    7.1955   13.8480 C   0  0  0  0  0  0  0  0  0  0  0  0
    9.0568    7.2496   13.1427 C   0  0  0  0  0  0  0  0  0  0  0  0
   14.8470    1.2945    8.3452 Br  0  0  0  0  0  0  0  0  0  0  0  0
   13.1831    1.7521    9.1628 C   0  0  0  0  0  0  0  0  0  0  0  0
   12.9255    3.0430    9.4974 C   0  0  0  0  0  0  0  0  0  0  0  0
   11.7535    3.4840   10.0927 C   0  0  0  0  0  0  0  0  0  0  0  0
   10.8042    2.5216   10.3507 C   0  0  0  0  0  0  0  0  0  0  0  0
   11.0379    1.1846   10.0197 C   0  0  0  0  0  0  0  0  0  0  0  0
   12.2215    0.7965    9.4273 C   0  0  0  0  0  0  0  0  0  0  0  0
    7.9794    5.7759   11.4501 C   0  0  0  0  0  0  0  0  0  0  0  0
    7.0435    6.8110   11.4132 O   0  0  0  0  0  0  0  0  0  0  0  0
    6.1802    6.5066   11.7898 H   0  0  0  0  0  0  0  0  0  0  0  0
 13 14  1  0  0  0
 14 15  2  0  0  0
 14 19  1  0  0  0
 15 16  1  0  0  0
 16 17  2  0  0  0
 16  1  1  0  0  0
 17 18  1  0  0  0
 18 19  2  0  0  0
  1  2  1  0  0  0
  1  9  1  0  0  0
  2  3  2  0  0  0
  2  4  1  0  0  0
  4  5  1  0  0  0
  4  8  1  0  0  0
  5  6  1  0  0  0
  5 12  1  0  0  0
  5 20  1  0  0  0
  6  7  1  0  0  0
  7  8  1  0  0  0
  7 11  1  0  0  0
  8  9  1  0  0  0
  9 10  2  0  0  0
 11 12  2  0  0  0
 20 21  1  0  0  0
 21 22  1  0  0  0
M  END
> <minimizedAffinity>
-7.85989

$$$$
213


 25 28  0  0  0  0  0  0  0  0999 V2000
   10.7594    4.1847   10.6938 N   0  0  0  0  0  0  0  0  0  0  0  0
   10.2360    5.3397   10.0020 C   0  0  0  0  0  0  0  0  0  0  0  0
    9.6861    5.3819    8.8959 O   0  0  0  0  0  0  0  0  0  0  0  0
   10.4723    6.5283   10.8718 C   0  0  0  0  0  0  0  0  0  0  0  0
    9.4691    7.4787   10.8220 O   0  0  0  0  0  0  0  0  0  0  0  0
    9.5238    8.0048   12.0911 N   0  0  0  0  0  0  0  0  0  0  0  0
    9.6381    6.8552   12.9489 C   0  0  0  0  0  0  0  0  0  0  0  0
   10.2175    5.9195   12.2362 C   0  0  0  0  0  0  0  0  0  0  0  0
   10.7445    4.5574   12.0899 C   0  0  0  0  0  0  0  0  0  0  0  0
   11.1064    3.8760   13.0550 O   0  0  0  0  0  0  0  0  0  0  0  0
    9.4920    8.9856   12.3895 H   0  0  0  0  0  0  0  0  0  0  0  0
   14.7709    1.4164    8.6461 Br  0  0  0  0  0  0  0  0  0  0  0  0
   12.9431    1.6240    9.1329 C   0  0  0  0  0  0  0  0  0  0  0  0
   12.5000    2.8064    9.7342 C   0  0  0  0  0  0  0  0  0  0  0  0
   11.1822    2.9770   10.0929 C   0  0  0  0  0  0  0  0  0  0  0  0
   10.3162    1.9424    9.8395 C   0  0  0  0  0  0  0  0  0  0  0  0
   10.7564    0.7553    9.2369 C   0  0  0  0  0  0  0  0  0  0  0  0
   12.0767    0.5867    8.8786 C   0  0  0  0  0  0  0  0  0  0  0  0
    9.2095    6.7079   14.3136 C   0  0  0  0  0  0  0  0  0  0  0  0
   10.0464    6.9783   15.3942 C   0  0  0  0  0  0  0  0  0  0  0  0
    9.3784    6.7691   16.5430 N   0  0  0  0  0  0  0  0  0  0  0  0
    8.1656    6.3812   16.1878 N   0  0  0  0  0  0  0  0  0  0  0  0
    8.0087    6.3274   14.8669 C   0  0  0  0  0  0  0  0  0  0  0  0
    6.7804    5.9422   14.0930 C   0  0  0  0  0  0  0  0  0  0  0  0
    9.9041    6.9391   17.9075 C   0  0  0  0  0  0  0  0  0  0  0  0
 12 13  1  0  0  0
 13 14  2  0  0  0
 13 18  1  0  0  0
 14 15  1  0  0  0
 15 16  2  0  0  0
 15  1  1  0  0  0
 16 17  1  0  0  0
 17 18  2  0  0  0
  1  2  1  0  0  0
  1  9  1  0  0  0
  2  3  2  0  0  0
  2  4  1  0  0  0
  4  5  1  0  0  0
  4  8  1  0  0  0
  5  6  1  0  0  0
  6  7  1  0  0  0
  7  8  2  0  0  0
  7 19  1  0  0  0
  8  9  1  0  0  0
  9 10  2  0  0  0
 19 20  2  0  0  0
 19 23  1  0  0  0
 20 21  1  0  0  0
 21 22  1  0  0  0
 21 25  1  0  0  0
 22 23  2  0  0  0
 23 24  1  0  0  0
  6 11  1  0  0  0
M  END
> <minimizedAffinity>
-8.57425

$$$$
216


 28 31  0  0  0  0  0  0  0  0999 V2000
   12.2751    7.7455   12.5324 C   0  0  0  0  0  0  0  0  0  0  0  0
   12.9080    8.6047   11.8693 O   0  0  0  0  0  0  0  0  0  0  0  0
   11.2651    8.1088   13.4482 N   0  0  0  0  0  0  0  0  0  0  0  0
   10.5101    7.1409   14.2319 C   0  0  0  0  0  0  0  0  0  0  0  0
    9.1382    7.7251   14.5438 C   0  0  0  0  0  0  0  0  0  0  0  0
    8.6975    8.6847   13.5506 N   0  0  0  0  0  0  0  0  0  0  0  0
    9.5142    9.8447   13.6260 C   0  0  0  0  0  0  0  0  0  0  0  0
   10.9734    9.5395   13.6035 C   0  0  0  0  0  0  0  0  0  0  0  0
   12.9360    4.5461   11.0411 N   0  0  0  0  0  0  0  0  0  0  0  0
   12.4869    5.9184   10.8589 C   0  0  0  0  0  0  0  0  0  0  0  0
   12.6047    6.3478   12.3362 C   0  0  0  0  0  0  0  0  0  0  0  0
   14.0938    6.0272   12.5069 C   0  0  0  0  0  0  0  0  0  0  0  0
   14.0985    4.6909   11.8492 C   0  0  0  0  0  0  0  0  0  0  0  0
   14.9915    3.8234   11.9858 O   0  0  0  0  0  0  0  0  0  0  0  0
   13.4133    0.3600    7.9160 Br  0  0  0  0  0  0  0  0  0  0  0  0
   12.3912    1.4414    9.0793 C   0  0  0  0  0  0  0  0  0  0  0  0
   12.9734    2.5702    9.6450 C   0  0  0  0  0  0  0  0  0  0  0  0
   12.2895    3.4095   10.5048 C   0  0  0  0  0  0  0  0  0  0  0  0
   10.9838    3.0603   10.7711 C   0  0  0  0  0  0  0  0  0  0  0  0
   10.3438    1.9571   10.2451 C   0  0  0  0  0  0  0  0  0  0  0  0
   11.0647    1.1488    9.3931 C   0  0  0  0  0  0  0  0  0  0  0  0
    8.5161    8.0981   12.2706 C   0  0  0  0  0  0  0  0  0  0  0  0
    7.3634    7.1296   12.1952 C   0  0  0  0  0  0  0  0  0  0  0  0
    6.0770    7.7573   12.0974 N   0  0  0  0  0  0  0  0  0  0  0  0
    5.2783    7.8536   11.0330 C   0  0  0  0  0  0  0  0  0  0  0  0
    4.1595    8.5316   11.3683 N   0  0  0  0  0  0  0  0  0  0  0  0
    4.2481    8.8698   12.6600 C   0  0  0  0  0  0  0  0  0  0  0  0
    5.4533    8.3803   13.1068 C   0  0  0  0  0  0  0  0  0  0  0  0
 15 16  1  0  0  0
 16 17  2  0  0  0
 16 21  1  0  0  0
 17 18  1  0  0  0
 18 19  2  0  0  0
 18  9  1  0  0  0
 19 20  1  0  0  0
 20 21  2  0  0  0
  9 10  1  0  0  0
  9 13  1  0  0  0
 10 11  1  0  0  0
 11 12  1  0  0  0
 11  1  1  0  0  0
 12 13  1  0  0  0
 13 14  2  0  0  0
  1  2  2  0  0  0
  1  3  1  0  0  0
  3  4  1  0  0  0
  3  8  1  0  0  0
  4  5  1  0  0  0
  5  6  1  0  0  0
  6  7  1  0  0  0
  6 22  1  0  0  0
  7  8  1  0  0  0
 22 23  1  0  0  0
 23 24  1  0  0  0
 24 25  1  0  0  0
 24 28  1  0  0  0
 25 26  2  0  0  0
 26 27  1  0  0  0
 27 28  2  0  0  0
M  END
> <minimizedAffinity>
-8.04575

$$$$
219


 27 30  0  0  0  0  0  0  0  0999 V2000
   11.2616    4.4479   12.3412 N   0  0  0  0  0  0  0  0  0  0  0  0
   10.5251    4.9418   11.2295 C   0  0  0  0  0  0  0  0  0  0  0  0
   10.1759    4.0546   10.3751 O   0  0  0  0  0  0  0  0  0  0  0  0
   11.5676    5.1255   13.0707 H   0  0  0  0  0  0  0  0  0  0  0  0
   10.1587    6.3570   11.0159 C   0  0  0  0  0  0  0  0  0  0  0  0
    9.1638    6.8634   11.9215 N   0  0  0  0  0  0  0  0  0  0  0  0
    7.8110    6.3772   11.9174 C   0  0  0  0  0  0  0  0  0  0  0  0
    7.2295    5.7264   11.0135 O   0  0  0  0  0  0  0  0  0  0  0  0
    7.1931    6.7766   13.1817 C   0  0  0  0  0  0  0  0  0  0  0  0
    8.2645    7.5447   13.9813 C   0  0  0  0  0  0  0  0  0  0  0  0
    7.6221    8.8114   14.4248 C   0  0  0  0  0  0  0  0  0  0  0  0
    6.1451    8.3720   14.5094 C   0  0  0  0  0  0  0  0  0  0  0  0
    6.1342    7.8382   13.0630 C   0  0  0  0  0  0  0  0  0  0  0  0
    6.7407    9.0310   12.3805 C   0  0  0  0  0  0  0  0  0  0  0  0
    7.5109    9.6940   13.2368 C   0  0  0  0  0  0  0  0  0  0  0  0
    9.2852    7.8577   12.9475 C   0  0  0  0  0  0  0  0  0  0  0  0
   10.1021    8.7948   12.9409 O   0  0  0  0  0  0  0  0  0  0  0  0
   11.5965    3.0647   12.4955 C   0  0  0  0  0  0  0  0  0  0  0  0
   12.9576    2.7663   11.8474 C   0  0  0  0  0  0  0  0  0  0  0  0
   12.8342    2.0757   10.7610 O   0  0  0  0  0  0  0  0  0  0  0  0
    9.6283   -1.2307    8.3402 Br  0  0  0  0  0  0  0  0  0  0  0  0
   11.2525   -0.2422    8.5162 C   0  0  0  0  0  0  0  0  0  0  0  0
   11.4880    0.5817    9.5825 C   0  0  0  0  0  0  0  0  0  0  0  0
   12.6747    1.3211    9.7373 C   0  0  0  0  0  0  0  0  0  0  0  0
   13.6153    1.1486    8.7018 C   0  0  0  0  0  0  0  0  0  0  0  0
   13.3819    0.3219    7.6304 C   0  0  0  0  0  0  0  0  0  0  0  0
   12.1958   -0.3781    7.5341 C   0  0  0  0  0  0  0  0  0  0  0  0
 21 22  1  0  0  0
 22 23  2  0  0  0
 22 27  1  0  0  0
 23 24  1  0  0  0
 24 25  2  0  0  0
 24 20  1  0  0  0
 25 26  1  0  0  0
 26 27  2  0  0  0
 20 19  1  0  0  0
 19 18  1  0  0  0
 18  1  1  0  0  0
  1  2  1  0  0  0
  2  3  2  0  0  0
  2  5  1  0  0  0
  5  6  1  0  0  0
  6  7  1  0  0  0
  6 16  1  0  0  0
  7  8  2  0  0  0
  7  9  1  0  0  0
  9 10  1  0  0  0
  9 13  1  0  0  0
 10 11  1  0  0  0
 10 16  1  0  0  0
 11 12  1  0  0  0
 11 15  1  0  0  0
 12 13  1  0  0  0
 13 14  1  0  0  0
 14 15  2  0  0  0
 16 17  2  0  0  0
  1  4  1  0  0  0
M  END
> <minimizedAffinity>
-8.30113

$$$$
226


 30 33  0  0  0  0  0  0  0  0999 V2000
   12.3701    2.3861    9.5131 N   0  0  0  0  0  0  0  0  0  0  0  0
   12.0364    1.2459    8.8859 C   0  0  0  0  0  0  0  0  0  0  0  0
   10.6943    0.9818    9.0813 C   0  0  0  0  0  0  0  0  0  0  0  0
   10.2484    1.9935    9.8359 N   0  0  0  0  0  0  0  0  0  0  0  0
   11.2404    2.8585   10.1125 C   0  0  0  0  0  0  0  0  0  0  0  0
   10.1355   -0.1154    8.5390 N   0  0  0  0  0  0  0  0  0  0  0  0
   10.8708   -0.9678    7.8037 C   0  0  0  0  0  0  0  0  0  0  0  0
   10.3896   -2.0029    7.2798 O   0  0  0  0  0  0  0  0  0  0  0  0
   12.1943   -0.7192    7.6027 N   0  0  0  0  0  0  0  0  0  0  0  0
   12.7985    0.3636    8.1239 C   0  0  0  0  0  0  0  0  0  0  0  0
   14.0397    0.5599    7.9150 O   0  0  0  0  0  0  0  0  0  0  0  0
    8.7320   -0.4208    8.7262 C   0  0  0  0  0  0  0  0  0  0  0  0
   12.7302   -1.4068    7.0237 H   0  0  0  0  0  0  0  0  0  0  0  0
   11.1919    4.0544   10.8686 N   0  0  0  0  0  0  0  0  0  0  0  0
   10.9900    5.2945   10.1916 C   0  0  0  0  0  0  0  0  0  0  0  0
   10.5944    6.4610   11.0179 C   0  0  0  0  0  0  0  0  0  0  0  0
   10.9770    6.4069   12.3980 N   0  0  0  0  0  0  0  0  0  0  0  0
   10.5314    5.1367   12.9368 C   0  0  0  0  0  0  0  0  0  0  0  0
   11.3391    4.0096   12.2909 C   0  0  0  0  0  0  0  0  0  0  0  0
   12.3743    6.6478   12.6190 C   0  0  0  0  0  0  0  0  0  0  0  0
   13.6609    3.0133    9.5507 C   0  0  0  0  0  0  0  0  0  0  0  0
   14.5257    2.5119   10.6640 C   0  0  0  0  0  0  0  0  0  0  0  0
   14.4140    1.3468   11.0788 O   0  0  0  0  0  0  0  0  0  0  0  0
   18.7588    6.1810   13.3014 Br  0  0  0  0  0  0  0  0  0  0  0  0
   17.4350    5.0705   12.5073 C   0  0  0  0  0  0  0  0  0  0  0  0
   17.8039    4.0641   11.6264 C   0  0  0  0  0  0  0  0  0  0  0  0
   16.8631    3.2396   11.0322 C   0  0  0  0  0  0  0  0  0  0  0  0
   15.5211    3.3818   11.2869 C   0  0  0  0  0  0  0  0  0  0  0  0
   15.1659    4.3886   12.1669 C   0  0  0  0  0  0  0  0  0  0  0  0
   16.0898    5.2147   12.7651 C   0  0  0  0  0  0  0  0  0  0  0  0
 24 25  1  0  0  0
 25 26  2  0  0  0
 25 30  1  0  0  0
 26 27  1  0  0  0
 27 28  2  0  0  0
 28 29  1  0  0  0
 28 22  1  0  0  0
 29 30  2  0  0  0
 22 23  2  0  0  0
 22 21  1  0  0  0
 21  1  1  0  0  0
  1  2  1  0  0  0
  1  5  1  0  0  0
  2  3  2  0  0  0
  2 10  1  0  0  0
  3  4  1  0  0  0
  3  6  1  0  0  0
  4  5  2  0  0  0
  5 14  1  0  0  0
 14 15  1  0  0  0
 14 19  1  0  0  0
 15 16  1  0  0  0
 16 17  1  0  0  0
 17 18  1  0  0  0
 17 20  1  0  0  0
 18 19  1  0  0  0
  6  7  1  0  0  0
  6 12  1  0  0  0
  7  8  2  0  0  0
  7  9  1  0  0  0
  9 10  1  0  0  0
 10 11  2  0  0  0
  9 13  1  0  0  0
M  END
> <minimizedAffinity>
-8.71474

$$$$
231


 34 37  0  0  0  0  0  0  0  0999 V2000
   10.8543    6.2006   12.4720 C   0  0  0  0  0  0  0  0  0  0  0  0
    9.6207    6.1750   13.3410 C   0  0  0  0  0  0  0  0  0  0  0  0
   10.0611    6.8922   14.5156 N   0  0  0  0  0  0  0  0  0  0  0  0
   10.9687    7.8896   14.0584 C   0  0  0  0  0  0  0  0  0  0  0  0
   11.4672    8.8198   14.7645 O   0  0  0  0  0  0  0  0  0  0  0  0
   11.2264    7.6553   12.6245 C   0  0  0  0  0  0  0  0  0  0  0  0
   11.6440    8.4728   11.7890 O   0  0  0  0  0  0  0  0  0  0  0  0
    8.4293    6.7250   12.7131 C   0  0  0  0  0  0  0  0  0  0  0  0
    8.2077    8.1065   12.6202 C   0  0  0  0  0  0  0  0  0  0  0  0
    7.0774    8.6208   12.0195 C   0  0  0  0  0  0  0  0  0  0  0  0
    6.1144    7.7877   11.4807 C   0  0  0  0  0  0  0  0  0  0  0  0
    6.3127    6.4258   11.5601 C   0  0  0  0  0  0  0  0  0  0  0  0
    7.4532    5.9244   12.1675 C   0  0  0  0  0  0  0  0  0  0  0  0
    4.9670    8.2793   10.8708 O   0  0  0  0  0  0  0  0  0  0  0  0
    6.8524    9.9829   11.9251 O   0  0  0  0  0  0  0  0  0  0  0  0
    7.6076   10.9462   12.6145 C   0  0  0  0  0  0  0  0  0  0  0  0
   10.6410    5.8306   11.0850 C   0  0  0  0  0  0  0  0  0  0  0  0
   10.0975    6.6165   10.2817 O   0  0  0  0  0  0  0  0  0  0  0  0
   12.5184    0.3567    9.0516 Br  0  0  0  0  0  0  0  0  0  0  0  0
   11.9146    2.0415    9.6822 C   0  0  0  0  0  0  0  0  0  0  0  0
   12.8400    3.0248    9.9381 C   0  0  0  0  0  0  0  0  0  0  0  0
   12.4176    4.2463   10.3942 C   0  0  0  0  0  0  0  0  0  0  0  0
   11.0630    4.5264   10.6077 C   0  0  0  0  0  0  0  0  0  0  0  0
   10.1859    3.4972   10.3317 C   0  0  0  0  0  0  0  0  0  0  0  0
   10.5747    2.2529    9.8711 C   0  0  0  0  0  0  0  0  0  0  0  0
    9.7087    6.7049   15.9009 C   0  0  0  0  0  0  0  0  0  0  0  0
    8.6233    7.6241   16.3725 C   0  0  0  0  0  0  0  0  0  0  0  0
    7.4306    6.9953   16.7913 N   0  0  0  0  0  0  0  0  0  0  0  0
    6.4369    7.1477   15.7233 C   0  0  0  0  0  0  0  0  0  0  0  0
    5.9522    8.5532   15.5882 C   0  0  0  0  0  0  0  0  0  0  0  0
    6.2619    9.3740   16.6449 O   0  0  0  0  0  0  0  0  0  0  0  0
    6.0534    8.7417   17.8457 C   0  0  0  0  0  0  0  0  0  0  0  0
    6.8447    7.4703   17.9940 C   0  0  0  0  0  0  0  0  0  0  0  0
    7.5630    5.9496   16.8829 H   0  0  0  0  0  0  0  0  0  0  0  0
 19 20  1  0  0  0
 20 21  2  0  0  0
 20 25  1  0  0  0
 21 22  1  0  0  0
 22 23  2  0  0  0
 23 24  1  0  0  0
 23 17  1  0  0  0
 24 25  2  0  0  0
 17 18  2  0  0  0
 17  1  1  0  0  0
  1  2  1  0  0  0
  1  6  1  0  0  0
  2  3  1  0  0  0
  2  8  1  0  0  0
  3  4  1  0  0  0
  3 26  1  0  0  0
  4  5  2  0  0  0
  4  6  1  0  0  0
  6  7  2  0  0  0
 26 27  1  0  0  0
 27 28  1  0  0  0
 28 29  1  0  0  0
 28 33  1  0  0  0
 29 30  1  0  0  0
 30 31  1  0  0  0
 31 32  1  0  0  0
 32 33  1  0  0  0
  8  9  2  0  0  0
  8 13  1  0  0  0
  9 10  1  0  0  0
 10 11  2  0  0  0
 10 15  1  0  0  0
 11 12  1  0  0  0
 11 14  1  0  0  0
 12 13  2  0  0  0
 15 16  1  0  0  0
 28 34  1  0  0  0
M  CHG 1  14  -1
M  CHG 1  28   1
M  END
> <minimizedAffinity>
-7.52762

$$$$
235


 25 28  0  0  0  0  0  0  0  0999 V2000
   10.7085    5.0653   11.1437 C   0  0  0  0  0  0  0  0  0  0  0  0
   10.1527    5.8273   12.2510 N   0  0  0  0  0  0  0  0  0  0  0  0
    9.8116    5.5950   13.5676 N   0  0  0  0  0  0  0  0  0  0  0  0
    9.4298    6.5182   14.3780 C   0  0  0  0  0  0  0  0  0  0  0  0
    9.3313    7.8822   13.9121 C   0  0  0  0  0  0  0  0  0  0  0  0
    9.6123    8.1786   12.6646 C   0  0  0  0  0  0  0  0  0  0  0  0
   10.0171    7.1732   11.6999 C   0  0  0  0  0  0  0  0  0  0  0  0
   11.3510    7.3627   11.0688 C   0  0  0  0  0  0  0  0  0  0  0  0
   11.8682    5.9546   10.7530 C   0  0  0  0  0  0  0  0  0  0  0  0
   13.0282    5.8002   11.6282 C   0  0  0  0  0  0  0  0  0  0  0  0
   13.6045    4.7099   11.8964 O   0  0  0  0  0  0  0  0  0  0  0  0
   13.3986    7.0708   12.1267 N   0  0  0  0  0  0  0  0  0  0  0  0
   12.3390    8.0016   11.9466 C   0  0  0  0  0  0  0  0  0  0  0  0
   12.2553    9.1524   12.4400 O   0  0  0  0  0  0  0  0  0  0  0  0
   11.1338    3.7263   11.5740 C   0  0  0  0  0  0  0  0  0  0  0  0
   11.2551    3.5459   12.8292 O   0  0  0  0  0  0  0  0  0  0  0  0
   12.2558   -1.0319    7.8033 Br  0  0  0  0  0  0  0  0  0  0  0  0
   11.8919    0.4405    8.9627 C   0  0  0  0  0  0  0  0  0  0  0  0
   12.8798    0.9898    9.7505 C   0  0  0  0  0  0  0  0  0  0  0  0
   12.6659    2.0506   10.6012 C   0  0  0  0  0  0  0  0  0  0  0  0
   11.4198    2.6145   10.6955 C   0  0  0  0  0  0  0  0  0  0  0  0
   10.4179    2.0706    9.9076 C   0  0  0  0  0  0  0  0  0  0  0  0
   10.6412    1.0100    9.0600 C   0  0  0  0  0  0  0  0  0  0  0  0
   14.6658    7.4023   12.7350 C   0  0  0  0  0  0  0  0  0  0  0  0
   15.7185    7.8022   11.7465 C   0  0  0  0  0  0  0  0  0  0  0  0
 17 18  1  0  0  0
 18 19  2  0  0  0
 18 23  1  0  0  0
 19 20  1  0  0  0
 20 21  2  0  0  0
 21 22  1  0  0  0
 21 15  1  0  0  0
 22 23  2  0  0  0
 15 16  2  0  0  0
 15  1  1  0  0  0
  1  2  1  0  0  0
  1  9  1  0  0  0
  2  3  1  0  0  0
  2  7  1  0  0  0
  3  4  2  0  0  0
  4  5  1  0  0  0
  5  6  2  0  0  0
  6  7  1  0  0  0
  7  8  1  0  0  0
  8  9  1  0  0  0
  8 13  1  0  0  0
  9 10  1  0  0  0
 10 11  2  0  0  0
 10 12  1  0  0  0
 12 13  1  0  0  0
 12 24  1  0  0  0
 13 14  2  0  0  0
 24 25  1  0  0  0
M  END
> <minimizedAffinity>
-7.78319

$$$$
243


 30 33  0  0  0  0  0  0  0  0999 V2000
   12.5032    3.7378   11.0821 C   0  0  0  0  0  0  0  0  0  0  0  0
   12.0565    4.1970   12.4485 C   0  0  0  0  0  0  0  0  0  0  0  0
   11.2856    5.3939   12.1884 N   0  0  0  0  0  0  0  0  0  0  0  0
   11.6017    5.9109   10.8673 C   0  0  0  0  0  0  0  0  0  0  0  0
   12.5237    4.9533   10.1974 C   0  0  0  0  0  0  0  0  0  0  0  0
   10.3055    6.0704   10.1699 C   0  0  0  0  0  0  0  0  0  0  0  0
   10.1714    5.6171    9.0116 O   0  0  0  0  0  0  0  0  0  0  0  0
    9.2585    6.7371   10.8513 N   0  0  0  0  0  0  0  0  0  0  0  0
    9.2282    6.9305   12.2827 C   0  0  0  0  0  0  0  0  0  0  0  0
   10.3234    6.1437   12.9186 C   0  0  0  0  0  0  0  0  0  0  0  0
   10.4280    6.1214   14.1974 O   0  0  0  0  0  0  0  0  0  0  0  0
    8.4720    7.1001   10.2508 H   0  0  0  0  0  0  0  0  0  0  0  0
   12.0759    1.7175    9.7285 C   0  0  0  0  0  0  0  0  0  0  0  0
   13.3277    1.5722    9.5195 O   0  0  0  0  0  0  0  0  0  0  0  0
   11.5985    2.7794   10.5012 N   0  0  0  0  0  0  0  0  0  0  0  0
   10.5850    2.8940   10.6686 H   0  0  0  0  0  0  0  0  0  0  0  0
    8.3623   -2.5261    7.1426 Br  0  0  0  0  0  0  0  0  0  0  0  0
    9.5245   -1.2366    7.9152 C   0  0  0  0  0  0  0  0  0  0  0  0
   10.8505   -1.1017    7.5575 C   0  0  0  0  0  0  0  0  0  0  0  0
   11.6682   -0.1540    8.1385 C   0  0  0  0  0  0  0  0  0  0  0  0
   11.2042    0.7088    9.1096 C   0  0  0  0  0  0  0  0  0  0  0  0
    9.8823    0.5741    9.4664 C   0  0  0  0  0  0  0  0  0  0  0  0
    9.0590   -0.3658    8.8941 C   0  0  0  0  0  0  0  0  0  0  0  0
    9.2900    8.3962   12.6392 C   0  0  0  0  0  0  0  0  0  0  0  0
    7.9360    8.9412   12.9393 C   0  0  0  0  0  0  0  0  0  0  0  0
    6.9304    8.1088   13.4322 C   0  0  0  0  0  0  0  0  0  0  0  0
    5.6984    8.6669   13.6922 C   0  0  0  0  0  0  0  0  0  0  0  0
    5.4187   10.0068   13.4879 C   0  0  0  0  0  0  0  0  0  0  0  0
    6.4413   10.7871   13.0012 C   0  0  0  0  0  0  0  0  0  0  0  0
    7.6933   10.2854   12.7220 C   0  0  0  0  0  0  0  0  0  0  0  0
 17 18  1  0  0  0
 18 19  2  0  0  0
 18 23  1  0  0  0
 19 20  1  0  0  0
 20 21  2  0  0  0
 21 22  1  0  0  0
 21 13  1  0  0  0
 22 23  2  0  0  0
 13 14  2  0  0  0
 13 15  1  0  0  0
 15  1  1  0  0  0
  1  2  1  0  0  0
  1  5  1  0  0  0
  2  3  1  0  0  0
  3  4  1  0  0  0
  3 10  1  0  0  0
  4  5  1  0  0  0
  4  6  1  0  0  0
  6  7  2  0  0  0
  6  8  1  0  0  0
  8  9  1  0  0  0
  9 10  1  0  0  0
  9 24  1  0  0  0
 10 11  2  0  0  0
 24 25  1  0  0  0
 25 26  2  0  0  0
 25 30  1  0  0  0
 26 27  1  0  0  0
 27 28  2  0  0  0
 28 29  1  0  0  0
 29 30  2  0  0  0
 15 16  1  0  0  0
  8 12  1  0  0  0
M  END
> <minimizedAffinity>
-8.89357

$$$$
244


 25 28  0  0  0  0  0  0  0  0999 V2000
    5.7742    9.9406   12.8601 C   0  0  0  0  0  0  0  0  0  0  0  0
    5.4612    8.7307   12.0108 C   0  0  0  0  0  0  0  0  0  0  0  0
    6.7358    8.0378   11.9485 N   0  0  0  0  0  0  0  0  0  0  0  0
    7.8061    8.9984   12.1314 C   0  0  0  0  0  0  0  0  0  0  0  0
    7.1979   10.3046   12.5171 C   0  0  0  0  0  0  0  0  0  0  0  0
    8.7013    8.4408   13.1768 C   0  0  0  0  0  0  0  0  0  0  0  0
    9.1488    9.1111   14.1365 O   0  0  0  0  0  0  0  0  0  0  0  0
    9.0880    7.0806   13.1131 N   0  0  0  0  0  0  0  0  0  0  0  0
    8.2754    6.0713   12.4664 C   0  0  0  0  0  0  0  0  0  0  0  0
    9.2868    5.4225   11.5758 C   0  0  0  0  0  0  0  0  0  0  0  0
   10.5104    5.3613   12.4980 C   0  0  0  0  0  0  0  0  0  0  0  0
   10.2496    6.3913   13.6015 C   0  0  0  0  0  0  0  0  0  0  0  0
    7.1265    6.6844   11.7534 C   0  0  0  0  0  0  0  0  0  0  0  0
    6.4466    5.9855   10.9264 O   0  0  0  0  0  0  0  0  0  0  0  0
    4.5217    9.9891   14.9760 C   0  0  0  0  0  0  0  0  0  0  0  0
    3.5469   10.4849   14.3735 O   0  0  0  0  0  0  0  0  0  0  0  0
    5.7068    9.6808   14.2607 N   0  0  0  0  0  0  0  0  0  0  0  0
    6.5506    9.2634   14.7282 H   0  0  0  0  0  0  0  0  0  0  0  0
    3.8686    8.8761   21.0253 Br  0  0  0  0  0  0  0  0  0  0  0  0
    4.1279    9.2313   19.1788 C   0  0  0  0  0  0  0  0  0  0  0  0
    3.0699    9.0899   18.2973 C   0  0  0  0  0  0  0  0  0  0  0  0
    3.2039    9.3343   16.9483 C   0  0  0  0  0  0  0  0  0  0  0  0
    4.4135    9.7355   16.4261 C   0  0  0  0  0  0  0  0  0  0  0  0
    5.4588    9.8768   17.2882 C   0  0  0  0  0  0  0  0  0  0  0  0
    5.3421    9.6335   18.6548 C   0  0  0  0  0  0  0  0  0  0  0  0
 19 20  1  0  0  0
 20 21  2  0  0  0
 20 25  1  0  0  0
 21 22  1  0  0  0
 22 23  2  0  0  0
 23 24  1  0  0  0
 23 15  1  0  0  0
 24 25  2  0  0  0
 15 16  2  0  0  0
 15 17  1  0  0  0
 17  1  1  0  0  0
  1  2  1  0  0  0
  1  5  1  0  0  0
  2  3  1  0  0  0
  3  4  1  0  0  0
  3 13  1  0  0  0
  4  5  1  0  0  0
  4  6  1  0  0  0
  6  7  2  0  0  0
  6  8  1  0  0  0
  8  9  1  0  0  0
  8 12  1  0  0  0
  9 10  1  0  0  0
  9 13  1  0  0  0
 10 11  1  0  0  0
 11 12  1  0  0  0
 13 14  2  0  0  0
 17 18  1  0  0  0
M  END
> <minimizedAffinity>
-7.86903

$$$$
247


 23 26  0  0  0  0  0  0  0  0999 V2000
   10.3556    5.5142   11.2767 N   0  0  0  0  0  0  0  0  0  0  0  0
   11.6541    5.4102   11.8495 C   0  0  0  0  0  0  0  0  0  0  0  0
   11.9032    5.8497   13.0236 O   0  0  0  0  0  0  0  0  0  0  0  0
   12.5909    4.7488   10.9044 C   0  0  0  0  0  0  0  0  0  0  0  0
   11.6605    4.3288    9.7827 C   0  0  0  0  0  0  0  0  0  0  0  0
   11.4365    2.8735   10.1333 C   0  0  0  0  0  0  0  0  0  0  0  0
   12.9199    2.4827   10.3005 C   0  0  0  0  0  0  0  0  0  0  0  0
   13.1216    3.4625   11.4717 C   0  0  0  0  0  0  0  0  0  0  0  0
   12.0361    2.9283   12.3687 C   0  0  0  0  0  0  0  0  0  0  0  0
   11.0101    2.7213   11.5521 C   0  0  0  0  0  0  0  0  0  0  0  0
   10.4338    5.1341    9.9177 C   0  0  0  0  0  0  0  0  0  0  0  0
    9.6376    5.4109    8.9947 O   0  0  0  0  0  0  0  0  0  0  0  0
    8.6708    7.2454   11.7837 C   0  0  0  0  0  0  0  0  0  0  0  0
    9.3150    8.1353   11.1388 O   0  0  0  0  0  0  0  0  0  0  0  0
    9.1395    5.9185   11.8863 N   0  0  0  0  0  0  0  0  0  0  0  0
    8.5900    5.2134   12.4098 H   0  0  0  0  0  0  0  0  0  0  0  0
    3.3828    9.0802   14.3172 Br  0  0  0  0  0  0  0  0  0  0  0  0
    5.0301    8.4869   13.5480 C   0  0  0  0  0  0  0  0  0  0  0  0
    5.4340    8.9875   12.3448 C   0  0  0  0  0  0  0  0  0  0  0  0
    6.6209    8.5731   11.7765 C   0  0  0  0  0  0  0  0  0  0  0  0
    7.4324    7.6384   12.4120 C   0  0  0  0  0  0  0  0  0  0  0  0
    7.0091    7.1447   13.6245 C   0  0  0  0  0  0  0  0  0  0  0  0
    5.8316    7.5492   14.1982 C   0  0  0  0  0  0  0  0  0  0  0  0
 17 18  1  0  0  0
 18 19  2  0  0  0
 18 23  1  0  0  0
 19 20  1  0  0  0
 20 21  2  0  0  0
 21 22  1  0  0  0
 21 13  1  0  0  0
 22 23  2  0  0  0
 13 14  2  0  0  0
 13 15  1  0  0  0
 15  1  1  0  0  0
  1  2  1  0  0  0
  1 11  1  0  0  0
  2  3  2  0  0  0
  2  4  1  0  0  0
  4  5  1  0  0  0
  4  8  1  0  0  0
  5  6  1  0  0  0
  5 11  1  0  0  0
  6  7  1  0  0  0
  6 10  1  0  0  0
  7  8  1  0  0  0
  8  9  1  0  0  0
  9 10  2  0  0  0
 11 12  2  0  0  0
 15 16  1  0  0  0
M  END
> <minimizedAffinity>
-7.87035

$$$$
257


 31 34  0  0  0  0  0  0  0  0999 V2000
   15.2371    5.2156   12.0218 C   0  0  0  0  0  0  0  0  0  0  0  0
   15.2493    4.0258   11.4782 C   0  0  0  0  0  0  0  0  0  0  0  0
   14.1173    3.0559   11.3303 C   0  0  0  0  0  0  0  0  0  0  0  0
   14.3924    2.5152   10.0044 N   0  0  0  0  0  0  0  0  0  0  0  0
   15.8262    2.3705    9.9690 C   0  0  0  0  0  0  0  0  0  0  0  0
   16.4327    1.5594    9.2504 O   0  0  0  0  0  0  0  0  0  0  0  0
   16.4016    3.3375   10.9167 C   0  0  0  0  0  0  0  0  0  0  0  0
   17.6164    3.5284   11.1871 O   0  0  0  0  0  0  0  0  0  0  0  0
   14.0281    5.6994   12.5593 O   0  0  0  0  0  0  0  0  0  0  0  0
   20.4422    8.5675   12.0437 Br  0  0  0  0  0  0  0  0  0  0  0  0
   18.8314    7.5501   12.0226 C   0  0  0  0  0  0  0  0  0  0  0  0
   17.9528    7.5510   10.9604 C   0  0  0  0  0  0  0  0  0  0  0  0
   16.7919    6.8089   10.9627 C   0  0  0  0  0  0  0  0  0  0  0  0
   16.4521    6.0106   12.0625 C   0  0  0  0  0  0  0  0  0  0  0  0
   17.3412    6.0210   13.1159 C   0  0  0  0  0  0  0  0  0  0  0  0
   18.5153    6.7713   13.1154 C   0  0  0  0  0  0  0  0  0  0  0  0
   12.8111    3.7548   11.4118 C   0  0  0  0  0  0  0  0  0  0  0  0
   12.5062    4.6321   10.4423 N   0  0  0  0  0  0  0  0  0  0  0  0
   11.3572    5.3110   10.4038 C   0  0  0  0  0  0  0  0  0  0  0  0
   10.4454    5.0973   11.4112 C   0  0  0  0  0  0  0  0  0  0  0  0
   10.7157    4.2078   12.4243 C   0  0  0  0  0  0  0  0  0  0  0  0
   11.9106    3.5354   12.4169 C   0  0  0  0  0  0  0  0  0  0  0  0
   13.4382    2.1937    8.9833 C   0  0  0  0  0  0  0  0  0  0  0  0
   12.8977    0.7798    9.1309 C   0  0  0  0  0  0  0  0  0  0  0  0
   11.4078    0.8859    9.4556 C   0  0  0  0  0  0  0  0  0  0  0  0
   10.6253   -0.0665    8.6918 N   0  0  0  0  0  0  0  0  0  0  0  0
   11.0385   -0.8196    7.6458 C   0  0  0  0  0  0  0  0  0  0  0  0
   10.0107   -1.5725    7.2187 N   0  0  0  0  0  0  0  0  0  0  0  0
    8.9281   -1.3236    7.9703 C   0  0  0  0  0  0  0  0  0  0  0  0
    9.3349   -0.3764    8.8882 C   0  0  0  0  0  0  0  0  0  0  0  0
   10.0294   -2.2624    6.4158 H   0  0  0  0  0  0  0  0  0  0  0  0
 10 11  1  0  0  0
 11 12  2  0  0  0
 11 16  1  0  0  0
 12 13  1  0  0  0
 13 14  2  0  0  0
 14 15  1  0  0  0
 14  1  1  0  0  0
 15 16  2  0  0  0
  1  2  2  0  0  0
  1  9  1  0  0  0
  2  3  1  0  0  0
  2  7  1  0  0  0
  3  4  1  0  0  0
  3 17  1  0  0  0
  4  5  1  0  0  0
  4 23  1  0  0  0
  5  6  2  0  0  0
  5  7  1  0  0  0
  7  8  2  0  0  0
 23 24  1  0  0  0
 24 25  1  0  0  0
 25 26  1  0  0  0
 26 27  1  0  0  0
 26 30  1  0  0  0
 27 28  2  0  0  0
 28 29  1  0  0  0
 29 30  2  0  0  0
 17 18  2  0  0  0
 17 22  1  0  0  0
 18 19  1  0  0  0
 19 20  2  0  0  0
 20 21  1  0  0  0
 21 22  2  0  0  0
 28 31  1  0  0  0
M  CHG 1   9  -1
M  END
> <minimizedAffinity>
-8.10462

$$$$
263


 34 37  0  0  0  0  0  0  0  0999 V2000
   15.1121    4.6883   12.0121 C   0  0  0  0  0  0  0  0  0  0  0  0
   15.0604    3.5825   11.3176 C   0  0  0  0  0  0  0  0  0  0  0  0
   13.8609    2.6955   11.1061 C   0  0  0  0  0  0  0  0  0  0  0  0
   14.0709    2.1651    9.8031 N   0  0  0  0  0  0  0  0  0  0  0  0
   15.5027    2.1007    9.5960 C   0  0  0  0  0  0  0  0  0  0  0  0
   16.1208    1.4059    8.7541 O   0  0  0  0  0  0  0  0  0  0  0  0
   16.1392    2.9992   10.5531 C   0  0  0  0  0  0  0  0  0  0  0  0
   17.3966    3.1987   10.6545 O   0  0  0  0  0  0  0  0  0  0  0  0
   13.9290    5.1350   12.6418 O   0  0  0  0  0  0  0  0  0  0  0  0
   20.4688    7.5211   12.8278 Br  0  0  0  0  0  0  0  0  0  0  0  0
   18.7680    6.6774   12.5211 C   0  0  0  0  0  0  0  0  0  0  0  0
   18.3374    5.7513   13.4440 C   0  0  0  0  0  0  0  0  0  0  0  0
   17.1322    5.1383   13.2484 C   0  0  0  0  0  0  0  0  0  0  0  0
   16.3488    5.4420   12.1361 C   0  0  0  0  0  0  0  0  0  0  0  0
   16.7837    6.3556   11.2333 C   0  0  0  0  0  0  0  0  0  0  0  0
   17.9983    6.9820   11.4185 C   0  0  0  0  0  0  0  0  0  0  0  0
   12.6172    3.4105   11.3625 C   0  0  0  0  0  0  0  0  0  0  0  0
   12.1191    4.4480   10.6213 C   0  0  0  0  0  0  0  0  0  0  0  0
   10.9325    5.0634   10.9242 C   0  0  0  0  0  0  0  0  0  0  0  0
   10.2092    4.6371   12.0048 C   0  0  0  0  0  0  0  0  0  0  0  0
   10.6638    3.5872   12.7968 C   0  0  0  0  0  0  0  0  0  0  0  0
   11.8545    2.9938   12.4655 C   0  0  0  0  0  0  0  0  0  0  0  0
   10.4794    6.1256   10.1168 N   0  0  0  0  0  0  0  0  0  0  0  0
    9.8892    7.1282   10.5945 O   0  0  0  0  0  0  0  0  0  0  0  0
   10.6943    6.0555    8.7594 O   0  0  0  0  0  0  0  0  0  0  0  0
   13.1807    1.6769    8.7663 C   0  0  0  0  0  0  0  0  0  0  0  0
   13.0378    0.1914    8.6871 C   0  0  0  0  0  0  0  0  0  0  0  0
   11.6730   -0.2578    8.9093 N   0  0  0  0  0  0  0  0  0  0  0  0
   11.1488   -0.9341    7.7184 C   0  0  0  0  0  0  0  0  0  0  0  0
    9.7829   -1.4866    8.1482 C   0  0  0  0  0  0  0  0  0  0  0  0
    8.9216   -0.4951    8.5500 O   0  0  0  0  0  0  0  0  0  0  0  0
    9.4403    0.3505    9.5181 C   0  0  0  0  0  0  0  0  0  0  0  0
   10.8071    0.8699    9.1457 C   0  0  0  0  0  0  0  0  0  0  0  0
   11.5679   -0.9265    9.6765 H   0  0  0  0  0  0  0  0  0  0  0  0
 10 11  1  0  0  0
 11 12  2  0  0  0
 11 16  1  0  0  0
 12 13  1  0  0  0
 13 14  2  0  0  0
 14 15  1  0  0  0
 14  1  1  0  0  0
 15 16  2  0  0  0
  1  2  2  0  0  0
  1  9  1  0  0  0
  2  3  1  0  0  0
  2  7  1  0  0  0
  3  4  1  0  0  0
  3 17  1  0  0  0
  4  5  1  0  0  0
  4 26  1  0  0  0
  5  6  2  0  0  0
  5  7  1  0  0  0
  7  8  2  0  0  0
 26 27  1  0  0  0
 27 28  1  0  0  0
 28 29  1  0  0  0
 28 33  1  0  0  0
 29 30  1  0  0  0
 30 31  1  0  0  0
 31 32  1  0  0  0
 32 33  1  0  0  0
 17 18  2  0  0  0
 17 22  1  0  0  0
 18 19  1  0  0  0
 19 20  2  0  0  0
 19 23  1  0  0  0
 20 21  1  0  0  0
 21 22  2  0  0  0
 23 24  2  0  0  0
 23 25  1  0  0  0
 28 34  1  0  0  0
M  CHG 1   9  -1
M  CHG 1  25  -1
M  CHG 1  28   1
M  END
> <minimizedAffinity>
-8.77168

$$$$
265


 35 38  0  0  0  0  0  0  0  0999 V2000
   12.7110    4.0368   11.7036 C   0  0  0  0  0  0  0  0  0  0  0  0
   11.9707    5.1231   11.7251 C   0  0  0  0  0  0  0  0  0  0  0  0
   12.0876    6.2527   12.7164 C   0  0  0  0  0  0  0  0  0  0  0  0
   11.0385    7.1603   12.4053 N   0  0  0  0  0  0  0  0  0  0  0  0
   10.3459    6.7633   11.2034 C   0  0  0  0  0  0  0  0  0  0  0  0
    9.4309    7.3483   10.6074 O   0  0  0  0  0  0  0  0  0  0  0  0
   10.9401    5.4760   10.7764 C   0  0  0  0  0  0  0  0  0  0  0  0
   10.5859    4.8178    9.7456 O   0  0  0  0  0  0  0  0  0  0  0  0
   13.7015    3.9516   12.7096 O   0  0  0  0  0  0  0  0  0  0  0  0
   12.3053   -0.5074    7.4970 Br  0  0  0  0  0  0  0  0  0  0  0  0
   12.3902    0.8836    8.8076 C   0  0  0  0  0  0  0  0  0  0  0  0
   13.4045    1.8151    8.7507 C   0  0  0  0  0  0  0  0  0  0  0  0
   13.4804    2.8260    9.6847 C   0  0  0  0  0  0  0  0  0  0  0  0
   12.5550    2.9695   10.7267 C   0  0  0  0  0  0  0  0  0  0  0  0
   11.5511    2.0309   10.7677 C   0  0  0  0  0  0  0  0  0  0  0  0
   11.4692    1.0019    9.8208 C   0  0  0  0  0  0  0  0  0  0  0  0
   13.4310    6.8505   12.4441 C   0  0  0  0  0  0  0  0  0  0  0  0
   14.3272    6.9090   13.4643 C   0  0  0  0  0  0  0  0  0  0  0  0
   15.5794    7.4551   13.2705 C   0  0  0  0  0  0  0  0  0  0  0  0
   15.9280    7.9437   12.0405 C   0  0  0  0  0  0  0  0  0  0  0  0
   15.0230    7.8825   11.0129 C   0  0  0  0  0  0  0  0  0  0  0  0
   13.7642    7.3354   11.2013 C   0  0  0  0  0  0  0  0  0  0  0  0
   17.2531    8.5289   11.8229 C   0  0  0  0  0  0  0  0  0  0  0  0
   17.3954    9.7769   11.8826 O   0  0  0  0  0  0  0  0  0  0  0  0
   18.3655    7.7803   11.5517 O   0  0  0  0  0  0  0  0  0  0  0  0
   18.5804    7.1443   10.3116 C   0  0  0  0  0  0  0  0  0  0  0  0
   10.6503    8.3449   13.1227 C   0  0  0  0  0  0  0  0  0  0  0  0
    9.3682    8.2431   13.8748 C   0  0  0  0  0  0  0  0  0  0  0  0
    8.2622    8.9517   13.3034 N   0  0  0  0  0  0  0  0  0  0  0  0
    8.4493   10.3867   13.2426 C   0  0  0  0  0  0  0  0  0  0  0  0
    7.2930   10.9537   12.4449 C   0  0  0  0  0  0  0  0  0  0  0  0
    6.1422   10.7563   13.2451 O   0  0  0  0  0  0  0  0  0  0  0  0
    5.9239    9.3759   13.2587 C   0  0  0  0  0  0  0  0  0  0  0  0
    7.0296    8.7441   14.0889 C   0  0  0  0  0  0  0  0  0  0  0  0
    7.9994    8.5739   12.3544 H   0  0  0  0  0  0  0  0  0  0  0  0
 10 11  1  0  0  0
 11 12  2  0  0  0
 11 16  1  0  0  0
 12 13  1  0  0  0
 13 14  2  0  0  0
 14 15  1  0  0  0
 14  1  1  0  0  0
 15 16  2  0  0  0
  1  2  2  0  0  0
  1  9  1  0  0  0
  2  3  1  0  0  0
  2  7  1  0  0  0
  3  4  1  0  0  0
  3 17  1  0  0  0
  4  5  1  0  0  0
  4 27  1  0  0  0
  5  6  2  0  0  0
  5  7  1  0  0  0
  7  8  2  0  0  0
 27 28  1  0  0  0
 28 29  1  0  0  0
 29 30  1  0  0  0
 29 34  1  0  0  0
 30 31  1  0  0  0
 31 32  1  0  0  0
 32 33  1  0  0  0
 33 34  1  0  0  0
 17 18  2  0  0  0
 17 22  1  0  0  0
 18 19  1  0  0  0
 19 20  2  0  0  0
 20 21  1  0  0  0
 20 23  1  0  0  0
 21 22  2  0  0  0
 23 24  2  0  0  0
 23 25  1  0  0  0
 25 26  1  0  0  0
 29 35  1  0  0  0
M  CHG 1   9  -1
M  CHG 1  29   1
M  END
> <minimizedAffinity>
-8.33952

$$$$
274


 31 34  0  0  0  0  0  0  0  0999 V2000
   11.6522    4.8246   10.0833 C   0  0  0  0  0  0  0  0  0  0  0  0
   11.4160    5.4752   11.2061 C   0  0  0  0  0  0  0  0  0  0  0  0
   11.5007    6.9337   11.5039 C   0  0  0  0  0  0  0  0  0  0  0  0
   10.4206    7.1311   12.4849 N   0  0  0  0  0  0  0  0  0  0  0  0
   10.4091    5.9446   13.2545 C   0  0  0  0  0  0  0  0  0  0  0  0
    9.9430    5.8474   14.3970 O   0  0  0  0  0  0  0  0  0  0  0  0
   11.0314    4.8757   12.4814 C   0  0  0  0  0  0  0  0  0  0  0  0
   11.2367    3.6706   12.7718 O   0  0  0  0  0  0  0  0  0  0  0  0
   12.0537    5.5843    8.9668 O   0  0  0  0  0  0  0  0  0  0  0  0
   11.1220   -1.2855    9.2650 Br  0  0  0  0  0  0  0  0  0  0  0  0
   11.2894    0.6067    9.5272 C   0  0  0  0  0  0  0  0  0  0  0  0
   12.5237    1.2108    9.5967 C   0  0  0  0  0  0  0  0  0  0  0  0
   12.6368    2.5796    9.7874 C   0  0  0  0  0  0  0  0  0  0  0  0
   11.5286    3.3871    9.9139 C   0  0  0  0  0  0  0  0  0  0  0  0
   10.2955    2.7809    9.8428 C   0  0  0  0  0  0  0  0  0  0  0  0
   10.1745    1.4013    9.6510 C   0  0  0  0  0  0  0  0  0  0  0  0
   12.8083    7.3714   11.9974 C   0  0  0  0  0  0  0  0  0  0  0  0
   13.9348    7.3462   11.1664 C   0  0  0  0  0  0  0  0  0  0  0  0
   15.1756    7.7398   11.5633 C   0  0  0  0  0  0  0  0  0  0  0  0
   15.3728    8.1955   12.8536 C   0  0  0  0  0  0  0  0  0  0  0  0
   14.2926    8.2313   13.6881 C   0  0  0  0  0  0  0  0  0  0  0  0
   13.0184    7.8268   13.2791 C   0  0  0  0  0  0  0  0  0  0  0  0
    9.6413    8.3139   12.5369 C   0  0  0  0  0  0  0  0  0  0  0  0
    8.4212    8.3973   11.7155 C   0  0  0  0  0  0  0  0  0  0  0  0
    7.1807    8.4780   12.4236 N   0  0  0  0  0  0  0  0  0  0  0  0
    7.2230    8.1158   13.7967 C   0  0  0  0  0  0  0  0  0  0  0  0
    6.5685    6.7621   13.9665 C   0  0  0  0  0  0  0  0  0  0  0  0
    6.8927    5.8850   12.9351 O   0  0  0  0  0  0  0  0  0  0  0  0
    6.3572    6.2736   11.7214 C   0  0  0  0  0  0  0  0  0  0  0  0
    6.1056    7.7641   11.7700 C   0  0  0  0  0  0  0  0  0  0  0  0
    6.9064    9.5075   12.3782 H   0  0  0  0  0  0  0  0  0  0  0  0
 10 11  1  0  0  0
 11 12  2  0  0  0
 11 16  1  0  0  0
 12 13  1  0  0  0
 13 14  2  0  0  0
 14 15  1  0  0  0
 14  1  1  0  0  0
 15 16  2  0  0  0
  1  2  2  0  0  0
  1  9  1  0  0  0
  2  3  1  0  0  0
  2  7  1  0  0  0
  3  4  1  0  0  0
  3 17  1  0  0  0
  4  5  1  0  0  0
  4 23  1  0  0  0
  5  6  2  0  0  0
  5  7  1  0  0  0
  7  8  2  0  0  0
 23 24  1  0  0  0
 24 25  1  0  0  0
 25 26  1  0  0  0
 25 30  1  0  0  0
 26 27  1  0  0  0
 27 28  1  0  0  0
 28 29  1  0  0  0
 29 30  1  0  0  0
 17 18  2  0  0  0
 17 22  1  0  0  0
 18 19  1  0  0  0
 19 20  2  0  0  0
 20 21  1  0  0  0
 21 22  2  0  0  0
 25 31  1  0  0  0
M  CHG 1   9  -1
M  CHG 1  25   1
M  END
> <minimizedAffinity>
-8.20788

$$$$
278


 30 33  0  0  0  0  0  0  0  0999 V2000
   12.2061    5.3721   11.3980 N   0  0  0  0  0  0  0  0  0  0  0  0
   13.5392    5.4893   11.6054 C   0  0  0  0  0  0  0  0  0  0  0  0
   14.0412    4.1980   11.6314 C   0  0  0  0  0  0  0  0  0  0  0  0
   15.3960    4.0166   11.8382 C   0  0  0  0  0  0  0  0  0  0  0  0
   16.2676    5.0974   12.0200 C   0  0  0  0  0  0  0  0  0  0  0  0
   15.7174    6.3715   11.9862 C   0  0  0  0  0  0  0  0  0  0  0  0
   14.3757    6.5805   11.7828 C   0  0  0  0  0  0  0  0  0  0  0  0
   13.0286    3.3006   11.4392 N   0  0  0  0  0  0  0  0  0  0  0  0
   11.9106    4.0621   11.3006 C   0  0  0  0  0  0  0  0  0  0  0  0
   10.7363    3.5636   11.1033 N   0  0  0  0  0  0  0  0  0  0  0  0
    9.9084    4.2247   11.0035 H   0  0  0  0  0  0  0  0  0  0  0  0
   10.4978    2.5719   11.0342 H   0  0  0  0  0  0  0  0  0  0  0  0
   11.3466    6.5166   11.3091 C   0  0  0  0  0  0  0  0  0  0  0  0
   10.6441    6.8359   12.5939 C   0  0  0  0  0  0  0  0  0  0  0  0
   10.6344    5.8003   13.5079 O   0  0  0  0  0  0  0  0  0  0  0  0
   10.2108    4.9857   13.1741 H   0  0  0  0  0  0  0  0  0  0  0  0
    4.7796    8.3836   11.5537 Br  0  0  0  0  0  0  0  0  0  0  0  0
    6.6044    7.9018   11.8756 C   0  0  0  0  0  0  0  0  0  0  0  0
    6.9435    6.5707   11.9641 C   0  0  0  0  0  0  0  0  0  0  0  0
    8.2506    6.2330   12.1947 C   0  0  0  0  0  0  0  0  0  0  0  0
    9.2034    7.2110   12.3352 C   0  0  0  0  0  0  0  0  0  0  0  0
    8.8275    8.5294   12.2414 C   0  0  0  0  0  0  0  0  0  0  0  0
    7.5182    8.9208   12.0093 C   0  0  0  0  0  0  0  0  0  0  0  0
   13.2121    1.8809   11.3952 C   0  0  0  0  0  0  0  0  0  0  0  0
   13.2625    1.3234    9.9998 C   0  0  0  0  0  0  0  0  0  0  0  0
   12.1717    0.6192    9.5195 C   0  0  0  0  0  0  0  0  0  0  0  0
   12.1411    0.0782    8.2488 C   0  0  0  0  0  0  0  0  0  0  0  0
   13.2466    0.2620    7.4559 C   0  0  0  0  0  0  0  0  0  0  0  0
   14.3396    0.9539    7.9066 C   0  0  0  0  0  0  0  0  0  0  0  0
   14.3384    1.4781    9.1714 C   0  0  0  0  0  0  0  0  0  0  0  0
 17 18  1  0  0  0
 18 19  2  0  0  0
 18 23  1  0  0  0
 19 20  1  0  0  0
 20 21  2  0  0  0
 21 22  1  0  0  0
 21 14  1  0  0  0
 22 23  2  0  0  0
 14 15  1  0  0  0
 14 13  1  0  0  0
 13  1  1  0  0  0
  1  2  1  0  0  0
  1  9  1  0  0  0
  2  3  1  0  0  0
  2  7  2  0  0  0
  3  4  2  0  0  0
  3  8  1  0  0  0
  4  5  1  0  0  0
  5  6  2  0  0  0
  6  7  1  0  0  0
  8  9  1  0  0  0
  8 24  1  0  0  0
  9 10  2  0  0  0
 24 25  1  0  0  0
 25 26  2  0  0  0
 25 30  1  0  0  0
 26 27  1  0  0  0
 27 28  2  0  0  0
 28 29  1  0  0  0
 29 30  2  0  0  0
 15 16  1  0  0  0
 10 11  1  0  0  0
 10 12  1  0  0  0
M  END
> <minimizedAffinity>
-8.72746

$$$$
289


 31 34  0  0  0  0  0  0  0  0999 V2000
   12.1232    2.6214   10.1667 C   0  0  0  0  0  0  0  0  0  0  0  0
   12.9376    2.0103    9.2905 N   0  0  0  0  0  0  0  0  0  0  0  0
   12.2801    0.9744    8.7185 C   0  0  0  0  0  0  0  0  0  0  0  0
   11.0075    0.9180    9.2435 C   0  0  0  0  0  0  0  0  0  0  0  0
   10.9391    1.9230   10.1167 N   0  0  0  0  0  0  0  0  0  0  0  0
   10.1582   -0.0375    8.8227 N   0  0  0  0  0  0  0  0  0  0  0  0
   10.5130   -0.9435    7.9016 C   0  0  0  0  0  0  0  0  0  0  0  0
    9.6811   -1.8309    7.5272 O   0  0  0  0  0  0  0  0  0  0  0  0
   11.7496   -0.9055    7.3765 N   0  0  0  0  0  0  0  0  0  0  0  0
   12.6204    0.0324    7.7737 C   0  0  0  0  0  0  0  0  0  0  0  0
   13.7747    0.0660    7.2809 O   0  0  0  0  0  0  0  0  0  0  0  0
    8.8100   -0.0631    9.4002 C   0  0  0  0  0  0  0  0  0  0  0  0
   12.0374   -1.6204    6.6469 H   0  0  0  0  0  0  0  0  0  0  0  0
   10.7352    5.5270   11.5394 N   0  0  0  0  0  0  0  0  0  0  0  0
   11.1740    4.8389   12.6790 C   0  0  0  0  0  0  0  0  0  0  0  0
   12.2438    3.7996   12.3597 C   0  0  0  0  0  0  0  0  0  0  0  0
   12.3832    3.7625   10.9457 N   0  0  0  0  0  0  0  0  0  0  0  0
   12.7976    4.9893   10.3089 C   0  0  0  0  0  0  0  0  0  0  0  0
   11.6403    5.9638   10.5578 C   0  0  0  0  0  0  0  0  0  0  0  0
    9.3836    5.3002   11.1481 C   0  0  0  0  0  0  0  0  0  0  0  0
    5.2717    9.4495   13.1602 Br  0  0  0  0  0  0  0  0  0  0  0  0
    6.5625    8.1740   12.5275 C   0  0  0  0  0  0  0  0  0  0  0  0
    6.2033    6.8603   12.3060 C   0  0  0  0  0  0  0  0  0  0  0  0
    7.1322    5.9376   11.8520 C   0  0  0  0  0  0  0  0  0  0  0  0
    8.4285    6.3219   11.6172 C   0  0  0  0  0  0  0  0  0  0  0  0
    8.8040    7.6313   11.8320 C   0  0  0  0  0  0  0  0  0  0  0  0
    7.8673    8.5386   12.2842 C   0  0  0  0  0  0  0  0  0  0  0  0
   14.3110    2.3098    8.9859 C   0  0  0  0  0  0  0  0  0  0  0  0
   15.2603    1.7446   10.0183 C   0  0  0  0  0  0  0  0  0  0  0  0
   15.4809    2.5801   11.0945 O   0  0  0  0  0  0  0  0  0  0  0  0
   16.4504    3.5149   10.6629 C   0  0  0  0  0  0  0  0  0  0  0  0
 21 22  1  0  0  0
 22 23  2  0  0  0
 22 27  1  0  0  0
 23 24  1  0  0  0
 24 25  2  0  0  0
 25 26  1  0  0  0
 25 20  1  0  0  0
 26 27  2  0  0  0
 20 14  1  0  0  0
 14 15  1  0  0  0
 14 19  1  0  0  0
 15 16  1  0  0  0
 16 17  1  0  0  0
 17 18  1  0  0  0
 17  1  1  0  0  0
 18 19  1  0  0  0
  1  2  1  0  0  0
  1  5  2  0  0  0
  2  3  1  0  0  0
  2 28  1  0  0  0
  3  4  2  0  0  0
  3 10  1  0  0  0
  4  5  1  0  0  0
  4  6  1  0  0  0
  6  7  1  0  0  0
  6 12  1  0  0  0
  7  8  2  0  0  0
  7  9  1  0  0  0
  9 10  1  0  0  0
 10 11  2  0  0  0
 28 29  1  0  0  0
 29 30  1  0  0  0
 30 31  1  0  0  0
  9 13  1  0  0  0
M  END
> <minimizedAffinity>
-7.89050

$$$$
293


 27 30  0  0  0  0  0  0  0  0999 V2000
   15.9729    2.4925    9.8659 C   0  0  0  0  0  0  0  0  0  0  0  0
   14.8440    1.8841    9.4833 C   0  0  0  0  0  0  0  0  0  0  0  0
   13.6199    2.0875   10.0991 O   0  0  0  0  0  0  0  0  0  0  0  0
   12.6143    1.3329    9.5036 C   0  0  0  0  0  0  0  0  0  0  0  0
   13.1699    0.6202    8.4844 C   0  0  0  0  0  0  0  0  0  0  0  0
   12.3853   -0.2190    7.7208 C   0  0  0  0  0  0  0  0  0  0  0  0
   11.0529   -0.2978    8.0319 C   0  0  0  0  0  0  0  0  0  0  0  0
   10.4791    0.4344    9.0794 C   0  0  0  0  0  0  0  0  0  0  0  0
   11.2431    1.2735    9.8512 C   0  0  0  0  0  0  0  0  0  0  0  0
    9.1131    0.2968    9.3306 O   0  0  0  0  0  0  0  0  0  0  0  0
   14.6037    0.9371    8.4282 C   0  0  0  0  0  0  0  0  0  0  0  0
   15.4741    0.4953    7.6355 O   0  0  0  0  0  0  0  0  0  0  0  0
   15.9684    6.4452   14.6494 Br  0  0  0  0  0  0  0  0  0  0  0  0
   15.9565    5.2205   13.1677 C   0  0  0  0  0  0  0  0  0  0  0  0
   17.1292    4.7129   12.6569 C   0  0  0  0  0  0  0  0  0  0  0  0
   17.1217    3.8346   11.5900 C   0  0  0  0  0  0  0  0  0  0  0  0
   15.9436    3.4248   10.9884 C   0  0  0  0  0  0  0  0  0  0  0  0
   14.7727    3.9343   11.5032 C   0  0  0  0  0  0  0  0  0  0  0  0
   14.7733    4.8233   12.5815 C   0  0  0  0  0  0  0  0  0  0  0  0
   10.7875    2.0984   10.9767 C   0  0  0  0  0  0  0  0  0  0  0  0
   11.3314    3.3922   11.1259 N   0  0  0  0  0  0  0  0  0  0  0  0
   10.7193    4.3561   10.2353 C   0  0  0  0  0  0  0  0  0  0  0  0
    9.4727    4.9265   10.8863 C   0  0  0  0  0  0  0  0  0  0  0  0
    9.8718    5.8730   11.8173 O   0  0  0  0  0  0  0  0  0  0  0  0
   11.0700    5.4329   12.3898 C   0  0  0  0  0  0  0  0  0  0  0  0
   11.0769    3.9152   12.4796 C   0  0  0  0  0  0  0  0  0  0  0  0
   12.3682    3.3957   11.0406 H   0  0  0  0  0  0  0  0  0  0  0  0
 13 14  1  0  0  0
 14 15  2  0  0  0
 14 19  1  0  0  0
 15 16  1  0  0  0
 16 17  2  0  0  0
 17 18  1  0  0  0
 17  1  1  0  0  0
 18 19  2  0  0  0
  1  2  2  0  0  0
  2  3  1  0  0  0
  2 11  1  0  0  0
  3  4  1  0  0  0
  4  5  2  0  0  0
  4  9  1  0  0  0
  5  6  1  0  0  0
  5 11  1  0  0  0
  6  7  2  0  0  0
  7  8  1  0  0  0
  8  9  2  0  0  0
  8 10  1  0  0  0
  9 20  1  0  0  0
 20 21  1  0  0  0
 21 22  1  0  0  0
 21 26  1  0  0  0
 22 23  1  0  0  0
 23 24  1  0  0  0
 24 25  1  0  0  0
 25 26  1  0  0  0
 11 12  2  0  0  0
 21 27  1  0  0  0
M  CHG 1  10  -1
M  CHG 1  21   1
M  END
> <minimizedAffinity>
-9.47888

$$$$
294


 35 38  0  0  0  0  0  0  0  0999 V2000
    8.1214    8.0755   13.4607 N   0  0  0  0  0  0  0  0  0  0  0  0
    8.5514    7.7851   14.7264 N   0  0  0  0  0  0  0  0  0  0  0  0
    7.4902    7.4665   15.4802 C   0  0  0  0  0  0  0  0  0  0  0  0
    6.4344    7.5653   14.6742 N   0  0  0  0  0  0  0  0  0  0  0  0
    6.8224    7.9487   13.4001 C   0  0  0  0  0  0  0  0  0  0  0  0
    7.4827    7.0895   16.8886 C   0  0  0  0  0  0  0  0  0  0  0  0
    8.3330    6.2661   17.5089 N   0  0  0  0  0  0  0  0  0  0  0  0
    7.9984    6.1771   18.7844 O   0  0  0  0  0  0  0  0  0  0  0  0
    6.9536    6.9149   19.0315 N   0  0  0  0  0  0  0  0  0  0  0  0
    6.5992    7.5087   17.8509 C   0  0  0  0  0  0  0  0  0  0  0  0
    5.4990    8.3934   17.7133 N   0  0  0  0  0  0  0  0  0  0  0  0
    5.1406    8.9205   18.5581 H   0  0  0  0  0  0  0  0  0  0  0  0
    5.0046    8.5667   16.8173 H   0  0  0  0  0  0  0  0  0  0  0  0
    5.8709    8.1328   12.3236 C   0  0  0  0  0  0  0  0  0  0  0  0
    6.2384    8.0016   10.9873 N   0  0  0  0  0  0  0  0  0  0  0  0
    5.2223    8.1946   10.2415 O   0  0  0  0  0  0  0  0  0  0  0  0
    4.1965    8.4450   10.9554 N   0  0  0  0  0  0  0  0  0  0  0  0
    4.5668    8.4148   12.2716 C   0  0  0  0  0  0  0  0  0  0  0  0
    3.6242    8.6454   13.2808 N   0  0  0  0  0  0  0  0  0  0  0  0
    3.4455    9.6260   13.5992 H   0  0  0  0  0  0  0  0  0  0  0  0
    3.0654    7.8998   13.7455 H   0  0  0  0  0  0  0  0  0  0  0  0
    9.0868    8.4340   12.4403 C   0  0  0  0  0  0  0  0  0  0  0  0
    9.6713    5.9859   12.2301 N   0  0  0  0  0  0  0  0  0  0  0  0
    9.4788    7.2528   11.6278 C   0  0  0  0  0  0  0  0  0  0  0  0
    9.6420    7.3732   10.3929 O   0  0  0  0  0  0  0  0  0  0  0  0
    9.5391    5.8516   13.2786 H   0  0  0  0  0  0  0  0  0  0  0  0
   10.9600    4.0761   11.7132 C   0  0  0  0  0  0  0  0  0  0  0  0
   10.0335    4.9110   11.4480 N   0  0  0  0  0  0  0  0  0  0  0  0
   12.4436   -0.6788    8.0449 Br  0  0  0  0  0  0  0  0  0  0  0  0
   11.9968    0.7898    9.1796 C   0  0  0  0  0  0  0  0  0  0  0  0
   10.6781    1.1835    9.3512 C   0  0  0  0  0  0  0  0  0  0  0  0
   10.3316    2.2452   10.1680 C   0  0  0  0  0  0  0  0  0  0  0  0
   11.3009    2.9535   10.8465 C   0  0  0  0  0  0  0  0  0  0  0  0
   12.6085    2.5543   10.6697 C   0  0  0  0  0  0  0  0  0  0  0  0
   12.9667    1.4973    9.8583 C   0  0  0  0  0  0  0  0  0  0  0  0
 29 30  1  0  0  0
 30 31  2  0  0  0
 30 35  1  0  0  0
 31 32  1  0  0  0
 32 33  2  0  0  0
 33 34  1  0  0  0
 33 27  1  0  0  0
 34 35  2  0  0  0
 27 28  2  0  0  0
 28 23  1  0  0  0
 23 24  1  0  0  0
 24 25  2  0  0  0
 24 22  1  0  0  0
 22  1  1  0  0  0
  1  2  1  0  0  0
  1  5  1  0  0  0
  2  3  2  0  0  0
  3  4  1  0  0  0
  3  6  1  0  0  0
  4  5  2  0  0  0
  5 14  1  0  0  0
 14 15  2  0  0  0
 14 18  1  0  0  0
 15 16  1  0  0  0
 16 17  1  0  0  0
 17 18  2  0  0  0
 18 19  1  0  0  0
  6  7  2  0  0  0
  6 10  1  0  0  0
  7  8  1  0  0  0
  8  9  1  0  0  0
  9 10  2  0  0  0
 10 11  1  0  0  0
 23 26  1  0  0  0
 19 20  1  0  0  0
 19 21  1  0  0  0
 11 12  1  0  0  0
 11 13  1  0  0  0
M  END
> <minimizedAffinity>
-9.34442

$$$$
302


 29 33  0  0  0  0  0  0  0  0999 V2000
   12.1847    1.5031    9.7513 C   0  0  0  0  0  0  0  0  0  0  0  0
   11.8454    2.6318   10.4076 N   0  0  0  0  0  0  0  0  0  0  0  0
   12.9580    3.2505   10.8750 C   0  0  0  0  0  0  0  0  0  0  0  0
   14.0279    2.5191   10.5184 N   0  0  0  0  0  0  0  0  0  0  0  0
   13.5609    1.4505    9.8325 C   0  0  0  0  0  0  0  0  0  0  0  0
   15.1020    3.1718   11.0023 C   0  0  0  0  0  0  0  0  0  0  0  0
   14.7057    4.3147   11.6630 C   0  0  0  0  0  0  0  0  0  0  0  0
   15.6168    5.1773   12.2615 C   0  0  0  0  0  0  0  0  0  0  0  0
   16.9619    4.8942   12.1997 C   0  0  0  0  0  0  0  0  0  0  0  0
   17.3490    3.7496   11.5370 C   0  0  0  0  0  0  0  0  0  0  0  0
   16.4676    2.8771   10.9353 C   0  0  0  0  0  0  0  0  0  0  0  0
   13.3499    4.3340   11.5645 N   0  0  0  0  0  0  0  0  0  0  0  0
   10.8809    2.9942   10.5495 H   0  0  0  0  0  0  0  0  0  0  0  0
    8.3157   -2.4675    7.0419 Br  0  0  0  0  0  0  0  0  0  0  0  0
    9.5027   -1.2450    7.8778 C   0  0  0  0  0  0  0  0  0  0  0  0
   10.8343   -1.2047    7.5128 C   0  0  0  0  0  0  0  0  0  0  0  0
   11.7029   -0.3061    8.1274 C   0  0  0  0  0  0  0  0  0  0  0  0
   11.2747    0.5618    9.1062 C   0  0  0  0  0  0  0  0  0  0  0  0
    9.9460    0.5154    9.4634 C   0  0  0  0  0  0  0  0  0  0  0  0
    9.0606   -0.3800    8.8578 C   0  0  0  0  0  0  0  0  0  0  0  0
   12.5441    5.3911   12.1396 C   0  0  0  0  0  0  0  0  0  0  0  0
   12.1524    6.4223   11.1038 C   0  0  0  0  0  0  0  0  0  0  0  0
   10.7262    6.4564   10.9478 N   0  0  0  0  0  0  0  0  0  0  0  0
   10.1997    7.7278   11.3978 C   0  0  0  0  0  0  0  0  0  0  0  0
    8.9685    7.5772   12.2577 C   0  0  0  0  0  0  0  0  0  0  0  0
    8.0507    6.7622   11.5917 O   0  0  0  0  0  0  0  0  0  0  0  0
    8.5664    5.5147   11.3119 C   0  0  0  0  0  0  0  0  0  0  0  0
   10.0315    5.4176   11.6478 C   0  0  0  0  0  0  0  0  0  0  0  0
   10.4663    6.3733    9.9326 H   0  0  0  0  0  0  0  0  0  0  0  0
 14 15  1  0  0  0
 15 16  2  0  0  0
 15 20  1  0  0  0
 16 17  1  0  0  0
 17 18  2  0  0  0
 18 19  1  0  0  0
 18  1  1  0  0  0
 19 20  2  0  0  0
  1  2  1  0  0  0
  1  5  2  0  0  0
  2  3  2  0  0  0
  3  4  1  0  0  0
  3 12  1  0  0  0
  4  5  1  0  0  0
  4  6  1  0  0  0
  6  7  2  0  0  0
  6 11  1  0  0  0
  7  8  1  0  0  0
  7 12  1  0  0  0
  8  9  2  0  0  0
  9 10  1  0  0  0
 10 11  2  0  0  0
 12 21  1  0  0  0
 21 22  1  0  0  0
 22 23  1  0  0  0
 23 24  1  0  0  0
 23 28  1  0  0  0
 24 25  1  0  0  0
 25 26  1  0  0  0
 26 27  1  0  0  0
 27 28  1  0  0  0
  2 13  1  0  0  0
 23 29  1  0  0  0
M  CHG 1  23   1
M  END
> <minimizedAffinity>
-9.30360

$$$$
305


 27 30  0  0  0  0  0  0  0  0999 V2000
   11.2188    3.8480   10.4688 C   0  0  0  0  0  0  0  0  0  0  0  0
   12.3007    3.1493   10.1497 N   0  0  0  0  0  0  0  0  0  0  0  0
   11.9921    2.1619    9.2732 C   0  0  0  0  0  0  0  0  0  0  0  0
   10.6704    2.2659    9.0403 N   0  0  0  0  0  0  0  0  0  0  0  0
   10.1944    3.2511    9.7291 N   0  0  0  0  0  0  0  0  0  0  0  0
   13.0674    1.4428    8.9298 N   0  0  0  0  0  0  0  0  0  0  0  0
   14.0865    1.9923    9.5990 C   0  0  0  0  0  0  0  0  0  0  0  0
   13.6420    3.0728   10.3732 C   0  0  0  0  0  0  0  0  0  0  0  0
   14.4878    3.7933   11.0919 N   0  0  0  0  0  0  0  0  0  0  0  0
   15.8083    3.4348   11.0597 C   0  0  0  0  0  0  0  0  0  0  0  0
   16.6419    4.0887   11.7299 O   0  0  0  0  0  0  0  0  0  0  0  0
   16.2627    2.4033   10.3376 N   0  0  0  0  0  0  0  0  0  0  0  0
   15.4217    1.6645    9.5948 C   0  0  0  0  0  0  0  0  0  0  0  0
   15.8120    0.6886    8.9021 O   0  0  0  0  0  0  0  0  0  0  0  0
   14.1945    4.9954   11.8285 C   0  0  0  0  0  0  0  0  0  0  0  0
   17.2662    2.1296   10.3147 H   0  0  0  0  0  0  0  0  0  0  0  0
    9.3899    8.7323   13.6850 Br  0  0  0  0  0  0  0  0  0  0  0  0
   10.0004    7.2099   12.7385 C   0  0  0  0  0  0  0  0  0  0  0  0
   10.3045    7.3154   11.3974 C   0  0  0  0  0  0  0  0  0  0  0  0
   10.7431    6.2234   10.7157 C   0  0  0  0  0  0  0  0  0  0  0  0
   10.9034    4.9764   11.3235 C   0  0  0  0  0  0  0  0  0  0  0  0
   10.5821    4.9398   12.6560 C   0  0  0  0  0  0  0  0  0  0  0  0
   10.1356    6.0066   13.3946 C   0  0  0  0  0  0  0  0  0  0  0  0
   13.1190    0.3110    8.0323 C   0  0  0  0  0  0  0  0  0  0  0  0
   12.1696   -0.7966    8.4352 C   0  0  0  0  0  0  0  0  0  0  0  0
   11.1420   -0.9599    7.5142 O   0  0  0  0  0  0  0  0  0  0  0  0
    9.9863   -1.2698    8.2308 C   0  0  0  0  0  0  0  0  0  0  0  0
 17 18  1  0  0  0
 18 19  2  0  0  0
 18 23  1  0  0  0
 19 20  1  0  0  0
 20 21  2  0  0  0
 21 22  1  0  0  0
 21  1  1  0  0  0
 22 23  2  0  0  0
  1  2  1  0  0  0
  1  5  2  0  0  0
  2  3  1  0  0  0
  2  8  1  0  0  0
  3  4  2  0  0  0
  3  6  1  0  0  0
  4  5  1  0  0  0
  6  7  1  0  0  0
  6 24  1  0  0  0
  7  8  2  0  0  0
  7 13  1  0  0  0
  8  9  1  0  0  0
  9 10  1  0  0  0
  9 15  1  0  0  0
 10 11  2  0  0  0
 10 12  1  0  0  0
 12 13  1  0  0  0
 13 14  2  0  0  0
 24 25  1  0  0  0
 25 26  1  0  0  0
 26 27  1  0  0  0
 12 16  1  0  0  0
M  END
> <minimizedAffinity>
-8.02927

$$$$
309


 33 36  0  0  0  0  0  0  0  0999 V2000
   15.7009    3.4833   10.8065 C   0  0  0  0  0  0  0  0  0  0  0  0
   14.6377    4.0348   11.4799 C   0  0  0  0  0  0  0  0  0  0  0  0
   13.3893    3.6593   11.2777 O   0  0  0  0  0  0  0  0  0  0  0  0
   13.0856    2.7249   10.4135 C   0  0  0  0  0  0  0  0  0  0  0  0
   14.0867    2.1445    9.7193 C   0  0  0  0  0  0  0  0  0  0  0  0
   13.7987    1.1557    8.8046 C   0  0  0  0  0  0  0  0  0  0  0  0
   12.4891    0.7894    8.6281 C   0  0  0  0  0  0  0  0  0  0  0  0
   11.4522    1.4016    9.3581 C   0  0  0  0  0  0  0  0  0  0  0  0
   11.7127    2.3825   10.2675 C   0  0  0  0  0  0  0  0  0  0  0  0
   10.1981    0.9028    9.0482 O   0  0  0  0  0  0  0  0  0  0  0  0
   15.4167    2.4840    9.8741 C   0  0  0  0  0  0  0  0  0  0  0  0
   16.3314    1.9512    9.2373 O   0  0  0  0  0  0  0  0  0  0  0  0
   21.4477    5.3222   12.0395 Br  0  0  0  0  0  0  0  0  0  0  0  0
   19.6693    4.7288   11.6617 C   0  0  0  0  0  0  0  0  0  0  0  0
   18.8559    5.5342   10.9200 C   0  0  0  0  0  0  0  0  0  0  0  0
   17.5713    5.1197   10.6433 C   0  0  0  0  0  0  0  0  0  0  0  0
   17.0470    3.9075   11.0844 C   0  0  0  0  0  0  0  0  0  0  0  0
   17.8848    3.1170   11.8267 C   0  0  0  0  0  0  0  0  0  0  0  0
   19.1982    3.5173   12.1219 C   0  0  0  0  0  0  0  0  0  0  0  0
   14.9145    5.0915   12.4656 C   0  0  0  0  0  0  0  0  0  0  0  0
   14.6474    6.2774   12.1472 O   0  0  0  0  0  0  0  0  0  0  0  0
   15.4411    4.8559   13.6977 O   0  0  0  0  0  0  0  0  0  0  0  0
   15.9266    5.9167   14.4843 C   0  0  0  0  0  0  0  0  0  0  0  0
   17.4293    5.9225   14.4281 C   0  0  0  0  0  0  0  0  0  0  0  0
   10.7627    3.1135   11.0704 C   0  0  0  0  0  0  0  0  0  0  0  0
   10.8572    4.4940   11.3181 N   0  0  0  0  0  0  0  0  0  0  0  0
   10.6337    4.8187   12.6820 C   0  0  0  0  0  0  0  0  0  0  0  0
   10.0946    6.1506   13.0268 C   0  0  0  0  0  0  0  0  0  0  0  0
    9.4701    6.8015   11.9578 N   0  0  0  0  0  0  0  0  0  0  0  0
   10.0926    6.7859   10.7068 C   0  0  0  0  0  0  0  0  0  0  0  0
   10.4496    5.3916   10.2985 C   0  0  0  0  0  0  0  0  0  0  0  0
    8.2392    7.4485   12.1382 C   0  0  0  0  0  0  0  0  0  0  0  0
   11.9850    4.6331   11.2621 H   0  0  0  0  0  0  0  0  0  0  0  0
 13 14  1  0  0  0
 14 15  2  0  0  0
 14 19  1  0  0  0
 15 16  1  0  0  0
 16 17  2  0  0  0
 17 18  1  0  0  0
 17  1  1  0  0  0
 18 19  2  0  0  0
  1  2  2  0  0  0
  1 11  1  0  0  0
  2  3  1  0  0  0
  2 20  1  0  0  0
  3  4  1  0  0  0
  4  5  2  0  0  0
  4  9  1  0  0  0
  5  6  1  0  0  0
  5 11  1  0  0  0
  6  7  2  0  0  0
  7  8  1  0  0  0
  8  9  2  0  0  0
  8 10  1  0  0  0
  9 25  1  0  0  0
 25 26  1  0  0  0
 26 27  1  0  0  0
 26 31  1  0  0  0
 27 28  1  0  0  0
 28 29  1  0  0  0
 29 30  1  0  0  0
 29 32  1  0  0  0
 30 31  1  0  0  0
 11 12  2  0  0  0
 20 21  2  0  0  0
 20 22  1  0  0  0
 22 23  1  0  0  0
 23 24  1  0  0  0
 26 33  1  0  0  0
M  CHG 1  10  -1
M  CHG 1  26   1
M  END
> <minimizedAffinity>
-8.43273

$$$$
320


 32 36  0  0  0  0  0  0  0  0999 V2000
   13.7194    2.8165   10.9602 C   0  0  0  0  0  0  0  0  0  0  0  0
   13.6544    1.5856   10.2865 C   0  0  0  0  0  0  0  0  0  0  0  0
   12.3707    1.3492   10.0477 N   0  0  0  0  0  0  0  0  0  0  0  0
   11.5842    0.3909    9.4686 C   0  0  0  0  0  0  0  0  0  0  0  0
   10.2972    0.8448    9.6109 C   0  0  0  0  0  0  0  0  0  0  0  0
   10.3556    2.0073   10.2426 N   0  0  0  0  0  0  0  0  0  0  0  0
   11.6492    2.3367   10.5224 C   0  0  0  0  0  0  0  0  0  0  0  0
   12.4676    3.2674   11.0968 N   0  0  0  0  0  0  0  0  0  0  0  0
    9.2089    0.1112    9.1298 C   0  0  0  0  0  0  0  0  0  0  0  0
    9.4253   -1.0936    8.4964 C   0  0  0  0  0  0  0  0  0  0  0  0
   10.7254   -1.5263    8.3661 C   0  0  0  0  0  0  0  0  0  0  0  0
   11.8128   -0.8034    8.8426 C   0  0  0  0  0  0  0  0  0  0  0  0
    9.5112    2.5590   10.4858 H   0  0  0  0  0  0  0  0  0  0  0  0
   19.1774    5.1658   12.6508 Br  0  0  0  0  0  0  0  0  0  0  0  0
   17.4672    4.4432   12.1384 C   0  0  0  0  0  0  0  0  0  0  0  0
   17.3610    3.4409   11.2238 C   0  0  0  0  0  0  0  0  0  0  0  0
   16.1462    2.9320   10.8642 C   0  0  0  0  0  0  0  0  0  0  0  0
   14.9658    3.4024   11.4032 C   0  0  0  0  0  0  0  0  0  0  0  0
   15.0695    4.3992   12.3128 C   0  0  0  0  0  0  0  0  0  0  0  0
   16.3218    4.9378   12.6964 C   0  0  0  0  0  0  0  0  0  0  0  0
   11.9377    4.4469   11.7097 C   0  0  0  0  0  0  0  0  0  0  0  0
   11.9065    5.6788   10.8987 C   0  0  0  0  0  0  0  0  0  0  0  0
   10.6097    6.1317   10.3317 C   0  0  0  0  0  0  0  0  0  0  0  0
   10.1770    7.3875   10.9037 N   0  0  0  0  0  0  0  0  0  0  0  0
   10.8925    7.9504   11.3569 H   0  0  0  0  0  0  0  0  0  0  0  0
    9.8784    7.9940   10.0552 H   0  0  0  0  0  0  0  0  0  0  0  0
    8.9916    7.2686   11.7000 C   0  0  0  0  0  0  0  0  0  0  0  0
    8.3742    5.8988   11.7213 C   0  0  0  0  0  0  0  0  0  0  0  0
    6.9228    6.0928   12.1847 C   0  0  0  0  0  0  0  0  0  0  0  0
    6.9371    6.6541   13.5642 C   0  0  0  0  0  0  0  0  0  0  0  0
    7.7801    7.9001   13.7070 C   0  0  0  0  0  0  0  0  0  0  0  0
    9.1913    7.6607   13.1583 C   0  0  0  0  0  0  0  0  0  0  0  0
 14 15  1  0  0  0
 15 16  2  0  0  0
 15 20  1  0  0  0
 16 17  1  0  0  0
 17 18  2  0  0  0
 18 19  1  0  0  0
 18  1  1  0  0  0
 19 20  2  0  0  0
  1  2  2  0  0  0
  1  8  1  0  0  0
  2  3  1  0  0  0
  3  4  1  0  0  0
  3  7  1  0  0  0
  4  5  2  0  0  0
  4 12  1  0  0  0
  5  6  1  0  0  0
  5  9  1  0  0  0
  6  7  2  0  0  0
  7  8  1  0  0  0
  8 21  1  0  0  0
 21 22  1  0  0  0
 22 23  1  0  0  0
 23 24  1  0  0  0
 24 27  1  0  0  0
 27 28  1  0  0  0
 27 32  1  0  0  0
 28 29  1  0  0  0
 29 30  1  0  0  0
 30 31  1  0  0  0
 31 32  1  0  0  0
  9 10  2  0  0  0
 10 11  1  0  0  0
 11 12  2  0  0  0
  6 13  1  0  0  0
 24 25  1  0  0  0
 24 26  1  0  0  0
M  CHG 1  24   1
M  END
> <minimizedAffinity>
-9.35767

$$$$
324


 34 38  0  0  0  0  0  0  0  0999 V2000
   13.5778    3.0179   11.0788 C   0  0  0  0  0  0  0  0  0  0  0  0
   13.5419    1.8045   10.3662 C   0  0  0  0  0  0  0  0  0  0  0  0
   12.2815    1.4494   10.0947 N   0  0  0  0  0  0  0  0  0  0  0  0
   11.5106    0.5035    9.5041 C   0  0  0  0  0  0  0  0  0  0  0  0
   10.2093    0.9081    9.6762 C   0  0  0  0  0  0  0  0  0  0  0  0
   10.2226    2.0839   10.3634 N   0  0  0  0  0  0  0  0  0  0  0  0
   11.5075    2.3998   10.6108 C   0  0  0  0  0  0  0  0  0  0  0  0
   12.2950    3.3606   11.2140 N   0  0  0  0  0  0  0  0  0  0  0  0
    9.2088    0.1106    9.1614 C   0  0  0  0  0  0  0  0  0  0  0  0
    9.4894   -1.0706    8.4865 C   0  0  0  0  0  0  0  0  0  0  0  0
   10.7897   -1.4738    8.3162 C   0  0  0  0  0  0  0  0  0  0  0  0
   11.8043   -0.6632    8.8390 C   0  0  0  0  0  0  0  0  0  0  0  0
    9.3690    2.6199   10.6341 H   0  0  0  0  0  0  0  0  0  0  0  0
   19.0090    5.3935   12.9732 Br  0  0  0  0  0  0  0  0  0  0  0  0
   17.3264    4.6813   12.3900 C   0  0  0  0  0  0  0  0  0  0  0  0
   16.1503    5.0936   12.9620 C   0  0  0  0  0  0  0  0  0  0  0  0
   14.9189    4.5706   12.5338 C   0  0  0  0  0  0  0  0  0  0  0  0
   14.8140    3.6425   11.5481 C   0  0  0  0  0  0  0  0  0  0  0  0
   16.0226    3.2383   10.9792 C   0  0  0  0  0  0  0  0  0  0  0  0
   17.2423    3.7487   11.3946 C   0  0  0  0  0  0  0  0  0  0  0  0
   11.7398    4.5159   11.8871 C   0  0  0  0  0  0  0  0  0  0  0  0
   11.6614    5.7518   11.0225 C   0  0  0  0  0  0  0  0  0  0  0  0
   10.2327    6.1957   10.8319 C   0  0  0  0  0  0  0  0  0  0  0  0
    9.4023    6.0796   11.9989 N   0  0  0  0  0  0  0  0  0  0  0  0
    8.0612    5.8073   11.5069 C   0  0  0  0  0  0  0  0  0  0  0  0
    6.9897    6.6045   12.1506 C   0  0  0  0  0  0  0  0  0  0  0  0
    7.2585    8.0068   12.3164 N   0  0  0  0  0  0  0  0  0  0  0  0
    8.6690    8.3321   12.2945 C   0  0  0  0  0  0  0  0  0  0  0  0
    9.4340    7.1771   12.9074 C   0  0  0  0  0  0  0  0  0  0  0  0
    6.9496    8.2423   13.3117 H   0  0  0  0  0  0  0  0  0  0  0  0
    6.4430    8.8152   11.4672 C   0  0  0  0  0  0  0  0  0  0  0  0
    5.1230    8.2385   11.0838 C   0  0  0  0  0  0  0  0  0  0  0  0
    4.8109    8.3983    9.7348 O   0  0  0  0  0  0  0  0  0  0  0  0
    5.5795    8.1610    9.1878 H   0  0  0  0  0  0  0  0  0  0  0  0
 14 15  1  0  0  0
 15 16  2  0  0  0
 15 20  1  0  0  0
 16 17  1  0  0  0
 17 18  2  0  0  0
 18 19  1  0  0  0
 18  1  1  0  0  0
 19 20  2  0  0  0
  1  2  2  0  0  0
  1  8  1  0  0  0
  2  3  1  0  0  0
  3  4  1  0  0  0
  3  7  1  0  0  0
  4  5  2  0  0  0
  4 12  1  0  0  0
  5  6  1  0  0  0
  5  9  1  0  0  0
  6  7  2  0  0  0
  7  8  1  0  0  0
  8 21  1  0  0  0
 21 22  1  0  0  0
 22 23  1  0  0  0
 23 24  1  0  0  0
 24 25  1  0  0  0
 24 29  1  0  0  0
 25 26  1  0  0  0
 26 27  1  0  0  0
 27 28  1  0  0  0
 27 31  1  0  0  0
 28 29  1  0  0  0
 31 32  1  0  0  0
 32 33  1  0  0  0
  9 10  2  0  0  0
 10 11  1  0  0  0
 11 12  2  0  0  0
  6 13  1  0  0  0
 27 30  1  0  0  0
 33 34  1  0  0  0
M  CHG 1  27   1
M  END
> <minimizedAffinity>
-9.90484

$$$$
346


 35 38  0  0  0  0  0  0  0  0999 V2000
   11.8910    5.0991   12.0103 C   0  0  0  0  0  0  0  0  0  0  0  0
   11.6947    4.3513   10.7984 N   0  0  0  0  0  0  0  0  0  0  0  0
   10.4204    4.6084   10.2408 C   0  0  0  0  0  0  0  0  0  0  0  0
    9.9049    4.1083    9.1936 O   0  0  0  0  0  0  0  0  0  0  0  0
    9.7174    5.5998   11.0856 C   0  0  0  0  0  0  0  0  0  0  0  0
    8.5664    6.0424   10.8722 O   0  0  0  0  0  0  0  0  0  0  0  0
   10.6377    5.9103   12.1591 C   0  0  0  0  0  0  0  0  0  0  0  0
   10.3474    6.7510   13.1272 C   0  0  0  0  0  0  0  0  0  0  0  0
   11.3000    6.9215   14.1537 O   0  0  0  0  0  0  0  0  0  0  0  0
   16.9911    8.6206   11.9498 Br  0  0  0  0  0  0  0  0  0  0  0  0
   15.3991    7.5451   11.9482 C   0  0  0  0  0  0  0  0  0  0  0  0
   15.3340    6.4263   12.7483 C   0  0  0  0  0  0  0  0  0  0  0  0
   14.1861    5.6276   12.7671 C   0  0  0  0  0  0  0  0  0  0  0  0
   13.0927    5.9369   11.9871 C   0  0  0  0  0  0  0  0  0  0  0  0
   13.1978    7.0628   11.2022 C   0  0  0  0  0  0  0  0  0  0  0  0
   14.3184    7.8587   11.1716 C   0  0  0  0  0  0  0  0  0  0  0  0
    9.1422    7.5322   13.2429 C   0  0  0  0  0  0  0  0  0  0  0  0
    8.9306    8.7720   12.7500 C   0  0  0  0  0  0  0  0  0  0  0  0
    7.7105    9.3962   12.9034 C   0  0  0  0  0  0  0  0  0  0  0  0
    6.6425    8.8161   13.5535 C   0  0  0  0  0  0  0  0  0  0  0  0
    6.8845    7.5498   14.0485 C   0  0  0  0  0  0  0  0  0  0  0  0
    8.0822    6.9035   13.9145 C   0  0  0  0  0  0  0  0  0  0  0  0
    7.5248   10.7728   12.3369 C   0  0  0  0  0  0  0  0  0  0  0  0
    5.4157    9.4508   13.7045 O   0  0  0  0  0  0  0  0  0  0  0  0
    4.2737    8.9640   13.0146 C   0  0  0  0  0  0  0  0  0  0  0  0
   12.6880    3.4491   10.2442 C   0  0  0  0  0  0  0  0  0  0  0  0
   12.4226    2.0027   10.5598 C   0  0  0  0  0  0  0  0  0  0  0  0
   12.7581    1.1112    9.4035 C   0  0  0  0  0  0  0  0  0  0  0  0
   11.7055    0.1968    9.0685 N   0  0  0  0  0  0  0  0  0  0  0  0
   11.7224   -0.2146    7.6797 C   0  0  0  0  0  0  0  0  0  0  0  0
   10.7119   -1.3588    7.5466 C   0  0  0  0  0  0  0  0  0  0  0  0
    9.9397   -1.4674    8.6934 O   0  0  0  0  0  0  0  0  0  0  0  0
    9.3549   -0.2209    9.0086 C   0  0  0  0  0  0  0  0  0  0  0  0
   10.4398    0.7531    9.4541 C   0  0  0  0  0  0  0  0  0  0  0  0
   11.8402   -0.6919    9.6371 H   0  0  0  0  0  0  0  0  0  0  0  0
 10 11  1  0  0  0
 11 12  2  0  0  0
 11 16  1  0  0  0
 12 13  1  0  0  0
 13 14  2  0  0  0
 14 15  1  0  0  0
 14  1  1  0  0  0
 15 16  2  0  0  0
  1  2  1  0  0  0
  1  7  1  0  0  0
  2  3  1  0  0  0
  2 26  1  0  0  0
  3  4  2  0  0  0
  3  5  1  0  0  0
  5  6  2  0  0  0
  5  7  1  0  0  0
  7  8  2  0  0  0
  8  9  1  0  0  0
  8 17  1  0  0  0
 17 18  2  0  0  0
 17 22  1  0  0  0
 18 19  1  0  0  0
 19 20  2  0  0  0
 19 23  1  0  0  0
 20 21  1  0  0  0
 20 24  1  0  0  0
 21 22  2  0  0  0
 24 25  1  0  0  0
 26 27  1  0  0  0
 27 28  1  0  0  0
 28 29  1  0  0  0
 29 30  1  0  0  0
 29 34  1  0  0  0
 30 31  1  0  0  0
 31 32  1  0  0  0
 32 33  1  0  0  0
 33 34  1  0  0  0
 29 35  1  0  0  0
M  CHG 1   9  -1
M  CHG 1  29   1
M  END
> <minimizedAffinity>
-9.04160

$$$$
347


 34 37  0  0  0  0  0  0  0  0999 V2000
   11.0814    5.3905   12.3674 C   0  0  0  0  0  0  0  0  0  0  0  0
   10.5740    4.6223   11.2489 N   0  0  0  0  0  0  0  0  0  0  0  0
   10.1294    5.5721   10.2780 C   0  0  0  0  0  0  0  0  0  0  0  0
   10.0396    5.3959    9.0377 O   0  0  0  0  0  0  0  0  0  0  0  0
    9.8028    6.7817   11.0254 C   0  0  0  0  0  0  0  0  0  0  0  0
    9.3728    7.8858   10.6074 O   0  0  0  0  0  0  0  0  0  0  0  0
   10.0681    6.5073   12.4340 C   0  0  0  0  0  0  0  0  0  0  0  0
    9.5610    7.1284   13.4704 C   0  0  0  0  0  0  0  0  0  0  0  0
   10.0225    6.7070   14.7301 O   0  0  0  0  0  0  0  0  0  0  0  0
   16.7742    7.4955   11.2817 Br  0  0  0  0  0  0  0  0  0  0  0  0
   15.0075    6.8555   11.6117 C   0  0  0  0  0  0  0  0  0  0  0  0
   14.7857    5.5115   11.7992 C   0  0  0  0  0  0  0  0  0  0  0  0
   13.4930    5.0398   12.0425 C   0  0  0  0  0  0  0  0  0  0  0  0
   12.4208    5.8957   12.0998 C   0  0  0  0  0  0  0  0  0  0  0  0
   12.6736    7.2354   11.9079 C   0  0  0  0  0  0  0  0  0  0  0  0
   13.9465    7.7201   11.6666 C   0  0  0  0  0  0  0  0  0  0  0  0
    8.5692    8.1936   13.3640 C   0  0  0  0  0  0  0  0  0  0  0  0
    7.2227    7.9795   13.1757 C   0  0  0  0  0  0  0  0  0  0  0  0
    6.2796    8.9841   13.0529 C   0  0  0  0  0  0  0  0  0  0  0  0
    6.6998   10.2814   13.1220 C   0  0  0  0  0  0  0  0  0  0  0  0
    8.0531   10.5455   13.3128 C   0  0  0  0  0  0  0  0  0  0  0  0
    8.9647    9.5178   13.4306 C   0  0  0  0  0  0  0  0  0  0  0  0
    4.9744    8.5871   12.8692 O   0  0  0  0  0  0  0  0  0  0  0  0
    3.8408    9.0705   13.5037 C   0  0  0  0  0  0  0  0  0  0  0  0
   10.5172    3.1566   11.1157 C   0  0  0  0  0  0  0  0  0  0  0  0
   11.4108    2.6925    9.9556 C   0  0  0  0  0  0  0  0  0  0  0  0
   10.8262    1.4484    9.3502 C   0  0  0  0  0  0  0  0  0  0  0  0
   11.6754    0.3260    9.6687 N   0  0  0  0  0  0  0  0  0  0  0  0
   13.0108    0.4443    9.1737 C   0  0  0  0  0  0  0  0  0  0  0  0
   13.1075    0.2729    7.6960 C   0  0  0  0  0  0  0  0  0  0  0  0
   12.5613   -0.9360    7.3013 O   0  0  0  0  0  0  0  0  0  0  0  0
   11.2121   -0.9272    7.6569 C   0  0  0  0  0  0  0  0  0  0  0  0
   11.1345   -0.9263    9.1713 C   0  0  0  0  0  0  0  0  0  0  0  0
   11.7137    0.2321   10.7102 H   0  0  0  0  0  0  0  0  0  0  0  0
 10 11  1  0  0  0
 11 12  2  0  0  0
 11 16  1  0  0  0
 12 13  1  0  0  0
 13 14  2  0  0  0
 14 15  1  0  0  0
 14  1  1  0  0  0
 15 16  2  0  0  0
  1  2  1  0  0  0
  1  7  1  0  0  0
  2  3  1  0  0  0
  2 25  1  0  0  0
  3  4  2  0  0  0
  3  5  1  0  0  0
  5  6  2  0  0  0
  5  7  1  0  0  0
  7  8  2  0  0  0
  8  9  1  0  0  0
  8 17  1  0  0  0
 17 18  2  0  0  0
 17 22  1  0  0  0
 18 19  1  0  0  0
 19 20  2  0  0  0
 19 23  1  0  0  0
 20 21  1  0  0  0
 21 22  2  0  0  0
 23 24  1  0  0  0
 25 26  1  0  0  0
 26 27  1  0  0  0
 27 28  1  0  0  0
 28 29  1  0  0  0
 28 33  1  0  0  0
 29 30  1  0  0  0
 30 31  1  0  0  0
 31 32  1  0  0  0
 32 33  1  0  0  0
 28 34  1  0  0  0
M  CHG 1   9  -1
M  CHG 1  28   1
M  END
> <minimizedAffinity>
-9.25457

$$$$
349


 32 35  0  0  0  0  0  0  0  0999 V2000
   12.1962    5.2062   11.2106 C   0  0  0  0  0  0  0  0  0  0  0  0
   11.8990    3.8401   11.1591 N   0  0  0  0  0  0  0  0  0  0  0  0
   10.7037    3.7802   10.2924 C   0  0  0  0  0  0  0  0  0  0  0  0
   10.3640    2.8354    9.5279 O   0  0  0  0  0  0  0  0  0  0  0  0
   10.0189    5.0551   10.5290 C   0  0  0  0  0  0  0  0  0  0  0  0
    8.9331    5.4700   10.0203 O   0  0  0  0  0  0  0  0  0  0  0  0
   10.8540    5.7812   11.5053 C   0  0  0  0  0  0  0  0  0  0  0  0
   10.4622    6.6515   12.4081 C   0  0  0  0  0  0  0  0  0  0  0  0
   11.3747    7.1951   13.3045 O   0  0  0  0  0  0  0  0  0  0  0  0
   17.1787    8.1875   13.2191 Br  0  0  0  0  0  0  0  0  0  0  0  0
   15.6261    7.2491   12.6052 C   0  0  0  0  0  0  0  0  0  0  0  0
   14.8632    7.7178   11.5578 C   0  0  0  0  0  0  0  0  0  0  0  0
   13.7595    7.0325   11.1372 C   0  0  0  0  0  0  0  0  0  0  0  0
   13.3466    5.8332   11.7373 C   0  0  0  0  0  0  0  0  0  0  0  0
   14.0982    5.3783   12.7623 C   0  0  0  0  0  0  0  0  0  0  0  0
   15.2269    6.0749   13.1964 C   0  0  0  0  0  0  0  0  0  0  0  0
    9.0858    7.1064   12.5273 C   0  0  0  0  0  0  0  0  0  0  0  0
    8.1009    6.5021   13.2437 C   0  0  0  0  0  0  0  0  0  0  0  0
    6.8347    7.0664   13.3118 C   0  0  0  0  0  0  0  0  0  0  0  0
    6.5592    8.2441   12.6552 C   0  0  0  0  0  0  0  0  0  0  0  0
    7.5276    8.8863   11.9198 C   0  0  0  0  0  0  0  0  0  0  0  0
    8.7859    8.3032   11.8665 C   0  0  0  0  0  0  0  0  0  0  0  0
    5.2093    8.8811   12.7055 C   0  0  0  0  0  0  0  0  0  0  0  0
   12.4411    2.5870   11.6630 C   0  0  0  0  0  0  0  0  0  0  0  0
   13.6664    2.1091   10.9289 C   0  0  0  0  0  0  0  0  0  0  0  0
   13.4222    1.7463    9.5716 N   0  0  0  0  0  0  0  0  0  0  0  0
   12.6422    0.5244    9.5113 C   0  0  0  0  0  0  0  0  0  0  0  0
   12.3690    0.1982    8.0668 C   0  0  0  0  0  0  0  0  0  0  0  0
   13.6014   -0.1766    7.5074 O   0  0  0  0  0  0  0  0  0  0  0  0
   14.4278    0.9225    7.5395 C   0  0  0  0  0  0  0  0  0  0  0  0
   14.7117    1.4033    8.9391 C   0  0  0  0  0  0  0  0  0  0  0  0
   12.9804    2.4968    9.0212 H   0  0  0  0  0  0  0  0  0  0  0  0
 10 11  1  0  0  0
 11 12  2  0  0  0
 11 16  1  0  0  0
 12 13  1  0  0  0
 13 14  2  0  0  0
 14 15  1  0  0  0
 14  1  1  0  0  0
 15 16  2  0  0  0
  1  2  1  0  0  0
  1  7  1  0  0  0
  2  3  1  0  0  0
  2 24  1  0  0  0
  3  4  2  0  0  0
  3  5  1  0  0  0
  5  6  2  0  0  0
  5  7  1  0  0  0
  7  8  2  0  0  0
  8  9  1  0  0  0
  8 17  1  0  0  0
 17 18  2  0  0  0
 17 22  1  0  0  0
 18 19  1  0  0  0
 19 20  2  0  0  0
 20 21  1  0  0  0
 20 23  1  0  0  0
 21 22  2  0  0  0
 24 25  1  0  0  0
 25 26  1  0  0  0
 26 27  1  0  0  0
 26 31  1  0  0  0
 27 28  1  0  0  0
 28 29  1  0  0  0
 29 30  1  0  0  0
 30 31  1  0  0  0
 26 32  1  0  0  0
M  CHG 1   9  -1
M  CHG 1  26   1
M  END
> <minimizedAffinity>
-8.37234

$$$$
351


 32 35  0  0  0  0  0  0  0  0999 V2000
   12.4903    6.1245   11.0909 C   0  0  0  0  0  0  0  0  0  0  0  0
   11.6952    5.0253   10.6810 N   0  0  0  0  0  0  0  0  0  0  0  0
   10.4704    5.6569   10.2000 C   0  0  0  0  0  0  0  0  0  0  0  0
    9.6985    5.2014    9.3126 O   0  0  0  0  0  0  0  0  0  0  0  0
   10.3404    6.9007   10.9572 C   0  0  0  0  0  0  0  0  0  0  0  0
    9.4314    7.7678   10.8837 O   0  0  0  0  0  0  0  0  0  0  0  0
   11.5016    6.9483   11.8483 C   0  0  0  0  0  0  0  0  0  0  0  0
   11.5914    7.5369   13.0274 C   0  0  0  0  0  0  0  0  0  0  0  0
   12.7531    7.4306   13.7759 O   0  0  0  0  0  0  0  0  0  0  0  0
   18.1330    5.6625   13.4583 Br  0  0  0  0  0  0  0  0  0  0  0  0
   16.3693    5.7611   12.7537 C   0  0  0  0  0  0  0  0  0  0  0  0
   15.4017    4.8172   13.0116 C   0  0  0  0  0  0  0  0  0  0  0  0
   14.1105    4.9243   12.4739 C   0  0  0  0  0  0  0  0  0  0  0  0
   13.7700    5.9757   11.6710 C   0  0  0  0  0  0  0  0  0  0  0  0
   14.7600    6.9060   11.4304 C   0  0  0  0  0  0  0  0  0  0  0  0
   16.0310    6.8170   11.9501 C   0  0  0  0  0  0  0  0  0  0  0  0
   10.5199    8.3267   13.6179 C   0  0  0  0  0  0  0  0  0  0  0  0
    9.5877    7.5851   14.3561 C   0  0  0  0  0  0  0  0  0  0  0  0
    8.5363    8.1823   15.0119 C   0  0  0  0  0  0  0  0  0  0  0  0
    8.4100    9.5646   14.9297 C   0  0  0  0  0  0  0  0  0  0  0  0
    9.3305   10.2870   14.2027 C   0  0  0  0  0  0  0  0  0  0  0  0
   10.3816    9.6783   13.5493 C   0  0  0  0  0  0  0  0  0  0  0  0
    7.0689   10.3129   15.7667 Cl  0  0  0  0  0  0  0  0  0  0  0  0
   11.9141    3.5772   10.6262 C   0  0  0  0  0  0  0  0  0  0  0  0
   12.7954    3.1268    9.5023 C   0  0  0  0  0  0  0  0  0  0  0  0
   13.2382    1.7587    9.6512 N   0  0  0  0  0  0  0  0  0  0  0  0
   14.3035    1.6156   10.6035 C   0  0  0  0  0  0  0  0  0  0  0  0
   15.6117    2.1904   10.1452 C   0  0  0  0  0  0  0  0  0  0  0  0
   15.9818    1.7171    8.8853 O   0  0  0  0  0  0  0  0  0  0  0  0
   14.9644    2.1139    8.0044 C   0  0  0  0  0  0  0  0  0  0  0  0
   13.7344    1.3080    8.3635 C   0  0  0  0  0  0  0  0  0  0  0  0
   12.4688    1.1167    9.9230 H   0  0  0  0  0  0  0  0  0  0  0  0
 10 11  1  0  0  0
 11 12  2  0  0  0
 11 16  1  0  0  0
 12 13  1  0  0  0
 13 14  2  0  0  0
 14 15  1  0  0  0
 14  1  1  0  0  0
 15 16  2  0  0  0
  1  2  1  0  0  0
  1  7  1  0  0  0
  2  3  1  0  0  0
  2 24  1  0  0  0
  3  4  2  0  0  0
  3  5  1  0  0  0
  5  6  2  0  0  0
  5  7  1  0  0  0
  7  8  2  0  0  0
  8  9  1  0  0  0
  8 17  1  0  0  0
 17 18  2  0  0  0
 17 22  1  0  0  0
 18 19  1  0  0  0
 19 20  2  0  0  0
 20 21  1  0  0  0
 20 23  1  0  0  0
 21 22  2  0  0  0
 24 25  1  0  0  0
 25 26  1  0  0  0
 26 27  1  0  0  0
 26 31  1  0  0  0
 27 28  1  0  0  0
 28 29  1  0  0  0
 29 30  1  0  0  0
 30 31  1  0  0  0
 26 32  1  0  0  0
M  CHG 1   9  -1
M  CHG 1  26   1
M  END
> <minimizedAffinity>
-8.27876

$$$$
354


 32 35  0  0  0  0  0  0  0  0999 V2000
   12.5261    6.4937   10.8714 C   0  0  0  0  0  0  0  0  0  0  0  0
   11.8446    5.4206   10.2214 N   0  0  0  0  0  0  0  0  0  0  0  0
   10.4804    5.8800   10.0383 C   0  0  0  0  0  0  0  0  0  0  0  0
    9.6715    5.3991    9.2027 O   0  0  0  0  0  0  0  0  0  0  0  0
   10.2453    6.9618   10.9754 C   0  0  0  0  0  0  0  0  0  0  0  0
    9.1796    7.6306   11.1375 O   0  0  0  0  0  0  0  0  0  0  0  0
   11.4815    7.1400   11.7095 C   0  0  0  0  0  0  0  0  0  0  0  0
   11.6069    7.7279   12.8859 C   0  0  0  0  0  0  0  0  0  0  0  0
   12.9110    7.7449   13.4377 O   0  0  0  0  0  0  0  0  0  0  0  0
   17.9504    5.5716   13.6877 Br  0  0  0  0  0  0  0  0  0  0  0  0
   16.2564    5.8243   12.8442 C   0  0  0  0  0  0  0  0  0  0  0  0
   15.1943    4.9731   13.0589 C   0  0  0  0  0  0  0  0  0  0  0  0
   13.9744    5.1699   12.4405 C   0  0  0  0  0  0  0  0  0  0  0  0
   13.7489    6.2005   11.5925 C   0  0  0  0  0  0  0  0  0  0  0  0
   14.8390    7.0615   11.3818 C   0  0  0  0  0  0  0  0  0  0  0  0
   16.0618    6.8855   11.9870 C   0  0  0  0  0  0  0  0  0  0  0  0
   10.5174    8.3439   13.6163 C   0  0  0  0  0  0  0  0  0  0  0  0
    9.8123    7.5080   14.4912 C   0  0  0  0  0  0  0  0  0  0  0  0
    8.7803    7.9713   15.2802 C   0  0  0  0  0  0  0  0  0  0  0  0
    8.4277    9.2680   15.2170 N   0  0  0  0  0  0  0  0  0  0  0  0
    9.0899   10.0964   14.3831 C   0  0  0  0  0  0  0  0  0  0  0  0
   10.1345    9.6403   13.5814 C   0  0  0  0  0  0  0  0  0  0  0  0
   12.3082    4.1272    9.7154 C   0  0  0  0  0  0  0  0  0  0  0  0
   11.8146    2.9384   10.4676 C   0  0  0  0  0  0  0  0  0  0  0  0
   10.7056    2.2131    9.7213 C   0  0  0  0  0  0  0  0  0  0  0  0
   10.9301    0.7863    9.7054 N   0  0  0  0  0  0  0  0  0  0  0  0
    9.8850    0.0674    9.0126 C   0  0  0  0  0  0  0  0  0  0  0  0
   10.4435   -1.3226    8.6982 C   0  0  0  0  0  0  0  0  0  0  0  0
   11.3331   -1.2081    7.6305 O   0  0  0  0  0  0  0  0  0  0  0  0
   12.1176   -0.0604    7.7366 C   0  0  0  0  0  0  0  0  0  0  0  0
   12.2056    0.4215    9.1700 C   0  0  0  0  0  0  0  0  0  0  0  0
   10.9032    0.4710   10.7047 H   0  0  0  0  0  0  0  0  0  0  0  0
 10 11  1  0  0  0
 11 12  2  0  0  0
 11 16  1  0  0  0
 12 13  1  0  0  0
 13 14  2  0  0  0
 14 15  1  0  0  0
 14  1  1  0  0  0
 15 16  2  0  0  0
  1  2  1  0  0  0
  1  7  1  0  0  0
  2  3  1  0  0  0
  2 23  1  0  0  0
  3  4  2  0  0  0
  3  5  1  0  0  0
  5  6  2  0  0  0
  5  7  1  0  0  0
  7  8  2  0  0  0
  8  9  1  0  0  0
  8 17  1  0  0  0
 17 18  2  0  0  0
 17 22  1  0  0  0
 18 19  1  0  0  0
 19 20  2  0  0  0
 20 21  1  0  0  0
 21 22  2  0  0  0
 23 24  1  0  0  0
 24 25  1  0  0  0
 25 26  1  0  0  0
 26 27  1  0  0  0
 26 31  1  0  0  0
 27 28  1  0  0  0
 28 29  1  0  0  0
 29 30  1  0  0  0
 30 31  1  0  0  0
 26 32  1  0  0  0
M  CHG 1   9  -1
M  CHG 1  26   1
M  END
> <minimizedAffinity>
-8.32922

$$$$
361


 33 36  0  0  0  0  0  0  0  0999 V2000
   11.0960    5.1023   12.4946 C   0  0  0  0  0  0  0  0  0  0  0  0
   10.0275    5.8272   11.7824 N   0  0  0  0  0  0  0  0  0  0  0  0
   10.4388    5.8175   10.4199 C   0  0  0  0  0  0  0  0  0  0  0  0
   10.0788    6.6743    9.5620 O   0  0  0  0  0  0  0  0  0  0  0  0
   11.3203    4.6752   10.2025 C   0  0  0  0  0  0  0  0  0  0  0  0
   11.8681    4.3425    9.1314 O   0  0  0  0  0  0  0  0  0  0  0  0
   11.4125    4.0184   11.4932 C   0  0  0  0  0  0  0  0  0  0  0  0
   11.6708    2.7607   11.7456 C   0  0  0  0  0  0  0  0  0  0  0  0
   11.6722    2.2778   13.0466 O   0  0  0  0  0  0  0  0  0  0  0  0
   11.9713    1.8152   10.6873 C   0  0  0  0  0  0  0  0  0  0  0  0
   11.1787    0.9925    9.9702 N   0  0  0  0  0  0  0  0  0  0  0  0
   11.9034    0.2608    9.1114 C   0  0  0  0  0  0  0  0  0  0  0  0
   13.1883    0.6345    9.2944 N   0  0  0  0  0  0  0  0  0  0  0  0
   13.2816    1.5628   10.2263 C   0  0  0  0  0  0  0  0  0  0  0  0
   14.4938    2.2676   10.7540 C   0  0  0  0  0  0  0  0  0  0  0  0
   11.3372   -0.6620    8.2313 C   0  0  0  0  0  0  0  0  0  0  0  0
    9.9747   -0.8527    8.2179 C   0  0  0  0  0  0  0  0  0  0  0  0
    9.2470   -0.0919    9.1037 C   0  0  0  0  0  0  0  0  0  0  0  0
    9.8332    0.8094    9.9600 C   0  0  0  0  0  0  0  0  0  0  0  0
   16.1993    8.6304   12.9534 Br  0  0  0  0  0  0  0  0  0  0  0  0
   14.6222    7.5413   12.8162 C   0  0  0  0  0  0  0  0  0  0  0  0
   14.7150    6.2028   12.4808 C   0  0  0  0  0  0  0  0  0  0  0  0
   13.5621    5.4254   12.3852 C   0  0  0  0  0  0  0  0  0  0  0  0
   12.3089    5.9415   12.6150 C   0  0  0  0  0  0  0  0  0  0  0  0
   12.2389    7.2768   12.9481 C   0  0  0  0  0  0  0  0  0  0  0  0
   13.3697    8.0533   13.0449 C   0  0  0  0  0  0  0  0  0  0  0  0
    8.8540    6.4148   12.3733 C   0  0  0  0  0  0  0  0  0  0  0  0
    7.5182    6.0331   11.8688 C   0  0  0  0  0  0  0  0  0  0  0  0
    6.3286    6.8463   12.1938 C   0  0  0  0  0  0  0  0  0  0  0  0
    6.2266    8.1519   11.6154 N   0  0  0  0  0  0  0  0  0  0  0  0
    4.9429    8.1824   10.8583 C   0  0  0  0  0  0  0  0  0  0  0  0
    6.0445    9.1408   12.6582 C   0  0  0  0  0  0  0  0  0  0  0  0
    6.9765    8.4392   10.9868 H   0  0  0  0  0  0  0  0  0  0  0  0
 20 21  1  0  0  0
 21 22  2  0  0  0
 21 26  1  0  0  0
 22 23  1  0  0  0
 23 24  2  0  0  0
 24 25  1  0  0  0
 24  1  1  0  0  0
 25 26  2  0  0  0
  1  2  1  0  0  0
  1  7  1  0  0  0
  2  3  1  0  0  0
  2 27  1  0  0  0
  3  4  2  0  0  0
  3  5  1  0  0  0
  5  6  2  0  0  0
  5  7  1  0  0  0
  7  8  2  0  0  0
  8  9  1  0  0  0
  8 10  1  0  0  0
 10 11  1  0  0  0
 10 14  2  0  0  0
 11 12  1  0  0  0
 11 19  1  0  0  0
 12 13  2  0  0  0
 12 16  1  0  0  0
 13 14  1  0  0  0
 14 15  1  0  0  0
 16 17  2  0  0  0
 17 18  1  0  0  0
 18 19  2  0  0  0
 27 28  1  0  0  0
 28 29  1  0  0  0
 29 30  1  0  0  0
 30 31  1  0  0  0
 30 32  1  0  0  0
 30 33  1  0  0  0
M  CHG 1   9  -1
M  CHG 1  30   1
M  END
> <minimizedAffinity>
-8.61891

$$$$
362


 36 40  0  0  0  0  0  0  0  0999 V2000
   12.8999    7.0555   11.3723 C   0  0  0  0  0  0  0  0  0  0  0  0
   11.6721    7.5425   11.8436 N   0  0  0  0  0  0  0  0  0  0  0  0
   10.7221    6.9886   10.8938 C   0  0  0  0  0  0  0  0  0  0  0  0
    9.5752    7.4491   10.5680 O   0  0  0  0  0  0  0  0  0  0  0  0
   11.3070    5.7696   10.3463 C   0  0  0  0  0  0  0  0  0  0  0  0
   10.8595    4.9453    9.4859 O   0  0  0  0  0  0  0  0  0  0  0  0
   12.6049    5.6461   11.0068 C   0  0  0  0  0  0  0  0  0  0  0  0
   13.3353    4.5614   11.1851 C   0  0  0  0  0  0  0  0  0  0  0  0
   14.5792    4.6547   11.7940 O   0  0  0  0  0  0  0  0  0  0  0  0
   12.8934    3.2390   10.7699 C   0  0  0  0  0  0  0  0  0  0  0  0
   13.3535    2.4974    9.7482 N   0  0  0  0  0  0  0  0  0  0  0  0
   12.7105    1.3070    9.7121 C   0  0  0  0  0  0  0  0  0  0  0  0
   11.8378    1.3183   10.7324 N   0  0  0  0  0  0  0  0  0  0  0  0
   11.9141    2.4681   11.3985 C   0  0  0  0  0  0  0  0  0  0  0  0
   11.1510    2.9316   12.5879 C   0  0  0  0  0  0  0  0  0  0  0  0
   12.9776    0.3505    8.7559 C   0  0  0  0  0  0  0  0  0  0  0  0
   13.9225    0.5698    7.7817 C   0  0  0  0  0  0  0  0  0  0  0  0
   14.5849    1.7769    7.8023 C   0  0  0  0  0  0  0  0  0  0  0  0
   14.2849    2.6867    8.7682 C   0  0  0  0  0  0  0  0  0  0  0  0
   18.2991    8.0841   14.1054 Br  0  0  0  0  0  0  0  0  0  0  0  0
   16.6140    7.7539   13.2742 C   0  0  0  0  0  0  0  0  0  0  0  0
   15.5041    7.3555   13.9958 C   0  0  0  0  0  0  0  0  0  0  0  0
   14.2858    7.1167   13.3957 C   0  0  0  0  0  0  0  0  0  0  0  0
   14.1422    7.2718   12.0467 C   0  0  0  0  0  0  0  0  0  0  0  0
   15.2360    7.6655   11.3294 C   0  0  0  0  0  0  0  0  0  0  0  0
   16.4597    7.9082   11.9099 C   0  0  0  0  0  0  0  0  0  0  0  0
   11.1574    8.3778   12.8798 C   0  0  0  0  0  0  0  0  0  0  0  0
   10.5408    7.8651   14.0839 C   0  0  0  0  0  0  0  0  0  0  0  0
    9.0941    8.2154   14.3417 C   0  0  0  0  0  0  0  0  0  0  0  0
    8.2120    7.5837   13.3652 N   0  0  0  0  0  0  0  0  0  0  0  0
    6.8840    8.1220   13.3445 C   0  0  0  0  0  0  0  0  0  0  0  0
    5.9317    7.4819   14.3111 C   0  0  0  0  0  0  0  0  0  0  0  0
    6.5456    6.7102   15.2614 O   0  0  0  0  0  0  0  0  0  0  0  0
    7.4116    5.7627   14.7813 C   0  0  0  0  0  0  0  0  0  0  0  0
    8.1377    6.1649   13.5404 C   0  0  0  0  0  0  0  0  0  0  0  0
    8.6339    7.7797   12.4233 H   0  0  0  0  0  0  0  0  0  0  0  0
 20 21  1  0  0  0
 21 22  2  0  0  0
 21 26  1  0  0  0
 22 23  1  0  0  0
 23 24  2  0  0  0
 24 25  1  0  0  0
 24  1  1  0  0  0
 25 26  2  0  0  0
  1  2  1  0  0  0
  1  7  1  0  0  0
  2  3  1  0  0  0
  2 27  1  0  0  0
  3  4  2  0  0  0
  3  5  1  0  0  0
  5  6  2  0  0  0
  5  7  1  0  0  0
  7  8  2  0  0  0
  8  9  1  0  0  0
  8 10  1  0  0  0
 10 11  1  0  0  0
 10 14  2  0  0  0
 11 12  1  0  0  0
 11 19  1  0  0  0
 12 13  2  0  0  0
 12 16  1  0  0  0
 13 14  1  0  0  0
 14 15  1  0  0  0
 16 17  2  0  0  0
 17 18  1  0  0  0
 18 19  2  0  0  0
 27 28  1  0  0  0
 28 29  1  0  0  0
 29 30  1  0  0  0
 30 31  1  0  0  0
 30 35  1  0  0  0
 31 32  1  0  0  0
 32 33  1  0  0  0
 33 34  1  0  0  0
 34 35  1  0  0  0
 30 36  1  0  0  0
M  CHG 1   9  -1
M  CHG 1  30   1
M  END
> <minimizedAffinity>
-8.46740

$$$$
364


 32 35  0  0  0  0  0  0  0  0999 V2000
   11.9478    4.2358   12.1105 C   0  0  0  0  0  0  0  0  0  0  0  0
   10.6877    4.9203   12.2015 N   0  0  0  0  0  0  0  0  0  0  0  0
   10.0338    4.7752   10.9529 C   0  0  0  0  0  0  0  0  0  0  0  0
    9.0000    5.4036   10.5859 O   0  0  0  0  0  0  0  0  0  0  0  0
   10.7472    3.7789   10.1498 C   0  0  0  0  0  0  0  0  0  0  0  0
   10.4636    3.3814    8.9927 O   0  0  0  0  0  0  0  0  0  0  0  0
   11.8661    3.3195   10.9529 C   0  0  0  0  0  0  0  0  0  0  0  0
   12.6097    2.2538   10.7031 C   0  0  0  0  0  0  0  0  0  0  0  0
   13.6037    1.9284   11.6468 O   0  0  0  0  0  0  0  0  0  0  0  0
   12.5097    1.3927    9.5511 C   0  0  0  0  0  0  0  0  0  0  0  0
   11.5970    0.4974    9.1542 N   0  0  0  0  0  0  0  0  0  0  0  0
   11.9733   -0.0957    8.0080 C   0  0  0  0  0  0  0  0  0  0  0  0
   13.1580    0.4357    7.6623 N   0  0  0  0  0  0  0  0  0  0  0  0
   13.5137    1.3415    8.5748 C   0  0  0  0  0  0  0  0  0  0  0  0
   14.7657    2.1485    8.5408 C   0  0  0  0  0  0  0  0  0  0  0  0
   11.2106   -1.0570    7.3535 C   0  0  0  0  0  0  0  0  0  0  0  0
   10.0123   -1.4180    7.9050 C   0  0  0  0  0  0  0  0  0  0  0  0
    9.6216   -0.8086    9.0832 C   0  0  0  0  0  0  0  0  0  0  0  0
   10.4126    0.1371    9.6934 C   0  0  0  0  0  0  0  0  0  0  0  0
   16.6746    8.2389   11.5582 Br  0  0  0  0  0  0  0  0  0  0  0  0
   15.2463    6.9841   11.7512 C   0  0  0  0  0  0  0  0  0  0  0  0
   14.0499    7.2506   11.1493 C   0  0  0  0  0  0  0  0  0  0  0  0
   13.0132    6.3565   11.2807 C   0  0  0  0  0  0  0  0  0  0  0  0
   13.0917    5.1798   11.9907 C   0  0  0  0  0  0  0  0  0  0  0  0
   14.3276    4.9376   12.5925 C   0  0  0  0  0  0  0  0  0  0  0  0
   15.3745    5.8208   12.4719 C   0  0  0  0  0  0  0  0  0  0  0  0
   10.1585    5.6447   13.3780 C   0  0  0  0  0  0  0  0  0  0  0  0
   10.1228    7.1314   13.0953 C   0  0  0  0  0  0  0  0  0  0  0  0
    8.8268    7.6143   12.7698 N   0  0  0  0  0  0  0  0  0  0  0  0
    7.8650    6.9156   13.6226 C   0  0  0  0  0  0  0  0  0  0  0  0
    8.6420    9.0234   12.9306 C   0  0  0  0  0  0  0  0  0  0  0  0
    8.5534    7.3762   11.7749 H   0  0  0  0  0  0  0  0  0  0  0  0
 20 21  1  0  0  0
 21 22  2  0  0  0
 21 26  1  0  0  0
 22 23  1  0  0  0
 23 24  2  0  0  0
 24 25  1  0  0  0
 24  1  1  0  0  0
 25 26  2  0  0  0
  1  2  1  0  0  0
  1  7  1  0  0  0
  2  3  1  0  0  0
  2 27  1  0  0  0
  3  4  2  0  0  0
  3  5  1  0  0  0
  5  6  2  0  0  0
  5  7  1  0  0  0
  7  8  2  0  0  0
  8  9  1  0  0  0
  8 10  1  0  0  0
 10 11  1  0  0  0
 10 14  2  0  0  0
 11 12  1  0  0  0
 11 19  1  0  0  0
 12 13  2  0  0  0
 12 16  1  0  0  0
 13 14  1  0  0  0
 14 15  1  0  0  0
 16 17  2  0  0  0
 17 18  1  0  0  0
 18 19  2  0  0  0
 27 28  1  0  0  0
 28 29  1  0  0  0
 29 30  1  0  0  0
 29 31  1  0  0  0
 29 32  1  0  0  0
M  CHG 1   9  -1
M  CHG 1  29   1
M  END
> <minimizedAffinity>
-9.36770

$$$$
381


 29 32  0  0  0  0  0  0  0  0999 V2000
   11.2852    5.0749   10.1620 N   0  0  0  0  0  0  0  0  0  0  0  0
   11.2919    3.7915    9.8141 N   0  0  0  0  0  0  0  0  0  0  0  0
   12.2796    2.9434   10.2204 C   0  0  0  0  0  0  0  0  0  0  0  0
   13.2729    3.4140   10.9902 N   0  0  0  0  0  0  0  0  0  0  0  0
   14.2234    2.3650   11.2874 C   0  0  0  0  0  0  0  0  0  0  0  0
   13.7227    1.1199   10.6177 C   0  0  0  0  0  0  0  0  0  0  0  0
   12.4759    1.5497   10.0129 N   0  0  0  0  0  0  0  0  0  0  0  0
   13.3205    4.6970   11.3731 C   0  0  0  0  0  0  0  0  0  0  0  0
   14.2498    5.1344   12.0925 O   0  0  0  0  0  0  0  0  0  0  0  0
   12.2953    5.5111   10.9351 C   0  0  0  0  0  0  0  0  0  0  0  0
   12.2973    6.7234   11.2674 O   0  0  0  0  0  0  0  0  0  0  0  0
   11.6136    0.6636    9.3253 C   0  0  0  0  0  0  0  0  0  0  0  0
   10.2816    0.5232    9.6088 C   0  0  0  0  0  0  0  0  0  0  0  0
    9.4675   -0.3647    8.9279 C   0  0  0  0  0  0  0  0  0  0  0  0
   10.0018   -1.1460    7.9212 C   0  0  0  0  0  0  0  0  0  0  0  0
   11.3223   -1.0212    7.6234 C   0  0  0  0  0  0  0  0  0  0  0  0
   12.1265   -0.1349    8.3075 C   0  0  0  0  0  0  0  0  0  0  0  0
   10.2086    5.9948    9.7590 C   0  0  0  0  0  0  0  0  0  0  0  0
    9.1451    6.9338   11.9044 N   0  0  0  0  0  0  0  0  0  0  0  0
    9.1825    6.0776   10.7972 C   0  0  0  0  0  0  0  0  0  0  0  0
    8.2141    5.2357   10.6238 O   0  0  0  0  0  0  0  0  0  0  0  0
    9.9624    7.5990   12.0122 H   0  0  0  0  0  0  0  0  0  0  0  0
    4.5635    7.4848   15.9926 Br  0  0  0  0  0  0  0  0  0  0  0  0
    5.9938    7.2779   14.7427 C   0  0  0  0  0  0  0  0  0  0  0  0
    6.9982    6.3667   14.9363 C   0  0  0  0  0  0  0  0  0  0  0  0
    8.0439    6.2268   14.0132 C   0  0  0  0  0  0  0  0  0  0  0  0
    8.1345    6.9785   12.8686 C   0  0  0  0  0  0  0  0  0  0  0  0
    7.0854    7.9035   12.7005 C   0  0  0  0  0  0  0  0  0  0  0  0
    6.0631    8.0462   13.5972 C   0  0  0  0  0  0  0  0  0  0  0  0
 23 24  1  0  0  0
 24 25  2  0  0  0
 24 29  1  0  0  0
 25 26  1  0  0  0
 26 27  2  0  0  0
 27 28  1  0  0  0
 27 19  1  0  0  0
 28 29  2  0  0  0
 19 20  1  0  0  0
 20 21  2  0  0  0
 20 18  1  0  0  0
 18  1  1  0  0  0
  1  2  1  0  0  0
  1 10  1  0  0  0
  2  3  2  0  0  0
  3  4  1  0  0  0
  3  7  1  0  0  0
  4  5  1  0  0  0
  4  8  1  0  0  0
  5  6  1  0  0  0
  6  7  1  0  0  0
  7 12  1  0  0  0
 12 13  2  0  0  0
 12 17  1  0  0  0
 13 14  1  0  0  0
 14 15  2  0  0  0
 15 16  1  0  0  0
 16 17  2  0  0  0
  8  9  2  0  0  0
  8 10  1  0  0  0
 10 11  2  0  0  0
 19 22  1  0  0  0
M  END
> <minimizedAffinity>
-8.67350

$$$$
382


 31 34  0  0  0  0  0  0  0  0999 V2000
   13.2847    5.5170   11.2022 N   0  0  0  0  0  0  0  0  0  0  0  0
   14.3821    5.3228   11.9340 N   0  0  0  0  0  0  0  0  0  0  0  0
   14.6626    4.0406   11.9690 N   0  0  0  0  0  0  0  0  0  0  0  0
   13.7303    3.3780   11.2432 C   0  0  0  0  0  0  0  0  0  0  0  0
   12.8861    4.3058   10.7763 C   0  0  0  0  0  0  0  0  0  0  0  0
   11.9565    3.5945   10.0471 C   0  0  0  0  0  0  0  0  0  0  0  0
   10.9886    4.1514    9.4482 O   0  0  0  0  0  0  0  0  0  0  0  0
   12.2093    2.2766   10.0572 N   0  0  0  0  0  0  0  0  0  0  0  0
   13.3334    2.1330   10.8153 C   0  0  0  0  0  0  0  0  0  0  0  0
   13.8649    1.0123   11.0435 O   0  0  0  0  0  0  0  0  0  0  0  0
   14.9058    6.0988   12.3894 H   0  0  0  0  0  0  0  0  0  0  0  0
   15.4572    3.5570   12.4569 H   0  0  0  0  0  0  0  0  0  0  0  0
   11.4826    1.2147    9.4218 C   0  0  0  0  0  0  0  0  0  0  0  0
   10.1763    0.9435    9.7683 C   0  0  0  0  0  0  0  0  0  0  0  0
    9.4668   -0.0692    9.1541 C   0  0  0  0  0  0  0  0  0  0  0  0
   10.0249   -0.8611    8.1670 C   0  0  0  0  0  0  0  0  0  0  0  0
   11.3316   -0.5919    7.8184 C   0  0  0  0  0  0  0  0  0  0  0  0
   12.0386    0.4260    8.4374 C   0  0  0  0  0  0  0  0  0  0  0  0
    9.2305   -1.9414    7.5220 C   0  0  0  0  0  0  0  0  0  0  0  0
   12.6847    6.8124   10.9516 C   0  0  0  0  0  0  0  0  0  0  0  0
   10.2548    7.4553   11.2344 N   0  0  0  0  0  0  0  0  0  0  0  0
   11.4276    6.9341   11.7966 C   0  0  0  0  0  0  0  0  0  0  0  0
   11.4626    6.5668   12.9896 O   0  0  0  0  0  0  0  0  0  0  0  0
   10.2749    7.7626   10.2107 H   0  0  0  0  0  0  0  0  0  0  0  0
    4.9840    8.4106   14.2522 Br  0  0  0  0  0  0  0  0  0  0  0  0
    6.5914    8.0628   13.2997 C   0  0  0  0  0  0  0  0  0  0  0  0
    6.8533    6.8537   12.7072 C   0  0  0  0  0  0  0  0  0  0  0  0
    8.0443    6.6500   12.0236 C   0  0  0  0  0  0  0  0  0  0  0  0
    9.0165    7.6185   11.8963 C   0  0  0  0  0  0  0  0  0  0  0  0
    8.7128    8.8457   12.5160 C   0  0  0  0  0  0  0  0  0  0  0  0
    7.5485    9.0469   13.1858 C   0  0  0  0  0  0  0  0  0  0  0  0
 25 26  1  0  0  0
 26 27  2  0  0  0
 26 31  1  0  0  0
 27 28  1  0  0  0
 28 29  2  0  0  0
 29 30  1  0  0  0
 29 21  1  0  0  0
 30 31  2  0  0  0
 21 22  1  0  0  0
 22 23  2  0  0  0
 22 20  1  0  0  0
 20  1  1  0  0  0
  1  2  1  0  0  0
  1  5  1  0  0  0
  2  3  1  0  0  0
  3  4  1  0  0  0
  4  5  2  0  0  0
  4  9  1  0  0  0
  5  6  1  0  0  0
  6  7  2  0  0  0
  6  8  1  0  0  0
  8  9  1  0  0  0
  8 13  1  0  0  0
  9 10  2  0  0  0
 13 14  2  0  0  0
 13 18  1  0  0  0
 14 15  1  0  0  0
 15 16  2  0  0  0
 16 17  1  0  0  0
 16 19  1  0  0  0
 17 18  2  0  0  0
 21 24  1  0  0  0
  2 11  1  0  0  0
  3 12  1  0  0  0
M  END
> <minimizedAffinity>
-9.23686

$$$$
385


 32 35  0  0  0  0  0  0  0  0999 V2000
   13.4655    3.0317   10.0860 C   0  0  0  0  0  0  0  0  0  0  0  0
   13.9620    2.4510    8.7954 C   0  0  0  0  0  0  0  0  0  0  0  0
   15.3214    1.8992    8.8568 C   0  0  0  0  0  0  0  0  0  0  0  0
   15.5993    0.9287    8.1010 O   0  0  0  0  0  0  0  0  0  0  0  0
   16.2761    2.4515    9.7456 N   0  0  0  0  0  0  0  0  0  0  0  0
   15.8572    3.2953   10.7971 C   0  0  0  0  0  0  0  0  0  0  0  0
   16.7989    3.8288   11.6359 N   0  0  0  0  0  0  0  0  0  0  0  0
   16.4750    4.6445   12.6413 C   0  0  0  0  0  0  0  0  0  0  0  0
   15.1790    4.9337   12.8142 N   0  0  0  0  0  0  0  0  0  0  0  0
   14.2003    4.4276   12.0082 C   0  0  0  0  0  0  0  0  0  0  0  0
   14.5090    3.5824   10.9609 C   0  0  0  0  0  0  0  0  0  0  0  0
   12.8344    4.7554   12.2409 N   0  0  0  0  0  0  0  0  0  0  0  0
   17.3129    2.2494    9.6463 H   0  0  0  0  0  0  0  0  0  0  0  0
   12.0942    4.6034   11.5493 H   0  0  0  0  0  0  0  0  0  0  0  0
   12.5727    5.1809   13.1667 H   0  0  0  0  0  0  0  0  0  0  0  0
   17.4875    5.1934   13.5158 N   0  0  0  0  0  0  0  0  0  0  0  0
   17.0405    5.9962   14.6000 C   0  0  0  0  0  0  0  0  0  0  0  0
   18.0460    6.1610   15.7029 C   0  0  0  0  0  0  0  0  0  0  0  0
   19.1987    5.4135   15.4881 O   0  0  0  0  0  0  0  0  0  0  0  0
   19.7290    5.6320   14.2237 C   0  0  0  0  0  0  0  0  0  0  0  0
   18.8741    4.8860   13.2320 C   0  0  0  0  0  0  0  0  0  0  0  0
   11.9541    1.0636   10.0412 N   0  0  0  0  0  0  0  0  0  0  0  0
   12.6870    1.8877   10.7708 C   0  0  0  0  0  0  0  0  0  0  0  0
   12.8949    1.9283   12.0481 O   0  0  0  0  0  0  0  0  0  0  0  0
   11.4499    0.5019   11.1751 H   0  0  0  0  0  0  0  0  0  0  0  0
    8.1431   -2.3724    6.7405 Br  0  0  0  0  0  0  0  0  0  0  0  0
    9.3728   -1.3270    7.7797 C   0  0  0  0  0  0  0  0  0  0  0  0
    8.9273   -0.4952    8.7766 C   0  0  0  0  0  0  0  0  0  0  0  0
    9.7801    0.2469    9.5100 C   0  0  0  0  0  0  0  0  0  0  0  0
   11.1930    0.2074    9.2856 C   0  0  0  0  0  0  0  0  0  0  0  0
   11.5971   -0.6396    8.2771 C   0  0  0  0  0  0  0  0  0  0  0  0
   10.7264   -1.3961    7.5324 C   0  0  0  0  0  0  0  0  0  0  0  0
 26 27  1  0  0  0
 27 28  2  0  0  0
 27 32  1  0  0  0
 28 29  1  0  0  0
 29 30  2  0  0  0
 30 31  1  0  0  0
 30 22  1  0  0  0
 31 32  2  0  0  0
 22 23  1  0  0  0
 23 24  2  0  0  0
 23  1  1  0  0  0
  1  2  1  0  0  0
  1 11  1  0  0  0
  2  3  1  0  0  0
  3  4  2  0  0  0
  3  5  1  0  0  0
  5  6  1  0  0  0
  6  7  2  0  0  0
  6 11  1  0  0  0
  7  8  1  0  0  0
  8  9  2  0  0  0
  8 16  1  0  0  0
  9 10  1  0  0  0
 10 11  2  0  0  0
 10 12  1  0  0  0
 16 17  1  0  0  0
 16 21  1  0  0  0
 17 18  1  0  0  0
 18 19  1  0  0  0
 19 20  1  0  0  0
 20 21  1  0  0  0
 22 25  1  0  0  0
  5 13  1  0  0  0
 12 14  1  0  0  0
 12 15  1  0  0  0
M  END
> <minimizedAffinity>
-9.14599

$$$$
386


 36 39  0  0  0  0  0  0  0  0999 V2000
   12.8722    5.5004   11.5829 C   0  0  0  0  0  0  0  0  0  0  0  0
   13.9772    6.5212   11.7805 C   0  0  0  0  0  0  0  0  0  0  0  0
   13.4876    7.8318   11.2557 C   0  0  0  0  0  0  0  0  0  0  0  0
   14.1714    8.4946   10.4964 O   0  0  0  0  0  0  0  0  0  0  0  0
   12.2180    8.2425   11.6866 N   0  0  0  0  0  0  0  0  0  0  0  0
   11.2807    7.3043   12.1764 C   0  0  0  0  0  0  0  0  0  0  0  0
   10.0950    7.6961   12.6847 N   0  0  0  0  0  0  0  0  0  0  0  0
    9.1935    6.8921   13.2493 C   0  0  0  0  0  0  0  0  0  0  0  0
    9.5421    5.5801   13.2942 N   0  0  0  0  0  0  0  0  0  0  0  0
   10.7173    5.1132   12.7999 C   0  0  0  0  0  0  0  0  0  0  0  0
   11.6348    5.9348   12.2196 C   0  0  0  0  0  0  0  0  0  0  0  0
   10.9972    3.7522   12.8903 O   0  0  0  0  0  0  0  0  0  0  0  0
   11.9066    9.2509   11.6722 H   0  0  0  0  0  0  0  0  0  0  0  0
   11.2729    3.3099   13.7645 H   0  0  0  0  0  0  0  0  0  0  0  0
    7.9342    7.3217   13.7294 N   0  0  0  0  0  0  0  0  0  0  0  0
    7.6827    8.4428   14.5971 C   0  0  0  0  0  0  0  0  0  0  0  0
    6.3960    9.1229   14.1392 C   0  0  0  0  0  0  0  0  0  0  0  0
    6.1629    8.9628   12.6657 C   0  0  0  0  0  0  0  0  0  0  0  0
    6.0607    7.5291   12.2799 C   0  0  0  0  0  0  0  0  0  0  0  0
    6.7312    6.5927   13.3115 C   0  0  0  0  0  0  0  0  0  0  0  0
    7.1595    9.7094   11.8617 C   0  0  0  0  0  0  0  0  0  0  0  0
    7.6312    9.1450   10.8535 O   0  0  0  0  0  0  0  0  0  0  0  0
    7.6054   11.0129   12.1743 N   0  0  0  0  0  0  0  0  0  0  0  0
    6.9833   11.7348   12.5817 H   0  0  0  0  0  0  0  0  0  0  0  0
    8.6004   11.2577   11.9884 H   0  0  0  0  0  0  0  0  0  0  0  0
   12.8762    3.1079   10.9112 N   0  0  0  0  0  0  0  0  0  0  0  0
   13.3176    4.0879   11.7232 C   0  0  0  0  0  0  0  0  0  0  0  0
   14.1648    3.9926   12.7123 O   0  0  0  0  0  0  0  0  0  0  0  0
   13.7372    2.2394   11.4762 H   0  0  0  0  0  0  0  0  0  0  0  0
   10.4293   -1.3032    7.5899 Br  0  0  0  0  0  0  0  0  0  0  0  0
   11.2597    0.0704    8.5929 C   0  0  0  0  0  0  0  0  0  0  0  0
   10.4833    0.9683    9.3042 C   0  0  0  0  0  0  0  0  0  0  0  0
   11.0010    1.9777   10.0449 C   0  0  0  0  0  0  0  0  0  0  0  0
   12.4265    2.1083   10.0847 C   0  0  0  0  0  0  0  0  0  0  0  0
   13.1687    1.2006    9.3676 C   0  0  0  0  0  0  0  0  0  0  0  0
   12.6204    0.1816    8.6209 C   0  0  0  0  0  0  0  0  0  0  0  0
 30 31  1  0  0  0
 31 32  2  0  0  0
 31 36  1  0  0  0
 32 33  1  0  0  0
 33 34  2  0  0  0
 34 35  1  0  0  0
 34 26  1  0  0  0
 35 36  2  0  0  0
 26 27  1  0  0  0
 27 28  2  0  0  0
 27  1  1  0  0  0
  1  2  1  0  0  0
  1 11  1  0  0  0
  2  3  1  0  0  0
  3  4  2  0  0  0
  3  5  1  0  0  0
  5  6  1  0  0  0
  6  7  2  0  0  0
  6 11  1  0  0  0
  7  8  1  0  0  0
  8  9  2  0  0  0
  8 15  1  0  0  0
  9 10  1  0  0  0
 10 11  2  0  0  0
 10 12  1  0  0  0
 15 16  1  0  0  0
 15 20  1  0  0  0
 16 17  1  0  0  0
 17 18  1  0  0  0
 18 19  1  0  0  0
 18 21  1  0  0  0
 19 20  1  0  0  0
 21 22  2  0  0  0
 21 23  1  0  0  0
 26 29  1  0  0  0
  5 13  1  0  0  0
 12 14  1  0  0  0
 23 24  1  0  0  0
 23 25  1  0  0  0
M  END
> <minimizedAffinity>
-9.30196

$$$$
393


 27 30  0  0  0  0  0  0  0  0999 V2000
   15.0989    3.1274   10.8583 N   0  0  0  0  0  0  0  0  0  0  0  0
   16.3911    3.1047   11.0720 N   0  0  0  0  0  0  0  0  0  0  0  0
   16.7936    4.0875   11.9019 C   0  0  0  0  0  0  0  0  0  0  0  0
   15.6631    4.7818   12.2351 C   0  0  0  0  0  0  0  0  0  0  0  0
   14.6210    4.1665   11.5742 C   0  0  0  0  0  0  0  0  0  0  0  0
   15.6168    5.9396   13.1196 C   0  0  0  0  0  0  0  0  0  0  0  0
   15.4821    5.7035   14.3443 O   0  0  0  0  0  0  0  0  0  0  0  0
   15.7148    7.2724   12.6645 N   0  0  0  0  0  0  0  0  0  0  0  0
   15.6575    8.3475   13.6254 C   0  0  0  0  0  0  0  0  0  0  0  0
   17.0005    9.0140   13.6549 C   0  0  0  0  0  0  0  0  0  0  0  0
   17.7675    8.7627   12.4402 N   0  0  0  0  0  0  0  0  0  0  0  0
   17.1533    8.4091   11.2058 C   0  0  0  0  0  0  0  0  0  0  0  0
   17.7027    8.7244   10.1220 O   0  0  0  0  0  0  0  0  0  0  0  0
   15.8710    7.6707   11.2841 C   0  0  0  0  0  0  0  0  0  0  0  0
   18.8258    8.8523   12.5021 H   0  0  0  0  0  0  0  0  0  0  0  0
   11.9686   -0.8029    7.2933 Br  0  0  0  0  0  0  0  0  0  0  0  0
   12.9418    0.4178    8.3979 C   0  0  0  0  0  0  0  0  0  0  0  0
   12.5756    0.6163    9.7125 C   0  0  0  0  0  0  0  0  0  0  0  0
   13.2896    1.5009   10.4953 C   0  0  0  0  0  0  0  0  0  0  0  0
   14.3754    2.2166   10.0267 C   0  0  0  0  0  0  0  0  0  0  0  0
   14.7312    2.0059    8.7070 C   0  0  0  0  0  0  0  0  0  0  0  0
   14.0270    1.1239    7.9121 C   0  0  0  0  0  0  0  0  0  0  0  0
   13.2301    4.5569   11.6261 N   0  0  0  0  0  0  0  0  0  0  0  0
   12.2750    4.0935   12.4184 C   0  0  0  0  0  0  0  0  0  0  0  0
   11.0814    4.7251   12.1556 C   0  0  0  0  0  0  0  0  0  0  0  0
   11.3556    5.6145   11.1442 C   0  0  0  0  0  0  0  0  0  0  0  0
   12.6913    5.4954   10.8309 C   0  0  0  0  0  0  0  0  0  0  0  0
 16 17  1  0  0  0
 17 18  2  0  0  0
 17 22  1  0  0  0
 18 19  1  0  0  0
 19 20  2  0  0  0
 20 21  1  0  0  0
 20  1  1  0  0  0
 21 22  2  0  0  0
  1  2  1  0  0  0
  1  5  1  0  0  0
  2  3  2  0  0  0
  3  4  1  0  0  0
  4  5  2  0  0  0
  4  6  1  0  0  0
  5 23  1  0  0  0
 23 24  1  0  0  0
 23 27  1  0  0  0
 24 25  2  0  0  0
 25 26  1  0  0  0
 26 27  2  0  0  0
  6  7  2  0  0  0
  6  8  1  0  0  0
  8  9  1  0  0  0
  8 14  1  0  0  0
  9 10  1  0  0  0
 10 11  1  0  0  0
 11 12  1  0  0  0
 12 13  2  0  0  0
 12 14  1  0  0  0
 11 15  1  0  0  0
M  END
> <minimizedAffinity>
-7.76302

$$$$
395


 28 31  0  0  0  0  0  0  0  0999 V2000
   12.0678    1.5878    9.8086 N   0  0  0  0  0  0  0  0  0  0  0  0
   13.3397    1.4519   10.1423 N   0  0  0  0  0  0  0  0  0  0  0  0
   13.8032    2.5402   10.7333 N   0  0  0  0  0  0  0  0  0  0  0  0
   12.8008    3.4568   10.8032 C   0  0  0  0  0  0  0  0  0  0  0  0
   11.7228    2.8237   10.2110 C   0  0  0  0  0  0  0  0  0  0  0  0
   10.5773    3.5115   10.1425 N   0  0  0  0  0  0  0  0  0  0  0  0
   10.4928    4.7609   10.6314 C   0  0  0  0  0  0  0  0  0  0  0  0
   11.5423    5.3869   11.2115 N   0  0  0  0  0  0  0  0  0  0  0  0
   12.7077    4.7348   11.3004 C   0  0  0  0  0  0  0  0  0  0  0  0
   13.6802    5.3109   11.8358 O   0  0  0  0  0  0  0  0  0  0  0  0
    8.3539   -2.4768    7.0374 Br  0  0  0  0  0  0  0  0  0  0  0  0
    9.5195   -1.2185    7.8897 C   0  0  0  0  0  0  0  0  0  0  0  0
    9.0645   -0.3885    8.8924 C   0  0  0  0  0  0  0  0  0  0  0  0
    9.8937    0.5287    9.5210 C   0  0  0  0  0  0  0  0  0  0  0  0
   11.2191    0.6400    9.1567 C   0  0  0  0  0  0  0  0  0  0  0  0
   11.6674   -0.1945    8.1522 C   0  0  0  0  0  0  0  0  0  0  0  0
   10.8449   -1.1073    7.5253 C   0  0  0  0  0  0  0  0  0  0  0  0
   11.3537    6.7371   11.7085 C   0  0  0  0  0  0  0  0  0  0  0  0
   10.4835    6.7206   12.9393 C   0  0  0  0  0  0  0  0  0  0  0  0
   10.8415    6.0896   13.9695 O   0  0  0  0  0  0  0  0  0  0  0  0
    9.2491    7.4114   12.9638 N   0  0  0  0  0  0  0  0  0  0  0  0
    8.4070    7.4019   14.1362 C   0  0  0  0  0  0  0  0  0  0  0  0
    6.9869    7.1543   13.6572 C   0  0  0  0  0  0  0  0  0  0  0  0
    6.5635    8.0495   12.7090 O   0  0  0  0  0  0  0  0  0  0  0  0
    7.5422    8.8768   12.2159 C   0  0  0  0  0  0  0  0  0  0  0  0
    8.8028    8.1450   11.8024 C   0  0  0  0  0  0  0  0  0  0  0  0
    7.0751    9.7522   11.0906 C   0  0  0  0  0  0  0  0  0  0  0  0
    6.0868    7.3392   14.8834 C   0  0  0  0  0  0  0  0  0  0  0  0
 11 12  1  0  0  0
 12 13  2  0  0  0
 12 17  1  0  0  0
 13 14  1  0  0  0
 14 15  2  0  0  0
 15 16  1  0  0  0
 15  1  1  0  0  0
 16 17  2  0  0  0
  1  2  1  0  0  0
  1  5  1  0  0  0
  2  3  2  0  0  0
  3  4  1  0  0  0
  4  5  2  0  0  0
  4  9  1  0  0  0
  5  6  1  0  0  0
  6  7  2  0  0  0
  7  8  1  0  0  0
  8  9  1  0  0  0
  8 18  1  0  0  0
  9 10  2  0  0  0
 18 19  1  0  0  0
 19 20  2  0  0  0
 19 21  1  0  0  0
 21 22  1  0  0  0
 21 26  1  0  0  0
 22 23  1  0  0  0
 23 24  1  0  0  0
 23 28  1  0  0  0
 24 25  1  0  0  0
 25 26  1  0  0  0
 25 27  1  0  0  0
M  END
> <minimizedAffinity>
-8.87011

$$$$
399


 28 31  0  0  0  0  0  0  0  0999 V2000
   12.0105    3.0235   10.3590 N   0  0  0  0  0  0  0  0  0  0  0  0
   11.6790    4.4000   10.2138 C   0  0  0  0  0  0  0  0  0  0  0  0
   10.8461    4.8546    9.4008 O   0  0  0  0  0  0  0  0  0  0  0  0
   12.4473    5.2354   11.1488 C   0  0  0  0  0  0  0  0  0  0  0  0
   13.6634    4.3606   11.4312 C   0  0  0  0  0  0  0  0  0  0  0  0
   13.1044    2.9782   11.2956 C   0  0  0  0  0  0  0  0  0  0  0  0
   13.5856    2.0247   11.9354 O   0  0  0  0  0  0  0  0  0  0  0  0
    9.4125   -1.8908    7.6872 Br  0  0  0  0  0  0  0  0  0  0  0  0
   10.2253   -0.3663    8.5133 C   0  0  0  0  0  0  0  0  0  0  0  0
   11.5136    0.0000    8.2352 C   0  0  0  0  0  0  0  0  0  0  0  0
   12.1016    1.1144    8.8427 C   0  0  0  0  0  0  0  0  0  0  0  0
   11.4144    1.8831    9.7369 C   0  0  0  0  0  0  0  0  0  0  0  0
   10.1285    1.5212   10.0182 C   0  0  0  0  0  0  0  0  0  0  0  0
    9.5290    0.4046    9.4154 C   0  0  0  0  0  0  0  0  0  0  0  0
   11.7686    5.5641   12.3819 N   0  0  0  0  0  0  0  0  0  0  0  0
   11.8294    6.9738   12.6854 C   0  0  0  0  0  0  0  0  0  0  0  0
   10.5970    7.7526   12.2824 C   0  0  0  0  0  0  0  0  0  0  0  0
    9.3926    7.0170   12.5719 N   0  0  0  0  0  0  0  0  0  0  0  0
    9.5925    5.8398   13.3839 C   0  0  0  0  0  0  0  0  0  0  0  0
   10.5017    4.9426   12.5229 C   0  0  0  0  0  0  0  0  0  0  0  0
   12.3943    5.1197   13.1363 H   0  0  0  0  0  0  0  0  0  0  0  0
    8.1252    7.3777   12.1029 C   0  0  0  0  0  0  0  0  0  0  0  0
    7.6880    8.6696   11.8903 C   0  0  0  0  0  0  0  0  0  0  0  0
    6.4110    8.9728   11.4467 C   0  0  0  0  0  0  0  0  0  0  0  0
    5.5143    7.9686   11.1982 C   0  0  0  0  0  0  0  0  0  0  0  0
    5.8983    6.6574   11.3948 C   0  0  0  0  0  0  0  0  0  0  0  0
    7.1792    6.3801   11.8379 C   0  0  0  0  0  0  0  0  0  0  0  0
    4.2142    8.2050   10.7501 O   0  0  0  0  0  0  0  0  0  0  0  0
  8  9  1  0  0  0
  9 10  2  0  0  0
  9 14  1  0  0  0
 10 11  1  0  0  0
 11 12  2  0  0  0
 12 13  1  0  0  0
 12  1  1  0  0  0
 13 14  2  0  0  0
  1  2  1  0  0  0
  1  6  1  0  0  0
  2  3  2  0  0  0
  2  4  1  0  0  0
  4  5  1  0  0  0
  4 15  1  0  0  0
  5  6  1  0  0  0
  6  7  2  0  0  0
 15 16  1  0  0  0
 15 20  1  0  0  0
 16 17  1  0  0  0
 17 18  1  0  0  0
 18 19  1  0  0  0
 18 22  1  0  0  0
 19 20  1  0  0  0
 22 23  2  0  0  0
 22 27  1  0  0  0
 23 24  1  0  0  0
 24 25  2  0  0  0
 25 26  1  0  0  0
 25 28  1  0  0  0
 26 27  2  0  0  0
 15 21  1  0  0  0
M  CHG 1  15   1
M  CHG 1  28  -1
M  END
> <minimizedAffinity>
-9.35900

$$$$
400


 31 34  0  0  0  0  0  0  0  0999 V2000
   10.5181    6.9258   11.4100 N   0  0  0  0  0  0  0  0  0  0  0  0
   10.2916    8.1604   12.0462 C   0  0  0  0  0  0  0  0  0  0  0  0
    8.7929    8.2862   12.3510 C   0  0  0  0  0  0  0  0  0  0  0  0
    8.3614    7.2815   13.3960 C   0  0  0  0  0  0  0  0  0  0  0  0
    9.0202    5.9865   13.1394 C   0  0  0  0  0  0  0  0  0  0  0  0
    9.5957    5.9088   11.7476 C   0  0  0  0  0  0  0  0  0  0  0  0
   12.2170    4.2665   10.5740 N   0  0  0  0  0  0  0  0  0  0  0  0
   11.8358    5.5328   10.0256 C   0  0  0  0  0  0  0  0  0  0  0  0
   11.5461    5.7960    8.8332 O   0  0  0  0  0  0  0  0  0  0  0  0
   11.8369    6.5225   11.1339 C   0  0  0  0  0  0  0  0  0  0  0  0
   12.5419    5.8664   12.3001 C   0  0  0  0  0  0  0  0  0  0  0  0
   13.0027    4.5778   11.7175 C   0  0  0  0  0  0  0  0  0  0  0  0
   13.9562    3.8454   12.1610 O   0  0  0  0  0  0  0  0  0  0  0  0
   10.6752   -1.2933    8.3940 Br  0  0  0  0  0  0  0  0  0  0  0  0
   11.1496    0.4309    9.0716 C   0  0  0  0  0  0  0  0  0  0  0  0
   10.2322    1.2556    9.6802 C   0  0  0  0  0  0  0  0  0  0  0  0
   10.5875    2.5171   10.1735 C   0  0  0  0  0  0  0  0  0  0  0  0
   11.8735    2.9750   10.0651 C   0  0  0  0  0  0  0  0  0  0  0  0
   12.7835    2.1420    9.4534 C   0  0  0  0  0  0  0  0  0  0  0  0
   12.4436    0.8915    8.9621 C   0  0  0  0  0  0  0  0  0  0  0  0
    8.5530    7.8506   14.6653 N   0  0  0  0  0  0  0  0  0  0  0  0
    9.2754    7.1306   15.6279 C   0  0  0  0  0  0  0  0  0  0  0  0
    8.3728    7.0191   16.8690 C   0  0  0  0  0  0  0  0  0  0  0  0
    8.2047    8.4349   17.3822 C   0  0  0  0  0  0  0  0  0  0  0  0
    8.5779    9.4782   16.3824 C   0  0  0  0  0  0  0  0  0  0  0  0
    8.1207    9.1300   14.9579 C   0  0  0  0  0  0  0  0  0  0  0  0
    6.8795    7.1061   13.1919 C   0  0  0  0  0  0  0  0  0  0  0  0
    6.3065    7.6711   12.2122 O   0  0  0  0  0  0  0  0  0  0  0  0
    6.0721    6.3267   14.0539 N   0  0  0  0  0  0  0  0  0  0  0  0
    5.3144    6.7739   14.5837 H   0  0  0  0  0  0  0  0  0  0  0  0
    6.2328    5.3066   14.1582 H   0  0  0  0  0  0  0  0  0  0  0  0
 14 15  1  0  0  0
 15 16  2  0  0  0
 15 20  1  0  0  0
 16 17  1  0  0  0
 17 18  2  0  0  0
 18 19  1  0  0  0
 18  7  1  0  0  0
 19 20  2  0  0  0
  7  8  1  0  0  0
  7 12  1  0  0  0
  8  9  2  0  0  0
  8 10  1  0  0  0
 10 11  1  0  0  0
 10  1  1  0  0  0
 11 12  1  0  0  0
 12 13  2  0  0  0
  1  2  1  0  0  0
  1  6  1  0  0  0
  2  3  1  0  0  0
  3  4  1  0  0  0
  4  5  1  0  0  0
  4 21  1  0  0  0
  4 27  1  0  0  0
  5  6  1  0  0  0
 21 22  1  0  0  0
 21 26  1  0  0  0
 22 23  1  0  0  0
 23 24  1  0  0  0
 24 25  1  0  0  0
 25 26  1  0  0  0
 27 28  2  0  0  0
 27 29  1  0  0  0
 29 30  1  0  0  0
 29 31  1  0  0  0
M  END
> <minimizedAffinity>
-8.46150

$$$$
408


 31 34  0  0  0  0  0  0  0  0999 V2000
   10.8621    3.7001   11.0479 N   0  0  0  0  0  0  0  0  0  0  0  0
   10.3033    4.8757   10.7143 C   0  0  0  0  0  0  0  0  0  0  0  0
    9.9139    5.1628    9.5407 O   0  0  0  0  0  0  0  0  0  0  0  0
   10.2143    5.7196   11.8216 C   0  0  0  0  0  0  0  0  0  0  0  0
   10.7307    5.0295   12.8342 C   0  0  0  0  0  0  0  0  0  0  0  0
   10.6351    5.8599   13.8882 N   0  0  0  0  0  0  0  0  0  0  0  0
   10.0816    7.0045   13.5231 N   0  0  0  0  0  0  0  0  0  0  0  0
    9.8164    6.9272   12.2416 N   0  0  0  0  0  0  0  0  0  0  0  0
   11.1304    3.7923   12.3701 C   0  0  0  0  0  0  0  0  0  0  0  0
   11.6602    2.8726   13.0315 O   0  0  0  0  0  0  0  0  0  0  0  0
   10.9733    5.5730   14.8418 H   0  0  0  0  0  0  0  0  0  0  0  0
    9.9122    7.7943   14.1876 H   0  0  0  0  0  0  0  0  0  0  0  0
   12.0561   -1.0767    7.3390 Br  0  0  0  0  0  0  0  0  0  0  0  0
   11.6747    0.4081    8.4949 C   0  0  0  0  0  0  0  0  0  0  0  0
   12.6482    1.3309    8.8123 C   0  0  0  0  0  0  0  0  0  0  0  0
   12.3762    2.4004    9.6442 C   0  0  0  0  0  0  0  0  0  0  0  0
   11.1191    2.5895   10.1927 C   0  0  0  0  0  0  0  0  0  0  0  0
   10.1593    1.6542    9.8623 C   0  0  0  0  0  0  0  0  0  0  0  0
   10.4208    0.5864    9.0347 C   0  0  0  0  0  0  0  0  0  0  0  0
    9.2104    7.9377   11.4123 C   0  0  0  0  0  0  0  0  0  0  0  0
    8.0202    8.5664   12.0765 C   0  0  0  0  0  0  0  0  0  0  0  0
    8.0930    9.8123   12.1988 O   0  0  0  0  0  0  0  0  0  0  0  0
    6.9250    7.8207   12.5201 N   0  0  0  0  0  0  0  0  0  0  0  0
    7.0090    6.7633   12.3451 H   0  0  0  0  0  0  0  0  0  0  0  0
    5.7702    8.3014   13.1485 C   0  0  0  0  0  0  0  0  0  0  0  0
    4.6424    8.5173   12.3401 C   0  0  0  0  0  0  0  0  0  0  0  0
    3.4887    8.9878   12.9143 C   0  0  0  0  0  0  0  0  0  0  0  0
    3.3801    9.2613   14.2614 C   0  0  0  0  0  0  0  0  0  0  0  0
    4.4710    9.0548   15.0525 C   0  0  0  0  0  0  0  0  0  0  0  0
    5.6366    8.5825   14.4861 C   0  0  0  0  0  0  0  0  0  0  0  0
    4.6733    8.2492   10.8891 C   0  0  0  0  0  0  0  0  0  0  0  0
 13 14  1  0  0  0
 14 15  2  0  0  0
 14 19  1  0  0  0
 15 16  1  0  0  0
 16 17  2  0  0  0
 17 18  1  0  0  0
 17  1  1  0  0  0
 18 19  2  0  0  0
  1  2  1  0  0  0
  1  9  1  0  0  0
  2  3  2  0  0  0
  2  4  1  0  0  0
  4  5  2  0  0  0
  4  8  1  0  0  0
  5  6  1  0  0  0
  5  9  1  0  0  0
  6  7  1  0  0  0
  7  8  1  0  0  0
  8 20  1  0  0  0
 20 21  1  0  0  0
 21 22  2  0  0  0
 21 23  1  0  0  0
 23 25  1  0  0  0
 25 26  2  0  0  0
 25 30  1  0  0  0
 26 27  1  0  0  0
 26 31  1  0  0  0
 27 28  2  0  0  0
 28 29  1  0  0  0
 29 30  2  0  0  0
  9 10  2  0  0  0
  6 11  1  0  0  0
  7 12  1  0  0  0
 23 24  1  0  0  0
M  END
> <minimizedAffinity>
-9.31984

$$$$
411


 34 37  0  0  0  0  0  0  0  0999 V2000
   15.7538    5.7008   11.9021 N   0  0  0  0  0  0  0  0  0  0  0  0
   14.4732    5.3103   12.0080 C   0  0  0  0  0  0  0  0  0  0  0  0
   14.1489    4.1467   12.3584 O   0  0  0  0  0  0  0  0  0  0  0  0
   13.6072    6.3421   11.6866 C   0  0  0  0  0  0  0  0  0  0  0  0
   14.3771    7.3784   11.3801 C   0  0  0  0  0  0  0  0  0  0  0  0
   13.5374    8.3777   11.0683 N   0  0  0  0  0  0  0  0  0  0  0  0
   12.2885    7.9625   11.1815 N   0  0  0  0  0  0  0  0  0  0  0  0
   12.3099    6.7128   11.5615 N   0  0  0  0  0  0  0  0  0  0  0  0
   15.6949    6.9927   11.5091 C   0  0  0  0  0  0  0  0  0  0  0  0
   16.7068    7.7389   11.2929 O   0  0  0  0  0  0  0  0  0  0  0  0
   13.7925    9.3424   10.7777 H   0  0  0  0  0  0  0  0  0  0  0  0
   11.4039    8.5245   11.0023 H   0  0  0  0  0  0  0  0  0  0  0  0
   20.9269    2.4763   12.7943 Br  0  0  0  0  0  0  0  0  0  0  0  0
   19.3223    3.4875   12.5293 C   0  0  0  0  0  0  0  0  0  0  0  0
   18.9828    4.5281   13.3712 C   0  0  0  0  0  0  0  0  0  0  0  0
   17.8157    5.2601   13.1737 C   0  0  0  0  0  0  0  0  0  0  0  0
   16.9549    4.9743   12.1344 C   0  0  0  0  0  0  0  0  0  0  0  0
   17.2985    3.9349   11.2982 C   0  0  0  0  0  0  0  0  0  0  0  0
   18.4556    3.2086   11.4915 C   0  0  0  0  0  0  0  0  0  0  0  0
   11.1819    5.8477   11.8120 C   0  0  0  0  0  0  0  0  0  0  0  0
   11.1484    4.7617   10.7621 C   0  0  0  0  0  0  0  0  0  0  0  0
   10.8917    5.0670    9.5764 O   0  0  0  0  0  0  0  0  0  0  0  0
   11.4030    3.4295   11.1195 N   0  0  0  0  0  0  0  0  0  0  0  0
   11.6161    3.2422   12.1529 H   0  0  0  0  0  0  0  0  0  0  0  0
   11.4094    2.3262   10.2431 C   0  0  0  0  0  0  0  0  0  0  0  0
   12.4892    1.8694    9.5308 C   0  0  0  0  0  0  0  0  0  0  0  0
   12.4255    0.7907    8.6732 C   0  0  0  0  0  0  0  0  0  0  0  0
   11.2148    0.1459    8.5317 C   0  0  0  0  0  0  0  0  0  0  0  0
   10.1001    0.5750    9.2337 C   0  0  0  0  0  0  0  0  0  0  0  0
   10.1862    1.6483   10.0779 C   0  0  0  0  0  0  0  0  0  0  0  0
   11.1288   -0.9455    7.6716 O   0  0  0  0  0  0  0  0  0  0  0  0
    9.9108   -1.6576    7.5805 C   0  0  0  0  0  0  0  0  0  0  0  0
   13.5397    0.3495    7.9629 O   0  0  0  0  0  0  0  0  0  0  0  0
   14.7108    1.1758    7.9872 C   0  0  0  0  0  0  0  0  0  0  0  0
 13 14  1  0  0  0
 14 15  2  0  0  0
 14 19  1  0  0  0
 15 16  1  0  0  0
 16 17  2  0  0  0
 17 18  1  0  0  0
 17  1  1  0  0  0
 18 19  2  0  0  0
  1  2  1  0  0  0
  1  9  1  0  0  0
  2  3  2  0  0  0
  2  4  1  0  0  0
  4  5  2  0  0  0
  4  8  1  0  0  0
  5  6  1  0  0  0
  5  9  1  0  0  0
  6  7  1  0  0  0
  7  8  1  0  0  0
  8 20  1  0  0  0
 20 21  1  0  0  0
 21 22  2  0  0  0
 21 23  1  0  0  0
 23 25  1  0  0  0
 25 26  2  0  0  0
 25 30  1  0  0  0
 26 27  1  0  0  0
 27 28  2  0  0  0
 27 33  1  0  0  0
 28 29  1  0  0  0
 28 31  1  0  0  0
 29 30  2  0  0  0
 31 32  1  0  0  0
 33 34  1  0  0  0
  9 10  2  0  0  0
  6 11  1  0  0  0
  7 12  1  0  0  0
 23 24  1  0  0  0
M  END
> <minimizedAffinity>
-9.00817

$$$$
412


 34 37  0  0  0  0  0  0  0  0999 V2000
   15.1527    5.5943   11.8433 N   0  0  0  0  0  0  0  0  0  0  0  0
   13.9210    5.0795   11.8733 C   0  0  0  0  0  0  0  0  0  0  0  0
   13.6644    3.8540   12.1206 O   0  0  0  0  0  0  0  0  0  0  0  0
   12.9354    6.0011   11.6062 C   0  0  0  0  0  0  0  0  0  0  0  0
   13.6087    7.1496   11.4018 C   0  0  0  0  0  0  0  0  0  0  0  0
   12.6580    8.0780   11.1366 N   0  0  0  0  0  0  0  0  0  0  0  0
   11.4591    7.5245   11.1781 N   0  0  0  0  0  0  0  0  0  0  0  0
   11.6238    6.2498   11.4665 N   0  0  0  0  0  0  0  0  0  0  0  0
   14.9568    6.9156   11.5427 C   0  0  0  0  0  0  0  0  0  0  0  0
   15.9063    7.7278   11.4294 O   0  0  0  0  0  0  0  0  0  0  0  0
   12.8710    9.0816   10.9290 H   0  0  0  0  0  0  0  0  0  0  0  0
   10.5701    8.0641   10.9994 H   0  0  0  0  0  0  0  0  0  0  0  0
   20.6153    2.9034   12.8284 Br  0  0  0  0  0  0  0  0  0  0  0  0
   18.9054    3.7385   12.5173 C   0  0  0  0  0  0  0  0  0  0  0  0
   18.1031    3.3468   11.4728 C   0  0  0  0  0  0  0  0  0  0  0  0
   16.8599    3.9582   11.2466 C   0  0  0  0  0  0  0  0  0  0  0  0
   16.4174    4.9653   12.0689 C   0  0  0  0  0  0  0  0  0  0  0  0
   17.2395    5.3395   13.1102 C   0  0  0  0  0  0  0  0  0  0  0  0
   18.4594    4.7477   13.3393 C   0  0  0  0  0  0  0  0  0  0  0  0
   10.5582    5.2999   11.6067 C   0  0  0  0  0  0  0  0  0  0  0  0
   10.6235    4.1947   10.6537 C   0  0  0  0  0  0  0  0  0  0  0  0
   10.3709    4.3417    9.4224 O   0  0  0  0  0  0  0  0  0  0  0  0
   10.9776    2.9159   11.1390 N   0  0  0  0  0  0  0  0  0  0  0  0
   11.1887    2.7678   12.1738 H   0  0  0  0  0  0  0  0  0  0  0  0
   11.0461    1.8312   10.2282 C   0  0  0  0  0  0  0  0  0  0  0  0
   12.2864    1.5349    9.7193 C   0  0  0  0  0  0  0  0  0  0  0  0
   12.4339    0.4975    8.7908 C   0  0  0  0  0  0  0  0  0  0  0  0
   11.3377   -0.2197    8.3902 C   0  0  0  0  0  0  0  0  0  0  0  0
   10.0727    0.0698    8.8970 C   0  0  0  0  0  0  0  0  0  0  0  0
    9.9609    1.1018    9.8159 C   0  0  0  0  0  0  0  0  0  0  0  0
    9.0154   -0.6909    8.4444 O   0  0  0  0  0  0  0  0  0  0  0  0
    9.0779   -1.8116    7.6184 C   0  0  0  0  0  0  0  0  0  0  0  0
   13.7189    0.2864    8.3517 O   0  0  0  0  0  0  0  0  0  0  0  0
   14.5020    1.2393    7.7316 C   0  0  0  0  0  0  0  0  0  0  0  0
 13 14  1  0  0  0
 14 15  2  0  0  0
 14 19  1  0  0  0
 15 16  1  0  0  0
 16 17  2  0  0  0
 17 18  1  0  0  0
 17  1  1  0  0  0
 18 19  2  0  0  0
  1  2  1  0  0  0
  1  9  1  0  0  0
  2  3  2  0  0  0
  2  4  1  0  0  0
  4  5  2  0  0  0
  4  8  1  0  0  0
  5  6  1  0  0  0
  5  9  1  0  0  0
  6  7  1  0  0  0
  7  8  1  0  0  0
  8 20  1  0  0  0
 20 21  1  0  0  0
 21 22  2  0  0  0
 21 23  1  0  0  0
 23 25  1  0  0  0
 25 26  2  0  0  0
 25 30  1  0  0  0
 26 27  1  0  0  0
 27 28  2  0  0  0
 27 33  1  0  0  0
 28 29  1  0  0  0
 29 30  2  0  0  0
 29 31  1  0  0  0
 31 32  1  0  0  0
 33 34  1  0  0  0
  9 10  2  0  0  0
  6 11  1  0  0  0
  7 12  1  0  0  0
 23 24  1  0  0  0
M  END
> <minimizedAffinity>
-9.08777

$$$$
414


 35 38  0  0  0  0  0  0  0  0999 V2000
   13.3349    1.2734    9.2200 N   0  0  0  0  0  0  0  0  0  0  0  0
   13.3237    2.0448   10.3367 C   0  0  0  0  0  0  0  0  0  0  0  0
   12.3568    2.1697   11.1512 O   0  0  0  0  0  0  0  0  0  0  0  0
   14.5410    2.6908   10.4659 C   0  0  0  0  0  0  0  0  0  0  0  0
   15.2675    2.2967    9.4229 C   0  0  0  0  0  0  0  0  0  0  0  0
   16.4676    2.9169    9.5258 N   0  0  0  0  0  0  0  0  0  0  0  0
   16.4356    3.6654   10.6244 N   0  0  0  0  0  0  0  0  0  0  0  0
   15.2678    3.5522   11.2272 N   0  0  0  0  0  0  0  0  0  0  0  0
   14.5379    1.4259    8.6488 C   0  0  0  0  0  0  0  0  0  0  0  0
   14.9064    0.8615    7.5952 O   0  0  0  0  0  0  0  0  0  0  0  0
   17.2601    2.8153    8.8599 H   0  0  0  0  0  0  0  0  0  0  0  0
   17.2213    4.2531   10.9536 H   0  0  0  0  0  0  0  0  0  0  0  0
    8.6414   -2.1915    7.3400 Br  0  0  0  0  0  0  0  0  0  0  0  0
   10.1112   -1.1260    7.9059 C   0  0  0  0  0  0  0  0  0  0  0  0
   11.3525   -1.1744    7.3074 C   0  0  0  0  0  0  0  0  0  0  0  0
   12.3847   -0.3997    7.7359 C   0  0  0  0  0  0  0  0  0  0  0  0
   12.2302    0.4767    8.7990 C   0  0  0  0  0  0  0  0  0  0  0  0
   11.0006    0.5350    9.4034 C   0  0  0  0  0  0  0  0  0  0  0  0
    9.9715   -0.2515    8.9608 C   0  0  0  0  0  0  0  0  0  0  0  0
   14.7952    4.1868   12.4520 C   0  0  0  0  0  0  0  0  0  0  0  0
   13.5442    4.9744   12.1476 C   0  0  0  0  0  0  0  0  0  0  0  0
   13.7684    5.9708   11.4165 O   0  0  0  0  0  0  0  0  0  0  0  0
   12.3189    4.5618   12.6675 N   0  0  0  0  0  0  0  0  0  0  0  0
   12.3477    3.6798   13.2712 H   0  0  0  0  0  0  0  0  0  0  0  0
   11.0570    5.1795   12.4829 C   0  0  0  0  0  0  0  0  0  0  0  0
   10.4972    6.1065   13.3294 C   0  0  0  0  0  0  0  0  0  0  0  0
    9.2400    6.6727   13.0766 C   0  0  0  0  0  0  0  0  0  0  0  0
    8.5092    6.3246   11.9659 C   0  0  0  0  0  0  0  0  0  0  0  0
    9.0595    5.3995   11.1127 C   0  0  0  0  0  0  0  0  0  0  0  0
   10.2985    4.8424   11.3640 C   0  0  0  0  0  0  0  0  0  0  0  0
    7.2052    6.9401   11.7433 C   0  0  0  0  0  0  0  0  0  0  0  0
    6.3437    6.2869   11.1027 O   0  0  0  0  0  0  0  0  0  0  0  0
    6.8529    8.1849   12.1845 O   0  0  0  0  0  0  0  0  0  0  0  0
    6.9295    9.3752   11.4540 C   0  0  0  0  0  0  0  0  0  0  0  0
    7.3960   10.4596   12.4355 C   0  0  0  0  0  0  0  0  0  0  0  0
 13 14  1  0  0  0
 14 15  2  0  0  0
 14 19  1  0  0  0
 15 16  1  0  0  0
 16 17  2  0  0  0
 17 18  1  0  0  0
 17  1  1  0  0  0
 18 19  2  0  0  0
  1  2  1  0  0  0
  1  9  1  0  0  0
  2  3  2  0  0  0
  2  4  1  0  0  0
  4  5  2  0  0  0
  4  8  1  0  0  0
  5  6  1  0  0  0
  5  9  1  0  0  0
  6  7  1  0  0  0
  7  8  1  0  0  0
  8 20  1  0  0  0
 20 21  1  0  0  0
 21 22  2  0  0  0
 21 23  1  0  0  0
 23 25  1  0  0  0
 25 26  2  0  0  0
 25 30  1  0  0  0
 26 27  1  0  0  0
 27 28  2  0  0  0
 28 29  1  0  0  0
 28 31  1  0  0  0
 29 30  2  0  0  0
 31 32  2  0  0  0
 31 33  1  0  0  0
 33 34  1  0  0  0
 34 35  1  0  0  0
  9 10  2  0  0  0
  6 11  1  0  0  0
  7 12  1  0  0  0
 23 24  1  0  0  0
M  END
> <minimizedAffinity>
-9.83116

$$$$
416


 33 36  0  0  0  0  0  0  0  0999 V2000
   13.4636    1.3661    9.4277 N   0  0  0  0  0  0  0  0  0  0  0  0
   13.4054    2.2203   10.4876 C   0  0  0  0  0  0  0  0  0  0  0  0
   12.3777    2.3958   11.1849 O   0  0  0  0  0  0  0  0  0  0  0  0
   14.6156    2.8513   10.6783 C   0  0  0  0  0  0  0  0  0  0  0  0
   15.4197    2.3849    9.7341 C   0  0  0  0  0  0  0  0  0  0  0  0
   16.6126    2.9861    9.8948 N   0  0  0  0  0  0  0  0  0  0  0  0
   16.5213    3.8080   10.9302 N   0  0  0  0  0  0  0  0  0  0  0  0
   15.3040    3.7499   11.4366 N   0  0  0  0  0  0  0  0  0  0  0  0
   14.7189    1.4786    8.9710 C   0  0  0  0  0  0  0  0  0  0  0  0
   15.1593    0.8243    7.9738 O   0  0  0  0  0  0  0  0  0  0  0  0
   17.4714    2.8535    9.3332 H   0  0  0  0  0  0  0  0  0  0  0  0
   17.3144    4.4152   11.2898 H   0  0  0  0  0  0  0  0  0  0  0  0
    8.8452   -2.1349    7.3152 Br  0  0  0  0  0  0  0  0  0  0  0  0
   10.2921   -1.0649    7.9504 C   0  0  0  0  0  0  0  0  0  0  0  0
   11.5216   -1.0465    7.3259 C   0  0  0  0  0  0  0  0  0  0  0  0
   12.5616   -0.2607    7.7989 C   0  0  0  0  0  0  0  0  0  0  0  0
   12.4224    0.5409    8.9132 C   0  0  0  0  0  0  0  0  0  0  0  0
   11.1908    0.5243    9.5427 C   0  0  0  0  0  0  0  0  0  0  0  0
   10.1558   -0.2578    9.0730 C   0  0  0  0  0  0  0  0  0  0  0  0
   14.7714    4.4797   12.5499 C   0  0  0  0  0  0  0  0  0  0  0  0
   13.6046    5.3663   12.1833 C   0  0  0  0  0  0  0  0  0  0  0  0
   13.8830    6.3645   11.4842 O   0  0  0  0  0  0  0  0  0  0  0  0
   12.3048    5.0819   12.5972 N   0  0  0  0  0  0  0  0  0  0  0  0
   12.1998    4.1938   13.2024 H   0  0  0  0  0  0  0  0  0  0  0  0
   11.1051    5.7716   12.3524 C   0  0  0  0  0  0  0  0  0  0  0  0
   10.9312    7.0663   12.8416 C   0  0  0  0  0  0  0  0  0  0  0  0
    9.7726    7.7677   12.6420 C   0  0  0  0  0  0  0  0  0  0  0  0
    8.7159    7.1952   11.9325 C   0  0  0  0  0  0  0  0  0  0  0  0
    8.9186    5.9202   11.4630 C   0  0  0  0  0  0  0  0  0  0  0  0
   10.0809    5.2115   11.6589 C   0  0  0  0  0  0  0  0  0  0  0  0
    7.5685    7.9338   11.7589 O   0  0  0  0  0  0  0  0  0  0  0  0
    6.2591    7.4738   11.8468 C   0  0  0  0  0  0  0  0  0  0  0  0
    5.2602    8.3157   11.1295 C   0  0  0  0  0  0  0  0  0  0  0  0
 13 14  1  0  0  0
 14 15  2  0  0  0
 14 19  1  0  0  0
 15 16  1  0  0  0
 16 17  2  0  0  0
 17 18  1  0  0  0
 17  1  1  0  0  0
 18 19  2  0  0  0
  1  2  1  0  0  0
  1  9  1  0  0  0
  2  3  2  0  0  0
  2  4  1  0  0  0
  4  5  2  0  0  0
  4  8  1  0  0  0
  5  6  1  0  0  0
  5  9  1  0  0  0
  6  7  1  0  0  0
  7  8  1  0  0  0
  8 20  1  0  0  0
 20 21  1  0  0  0
 21 22  2  0  0  0
 21 23  1  0  0  0
 23 25  1  0  0  0
 25 26  2  0  0  0
 25 30  1  0  0  0
 26 27  1  0  0  0
 27 28  2  0  0  0
 28 29  1  0  0  0
 28 31  1  0  0  0
 29 30  2  0  0  0
 31 32  1  0  0  0
 32 33  1  0  0  0
  9 10  2  0  0  0
  6 11  1  0  0  0
  7 12  1  0  0  0
 23 24  1  0  0  0
M  END
> <minimizedAffinity>
-9.60373

$$$$
421


 28 31  0  0  0  0  0  0  0  0999 V2000
   11.6620    4.0872   11.1494 N   0  0  0  0  0  0  0  0  0  0  0  0
   10.5096    4.7921   11.1853 C   0  0  0  0  0  0  0  0  0  0  0  0
    9.4505    4.5814   10.5119 O   0  0  0  0  0  0  0  0  0  0  0  0
   10.6005    5.8370   12.0863 C   0  0  0  0  0  0  0  0  0  0  0  0
   11.8314    5.7496   12.5955 C   0  0  0  0  0  0  0  0  0  0  0  0
   11.9232    6.7721   13.4796 N   0  0  0  0  0  0  0  0  0  0  0  0
   10.7768    7.4315   13.4808 N   0  0  0  0  0  0  0  0  0  0  0  0
    9.9358    6.8743   12.6255 N   0  0  0  0  0  0  0  0  0  0  0  0
   12.4895    4.6801   12.0268 C   0  0  0  0  0  0  0  0  0  0  0  0
   13.6592    4.2803   12.2507 O   0  0  0  0  0  0  0  0  0  0  0  0
   12.7788    6.9833   14.0567 H   0  0  0  0  0  0  0  0  0  0  0  0
   10.5258    8.2769   14.0565 H   0  0  0  0  0  0  0  0  0  0  0  0
   12.6693   -0.8993    7.6691 Br  0  0  0  0  0  0  0  0  0  0  0  0
   12.3777    0.6594    8.7419 C   0  0  0  0  0  0  0  0  0  0  0  0
   13.2768    1.7058    8.7585 C   0  0  0  0  0  0  0  0  0  0  0  0
   13.0517    2.8329    9.5442 C   0  0  0  0  0  0  0  0  0  0  0  0
   11.9234    2.9402   10.3300 C   0  0  0  0  0  0  0  0  0  0  0  0
   11.0333    1.8864   10.3034 C   0  0  0  0  0  0  0  0  0  0  0  0
   11.2484    0.7631    9.5274 C   0  0  0  0  0  0  0  0  0  0  0  0
    8.5963    7.2958   12.3404 C   0  0  0  0  0  0  0  0  0  0  0  0
    7.5323    6.4284   12.4785 C   0  0  0  0  0  0  0  0  0  0  0  0
    6.2231    6.8079   12.2106 C   0  0  0  0  0  0  0  0  0  0  0  0
    5.9495    8.0920   11.7899 C   0  0  0  0  0  0  0  0  0  0  0  0
    7.0106    8.9608   11.6510 C   0  0  0  0  0  0  0  0  0  0  0  0
    8.3158    8.5790   11.9198 C   0  0  0  0  0  0  0  0  0  0  0  0
    4.6172    8.5110   11.5071 N   0  0  0  0  0  0  0  0  0  0  0  0
    3.8663    8.9731   12.3866 O   0  0  0  0  0  0  0  0  0  0  0  0
    4.1430    8.4053   10.2382 O   0  0  0  0  0  0  0  0  0  0  0  0
 13 14  1  0  0  0
 14 15  2  0  0  0
 14 19  1  0  0  0
 15 16  1  0  0  0
 16 17  2  0  0  0
 17 18  1  0  0  0
 17  1  1  0  0  0
 18 19  2  0  0  0
  1  2  1  0  0  0
  1  9  1  0  0  0
  2  3  2  0  0  0
  2  4  1  0  0  0
  4  5  2  0  0  0
  4  8  1  0  0  0
  5  6  1  0  0  0
  5  9  1  0  0  0
  6  7  1  0  0  0
  7  8  1  0  0  0
  8 20  1  0  0  0
 20 21  2  0  0  0
 20 25  1  0  0  0
 21 22  1  0  0  0
 22 23  2  0  0  0
 23 24  1  0  0  0
 23 26  1  0  0  0
 24 25  2  0  0  0
 26 27  2  0  0  0
 26 28  1  0  0  0
  9 10  2  0  0  0
  6 11  1  0  0  0
  7 12  1  0  0  0
M  CHG 1  28  -1
M  END
> <minimizedAffinity>
-9.18270

$$$$
425


 24 28  0  0  0  0  0  0  0  0999 V2000
   10.7329    6.0490   11.2298 N   0  0  0  0  0  0  0  0  0  0  0  0
   10.9439    5.4422    9.9645 C   0  0  0  0  0  0  0  0  0  0  0  0
   10.2157    5.6339    8.9612 O   0  0  0  0  0  0  0  0  0  0  0  0
   12.1448    4.5675   10.0388 C   0  0  0  0  0  0  0  0  0  0  0  0
   11.7903    3.1439   10.3394 C   0  0  0  0  0  0  0  0  0  0  0  0
   12.9330    2.7445   11.0675 O   0  0  0  0  0  0  0  0  0  0  0  0
   12.8104    3.6956   12.1117 C   0  0  0  0  0  0  0  0  0  0  0  0
   12.8365    4.9709   11.3418 C   0  0  0  0  0  0  0  0  0  0  0  0
   11.9456    5.9776   11.9790 C   0  0  0  0  0  0  0  0  0  0  0  0
   12.2291    6.6303   12.9869 O   0  0  0  0  0  0  0  0  0  0  0  0
   11.4089    3.4226   12.5238 C   0  0  0  0  0  0  0  0  0  0  0  0
   10.7654    3.1402   11.3951 C   0  0  0  0  0  0  0  0  0  0  0  0
    5.4035    8.5048   12.8694 Br  0  0  0  0  0  0  0  0  0  0  0  0
    7.0589    7.7310   12.3609 C   0  0  0  0  0  0  0  0  0  0  0  0
    7.1642    6.3651   12.2568 C   0  0  0  0  0  0  0  0  0  0  0  0
    8.3779    5.8306   11.8845 C   0  0  0  0  0  0  0  0  0  0  0  0
    9.4763    6.6180   11.6187 C   0  0  0  0  0  0  0  0  0  0  0  0
    9.3712    7.9983   11.7227 C   0  0  0  0  0  0  0  0  0  0  0  0
    8.1389    8.5364   12.0993 C   0  0  0  0  0  0  0  0  0  0  0  0
   11.5300    2.2938    9.1710 C   0  0  0  0  0  0  0  0  0  0  0  0
   10.3001    1.6949    9.1803 O   0  0  0  0  0  0  0  0  0  0  0  0
   10.4669    0.3466    9.3746 C   0  0  0  0  0  0  0  0  0  0  0  0
   11.9380    0.1142    9.4832 C   0  0  0  0  0  0  0  0  0  0  0  0
   12.4884    1.3068    9.0276 O   0  0  0  0  0  0  0  0  0  0  0  0
 13 14  1  0  0  0
 14 15  2  0  0  0
 14 19  1  0  0  0
 15 16  1  0  0  0
 16 17  2  0  0  0
 17 18  1  0  0  0
 17  1  1  0  0  0
 18 19  2  0  0  0
  1  2  1  0  0  0
  1  9  1  0  0  0
  2  3  2  0  0  0
  2  4  1  0  0  0
  4  5  1  0  0  0
  4  8  1  0  0  0
  5  6  1  0  0  0
  5 12  1  0  0  0
  5 20  1  0  0  0
  6  7  1  0  0  0
  7  8  1  0  0  0
  7 11  1  0  0  0
  8  9  1  0  0  0
  9 10  2  0  0  0
 11 12  2  0  0  0
 20 21  1  0  0  0
 20 24  1  0  0  0
 21 22  1  0  0  0
 22 23  1  0  0  0
 23 24  1  0  0  0
M  END
> <minimizedAffinity>
-8.21118

$$$$
426


 29 32  0  0  0  0  0  0  0  0999 V2000
    8.1847    7.4083   12.2982 N   0  0  0  0  0  0  0  0  0  0  0  0
    9.4290    8.1332   12.2531 C   0  0  0  0  0  0  0  0  0  0  0  0
    9.7950    9.0379   13.0560 O   0  0  0  0  0  0  0  0  0  0  0  0
   10.1864    7.6131   11.0919 C   0  0  0  0  0  0  0  0  0  0  0  0
   11.6240    7.5860   11.2771 N   0  0  0  0  0  0  0  0  0  0  0  0
   11.9103    6.3791   10.5669 N   0  0  0  0  0  0  0  0  0  0  0  0
   10.8998    5.4193   10.8769 C   0  0  0  0  0  0  0  0  0  0  0  0
    9.8366    6.1464   11.2017 C   0  0  0  0  0  0  0  0  0  0  0  0
    8.4457    6.1640   11.6378 C   0  0  0  0  0  0  0  0  0  0  0  0
    7.6733    5.1894   11.4219 O   0  0  0  0  0  0  0  0  0  0  0  0
   11.7646    7.3334   12.2957 H   0  0  0  0  0  0  0  0  0  0  0  0
   12.7150    6.2161    9.9312 H   0  0  0  0  0  0  0  0  0  0  0  0
    2.7813    9.2456   14.5611 Br  0  0  0  0  0  0  0  0  0  0  0  0
    4.4832    8.6599   13.8712 C   0  0  0  0  0  0  0  0  0  0  0  0
    4.8255    8.9523   12.5757 C   0  0  0  0  0  0  0  0  0  0  0  0
    6.0280    8.5308   12.1069 C   0  0  0  0  0  0  0  0  0  0  0  0
    6.9548    7.8069   12.8670 C   0  0  0  0  0  0  0  0  0  0  0  0
    6.5900    7.5280   14.1565 C   0  0  0  0  0  0  0  0  0  0  0  0
    5.3706    7.9473   14.6545 C   0  0  0  0  0  0  0  0  0  0  0  0
   10.9944    3.9641   10.8431 C   0  0  0  0  0  0  0  0  0  0  0  0
   10.9365    3.2746   11.8881 O   0  0  0  0  0  0  0  0  0  0  0  0
   11.1534    3.2618    9.6576 O   0  0  0  0  0  0  0  0  0  0  0  0
   12.0416    2.1573    9.5573 C   0  0  0  0  0  0  0  0  0  0  0  0
   11.2851    0.9568    9.0671 C   0  0  0  0  0  0  0  0  0  0  0  0
    9.9683    0.7414    9.4701 C   0  0  0  0  0  0  0  0  0  0  0  0
    9.2418   -0.3370    9.0428 C   0  0  0  0  0  0  0  0  0  0  0  0
    9.8373   -1.2512    8.1779 C   0  0  0  0  0  0  0  0  0  0  0  0
   11.1390   -1.0347    7.7827 C   0  0  0  0  0  0  0  0  0  0  0  0
   11.8708    0.0702    8.2237 C   0  0  0  0  0  0  0  0  0  0  0  0
 13 14  1  0  0  0
 14 15  2  0  0  0
 14 19  1  0  0  0
 15 16  1  0  0  0
 16 17  2  0  0  0
 17 18  1  0  0  0
 17  1  1  0  0  0
 18 19  2  0  0  0
  1  2  1  0  0  0
  1  9  1  0  0  0
  2  3  2  0  0  0
  2  4  1  0  0  0
  4  5  1  0  0  0
  4  8  1  0  0  0
  5  6  1  0  0  0
  6  7  1  0  0  0
  7  8  2  0  0  0
  7 20  1  0  0  0
  8  9  1  0  0  0
  9 10  2  0  0  0
 20 21  2  0  0  0
 20 22  1  0  0  0
 22 23  1  0  0  0
 23 24  1  0  0  0
 24 25  2  0  0  0
 24 29  1  0  0  0
 25 26  1  0  0  0
 26 27  2  0  0  0
 27 28  1  0  0  0
 28 29  2  0  0  0
  5 11  1  0  0  0
  6 12  1  0  0  0
M  END
> <minimizedAffinity>
-9.30335

$$$$
428


 28 31  0  0  0  0  0  0  0  0999 V2000
    4.9487    8.6969   14.3156 N   0  0  0  0  0  0  0  0  0  0  0  0
    3.9027    9.0224   13.3814 C   0  0  0  0  0  0  0  0  0  0  0  0
    2.8275    9.5298   13.8047 O   0  0  0  0  0  0  0  0  0  0  0  0
    4.1484    8.7494   12.0206 N   0  0  0  0  0  0  0  0  0  0  0  0
    5.2205    8.2413   11.5728 C   0  0  0  0  0  0  0  0  0  0  0  0
    6.4007    7.8433   12.3793 C   0  0  0  0  0  0  0  0  0  0  0  0
    6.7019    6.4134   12.0889 C   0  0  0  0  0  0  0  0  0  0  0  0
    8.0502    5.9966   12.2251 N   0  0  0  0  0  0  0  0  0  0  0  0
    8.9186    6.9110   12.8548 C   0  0  0  0  0  0  0  0  0  0  0  0
    8.7285    8.2900   12.7024 C   0  0  0  0  0  0  0  0  0  0  0  0
    9.5807    9.1610   13.3207 C   0  0  0  0  0  0  0  0  0  0  0  0
   10.6409    8.7652   14.1039 C   0  0  0  0  0  0  0  0  0  0  0  0
   10.8237    7.4063   14.2516 C   0  0  0  0  0  0  0  0  0  0  0  0
    9.9751    6.4960   13.6356 C   0  0  0  0  0  0  0  0  0  0  0  0
   11.5430    9.7404   14.7603 C   0  0  0  0  0  0  0  0  0  0  0  0
    7.5733    8.6741   11.8502 C   0  0  0  0  0  0  0  0  0  0  0  0
    8.6250    5.5392   10.9488 C   0  0  0  0  0  0  0  0  0  0  0  0
    6.1505    8.1257   13.8088 C   0  0  0  0  0  0  0  0  0  0  0  0
    7.0349    7.8597   14.6883 O   0  0  0  0  0  0  0  0  0  0  0  0
    5.3322    8.0218   10.1830 O   0  0  0  0  0  0  0  0  0  0  0  0
    8.0535    5.1222   12.8311 H   0  0  0  0  0  0  0  0  0  0  0  0
    4.0287    9.5120   20.3037 Br  0  0  0  0  0  0  0  0  0  0  0  0
    4.3405    9.2943   18.4347 C   0  0  0  0  0  0  0  0  0  0  0  0
    3.7948    8.2174   17.7891 C   0  0  0  0  0  0  0  0  0  0  0  0
    4.0181    8.0525   16.4276 C   0  0  0  0  0  0  0  0  0  0  0  0
    4.7760    8.9445   15.7029 C   0  0  0  0  0  0  0  0  0  0  0  0
    5.3156   10.0206   16.3722 C   0  0  0  0  0  0  0  0  0  0  0  0
    5.1073   10.2073   17.7287 C   0  0  0  0  0  0  0  0  0  0  0  0
 22 23  1  0  0  0
 23 24  2  0  0  0
 23 28  1  0  0  0
 24 25  1  0  0  0
 25 26  2  0  0  0
 26 27  1  0  0  0
 26  1  1  0  0  0
 27 28  2  0  0  0
  1  2  1  0  0  0
  1 18  1  0  0  0
  2  3  2  0  0  0
  2  4  1  0  0  0
  4  5  2  0  0  0
  5  6  1  0  0  0
  5 20  1  0  0  0
  6  7  1  0  0  0
  6 16  1  0  0  0
  6 18  1  0  0  0
  7  8  1  0  0  0
  8  9  1  0  0  0
  8 17  1  0  0  0
  9 10  2  0  0  0
  9 14  1  0  0  0
 10 11  1  0  0  0
 10 16  1  0  0  0
 11 12  2  0  0  0
 12 13  1  0  0  0
 12 15  1  0  0  0
 13 14  2  0  0  0
 18 19  2  0  0  0
  8 21  1  0  0  0
M  CHG 1   8   1
M  CHG 1  20  -1
M  END
> <minimizedAffinity>
-8.96710

$$$$
429


 36 39  0  0  0  0  0  0  0  0999 V2000
   13.5478    3.9553   10.9039 N   0  0  0  0  0  0  0  0  0  0  0  0
   14.7713    4.0632   11.6339 C   0  0  0  0  0  0  0  0  0  0  0  0
   15.5981    3.1009   11.5376 O   0  0  0  0  0  0  0  0  0  0  0  0
   15.0190    5.2118   12.4246 N   0  0  0  0  0  0  0  0  0  0  0  0
   14.1084    6.3000   12.5475 C   0  0  0  0  0  0  0  0  0  0  0  0
   14.3575    7.3121   13.2602 O   0  0  0  0  0  0  0  0  0  0  0  0
   12.8362    6.2226   11.8073 C   0  0  0  0  0  0  0  0  0  0  0  0
   11.9477    7.2015   11.8819 C   0  0  0  0  0  0  0  0  0  0  0  0
   12.6114    5.0274   11.0022 C   0  0  0  0  0  0  0  0  0  0  0  0
   11.5398    4.9164   10.3529 O   0  0  0  0  0  0  0  0  0  0  0  0
   15.9272    5.2515   12.9428 H   0  0  0  0  0  0  0  0  0  0  0  0
   12.3842   -1.0547    7.5756 Br  0  0  0  0  0  0  0  0  0  0  0  0
   12.7575    0.5144    8.6066 C   0  0  0  0  0  0  0  0  0  0  0  0
   12.0675    0.7728    9.7791 C   0  0  0  0  0  0  0  0  0  0  0  0
   12.3441    1.9074   10.5171 C   0  0  0  0  0  0  0  0  0  0  0  0
   13.3036    2.8190   10.1246 C   0  0  0  0  0  0  0  0  0  0  0  0
   13.9995    2.5762    8.9592 C   0  0  0  0  0  0  0  0  0  0  0  0
   13.7107    1.4373    8.2348 C   0  0  0  0  0  0  0  0  0  0  0  0
   10.7304    7.0975   11.1571 N   0  0  0  0  0  0  0  0  0  0  0  0
   10.7191    7.5845   10.2201 H   0  0  0  0  0  0  0  0  0  0  0  0
    9.5982    6.4242   11.5856 N   0  0  0  0  0  0  0  0  0  0  0  0
    9.6571    5.3661   11.5205 H   0  0  0  0  0  0  0  0  0  0  0  0
    8.4221    7.0535   12.0797 C   0  0  0  0  0  0  0  0  0  0  0  0
    8.2554    7.5026   13.3280 N   0  0  0  0  0  0  0  0  0  0  0  0
    7.0313    8.0418   13.4512 C   0  0  0  0  0  0  0  0  0  0  0  0
    6.4037    7.9226   12.2186 C   0  0  0  0  0  0  0  0  0  0  0  0
    7.2892    7.3186   11.4279 N   0  0  0  0  0  0  0  0  0  0  0  0
    5.1524    8.3729   12.0171 N   0  0  0  0  0  0  0  0  0  0  0  0
    4.5031    8.9469   13.0302 C   0  0  0  0  0  0  0  0  0  0  0  0
    3.3213    9.3854   12.8819 O   0  0  0  0  0  0  0  0  0  0  0  0
    5.0583    9.0961   14.2629 N   0  0  0  0  0  0  0  0  0  0  0  0
    6.3177    8.6391   14.4552 C   0  0  0  0  0  0  0  0  0  0  0  0
    6.8305    8.7731   15.5855 O   0  0  0  0  0  0  0  0  0  0  0  0
    4.3159    9.7254   15.3251 C   0  0  0  0  0  0  0  0  0  0  0  0
    4.5700    8.2136   10.7175 C   0  0  0  0  0  0  0  0  0  0  0  0
    9.1903    7.4654   14.4582 C   0  0  0  0  0  0  0  0  0  0  0  0
 12 13  1  0  0  0
 13 14  2  0  0  0
 13 18  1  0  0  0
 14 15  1  0  0  0
 15 16  2  0  0  0
 16 17  1  0  0  0
 16  1  1  0  0  0
 17 18  2  0  0  0
  1  2  1  0  0  0
  1  9  1  0  0  0
  2  3  2  0  0  0
  2  4  1  0  0  0
  4  5  1  0  0  0
  5  6  2  0  0  0
  5  7  1  0  0  0
  7  8  2  0  0  0
  7  9  1  0  0  0
  8 19  1  0  0  0
 19 21  1  0  0  0
 21 23  1  0  0  0
 23 24  1  0  0  0
 23 27  2  0  0  0
 24 25  1  0  0  0
 24 36  1  0  0  0
 25 26  2  0  0  0
 25 32  1  0  0  0
 26 27  1  0  0  0
 26 28  1  0  0  0
 28 29  1  0  0  0
 28 35  1  0  0  0
 29 30  2  0  0  0
 29 31  1  0  0  0
 31 32  1  0  0  0
 31 34  1  0  0  0
 32 33  2  0  0  0
  9 10  2  0  0  0
  4 11  1  0  0  0
 19 20  1  0  0  0
 21 22  1  0  0  0
M  END
> <minimizedAffinity>
-9.76635

$$$$
436


 29 32  0  0  0  0  0  0  0  0999 V2000
   12.5709    1.1184    8.8191 N   0  0  0  0  0  0  0  0  0  0  0  0
   13.9027    0.7638    8.3706 C   0  0  0  0  0  0  0  0  0  0  0  0
   14.9618    1.7325    8.8426 C   0  0  0  0  0  0  0  0  0  0  0  0
   14.6747    2.0167   10.3251 C   0  0  0  0  0  0  0  0  0  0  0  0
   13.4676    2.8014   10.3257 N   0  0  0  0  0  0  0  0  0  0  0  0
   12.4379    2.3232    9.5631 C   0  0  0  0  0  0  0  0  0  0  0  0
   11.3994    3.1677    9.6742 N   0  0  0  0  0  0  0  0  0  0  0  0
   11.7972    4.1618   10.5075 C   0  0  0  0  0  0  0  0  0  0  0  0
   13.1005    3.9385   10.9240 C   0  0  0  0  0  0  0  0  0  0  0  0
   13.7275    4.8210   11.7814 C   0  0  0  0  0  0  0  0  0  0  0  0
   14.9283    4.5789   12.1413 O   0  0  0  0  0  0  0  0  0  0  0  0
   13.0608    5.9057   12.2141 N   0  0  0  0  0  0  0  0  0  0  0  0
   11.7980    6.0982   11.7950 C   0  0  0  0  0  0  0  0  0  0  0  0
   11.2100    7.1272   12.2248 O   0  0  0  0  0  0  0  0  0  0  0  0
   11.1732    5.2604   10.9678 N   0  0  0  0  0  0  0  0  0  0  0  0
    9.8048    5.5003   10.5340 C   0  0  0  0  0  0  0  0  0  0  0  0
    8.1029   -2.6846    7.1839 Br  0  0  0  0  0  0  0  0  0  0  0  0
    9.4502   -1.4854    7.7339 C   0  0  0  0  0  0  0  0  0  0  0  0
    9.2715   -0.6074    8.7824 C   0  0  0  0  0  0  0  0  0  0  0  0
   10.2846    0.2709    9.1708 C   0  0  0  0  0  0  0  0  0  0  0  0
   11.4875    0.2682    8.5024 C   0  0  0  0  0  0  0  0  0  0  0  0
   11.6298   -0.6210    7.4620 C   0  0  0  0  0  0  0  0  0  0  0  0
   10.6547   -1.4930    7.0593 C   0  0  0  0  0  0  0  0  0  0  0  0
   13.7112    6.8394   13.1171 C   0  0  0  0  0  0  0  0  0  0  0  0
   14.3801    7.9052   12.3005 C   0  0  0  0  0  0  0  0  0  0  0  0
   15.4093    8.4809   12.7246 O   0  0  0  0  0  0  0  0  0  0  0  0
   13.8751    8.2901   11.0377 N   0  0  0  0  0  0  0  0  0  0  0  0
   14.4944    8.5536   10.2380 H   0  0  0  0  0  0  0  0  0  0  0  0
   12.8425    8.3265   10.8507 H   0  0  0  0  0  0  0  0  0  0  0  0
 17 18  1  0  0  0
 18 19  2  0  0  0
 18 23  1  0  0  0
 19 20  1  0  0  0
 20 21  2  0  0  0
 21 22  1  0  0  0
 21  1  1  0  0  0
 22 23  2  0  0  0
  1  2  1  0  0  0
  1  6  1  0  0  0
  2  3  1  0  0  0
  3  4  1  0  0  0
  4  5  1  0  0  0
  5  6  1  0  0  0
  5  9  1  0  0  0
  6  7  2  0  0  0
  7  8  1  0  0  0
  8  9  2  0  0  0
  8 15  1  0  0  0
  9 10  1  0  0  0
 10 11  2  0  0  0
 10 12  1  0  0  0
 12 13  1  0  0  0
 12 24  1  0  0  0
 13 14  2  0  0  0
 13 15  1  0  0  0
 15 16  1  0  0  0
 24 25  1  0  0  0
 25 26  2  0  0  0
 25 27  1  0  0  0
 27 28  1  0  0  0
 27 29  1  0  0  0
M  END
> <minimizedAffinity>
-8.95336

$$$$
439


 28 32  0  0  0  0  0  0  0  0999 V2000
   12.0715    1.7553    9.7185 N   0  0  0  0  0  0  0  0  0  0  0  0
   13.3194    1.5985   10.1470 N   0  0  0  0  0  0  0  0  0  0  0  0
   13.7950    2.7550   10.6448 C   0  0  0  0  0  0  0  0  0  0  0  0
   15.0033    2.9523   11.1566 C   0  0  0  0  0  0  0  0  0  0  0  0
   12.8105    3.7158   10.5386 C   0  0  0  0  0  0  0  0  0  0  0  0
   12.8540    4.9989   10.9081 C   0  0  0  0  0  0  0  0  0  0  0  0
   11.7482    3.0446    9.9519 C   0  0  0  0  0  0  0  0  0  0  0  0
   10.6481    3.5793    9.6826 O   0  0  0  0  0  0  0  0  0  0  0  0
   13.8533    0.7079   10.1028 H   0  0  0  0  0  0  0  0  0  0  0  0
    8.4521   -2.4825    7.1285 Br  0  0  0  0  0  0  0  0  0  0  0  0
    9.6046   -1.1640    7.9237 C   0  0  0  0  0  0  0  0  0  0  0  0
   10.9027   -1.0170    7.5361 C   0  0  0  0  0  0  0  0  0  0  0  0
   11.7058   -0.0503    8.1359 C   0  0  0  0  0  0  0  0  0  0  0  0
   11.2227    0.7780    9.1276 C   0  0  0  0  0  0  0  0  0  0  0  0
    9.9061    0.6004    9.4940 C   0  0  0  0  0  0  0  0  0  0  0  0
    9.0913   -0.3468    8.9174 C   0  0  0  0  0  0  0  0  0  0  0  0
   11.6949    5.7942   10.6893 N   0  0  0  0  0  0  0  0  0  0  0  0
   11.3821    5.9335    9.7174 H   0  0  0  0  0  0  0  0  0  0  0  0
   10.9652    6.3952   11.7682 C   0  0  0  0  0  0  0  0  0  0  0  0
   11.8726    7.2055   12.6382 C   0  0  0  0  0  0  0  0  0  0  0  0
   11.0799    7.8752   13.6597 N   0  0  0  0  0  0  0  0  0  0  0  0
   10.1213    8.7388   12.9811 C   0  0  0  0  0  0  0  0  0  0  0  0
    9.1868    7.9794   12.1868 N   0  0  0  0  0  0  0  0  0  0  0  0
    8.5447    6.9693   13.0223 C   0  0  0  0  0  0  0  0  0  0  0  0
    9.5129    6.0941   13.6436 N   0  0  0  0  0  0  0  0  0  0  0  0
   10.4057    6.8841   14.4591 C   0  0  0  0  0  0  0  0  0  0  0  0
   10.2622    5.3795   12.6381 C   0  0  0  0  0  0  0  0  0  0  0  0
    9.8958    7.2934   11.1385 C   0  0  0  0  0  0  0  0  0  0  0  0
 10 11  1  0  0  0
 11 12  2  0  0  0
 11 16  1  0  0  0
 12 13  1  0  0  0
 13 14  2  0  0  0
 14 15  1  0  0  0
 14  1  1  0  0  0
 15 16  2  0  0  0
  1  2  1  0  0  0
  1  7  1  0  0  0
  2  3  1  0  0  0
  3  4  2  0  0  0
  3  5  1  0  0  0
  5  6  2  0  0  0
  5  7  1  0  0  0
  6 17  1  0  0  0
 17 19  1  0  0  0
 19 20  1  0  0  0
 19 27  1  0  0  0
 19 28  1  0  0  0
 20 21  1  0  0  0
 21 22  1  0  0  0
 21 26  1  0  0  0
 22 23  1  0  0  0
 23 24  1  0  0  0
 23 28  1  0  0  0
 24 25  1  0  0  0
 25 26  1  0  0  0
 25 27  1  0  0  0
  7  8  2  0  0  0
  2  9  1  0  0  0
 17 18  1  0  0  0
M  END
> <minimizedAffinity>
-8.68368

$$$$
441


 36 39  0  0  0  0  0  0  0  0999 V2000
    7.3459    7.0218   12.0927 C   0  0  0  0  0  0  0  0  0  0  0  0
    7.3333    7.7302   13.2370 N   0  0  0  0  0  0  0  0  0  0  0  0
    6.3237    8.5469   13.4897 C   0  0  0  0  0  0  0  0  0  0  0  0
    6.0898    9.3447   14.5400 N   0  0  0  0  0  0  0  0  0  0  0  0
    4.9126    9.9572   14.2780 C   0  0  0  0  0  0  0  0  0  0  0  0
    4.4332    9.5487   13.0994 N   0  0  0  0  0  0  0  0  0  0  0  0
    5.2787    8.6652   12.5653 C   0  0  0  0  0  0  0  0  0  0  0  0
    5.2849    7.9407   11.3880 C   0  0  0  0  0  0  0  0  0  0  0  0
    6.3292    7.1324   11.1875 N   0  0  0  0  0  0  0  0  0  0  0  0
    4.2240    8.0972   10.5080 O   0  0  0  0  0  0  0  0  0  0  0  0
    3.2929    8.1363   10.9378 H   0  0  0  0  0  0  0  0  0  0  0  0
    6.8337    9.5776   15.7180 C   0  0  0  0  0  0  0  0  0  0  0  0
    7.1151    8.3879   16.4024 O   0  0  0  0  0  0  0  0  0  0  0  0
    6.1313    8.3626   17.3873 C   0  0  0  0  0  0  0  0  0  0  0  0
    6.3005    9.7556   17.9754 C   0  0  0  0  0  0  0  0  0  0  0  0
    6.3086   10.5596   16.6775 C   0  0  0  0  0  0  0  0  0  0  0  0
    7.1594   11.6796   16.8122 O   0  0  0  0  0  0  0  0  0  0  0  0
    5.2985   10.1149   18.8324 O   0  0  0  0  0  0  0  0  0  0  0  0
    6.6528   12.3297   17.3605 H   0  0  0  0  0  0  0  0  0  0  0  0
    4.8808    9.3283   19.3089 H   0  0  0  0  0  0  0  0  0  0  0  0
    6.3642    7.2850   18.4062 C   0  0  0  0  0  0  0  0  0  0  0  0
    7.3423    6.3938   18.0576 O   0  0  0  0  0  0  0  0  0  0  0  0
    8.2102    6.7264   18.4056 H   0  0  0  0  0  0  0  0  0  0  0  0
    9.6126    6.5674   11.1723 C   0  0  0  0  0  0  0  0  0  0  0  0
    9.7679    7.7653   10.8762 O   0  0  0  0  0  0  0  0  0  0  0  0
    8.4183    6.1347   11.7830 N   0  0  0  0  0  0  0  0  0  0  0  0
    8.2853    5.1132   12.0355 H   0  0  0  0  0  0  0  0  0  0  0  0
   10.6799    5.5922   10.8825 C   0  0  0  0  0  0  0  0  0  0  0  0
   10.3104    4.2721   11.1586 O   0  0  0  0  0  0  0  0  0  0  0  0
   12.8245   -0.2696    7.9843 Br  0  0  0  0  0  0  0  0  0  0  0  0
   12.0239    1.1592    8.9864 C   0  0  0  0  0  0  0  0  0  0  0  0
   12.7779    2.2613    9.3245 C   0  0  0  0  0  0  0  0  0  0  0  0
   12.1944    3.3007   10.0541 C   0  0  0  0  0  0  0  0  0  0  0  0
   10.8764    3.2419   10.4402 C   0  0  0  0  0  0  0  0  0  0  0  0
   10.1416    2.1354   10.0928 C   0  0  0  0  0  0  0  0  0  0  0  0
   10.7015    1.1040    9.3755 C   0  0  0  0  0  0  0  0  0  0  0  0
 30 31  1  0  0  0
 31 32  2  0  0  0
 31 36  1  0  0  0
 32 33  1  0  0  0
 33 34  2  0  0  0
 34 35  1  0  0  0
 34 29  1  0  0  0
 35 36  2  0  0  0
 29 28  1  0  0  0
 28 24  1  0  0  0
 24 25  2  0  0  0
 24 26  1  0  0  0
 26  1  1  0  0  0
  1  2  2  0  0  0
  1  9  1  0  0  0
  2  3  1  0  0  0
  3  4  1  0  0  0
  3  7  2  0  0  0
  4  5  1  0  0  0
  4 12  1  0  0  0
  5  6  2  0  0  0
  6  7  1  0  0  0
  7  8  1  0  0  0
  8  9  2  0  0  0
  8 10  1  0  0  0
 12 13  1  0  0  0
 12 16  1  0  0  0
 13 14  1  0  0  0
 14 15  1  0  0  0
 14 21  1  0  0  0
 15 16  1  0  0  0
 15 18  1  0  0  0
 16 17  1  0  0  0
 21 22  1  0  0  0
 26 27  1  0  0  0
 10 11  1  0  0  0
 17 19  1  0  0  0
 18 20  1  0  0  0
 22 23  1  0  0  0
M  END
> <minimizedAffinity>
-9.45356

$$$$
444


 33 36  0  0  0  0  0  0  0  0999 V2000
    9.0460    7.2524   12.7293 N   0  0  0  0  0  0  0  0  0  0  0  0
    7.7467    7.4176   12.3897 C   0  0  0  0  0  0  0  0  0  0  0  0
    7.2774    8.5530   13.0099 C   0  0  0  0  0  0  0  0  0  0  0  0
    8.2990    9.0226   13.6955 N   0  0  0  0  0  0  0  0  0  0  0  0
    9.4178    8.2449   13.5529 C   0  0  0  0  0  0  0  0  0  0  0  0
    5.9999    9.0176   12.8854 N   0  0  0  0  0  0  0  0  0  0  0  0
    5.1661    8.3191   12.1132 C   0  0  0  0  0  0  0  0  0  0  0  0
    3.9825    8.7342   11.9857 O   0  0  0  0  0  0  0  0  0  0  0  0
    5.5943    7.2088   11.4979 N   0  0  0  0  0  0  0  0  0  0  0  0
    6.8537    6.7241   11.6020 C   0  0  0  0  0  0  0  0  0  0  0  0
    7.2215    5.6926   11.0215 O   0  0  0  0  0  0  0  0  0  0  0  0
    5.5978   10.2420   13.5786 C   0  0  0  0  0  0  0  0  0  0  0  0
    4.9143    6.6906   10.9038 H   0  0  0  0  0  0  0  0  0  0  0  0
   10.6546    8.4908   14.2494 N   0  0  0  0  0  0  0  0  0  0  0  0
   11.4646    9.5722   13.6460 C   0  0  0  0  0  0  0  0  0  0  0  0
   12.5738   10.0544   14.4902 C   0  0  0  0  0  0  0  0  0  0  0  0
   13.1825    9.0188   15.2870 N   0  0  0  0  0  0  0  0  0  0  0  0
   12.1673    8.5583   16.1805 C   0  0  0  0  0  0  0  0  0  0  0  0
   11.0558    7.8202   15.4350 C   0  0  0  0  0  0  0  0  0  0  0  0
   13.8082    8.0108   14.4964 C   0  0  0  0  0  0  0  0  0  0  0  0
    9.9257    6.2115   12.2437 C   0  0  0  0  0  0  0  0  0  0  0  0
   10.7984    6.5917   11.0833 C   0  0  0  0  0  0  0  0  0  0  0  0
   10.1071    6.5457    9.8644 O   0  0  0  0  0  0  0  0  0  0  0  0
   10.5726    7.1544    9.2046 H   0  0  0  0  0  0  0  0  0  0  0  0
   12.0663    5.8173   10.9095 C   0  0  0  0  0  0  0  0  0  0  0  0
   11.9747    4.7338   10.1678 O   0  0  0  0  0  0  0  0  0  0  0  0
   11.2983   -1.1242    9.1051 Br  0  0  0  0  0  0  0  0  0  0  0  0
   11.5180    0.7325    9.4418 C   0  0  0  0  0  0  0  0  0  0  0  0
   12.7657    1.2835    9.3263 C   0  0  0  0  0  0  0  0  0  0  0  0
   12.9298    2.6297    9.5696 C   0  0  0  0  0  0  0  0  0  0  0  0
   11.8777    3.4488    9.9270 C   0  0  0  0  0  0  0  0  0  0  0  0
   10.6027    2.8496   10.0391 C   0  0  0  0  0  0  0  0  0  0  0  0
   10.4463    1.5255    9.7987 C   0  0  0  0  0  0  0  0  0  0  0  0
 27 28  1  0  0  0
 28 29  2  0  0  0
 28 33  1  0  0  0
 29 30  1  0  0  0
 30 31  2  0  0  0
 31 32  1  0  0  0
 31 26  1  0  0  0
 32 33  2  0  0  0
 26 25  1  0  0  0
 25 22  1  0  0  0
 22 23  1  0  0  0
 22 21  1  0  0  0
 21  1  1  0  0  0
  1  2  1  0  0  0
  1  5  1  0  0  0
  2  3  2  0  0  0
  2 10  1  0  0  0
  3  4  1  0  0  0
  3  6  1  0  0  0
  4  5  2  0  0  0
  5 14  1  0  0  0
 14 15  1  0  0  0
 14 19  1  0  0  0
 15 16  1  0  0  0
 16 17  1  0  0  0
 17 18  1  0  0  0
 17 20  1  0  0  0
 18 19  1  0  0  0
  6  7  1  0  0  0
  6 12  1  0  0  0
  7  8  2  0  0  0
  7  9  1  0  0  0
  9 10  1  0  0  0
 10 11  2  0  0  0
 23 24  1  0  0  0
  9 13  1  0  0  0
M  END
> <minimizedAffinity>
-8.84749

$$$$
454


 21 25  0  0  0  0  0  0  0  0999 V2000
   11.8920    4.2976    9.9746 C   0  0  0  0  0  0  0  0  0  0  0  0
   14.6138    2.8292   10.5678 Br  0  0  0  0  0  0  0  0  0  0  0  0
   12.9228    2.0745   10.0867 C   0  0  0  0  0  0  0  0  0  0  0  0
   12.7998    0.7131    9.8801 C   0  0  0  0  0  0  0  0  0  0  0  0
   11.5881    0.1545    9.5269 C   0  0  0  0  0  0  0  0  0  0  0  0
   10.4315    0.8750    9.3449 C   0  0  0  0  0  0  0  0  0  0  0  0
   10.5604    2.2216    9.5494 C   0  0  0  0  0  0  0  0  0  0  0  0
   11.7588    2.8418    9.9098 C   0  0  0  0  0  0  0  0  0  0  0  0
    9.4740   -0.0614    8.9899 O   0  0  0  0  0  0  0  0  0  0  0  0
   10.1594   -1.1692    8.3427 C   0  0  0  0  0  0  0  0  0  0  0  0
   11.2823   -1.2177    9.2735 O   0  0  0  0  0  0  0  0  0  0  0  0
   11.3210    5.0158   11.0358 N   0  0  0  0  0  0  0  0  0  0  0  0
    9.9933    5.3984   10.4336 C   0  0  0  0  0  0  0  0  0  0  0  0
    9.2916    6.3846   11.1400 N   0  0  0  0  0  0  0  0  0  0  0  0
   10.1613    7.5433   11.2452 C   0  0  0  0  0  0  0  0  0  0  0  0
   11.2925    7.1562   12.0513 N   0  0  0  0  0  0  0  0  0  0  0  0
   12.1086    6.1992   11.3767 C   0  0  0  0  0  0  0  0  0  0  0  0
   10.9216    6.6051   13.3599 C   0  0  0  0  0  0  0  0  0  0  0  0
   10.1739    5.3838   13.1090 N   0  0  0  0  0  0  0  0  0  0  0  0
   10.9533    4.4325   12.2882 C   0  0  0  0  0  0  0  0  0  0  0  0
    8.9616    5.7951   12.4426 C   0  0  0  0  0  0  0  0  0  0  0  0
  2  3  1  0  0  0
  3  4  2  0  0  0
  3  8  1  0  0  0
  4  5  1  0  0  0
  5  6  2  0  0  0
  5 11  1  0  0  0
  6  7  1  0  0  0
  6  9  1  0  0  0
  7  8  2  0  0  0
  8  1  1  0  0  0
  1 12  1  0  0  0
 12 13  1  0  0  0
 12 17  1  0  0  0
 12 20  1  0  0  0
 13 14  1  0  0  0
 14 15  1  0  0  0
 14 21  1  0  0  0
 15 16  1  0  0  0
 16 17  1  0  0  0
 16 18  1  0  0  0
 18 19  1  0  0  0
 19 20  1  0  0  0
 19 21  1  0  0  0
  9 10  1  0  0  0
 10 11  1  0  0  0
M  CHG 1  12   1
M  END
> <minimizedAffinity>
-7.81934

$$$$
455


 26 29  0  0  0  0  0  0  0  0999 V2000
   12.2203    4.5556   11.2530 N   0  0  0  0  0  0  0  0  0  0  0  0
   12.8391    5.7227   11.9340 C   0  0  0  0  0  0  0  0  0  0  0  0
   11.6865    6.7165   12.0343 C   0  0  0  0  0  0  0  0  0  0  0  0
   10.5533    6.3628   11.2610 N   0  0  0  0  0  0  0  0  0  0  0  0
   10.8839    6.0048    9.9064 C   0  0  0  0  0  0  0  0  0  0  0  0
   12.0437    5.0527    9.8871 C   0  0  0  0  0  0  0  0  0  0  0  0
   13.1471    3.4409   11.2744 C   0  0  0  0  0  0  0  0  0  0  0  0
   15.3337    2.2489    9.4904 Br  0  0  0  0  0  0  0  0  0  0  0  0
   13.5138    1.6711    9.5373 C   0  0  0  0  0  0  0  0  0  0  0  0
   13.0908    0.6342    8.7376 C   0  0  0  0  0  0  0  0  0  0  0  0
   11.7864    0.2071    8.7604 C   0  0  0  0  0  0  0  0  0  0  0  0
   10.9191    0.8432    9.6025 C   0  0  0  0  0  0  0  0  0  0  0  0
   11.3510    1.8933   10.4110 C   0  0  0  0  0  0  0  0  0  0  0  0
   12.6557    2.3412   10.4070 C   0  0  0  0  0  0  0  0  0  0  0  0
    9.5978    0.4268    9.6407 O   0  0  0  0  0  0  0  0  0  0  0  0
    9.0246   -0.4291    8.6864 C   0  0  0  0  0  0  0  0  0  0  0  0
   10.0349   -1.3787    8.1267 C   0  0  0  0  0  0  0  0  0  0  0  0
   11.3211   -0.8358    7.9703 O   0  0  0  0  0  0  0  0  0  0  0  0
    9.5423    5.5894   11.8761 C   0  0  0  0  0  0  0  0  0  0  0  0
    8.1940    6.1225   11.8157 C   0  0  0  0  0  0  0  0  0  0  0  0
    7.3315    5.6134   11.0694 O   0  0  0  0  0  0  0  0  0  0  0  0
    7.8156    7.2347   12.6027 N   0  0  0  0  0  0  0  0  0  0  0  0
    8.4889    7.7207   13.2626 H   0  0  0  0  0  0  0  0  0  0  0  0
    6.4711    7.7976   12.5679 C   0  0  0  0  0  0  0  0  0  0  0  0
    6.0946    8.7731   11.5324 C   0  0  0  0  0  0  0  0  0  0  0  0
    6.3925    9.2829   12.9099 C   0  0  0  0  0  0  0  0  0  0  0  0
  8  9  1  0  0  0
  9 10  2  0  0  0
  9 14  1  0  0  0
 10 11  1  0  0  0
 11 12  2  0  0  0
 11 18  1  0  0  0
 12 13  1  0  0  0
 12 15  1  0  0  0
 13 14  2  0  0  0
 14  7  1  0  0  0
  7  1  1  0  0  0
  1  2  1  0  0  0
  1  6  1  0  0  0
  2  3  1  0  0  0
  3  4  1  0  0  0
  4  5  1  0  0  0
  4 19  1  0  0  0
  5  6  1  0  0  0
 19 20  1  0  0  0
 20 21  2  0  0  0
 20 22  1  0  0  0
 22 24  1  0  0  0
 24 25  1  0  0  0
 24 26  1  0  0  0
 25 26  1  0  0  0
 15 16  1  0  0  0
 16 17  1  0  0  0
 17 18  1  0  0  0
 22 23  1  0  0  0
M  END
> <minimizedAffinity>
-8.16045

$$$$
459


 29 32  0  0  0  0  0  0  0  0999 V2000
   12.0725    4.2715   10.8072 C   0  0  0  0  0  0  0  0  0  0  0  0
   11.5316    4.2160   12.0990 C   0  0  0  0  0  0  0  0  0  0  0  0
   10.3816    4.8819   12.4569 C   0  0  0  0  0  0  0  0  0  0  0  0
    9.7021    5.6487   11.5358 C   0  0  0  0  0  0  0  0  0  0  0  0
   10.2206    5.7159   10.2601 C   0  0  0  0  0  0  0  0  0  0  0  0
   11.3865    5.0411    9.8945 C   0  0  0  0  0  0  0  0  0  0  0  0
    8.4769    6.3634   11.9019 C   0  0  0  0  0  0  0  0  0  0  0  0
    8.0129    7.5332   11.4322 N   0  0  0  0  0  0  0  0  0  0  0  0
    6.8573    7.8122   12.0441 N   0  0  0  0  0  0  0  0  0  0  0  0
    6.5879    6.8331   12.8952 N   0  0  0  0  0  0  0  0  0  0  0  0
    7.5729    5.9554   12.8068 N   0  0  0  0  0  0  0  0  0  0  0  0
    6.0007    8.9648   11.8581 C   0  0  0  0  0  0  0  0  0  0  0  0
    4.6475    8.5345   11.4435 C   0  0  0  0  0  0  0  0  0  0  0  0
    4.4142    8.3123   10.2446 O   0  0  0  0  0  0  0  0  0  0  0  0
    3.6409    8.3842   12.4215 N   0  0  0  0  0  0  0  0  0  0  0  0
    3.6143    8.9617   13.3073 H   0  0  0  0  0  0  0  0  0  0  0  0
    2.8833    7.6817   12.2849 H   0  0  0  0  0  0  0  0  0  0  0  0
   13.2346    3.5848   10.5023 O   0  0  0  0  0  0  0  0  0  0  0  0
   13.4258    2.2246   10.7523 C   0  0  0  0  0  0  0  0  0  0  0  0
   15.2994    1.3494    8.5107 Br  0  0  0  0  0  0  0  0  0  0  0  0
   13.4710    0.8109    8.6981 C   0  0  0  0  0  0  0  0  0  0  0  0
   12.8792   -0.0497    7.8075 C   0  0  0  0  0  0  0  0  0  0  0  0
   11.5602   -0.4269    7.9585 C   0  0  0  0  0  0  0  0  0  0  0  0
   10.8372    0.0726    9.0210 C   0  0  0  0  0  0  0  0  0  0  0  0
   11.4463    0.9455    9.9209 C   0  0  0  0  0  0  0  0  0  0  0  0
   12.7597    1.3338    9.7864 C   0  0  0  0  0  0  0  0  0  0  0  0
    9.5669   -0.4608    8.9293 O   0  0  0  0  0  0  0  0  0  0  0  0
    9.5455   -1.5300    7.9998 C   0  0  0  0  0  0  0  0  0  0  0  0
   10.7032   -1.2621    7.2387 O   0  0  0  0  0  0  0  0  0  0  0  0
 20 21  1  0  0  0
 21 22  2  0  0  0
 21 26  1  0  0  0
 22 23  1  0  0  0
 23 24  2  0  0  0
 23 29  1  0  0  0
 24 25  1  0  0  0
 24 27  1  0  0  0
 25 26  2  0  0  0
 26 19  1  0  0  0
 19 18  1  0  0  0
 18  1  1  0  0  0
  1  2  2  0  0  0
  1  6  1  0  0  0
  2  3  1  0  0  0
  3  4  2  0  0  0
  4  5  1  0  0  0
  4  7  1  0  0  0
  5  6  2  0  0  0
  7  8  2  0  0  0
  7 11  1  0  0  0
  8  9  1  0  0  0
  9 10  1  0  0  0
  9 12  1  0  0  0
 10 11  2  0  0  0
 12 13  1  0  0  0
 13 14  2  0  0  0
 13 15  1  0  0  0
 27 28  1  0  0  0
 28 29  1  0  0  0
 15 16  1  0  0  0
 15 17  1  0  0  0
M  END
> <minimizedAffinity>
-9.59921

$$$$
467


 28 31  0  0  0  0  0  0  0  0999 V2000
   12.0790    3.7103   12.4814 N   0  0  0  0  0  0  0  0  0  0  0  0
   12.4309    3.4296   13.4220 H   0  0  0  0  0  0  0  0  0  0  0  0
   11.8778    5.0822   12.2154 C   0  0  0  0  0  0  0  0  0  0  0  0
   10.6269    5.5451   12.3743 N   0  0  0  0  0  0  0  0  0  0  0  0
   10.2960    6.8507   12.1828 C   0  0  0  0  0  0  0  0  0  0  0  0
   11.2940    7.6565   11.8233 N   0  0  0  0  0  0  0  0  0  0  0  0
   12.5528    7.2615   11.6494 C   0  0  0  0  0  0  0  0  0  0  0  0
   12.8315    5.9394   11.8540 N   0  0  0  0  0  0  0  0  0  0  0  0
    8.9685    7.2469   12.3592 N   0  0  0  0  0  0  0  0  0  0  0  0
    8.5155    8.5571   11.9571 C   0  0  0  0  0  0  0  0  0  0  0  0
    7.0047    8.6091   11.8693 C   0  0  0  0  0  0  0  0  0  0  0  0
    6.3970    7.4655   11.4664 O   0  0  0  0  0  0  0  0  0  0  0  0
    6.8857    6.2681   11.8872 C   0  0  0  0  0  0  0  0  0  0  0  0
    7.9923    6.3567   12.9339 C   0  0  0  0  0  0  0  0  0  0  0  0
   13.5683    8.1247   11.2751 O   0  0  0  0  0  0  0  0  0  0  0  0
   14.9117    7.7320   11.3655 C   0  0  0  0  0  0  0  0  0  0  0  0
   12.3624    2.5670   10.4109 C   0  0  0  0  0  0  0  0  0  0  0  0
   11.8301    2.7245   11.5471 N   0  0  0  0  0  0  0  0  0  0  0  0
   14.6163    1.6536    8.4892 Br  0  0  0  0  0  0  0  0  0  0  0  0
   12.8649    0.9424    8.6176 C   0  0  0  0  0  0  0  0  0  0  0  0
   12.4758   -0.0980    7.7948 C   0  0  0  0  0  0  0  0  0  0  0  0
   11.1960   -0.6530    7.8525 C   0  0  0  0  0  0  0  0  0  0  0  0
   10.3019   -0.1227    8.7794 C   0  0  0  0  0  0  0  0  0  0  0  0
   10.7129    0.9153    9.5900 C   0  0  0  0  0  0  0  0  0  0  0  0
   11.9883    1.4737    9.5373 C   0  0  0  0  0  0  0  0  0  0  0  0
    9.1292   -0.8297    8.6392 O   0  0  0  0  0  0  0  0  0  0  0  0
    9.1837   -1.6866    7.5158 C   0  0  0  0  0  0  0  0  0  0  0  0
   10.5444   -1.6689    7.1720 O   0  0  0  0  0  0  0  0  0  0  0  0
 19 20  1  0  0  0
 20 21  2  0  0  0
 20 25  1  0  0  0
 21 22  1  0  0  0
 22 23  2  0  0  0
 22 28  1  0  0  0
 23 24  1  0  0  0
 23 26  1  0  0  0
 24 25  2  0  0  0
 25 17  1  0  0  0
 17 18  2  0  0  0
 18  1  1  0  0  0
  1  3  1  0  0  0
  3  4  2  0  0  0
  3  8  1  0  0  0
  4  5  1  0  0  0
  5  6  2  0  0  0
  5  9  1  0  0  0
  6  7  1  0  0  0
  7  8  2  0  0  0
  7 15  1  0  0  0
 15 16  1  0  0  0
  9 10  1  0  0  0
  9 14  1  0  0  0
 10 11  1  0  0  0
 11 12  1  0  0  0
 12 13  1  0  0  0
 13 14  1  0  0  0
 26 27  1  0  0  0
 27 28  1  0  0  0
  1  2  1  0  0  0
M  END
> <minimizedAffinity>
-8.95717

$$$$
469


 32 36  0  0  0  0  0  0  0  0999 V2000
   11.7116    6.3319   11.1938 C   0  0  0  0  0  0  0  0  0  0  0  0
   10.4044    6.8834   11.4652 N   0  0  0  0  0  0  0  0  0  0  0  0
   10.3729    8.2078   11.8696 C   0  0  0  0  0  0  0  0  0  0  0  0
    9.3051    8.6977   12.7697 C   0  0  0  0  0  0  0  0  0  0  0  0
    8.2078    7.7738   12.7366 N   0  0  0  0  0  0  0  0  0  0  0  0
    8.5740    6.4146   13.0457 C   0  0  0  0  0  0  0  0  0  0  0  0
    9.4575    5.9416   11.9208 C   0  0  0  0  0  0  0  0  0  0  0  0
    6.8687    8.0750   12.4384 C   0  0  0  0  0  0  0  0  0  0  0  0
    6.3229    7.9492   11.2022 N   0  0  0  0  0  0  0  0  0  0  0  0
    5.0355    8.2442   10.9477 C   0  0  0  0  0  0  0  0  0  0  0  0
    4.2182    8.6829   11.9214 N   0  0  0  0  0  0  0  0  0  0  0  0
    4.6743    8.8378   13.1808 C   0  0  0  0  0  0  0  0  0  0  0  0
    4.0921    9.2530   14.3350 N   0  0  0  0  0  0  0  0  0  0  0  0
    5.0324    9.2018   15.2611 N   0  0  0  0  0  0  0  0  0  0  0  0
    6.1957    8.7748   14.7647 C   0  0  0  0  0  0  0  0  0  0  0  0
    5.9895    8.5331   13.4248 C   0  0  0  0  0  0  0  0  0  0  0  0
    2.6968    9.6684   14.4887 C   0  0  0  0  0  0  0  0  0  0  0  0
   11.7326    3.8386   11.0341 N   0  0  0  0  0  0  0  0  0  0  0  0
   11.6207    5.0729   10.3612 C   0  0  0  0  0  0  0  0  0  0  0  0
   11.4539    5.2209    9.1392 O   0  0  0  0  0  0  0  0  0  0  0  0
   11.8733    3.8697   12.0925 H   0  0  0  0  0  0  0  0  0  0  0  0
   14.5086    2.7957   10.5703 Br  0  0  0  0  0  0  0  0  0  0  0  0
   12.8839    1.9195   10.1287 C   0  0  0  0  0  0  0  0  0  0  0  0
   12.8690    0.6807    9.5326 C   0  0  0  0  0  0  0  0  0  0  0  0
   11.7113    0.0437    9.2124 C   0  0  0  0  0  0  0  0  0  0  0  0
   10.5057    0.6509    9.4889 C   0  0  0  0  0  0  0  0  0  0  0  0
   10.4964    1.9119   10.0950 C   0  0  0  0  0  0  0  0  0  0  0  0
   11.6731    2.5632   10.4223 C   0  0  0  0  0  0  0  0  0  0  0  0
    9.3510   -0.0108    9.1573 O   0  0  0  0  0  0  0  0  0  0  0  0
    9.2623   -0.9944    8.1555 C   0  0  0  0  0  0  0  0  0  0  0  0
   10.5956   -1.4710    7.6750 C   0  0  0  0  0  0  0  0  0  0  0  0
   11.6497   -1.2056    8.6100 O   0  0  0  0  0  0  0  0  0  0  0  0
 22 23  1  0  0  0
 23 24  2  0  0  0
 23 28  1  0  0  0
 24 25  1  0  0  0
 25 26  2  0  0  0
 25 32  1  0  0  0
 26 27  1  0  0  0
 26 29  1  0  0  0
 27 28  2  0  0  0
 28 18  1  0  0  0
 18 19  1  0  0  0
 19 20  2  0  0  0
 19  1  1  0  0  0
  1  2  1  0  0  0
  2  3  1  0  0  0
  2  7  1  0  0  0
  3  4  1  0  0  0
  4  5  1  0  0  0
  5  6  1  0  0  0
  5  8  1  0  0  0
  6  7  1  0  0  0
  8  9  2  0  0  0
  8 16  1  0  0  0
  9 10  1  0  0  0
 10 11  2  0  0  0
 11 12  1  0  0  0
 12 13  1  0  0  0
 12 16  2  0  0  0
 13 14  1  0  0  0
 13 17  1  0  0  0
 14 15  2  0  0  0
 15 16  1  0  0  0
 29 30  1  0  0  0
 30 31  1  0  0  0
 31 32  1  0  0  0
 18 21  1  0  0  0
M  END
> <minimizedAffinity>
-10.17660

$$$$
471


 27 30  0  0  0  0  0  0  0  0999 V2000
   11.2003    2.9856   11.8853 C   0  0  0  0  0  0  0  0  0  0  0  0
   11.4354    2.5854   13.0622 O   0  0  0  0  0  0  0  0  0  0  0  0
   10.7406    4.3021   11.6822 N   0  0  0  0  0  0  0  0  0  0  0  0
   10.5508    5.1579   12.8256 C   0  0  0  0  0  0  0  0  0  0  0  0
   11.3077    6.4644   12.7143 C   0  0  0  0  0  0  0  0  0  0  0  0
   11.3991    6.8151   11.3462 N   0  0  0  0  0  0  0  0  0  0  0  0
   10.2821    6.3964   10.5945 C   0  0  0  0  0  0  0  0  0  0  0  0
   10.4375    4.8776   10.3942 C   0  0  0  0  0  0  0  0  0  0  0  0
    8.3772   -2.2868    7.1056 Br  0  0  0  0  0  0  0  0  0  0  0  0
    9.8254   -1.2321    7.7601 C   0  0  0  0  0  0  0  0  0  0  0  0
    9.6273   -0.3394    8.7997 C   0  0  0  0  0  0  0  0  0  0  0  0
   10.6613    0.4409    9.2966 C   0  0  0  0  0  0  0  0  0  0  0  0
   11.8934    0.2730    8.6950 C   0  0  0  0  0  0  0  0  0  0  0  0
   12.1182   -0.6039    7.6623 C   0  0  0  0  0  0  0  0  0  0  0  0
   11.0770   -1.3650    7.1894 C   0  0  0  0  0  0  0  0  0  0  0  0
   12.9277    1.0488    9.1861 C   0  0  0  0  0  0  0  0  0  0  0  0
   14.0912    0.9435    8.6747 O   0  0  0  0  0  0  0  0  0  0  0  0
   12.6729    1.9213   10.2231 C   0  0  0  0  0  0  0  0  0  0  0  0
   11.4222    2.0422   10.7824 C   0  0  0  0  0  0  0  0  0  0  0  0
   10.4775    1.2865   10.2810 O   0  0  0  0  0  0  0  0  0  0  0  0
   12.6676    6.7286   10.7421 C   0  0  0  0  0  0  0  0  0  0  0  0
   13.8004    7.0814   11.5933 C   0  0  0  0  0  0  0  0  0  0  0  0
   14.2059    8.3309   11.8725 N   0  0  0  0  0  0  0  0  0  0  0  0
   15.2263    8.2365   12.6483 O   0  0  0  0  0  0  0  0  0  0  0  0
   15.5205    6.9854   12.9005 N   0  0  0  0  0  0  0  0  0  0  0  0
   14.6305    6.2101   12.2430 C   0  0  0  0  0  0  0  0  0  0  0  0
   14.5749    4.7175   12.2340 C   0  0  0  0  0  0  0  0  0  0  0  0
  9 10  1  0  0  0
 10 11  2  0  0  0
 10 15  1  0  0  0
 11 12  1  0  0  0
 12 13  2  0  0  0
 12 20  1  0  0  0
 13 14  1  0  0  0
 13 16  1  0  0  0
 14 15  2  0  0  0
 16 17  2  0  0  0
 16 18  1  0  0  0
 18 19  2  0  0  0
 19 20  1  0  0  0
 19  1  1  0  0  0
  1  2  2  0  0  0
  1  3  1  0  0  0
  3  4  1  0  0  0
  3  8  1  0  0  0
  4  5  1  0  0  0
  5  6  1  0  0  0
  6  7  1  0  0  0
  6 21  1  0  0  0
  7  8  1  0  0  0
 21 22  1  0  0  0
 22 23  2  0  0  0
 22 26  1  0  0  0
 23 24  1  0  0  0
 24 25  1  0  0  0
 25 26  2  0  0  0
 26 27  1  0  0  0
M  END
> <minimizedAffinity>
-9.21254

$$$$
473


 29 32  0  0  0  0  0  0  0  0999 V2000
   11.4361    7.1479   12.9715 C   0  0  0  0  0  0  0  0  0  0  0  0
   10.2027    6.3328   12.8864 C   0  0  0  0  0  0  0  0  0  0  0  0
   10.0809    5.1963   13.4130 O   0  0  0  0  0  0  0  0  0  0  0  0
    9.0503    6.8235   12.1734 N   0  0  0  0  0  0  0  0  0  0  0  0
    7.8416    6.0366   12.0861 C   0  0  0  0  0  0  0  0  0  0  0  0
    6.5974    6.8281   12.3139 C   0  0  0  0  0  0  0  0  0  0  0  0
    6.8228    8.2312   12.5676 N   0  0  0  0  0  0  0  0  0  0  0  0
    7.9371    8.9852   12.0589 C   0  0  0  0  0  0  0  0  0  0  0  0
    9.0444    8.1161   11.5147 C   0  0  0  0  0  0  0  0  0  0  0  0
    5.8696    8.9209   13.3824 C   0  0  0  0  0  0  0  0  0  0  0  0
    4.9963    8.2496   14.1812 N   0  0  0  0  0  0  0  0  0  0  0  0
    4.0947    8.8533   14.9539 C   0  0  0  0  0  0  0  0  0  0  0  0
    4.0326   10.2388   14.9521 C   0  0  0  0  0  0  0  0  0  0  0  0
    4.8880   10.9383   14.1681 N   0  0  0  0  0  0  0  0  0  0  0  0
    5.7836   10.2942   13.4024 C   0  0  0  0  0  0  0  0  0  0  0  0
   12.6767    6.4459   12.4963 C   0  0  0  0  0  0  0  0  0  0  0  0
   12.6064    6.2373   11.0291 C   0  0  0  0  0  0  0  0  0  0  0  0
   10.2214   -0.8473    8.5472 Br  0  0  0  0  0  0  0  0  0  0  0  0
   11.2920    0.5448    9.2927 C   0  0  0  0  0  0  0  0  0  0  0  0
   10.7839    1.8272    9.3386 C   0  0  0  0  0  0  0  0  0  0  0  0
   11.5183    2.8715    9.8697 C   0  0  0  0  0  0  0  0  0  0  0  0
   12.7809    2.5873   10.3522 C   0  0  0  0  0  0  0  0  0  0  0  0
   13.2788    1.3013   10.3011 C   0  0  0  0  0  0  0  0  0  0  0  0
   12.5515    0.2536    9.7734 C   0  0  0  0  0  0  0  0  0  0  0  0
   13.3390    3.8329   10.8485 C   0  0  0  0  0  0  0  0  0  0  0  0
   14.4979    3.9326   11.3658 O   0  0  0  0  0  0  0  0  0  0  0  0
   12.3797    4.8603   10.6489 N   0  0  0  0  0  0  0  0  0  0  0  0
   11.2387    4.3050   10.0440 C   0  0  0  0  0  0  0  0  0  0  0  0
   10.1728    4.8903    9.7079 O   0  0  0  0  0  0  0  0  0  0  0  0
 18 19  1  0  0  0
 19 20  2  0  0  0
 19 24  1  0  0  0
 20 21  1  0  0  0
 21 22  2  0  0  0
 21 28  1  0  0  0
 22 23  1  0  0  0
 22 25  1  0  0  0
 23 24  2  0  0  0
 25 26  2  0  0  0
 25 27  1  0  0  0
 27 28  1  0  0  0
 27 17  1  0  0  0
 28 29  2  0  0  0
 17 16  1  0  0  0
 16  1  1  0  0  0
  1  2  1  0  0  0
  2  3  2  0  0  0
  2  4  1  0  0  0
  4  5  1  0  0  0
  4  9  1  0  0  0
  5  6  1  0  0  0
  6  7  1  0  0  0
  7  8  1  0  0  0
  7 10  1  0  0  0
  8  9  1  0  0  0
 10 11  2  0  0  0
 10 15  1  0  0  0
 11 12  1  0  0  0
 12 13  2  0  0  0
 13 14  1  0  0  0
 14 15  2  0  0  0
M  END
> <minimizedAffinity>
-8.81697

$$$$
483


 31 34  0  0  0  0  0  0  0  0999 V2000
    9.4172    5.5763   11.5942 N   0  0  0  0  0  0  0  0  0  0  0  0
   10.4884    5.7801   10.6899 C   0  0  0  0  0  0  0  0  0  0  0  0
   10.2752    6.3977    9.6217 O   0  0  0  0  0  0  0  0  0  0  0  0
    9.5904    5.0556   12.4775 H   0  0  0  0  0  0  0  0  0  0  0  0
   11.3843    8.3213   15.7593 Br  0  0  0  0  0  0  0  0  0  0  0  0
    9.6957    8.4351   14.8940 C   0  0  0  0  0  0  0  0  0  0  0  0
    9.3694    7.6177   13.8054 C   0  0  0  0  0  0  0  0  0  0  0  0
    8.1462    7.6961   13.1742 C   0  0  0  0  0  0  0  0  0  0  0  0
    7.2004    8.6207   13.6335 C   0  0  0  0  0  0  0  0  0  0  0  0
    7.5351    9.4247   14.7131 C   0  0  0  0  0  0  0  0  0  0  0  0
    8.7604    9.3320   15.3292 C   0  0  0  0  0  0  0  0  0  0  0  0
    6.0119    8.5453   12.8542 N   0  0  0  0  0  0  0  0  0  0  0  0
    6.2237    7.5400   11.8752 C   0  0  0  0  0  0  0  0  0  0  0  0
    5.4550    7.1218   10.9664 O   0  0  0  0  0  0  0  0  0  0  0  0
    7.5782    6.9715   12.0467 C   0  0  0  0  0  0  0  0  0  0  0  0
    8.1231    6.0392   11.3434 N   0  0  0  0  0  0  0  0  0  0  0  0
    4.7827    9.3046   12.9670 C   0  0  0  0  0  0  0  0  0  0  0  0
    3.9629    8.7870   14.0511 C   0  0  0  0  0  0  0  0  0  0  0  0
    3.2923    8.3694   14.9590 C   0  0  0  0  0  0  0  0  0  0  0  0
   11.8183    5.2760   11.0011 C   0  0  0  0  0  0  0  0  0  0  0  0
   12.0369    3.9209   10.5325 N   0  0  0  0  0  0  0  0  0  0  0  0
   13.1623    3.2293   10.5835 N   0  0  0  0  0  0  0  0  0  0  0  0
   12.9873    2.0259   10.0625 N   0  0  0  0  0  0  0  0  0  0  0  0
   11.7089    1.9308    9.6589 C   0  0  0  0  0  0  0  0  0  0  0  0
   11.1546    3.1115    9.9635 N   0  0  0  0  0  0  0  0  0  0  0  0
   11.1044    0.7621    9.0275 C   0  0  0  0  0  0  0  0  0  0  0  0
    9.8118    0.3992    9.3396 C   0  0  0  0  0  0  0  0  0  0  0  0
    9.2298   -0.7185    8.7371 C   0  0  0  0  0  0  0  0  0  0  0  0
    9.9165   -1.4858    7.8238 C   0  0  0  0  0  0  0  0  0  0  0  0
   11.2143   -1.1231    7.5084 C   0  0  0  0  0  0  0  0  0  0  0  0
   11.7850   -0.0108    8.1120 C   0  0  0  0  0  0  0  0  0  0  0  0
  5  6  1  0  0  0
  6  7  2  0  0  0
  6 11  1  0  0  0
  7  8  1  0  0  0
  8  9  2  0  0  0
  8 15  1  0  0  0
  9 10  1  0  0  0
  9 12  1  0  0  0
 10 11  2  0  0  0
 12 13  1  0  0  0
 12 17  1  0  0  0
 13 14  2  0  0  0
 13 15  1  0  0  0
 15 16  2  0  0  0
 16  1  1  0  0  0
  1  2  1  0  0  0
  2  3  2  0  0  0
  2 20  1  0  0  0
 20 21  1  0  0  0
 21 22  1  0  0  0
 21 25  1  0  0  0
 22 23  2  0  0  0
 23 24  1  0  0  0
 24 25  2  0  0  0
 24 26  1  0  0  0
 26 27  2  0  0  0
 26 31  1  0  0  0
 27 28  1  0  0  0
 28 29  2  0  0  0
 29 30  1  0  0  0
 30 31  2  0  0  0
 17 18  1  0  0  0
 18 19  3  0  0  0
  1  4  1  0  0  0
M  END
> <minimizedAffinity>
-9.15346

$$$$
484


 35 38  0  0  0  0  0  0  0  0999 V2000
   13.0151    9.2276   14.2512 Br  0  0  0  0  0  0  0  0  0  0  0  0
   11.1516    9.1754   13.8375 C   0  0  0  0  0  0  0  0  0  0  0  0
   10.6282    8.2508   12.9217 C   0  0  0  0  0  0  0  0  0  0  0  0
    9.2804    8.2993   12.7106 C   0  0  0  0  0  0  0  0  0  0  0  0
    8.4301    9.1897   13.3324 C   0  0  0  0  0  0  0  0  0  0  0  0
    8.9474   10.0995   14.2262 C   0  0  0  0  0  0  0  0  0  0  0  0
   10.3277   10.0772   14.4749 C   0  0  0  0  0  0  0  0  0  0  0  0
    7.0807    9.0111   12.9216 N   0  0  0  0  0  0  0  0  0  0  0  0
    7.0954    7.9257   11.9579 C   0  0  0  0  0  0  0  0  0  0  0  0
    6.0895    7.4642   11.3802 O   0  0  0  0  0  0  0  0  0  0  0  0
    8.4745    7.5092   11.8331 C   0  0  0  0  0  0  0  0  0  0  0  0
    8.9866    6.6987   10.9894 N   0  0  0  0  0  0  0  0  0  0  0  0
    9.9567    6.2374   10.5345 N   0  0  0  0  0  0  0  0  0  0  0  0
   11.1275    5.6874    9.9651 C   0  0  0  0  0  0  0  0  0  0  0  0
   11.6323    5.7903    8.8696 O   0  0  0  0  0  0  0  0  0  0  0  0
    9.6848    6.7421    9.2696 H   0  0  0  0  0  0  0  0  0  0  0  0
   11.8234    4.7842   11.0087 C   0  0  0  0  0  0  0  0  0  0  0  0
   12.5641    3.8374   10.2088 O   0  0  0  0  0  0  0  0  0  0  0  0
   11.7901    2.7447    9.7237 N   0  0  0  0  0  0  0  0  0  0  0  0
   12.3367    1.6504    9.3622 C   0  0  0  0  0  0  0  0  0  0  0  0
   11.5309    0.5621    8.8583 C   0  0  0  0  0  0  0  0  0  0  0  0
   11.9150   -0.3302    7.9142 C   0  0  0  0  0  0  0  0  0  0  0  0
   10.9415   -1.2775    7.5058 C   0  0  0  0  0  0  0  0  0  0  0  0
    9.6949   -1.3920    7.9598 C   0  0  0  0  0  0  0  0  0  0  0  0
    9.3609   -0.4815    8.9039 C   0  0  0  0  0  0  0  0  0  0  0  0
   10.1341    0.4939    9.4081 C   0  0  0  0  0  0  0  0  0  0  0  0
    8.8391   -2.3846    7.4693 O   0  0  0  0  0  0  0  0  0  0  0  0
    7.8224   -2.0652    6.5264 C   0  0  0  0  0  0  0  0  0  0  0  0
    5.8428    9.6533   13.3320 C   0  0  0  0  0  0  0  0  0  0  0  0
    4.9468    8.7548   13.8728 N   0  0  0  0  0  0  0  0  0  0  0  0
    5.3195    8.3236   15.1586 C   0  0  0  0  0  0  0  0  0  0  0  0
    4.0970    8.3370   16.0793 C   0  0  0  0  0  0  0  0  0  0  0  0
    3.5788    9.6500   15.9089 O   0  0  0  0  0  0  0  0  0  0  0  0
    2.9077    9.7203   14.6808 C   0  0  0  0  0  0  0  0  0  0  0  0
    3.5832    8.9543   13.5862 C   0  0  0  0  0  0  0  0  0  0  0  0
  1  2  1  0  0  0
  2  3  2  0  0  0
  2  7  1  0  0  0
  3  4  1  0  0  0
  4  5  2  0  0  0
  4 11  1  0  0  0
  5  6  1  0  0  0
  5  8  1  0  0  0
  6  7  2  0  0  0
  8  9  1  0  0  0
  8 29  1  0  0  0
  9 10  2  0  0  0
  9 11  1  0  0  0
 11 12  2  0  0  0
 12 13  1  0  0  0
 13 14  1  0  0  0
 14 15  2  0  0  0
 14 17  1  0  0  0
 17 18  1  0  0  0
 18 19  1  0  0  0
 19 20  2  0  0  0
 20 21  1  0  0  0
 21 22  2  0  0  0
 21 26  1  0  0  0
 22 23  1  0  0  0
 23 24  2  0  0  0
 24 25  1  0  0  0
 24 27  1  0  0  0
 25 26  2  0  0  0
 27 28  1  0  0  0
 29 30  1  0  0  0
 30 31  1  0  0  0
 30 35  1  0  0  0
 31 32  1  0  0  0
 32 33  1  0  0  0
 33 34  1  0  0  0
 34 35  1  0  0  0
 13 16  1  0  0  0
M  END
> <minimizedAffinity>
-9.32275

$$$$
485


 34 37  0  0  0  0  0  0  0  0999 V2000
   12.4883   -0.3233    7.6396 Br  0  0  0  0  0  0  0  0  0  0  0  0
   13.5397    0.8601    8.7300 C   0  0  0  0  0  0  0  0  0  0  0  0
   12.9525    1.7232    9.6262 C   0  0  0  0  0  0  0  0  0  0  0  0
   13.6704    2.5978   10.4350 C   0  0  0  0  0  0  0  0  0  0  0  0
   15.0644    2.5980   10.3307 C   0  0  0  0  0  0  0  0  0  0  0  0
   15.6538    1.7321    9.4323 C   0  0  0  0  0  0  0  0  0  0  0  0
   14.9149    0.8650    8.6322 C   0  0  0  0  0  0  0  0  0  0  0  0
   15.6234    3.5575   11.2388 N   0  0  0  0  0  0  0  0  0  0  0  0
   14.5301    4.1615   11.9172 C   0  0  0  0  0  0  0  0  0  0  0  0
   14.6231    5.0518   12.7912 O   0  0  0  0  0  0  0  0  0  0  0  0
   13.2925    3.5794   11.4346 C   0  0  0  0  0  0  0  0  0  0  0  0
   12.0974    3.8679   11.8092 N   0  0  0  0  0  0  0  0  0  0  0  0
   11.8131    4.8247   12.7763 N   0  0  0  0  0  0  0  0  0  0  0  0
   11.2961    6.0790   12.3911 C   0  0  0  0  0  0  0  0  0  0  0  0
   11.0780    6.3649   11.1630 O   0  0  0  0  0  0  0  0  0  0  0  0
   11.9827    4.6103   13.7689 H   0  0  0  0  0  0  0  0  0  0  0  0
   10.9638    7.1568   13.3562 C   0  0  0  0  0  0  0  0  0  0  0  0
    9.5523    7.2185   13.5564 O   0  0  0  0  0  0  0  0  0  0  0  0
    8.8444    8.3330   13.1392 C   0  0  0  0  0  0  0  0  0  0  0  0
    7.9556    8.2361   12.0897 C   0  0  0  0  0  0  0  0  0  0  0  0
    7.2478    9.3603   11.6759 C   0  0  0  0  0  0  0  0  0  0  0  0
    7.4294   10.5753   12.3082 C   0  0  0  0  0  0  0  0  0  0  0  0
    8.3120   10.6555   13.3444 C   0  0  0  0  0  0  0  0  0  0  0  0
    9.0162    9.5358   13.7554 C   0  0  0  0  0  0  0  0  0  0  0  0
    7.7526    7.0447   11.4405 O   0  0  0  0  0  0  0  0  0  0  0  0
    6.7666    6.1474   11.8847 C   0  0  0  0  0  0  0  0  0  0  0  0
   17.0435    3.8215   11.3982 C   0  0  0  0  0  0  0  0  0  0  0  0
   17.3870    5.1924   11.5208 N   0  0  0  0  0  0  0  0  0  0  0  0
   18.1426    5.5443   12.6739 C   0  0  0  0  0  0  0  0  0  0  0  0
   18.3951    7.0526   12.7558 C   0  0  0  0  0  0  0  0  0  0  0  0
   17.5211    7.6720   11.8013 N   0  0  0  0  0  0  0  0  0  0  0  0
   17.8486    7.3475   10.4476 C   0  0  0  0  0  0  0  0  0  0  0  0
   17.8063    5.8363   10.3094 C   0  0  0  0  0  0  0  0  0  0  0  0
   17.2929    9.0679   12.0411 C   0  0  0  0  0  0  0  0  0  0  0  0
  1  2  1  0  0  0
  2  3  2  0  0  0
  2  7  1  0  0  0
  3  4  1  0  0  0
  4  5  2  0  0  0
  4 11  1  0  0  0
  5  6  1  0  0  0
  5  8  1  0  0  0
  6  7  2  0  0  0
  8  9  1  0  0  0
  8 27  1  0  0  0
  9 10  2  0  0  0
  9 11  1  0  0  0
 11 12  2  0  0  0
 12 13  1  0  0  0
 13 14  1  0  0  0
 14 15  2  0  0  0
 14 17  1  0  0  0
 17 18  1  0  0  0
 18 19  1  0  0  0
 19 20  2  0  0  0
 19 24  1  0  0  0
 20 21  1  0  0  0
 20 25  1  0  0  0
 21 22  2  0  0  0
 22 23  1  0  0  0
 23 24  2  0  0  0
 25 26  1  0  0  0
 27 28  1  0  0  0
 28 29  1  0  0  0
 28 33  1  0  0  0
 29 30  1  0  0  0
 30 31  1  0  0  0
 31 32  1  0  0  0
 31 34  1  0  0  0
 32 33  1  0  0  0
 13 16  1  0  0  0
M  END
> <minimizedAffinity>
-8.97802

$$$$
500


 32 35  0  0  0  0  0  0  0  0999 V2000
   11.9928   11.1296   17.3041 Br  0  0  0  0  0  0  0  0  0  0  0  0
   10.9487    9.8521   16.3116 C   0  0  0  0  0  0  0  0  0  0  0  0
    9.5857    9.8003   16.3518 C   0  0  0  0  0  0  0  0  0  0  0  0
    8.8803    8.8546   15.6534 C   0  0  0  0  0  0  0  0  0  0  0  0
    9.5976    7.9611   14.9094 C   0  0  0  0  0  0  0  0  0  0  0  0
   10.9967    7.9940   14.8484 C   0  0  0  0  0  0  0  0  0  0  0  0
   11.6958    8.9495   15.5568 C   0  0  0  0  0  0  0  0  0  0  0  0
    8.7504    7.0216   14.2770 N   0  0  0  0  0  0  0  0  0  0  0  0
    7.4415    7.3327   14.6381 C   0  0  0  0  0  0  0  0  0  0  0  0
    6.4370    6.6747   14.2598 O   0  0  0  0  0  0  0  0  0  0  0  0
    7.4436    8.5515   15.5284 C   0  0  0  0  0  0  0  0  0  0  0  0
    6.6256    9.5275   14.8254 C   0  0  0  0  0  0  0  0  0  0  0  0
    5.4356    9.9293   15.3511 C   0  0  0  0  0  0  0  0  0  0  0  0
    4.9058   10.8259   14.4726 N   0  0  0  0  0  0  0  0  0  0  0  0
    5.7193   10.9721   13.4589 N   0  0  0  0  0  0  0  0  0  0  0  0
    6.8167   10.1940   13.6045 C   0  0  0  0  0  0  0  0  0  0  0  0
    4.9382    9.4427   16.5765 O   0  0  0  0  0  0  0  0  0  0  0  0
    5.7198    8.5169   17.2400 C   0  0  0  0  0  0  0  0  0  0  0  0
    6.8649    8.0942   16.7835 C   0  0  0  0  0  0  0  0  0  0  0  0
    5.2107    8.0146   18.4988 N   0  0  0  0  0  0  0  0  0  0  0  0
    9.1763    5.9170   13.3936 C   0  0  0  0  0  0  0  0  0  0  0  0
    5.5832   11.6012   12.6153 H   0  0  0  0  0  0  0  0  0  0  0  0
    4.4827    8.4965   19.0542 H   0  0  0  0  0  0  0  0  0  0  0  0
    5.6005    7.1265   18.8525 H   0  0  0  0  0  0  0  0  0  0  0  0
    7.6174    7.1040   17.5598 C   0  0  0  0  0  0  0  0  0  0  0  0
    8.2225    6.3364   18.1574 N   0  0  0  0  0  0  0  0  0  0  0  0
    7.9508   10.1316   12.6477 C   0  0  0  0  0  0  0  0  0  0  0  0
    7.6992    9.1468   11.5729 C   0  0  0  0  0  0  0  0  0  0  0  0
    8.5618    8.3842   11.0672 O   0  0  0  0  0  0  0  0  0  0  0  0
    6.4139    9.0580   11.0865 O   0  0  0  0  0  0  0  0  0  0  0  0
    5.5852    7.9270   11.1301 C   0  0  0  0  0  0  0  0  0  0  0  0
    4.1806    8.3391   11.5032 C   0  0  0  0  0  0  0  0  0  0  0  0
  1  2  1  0  0  0
  2  3  2  0  0  0
  2  7  1  0  0  0
  3  4  1  0  0  0
  4  5  2  0  0  0
  4 11  1  0  0  0
  5  6  1  0  0  0
  5  8  1  0  0  0
  6  7  2  0  0  0
  8  9  1  0  0  0
  8 21  1  0  0  0
  9 10  2  0  0  0
  9 11  1  0  0  0
 11 12  1  0  0  0
 11 19  1  0  0  0
 12 13  1  0  0  0
 12 16  2  0  0  0
 13 14  2  0  0  0
 13 17  1  0  0  0
 14 15  1  0  0  0
 15 16  1  0  0  0
 16 27  1  0  0  0
 27 28  1  0  0  0
 28 29  2  0  0  0
 28 30  1  0  0  0
 30 31  1  0  0  0
 31 32  1  0  0  0
 17 18  1  0  0  0
 18 19  2  0  0  0
 18 20  1  0  0  0
 19 25  1  0  0  0
 25 26  3  0  0  0
 15 22  1  0  0  0
 20 23  1  0  0  0
 20 24  1  0  0  0
M  END
> <minimizedAffinity>
-6.56358

$$$$
502


 27 30  0  0  0  0  0  0  0  0999 V2000
   12.3310   11.6197   14.7778 Br  0  0  0  0  0  0  0  0  0  0  0  0
   11.1359   10.1957   14.2693 C   0  0  0  0  0  0  0  0  0  0  0  0
    9.9117   10.0532   14.8673 C   0  0  0  0  0  0  0  0  0  0  0  0
    9.0731    9.0268   14.4863 C   0  0  0  0  0  0  0  0  0  0  0  0
    9.5118    8.1782   13.5064 C   0  0  0  0  0  0  0  0  0  0  0  0
   10.7717    8.3264   12.8918 C   0  0  0  0  0  0  0  0  0  0  0  0
   11.5914    9.3515   13.2823 C   0  0  0  0  0  0  0  0  0  0  0  0
    8.5403    7.1755   13.2238 N   0  0  0  0  0  0  0  0  0  0  0  0
    7.4384    7.3961   14.0596 C   0  0  0  0  0  0  0  0  0  0  0  0
    6.3838    6.6905   14.0796 O   0  0  0  0  0  0  0  0  0  0  0  0
    7.7198    8.5998   14.9188 C   0  0  0  0  0  0  0  0  0  0  0  0
    6.6820    9.5722   14.5958 C   0  0  0  0  0  0  0  0  0  0  0  0
    5.7823    9.9809   15.5304 C   0  0  0  0  0  0  0  0  0  0  0  0
    4.9607   10.8807   14.9133 N   0  0  0  0  0  0  0  0  0  0  0  0
    5.3178   11.0347   13.6556 N   0  0  0  0  0  0  0  0  0  0  0  0
    6.3679   10.2526   13.4159 C   0  0  0  0  0  0  0  0  0  0  0  0
    7.1401   10.0676   12.1475 C   0  0  0  0  0  0  0  0  0  0  0  0
    5.7886    9.5069   16.8467 O   0  0  0  0  0  0  0  0  0  0  0  0
    6.7796    8.5791   17.1508 C   0  0  0  0  0  0  0  0  0  0  0  0
    7.6708    8.1480   16.2968 C   0  0  0  0  0  0  0  0  0  0  0  0
    6.8364    8.0496   18.5055 N   0  0  0  0  0  0  0  0  0  0  0  0
    8.6601    6.0943   12.2340 C   0  0  0  0  0  0  0  0  0  0  0  0
    4.8847   11.6541   12.9229 H   0  0  0  0  0  0  0  0  0  0  0  0
    6.2569    7.2013   18.6643 H   0  0  0  0  0  0  0  0  0  0  0  0
    7.3936    8.4662   19.2485 H   0  0  0  0  0  0  0  0  0  0  0  0
    8.6476    7.1638   16.7946 C   0  0  0  0  0  0  0  0  0  0  0  0
    9.4136    6.3866   17.2108 N   0  0  0  0  0  0  0  0  0  0  0  0
  1  2  1  0  0  0
  2  3  2  0  0  0
  2  7  1  0  0  0
  3  4  1  0  0  0
  4  5  2  0  0  0
  4 11  1  0  0  0
  5  6  1  0  0  0
  5  8  1  0  0  0
  6  7  2  0  0  0
  8  9  1  0  0  0
  8 22  1  0  0  0
  9 10  2  0  0  0
  9 11  1  0  0  0
 11 12  1  0  0  0
 11 20  1  0  0  0
 12 13  1  0  0  0
 12 16  2  0  0  0
 13 14  2  0  0  0
 13 18  1  0  0  0
 14 15  1  0  0  0
 15 16  1  0  0  0
 16 17  1  0  0  0
 18 19  1  0  0  0
 19 20  2  0  0  0
 19 21  1  0  0  0
 20 26  1  0  0  0
 26 27  3  0  0  0
 15 23  1  0  0  0
 21 24  1  0  0  0
 21 25  1  0  0  0
M  END
> <minimizedAffinity>
-6.41154

$$$$
504


 29 32  0  0  0  0  0  0  0  0999 V2000
    9.4702    5.2124   10.9152 Br  0  0  0  0  0  0  0  0  0  0  0  0
    9.8126    6.7512   11.9757 C   0  0  0  0  0  0  0  0  0  0  0  0
    8.9535    7.1947   12.9523 C   0  0  0  0  0  0  0  0  0  0  0  0
    9.2774    8.3340   13.6879 C   0  0  0  0  0  0  0  0  0  0  0  0
   10.4137    9.0447   13.4932 C   0  0  0  0  0  0  0  0  0  0  0  0
   11.2875    8.5929   12.5003 C   0  0  0  0  0  0  0  0  0  0  0  0
   10.9840    7.4699   11.7638 C   0  0  0  0  0  0  0  0  0  0  0  0
   10.5069   10.1539   14.3662 N   0  0  0  0  0  0  0  0  0  0  0  0
    9.3533   10.1552   15.1741 C   0  0  0  0  0  0  0  0  0  0  0  0
    9.0778   10.9938   16.0762 O   0  0  0  0  0  0  0  0  0  0  0  0
    8.5034    8.9940   14.7885 C   0  0  0  0  0  0  0  0  0  0  0  0
    7.1942    9.4612   14.2671 C   0  0  0  0  0  0  0  0  0  0  0  0
    6.0742    9.0324   14.7251 C   0  0  0  0  0  0  0  0  0  0  0  0
    5.9859    8.0511   15.7954 N   0  0  0  0  0  0  0  0  0  0  0  0
    7.2247    7.5980   16.3000 C   0  0  0  0  0  0  0  0  0  0  0  0
    8.3741    8.0205   15.8500 C   0  0  0  0  0  0  0  0  0  0  0  0
    7.1982    6.6156   17.3721 N   0  0  0  0  0  0  0  0  0  0  0  0
    4.9630    9.7041   13.9829 C   0  0  0  0  0  0  0  0  0  0  0  0
    5.5810   10.5403   13.0763 O   0  0  0  0  0  0  0  0  0  0  0  0
    6.9365   10.4577   13.1771 C   0  0  0  0  0  0  0  0  0  0  0  0
    7.8421   11.0617   12.5273 O   0  0  0  0  0  0  0  0  0  0  0  0
    4.0554   10.4317   14.9560 C   0  0  0  0  0  0  0  0  0  0  0  0
    4.1466    8.6878   13.2055 C   0  0  0  0  0  0  0  0  0  0  0  0
   11.5890   11.1470   14.4468 C   0  0  0  0  0  0  0  0  0  0  0  0
    5.0567    7.7400   16.1264 H   0  0  0  0  0  0  0  0  0  0  0  0
    7.5081    6.9372   18.3117 H   0  0  0  0  0  0  0  0  0  0  0  0
    6.8892    5.6474   17.2082 H   0  0  0  0  0  0  0  0  0  0  0  0
    9.5702    7.4626   16.4695 C   0  0  0  0  0  0  0  0  0  0  0  0
   10.5124    6.9995   16.9588 N   0  0  0  0  0  0  0  0  0  0  0  0
  1  2  1  0  0  0
  2  3  2  0  0  0
  2  7  1  0  0  0
  3  4  1  0  0  0
  4  5  2  0  0  0
  4 11  1  0  0  0
  5  6  1  0  0  0
  5  8  1  0  0  0
  6  7  2  0  0  0
  8  9  1  0  0  0
  8 24  1  0  0  0
  9 10  2  0  0  0
  9 11  1  0  0  0
 11 12  1  0  0  0
 11 16  1  0  0  0
 12 13  2  0  0  0
 12 20  1  0  0  0
 13 14  1  0  0  0
 13 18  1  0  0  0
 14 15  1  0  0  0
 15 16  2  0  0  0
 15 17  1  0  0  0
 16 28  1  0  0  0
 28 29  3  0  0  0
 18 19  1  0  0  0
 18 22  1  0  0  0
 18 23  1  0  0  0
 19 20  1  0  0  0
 20 21  2  0  0  0
 14 25  1  0  0  0
 17 26  1  0  0  0
 17 27  1  0  0  0
M  END
> <minimizedAffinity>
-6.89080

$$$$
505


 30 33  0  0  0  0  0  0  0  0999 V2000
   12.4697   12.8024   14.0740 Br  0  0  0  0  0  0  0  0  0  0  0  0
   11.7914   11.1633   14.7635 C   0  0  0  0  0  0  0  0  0  0  0  0
   11.0326   10.3427   13.9576 C   0  0  0  0  0  0  0  0  0  0  0  0
   10.5228    9.1331   14.4402 C   0  0  0  0  0  0  0  0  0  0  0  0
   10.8025    8.7995   15.7262 C   0  0  0  0  0  0  0  0  0  0  0  0
   11.5788    9.6408   16.5502 C   0  0  0  0  0  0  0  0  0  0  0  0
   12.0772   10.8287   16.0675 C   0  0  0  0  0  0  0  0  0  0  0  0
   10.1980    7.5463   16.0187 N   0  0  0  0  0  0  0  0  0  0  0  0
    9.5154    7.0719   14.8842 C   0  0  0  0  0  0  0  0  0  0  0  0
    8.8671    6.0015   14.7703 O   0  0  0  0  0  0  0  0  0  0  0  0
    9.6881    8.0772   13.7939 C   0  0  0  0  0  0  0  0  0  0  0  0
    8.3920    8.6146   13.3654 C   0  0  0  0  0  0  0  0  0  0  0  0
    7.9985    8.5760   12.0674 C   0  0  0  0  0  0  0  0  0  0  0  0
    8.8316    8.0130   11.0957 O   0  0  0  0  0  0  0  0  0  0  0  0
   10.0613    7.4927   11.4470 C   0  0  0  0  0  0  0  0  0  0  0  0
   10.4617    7.5171   12.6823 C   0  0  0  0  0  0  0  0  0  0  0  0
   10.8626    6.9310   10.3945 N   0  0  0  0  0  0  0  0  0  0  0  0
    6.7549    9.1011   11.7053 C   0  0  0  0  0  0  0  0  0  0  0  0
    6.4046    9.0586   10.5077 O   0  0  0  0  0  0  0  0  0  0  0  0
    5.9466    9.6509   12.6723 C   0  0  0  0  0  0  0  0  0  0  0  0
    6.3986    9.6633   13.9750 C   0  0  0  0  0  0  0  0  0  0  0  0
    7.5559    9.1640   14.2500 O   0  0  0  0  0  0  0  0  0  0  0  0
   10.3051    6.8890   17.3358 C   0  0  0  0  0  0  0  0  0  0  0  0
   11.8357    7.2201   10.3142 H   0  0  0  0  0  0  0  0  0  0  0  0
   10.4292    6.2606    9.7611 H   0  0  0  0  0  0  0  0  0  0  0  0
    5.5264   10.2631   15.0576 C   0  0  0  0  0  0  0  0  0  0  0  0
    4.7550   11.2859   14.5060 O   0  0  0  0  0  0  0  0  0  0  0  0
    5.2428   11.6757   13.7198 H   0  0  0  0  0  0  0  0  0  0  0  0
   11.7841    6.9407   12.9651 C   0  0  0  0  0  0  0  0  0  0  0  0
   12.8124    6.4998   13.1783 N   0  0  0  0  0  0  0  0  0  0  0  0
  1  2  1  0  0  0
  2  3  2  0  0  0
  2  7  1  0  0  0
  3  4  1  0  0  0
  4  5  2  0  0  0
  4 11  1  0  0  0
  5  6  1  0  0  0
  5  8  1  0  0  0
  6  7  2  0  0  0
  8  9  1  0  0  0
  8 23  1  0  0  0
  9 10  2  0  0  0
  9 11  1  0  0  0
 11 12  1  0  0  0
 11 16  1  0  0  0
 12 13  2  0  0  0
 12 22  1  0  0  0
 13 14  1  0  0  0
 13 18  1  0  0  0
 14 15  1  0  0  0
 15 16  2  0  0  0
 15 17  1  0  0  0
 16 29  1  0  0  0
 29 30  3  0  0  0
 18 19  2  0  0  0
 18 20  1  0  0  0
 20 21  2  0  0  0
 21 22  1  0  0  0
 21 26  1  0  0  0
 26 27  1  0  0  0
 17 24  1  0  0  0
 17 25  1  0  0  0
 27 28  1  0  0  0
M  END
> <minimizedAffinity>
-7.07857

$$$$
513


 33 36  0  0  0  0  0  0  0  0999 V2000
   12.2713    3.8089   12.4622 N   0  0  0  0  0  0  0  0  0  0  0  0
   11.0415    4.5125   12.3553 C   0  0  0  0  0  0  0  0  0  0  0  0
   10.2219    4.0970   11.5209 O   0  0  0  0  0  0  0  0  0  0  0  0
   12.9640    4.1681   13.1543 H   0  0  0  0  0  0  0  0  0  0  0  0
   12.5877    2.6967   11.7040 N   0  0  0  0  0  0  0  0  0  0  0  0
   11.8999    1.8977   11.6360 H   0  0  0  0  0  0  0  0  0  0  0  0
    8.9951   -0.3919    8.9845 Br  0  0  0  0  0  0  0  0  0  0  0  0
   10.8520   -0.1078    8.6156 C   0  0  0  0  0  0  0  0  0  0  0  0
   11.6173    0.7245    9.4320 C   0  0  0  0  0  0  0  0  0  0  0  0
   12.9557    0.9698    9.2147 C   0  0  0  0  0  0  0  0  0  0  0  0
   13.5337    0.3477    8.1334 C   0  0  0  0  0  0  0  0  0  0  0  0
   12.7949   -0.4961    7.2913 C   0  0  0  0  0  0  0  0  0  0  0  0
   11.4653   -0.7103    7.5476 C   0  0  0  0  0  0  0  0  0  0  0  0
   14.8994    0.7379    8.0953 N   0  0  0  0  0  0  0  0  0  0  0  0
   15.1917    1.6176    9.1653 C   0  0  0  0  0  0  0  0  0  0  0  0
   16.2835    2.1639    9.4554 O   0  0  0  0  0  0  0  0  0  0  0  0
   13.9414    1.7947    9.9215 C   0  0  0  0  0  0  0  0  0  0  0  0
   13.7856    2.5396   10.9943 C   0  0  0  0  0  0  0  0  0  0  0  0
   15.6021    0.4262    7.3846 H   0  0  0  0  0  0  0  0  0  0  0  0
   10.7070    5.6917   13.1844 C   0  0  0  0  0  0  0  0  0  0  0  0
    9.9061    6.6039   12.5117 N   0  0  0  0  0  0  0  0  0  0  0  0
    8.6616    7.0282   12.7253 C   0  0  0  0  0  0  0  0  0  0  0  0
    8.3074    7.9094   11.7124 C   0  0  0  0  0  0  0  0  0  0  0  0
    9.3705    8.0010   10.8913 N   0  0  0  0  0  0  0  0  0  0  0  0
   10.3212    7.2277   11.3641 C   0  0  0  0  0  0  0  0  0  0  0  0
    7.0587    8.4982   11.7144 C   0  0  0  0  0  0  0  0  0  0  0  0
    6.7658    9.2902   10.7818 O   0  0  0  0  0  0  0  0  0  0  0  0
    6.2376    8.1875   12.7062 N   0  0  0  0  0  0  0  0  0  0  0  0
    6.5922    7.3346   13.6836 C   0  0  0  0  0  0  0  0  0  0  0  0
    5.7844    7.0688   14.6050 O   0  0  0  0  0  0  0  0  0  0  0  0
    7.8114    6.7270   13.7281 N   0  0  0  0  0  0  0  0  0  0  0  0
    8.1726    5.8495   14.8045 C   0  0  0  0  0  0  0  0  0  0  0  0
    4.8928    8.7853   12.7547 C   0  0  0  0  0  0  0  0  0  0  0  0
  7  8  1  0  0  0
  8  9  2  0  0  0
  8 13  1  0  0  0
  9 10  1  0  0  0
 10 11  2  0  0  0
 10 17  1  0  0  0
 11 12  1  0  0  0
 11 14  1  0  0  0
 12 13  2  0  0  0
 14 15  1  0  0  0
 15 16  2  0  0  0
 15 17  1  0  0  0
 17 18  2  0  0  0
 18  5  1  0  0  0
  5  1  1  0  0  0
  1  2  1  0  0  0
  2  3  2  0  0  0
  2 20  1  0  0  0
 20 21  1  0  0  0
 21 22  1  0  0  0
 21 25  1  0  0  0
 22 23  2  0  0  0
 22 31  1  0  0  0
 23 24  1  0  0  0
 23 26  1  0  0  0
 24 25  2  0  0  0
 26 27  2  0  0  0
 26 28  1  0  0  0
 28 29  1  0  0  0
 28 33  1  0  0  0
 29 30  2  0  0  0
 29 31  1  0  0  0
 31 32  1  0  0  0
 14 19  1  0  0  0
  5  6  1  0  0  0
  1  4  1  0  0  0
M  END
> <minimizedAffinity>
-10.31740

$$$$
526


 31 34  0  0  0  0  0  0  0  0999 V2000
    8.0974    7.8986   11.9618 N   0  0  0  0  0  0  0  0  0  0  0  0
    8.9378    6.7945   12.1966 C   0  0  0  0  0  0  0  0  0  0  0  0
    8.7131    6.0736   13.2329 O   0  0  0  0  0  0  0  0  0  0  0  0
    8.2772    8.5095   11.1193 H   0  0  0  0  0  0  0  0  0  0  0  0
    4.4867    9.2795   18.0107 Br  0  0  0  0  0  0  0  0  0  0  0  0
    4.1907    9.0877   16.1459 C   0  0  0  0  0  0  0  0  0  0  0  0
    5.2058    8.8056   15.2768 C   0  0  0  0  0  0  0  0  0  0  0  0
    4.9785    8.6725   13.9243 C   0  0  0  0  0  0  0  0  0  0  0  0
    3.7424    8.8112   13.3775 C   0  0  0  0  0  0  0  0  0  0  0  0
    2.6967    9.0999   14.2604 C   0  0  0  0  0  0  0  0  0  0  0  0
    2.9175    9.2334   15.6080 C   0  0  0  0  0  0  0  0  0  0  0  0
    3.7639    8.6316   11.9779 N   0  0  0  0  0  0  0  0  0  0  0  0
    5.1049    8.3586   11.5631 C   0  0  0  0  0  0  0  0  0  0  0  0
    5.5764    8.1422   10.4449 O   0  0  0  0  0  0  0  0  0  0  0  0
    5.9060    8.3836   12.8232 C   0  0  0  0  0  0  0  0  0  0  0  0
    7.0782    8.1731   12.8024 N   0  0  0  0  0  0  0  0  0  0  0  0
    2.9552    8.6865   11.3135 H   0  0  0  0  0  0  0  0  0  0  0  0
   10.0669    6.3430   11.3780 C   0  0  0  0  0  0  0  0  0  0  0  0
   10.1850    4.9256   11.1839 N   0  0  0  0  0  0  0  0  0  0  0  0
   11.0466    4.3764   10.1930 C   0  0  0  0  0  0  0  0  0  0  0  0
   11.7040    5.2352    9.4855 O   0  0  0  0  0  0  0  0  0  0  0  0
    9.6402    4.2481   11.7388 H   0  0  0  0  0  0  0  0  0  0  0  0
   11.2440    2.9872    9.9134 C   0  0  0  0  0  0  0  0  0  0  0  0
   10.2359    2.0563    9.7113 C   0  0  0  0  0  0  0  0  0  0  0  0
   10.4915    0.7551    9.4420 C   0  0  0  0  0  0  0  0  0  0  0  0
   11.7870    0.2863    9.3542 C   0  0  0  0  0  0  0  0  0  0  0  0
   12.8076    1.1626    9.5494 C   0  0  0  0  0  0  0  0  0  0  0  0
   12.5622    2.5159    9.8264 C   0  0  0  0  0  0  0  0  0  0  0  0
   11.7447   -1.0861    9.0586 O   0  0  0  0  0  0  0  0  0  0  0  0
   10.5318   -1.1883    8.2743 C   0  0  0  0  0  0  0  0  0  0  0  0
    9.6757   -0.4084    9.1833 O   0  0  0  0  0  0  0  0  0  0  0  0
  5  6  1  0  0  0
  6  7  2  0  0  0
  6 11  1  0  0  0
  7  8  1  0  0  0
  8  9  2  0  0  0
  8 15  1  0  0  0
  9 10  1  0  0  0
  9 12  1  0  0  0
 10 11  2  0  0  0
 12 13  1  0  0  0
 13 14  2  0  0  0
 13 15  1  0  0  0
 15 16  2  0  0  0
 16  1  1  0  0  0
  1  2  1  0  0  0
  2  3  2  0  0  0
  2 18  1  0  0  0
 18 19  1  0  0  0
 19 20  1  0  0  0
 20 21  2  0  0  0
 20 23  1  0  0  0
 23 24  2  0  0  0
 23 28  1  0  0  0
 24 25  1  0  0  0
 25 26  2  0  0  0
 25 31  1  0  0  0
 26 27  1  0  0  0
 26 29  1  0  0  0
 27 28  2  0  0  0
 29 30  1  0  0  0
 30 31  1  0  0  0
 12 17  1  0  0  0
  1  4  1  0  0  0
 19 22  1  0  0  0
M  END
> <minimizedAffinity>
-9.94727

$$$$
550


 30 35  0  0  0  0  0  0  0  0999 V2000
    3.2821    8.4480   16.8568 Br  0  0  0  0  0  0  0  0  0  0  0  0
    4.0858    8.6302   15.1367 C   0  0  0  0  0  0  0  0  0  0  0  0
    5.4637    8.5969   14.9579 C   0  0  0  0  0  0  0  0  0  0  0  0
    6.0341    8.7284   13.7204 C   0  0  0  0  0  0  0  0  0  0  0  0
    5.1789    8.8971   12.6418 C   0  0  0  0  0  0  0  0  0  0  0  0
    3.8108    8.9314   12.8119 C   0  0  0  0  0  0  0  0  0  0  0  0
    3.2493    8.7989   14.0604 C   0  0  0  0  0  0  0  0  0  0  0  0
    5.9307    9.0136   11.4311 N   0  0  0  0  0  0  0  0  0  0  0  0
    7.3044    8.9170   11.7413 C   0  0  0  0  0  0  0  0  0  0  0  0
    8.2158    8.9757   10.9035 O   0  0  0  0  0  0  0  0  0  0  0  0
    7.4012    8.7398   13.2059 C   0  0  0  0  0  0  0  0  0  0  0  0
    8.2524    9.7788   13.7028 N   0  0  0  0  0  0  0  0  0  0  0  0
    9.5972    9.3443   13.3299 C   0  0  0  0  0  0  0  0  0  0  0  0
    9.5874    7.8520   13.3835 C   0  0  0  0  0  0  0  0  0  0  0  0
    8.1568    7.4913   13.5877 C   0  0  0  0  0  0  0  0  0  0  0  0
    7.9191    6.3669   12.6885 C   0  0  0  0  0  0  0  0  0  0  0  0
    6.8876    5.6597   12.6424 O   0  0  0  0  0  0  0  0  0  0  0  0
    9.0401    6.1870   11.8596 N   0  0  0  0  0  0  0  0  0  0  0  0
    9.9999    7.2314   12.0841 C   0  0  0  0  0  0  0  0  0  0  0  0
   10.9755    7.5757   11.3713 O   0  0  0  0  0  0  0  0  0  0  0  0
   10.5097    9.8536   14.4359 C   0  0  0  0  0  0  0  0  0  0  0  0
    9.6178   10.6125   15.3962 C   0  0  0  0  0  0  0  0  0  0  0  0
    8.2805    9.9022   15.1453 C   0  0  0  0  0  0  0  0  0  0  0  0
    5.5038    9.1508   10.4680 H   0  0  0  0  0  0  0  0  0  0  0  0
    9.2302    5.1287   10.9183 C   0  0  0  0  0  0  0  0  0  0  0  0
   10.6076    4.5775   10.8522 C   0  0  0  0  0  0  0  0  0  0  0  0
   10.8674    3.8508    9.6959 O   0  0  0  0  0  0  0  0  0  0  0  0
   12.0895    3.2458    9.9568 C   0  0  0  0  0  0  0  0  0  0  0  0
   12.1243    2.8679   11.4044 C   0  0  0  0  0  0  0  0  0  0  0  0
   11.0202    3.7342   12.0098 C   0  0  0  0  0  0  0  0  0  0  0  0
  1  2  1  0  0  0
  2  3  2  0  0  0
  2  7  1  0  0  0
  3  4  1  0  0  0
  4  5  2  0  0  0
  4 11  1  0  0  0
  5  6  1  0  0  0
  5  8  1  0  0  0
  6  7  2  0  0  0
  8  9  1  0  0  0
  9 10  2  0  0  0
  9 11  1  0  0  0
 11 12  1  0  0  0
 11 15  1  0  0  0
 12 13  1  0  0  0
 12 23  1  0  0  0
 13 14  1  0  0  0
 13 21  1  0  0  0
 14 15  1  0  0  0
 14 19  1  0  0  0
 15 16  1  0  0  0
 16 17  2  0  0  0
 16 18  1  0  0  0
 18 19  1  0  0  0
 18 25  1  0  0  0
 19 20  2  0  0  0
 25 26  1  0  0  0
 26 27  1  0  0  0
 26 30  1  0  0  0
 27 28  1  0  0  0
 28 29  1  0  0  0
 29 30  1  0  0  0
 21 22  1  0  0  0
 22 23  1  0  0  0
  8 24  1  0  0  0
M  END
> <minimizedAffinity>
-8.98675

$$$$
556


 30 33  0  0  0  0  0  0  0  0999 V2000
    8.3724    5.9248   11.8613 Br  0  0  0  0  0  0  0  0  0  0  0  0
    8.3969    7.5058   12.9276 C   0  0  0  0  0  0  0  0  0  0  0  0
    7.4432    7.6143   13.9099 C   0  0  0  0  0  0  0  0  0  0  0  0
    7.4207    8.7555   14.7189 C   0  0  0  0  0  0  0  0  0  0  0  0
    8.3413    9.7311   14.5144 C   0  0  0  0  0  0  0  0  0  0  0  0
    9.3274    9.6398   13.5134 C   0  0  0  0  0  0  0  0  0  0  0  0
    9.3251    8.5071   12.7341 C   0  0  0  0  0  0  0  0  0  0  0  0
    8.1502   10.7990   15.4239 N   0  0  0  0  0  0  0  0  0  0  0  0
    7.0588   10.4742   16.2316 C   0  0  0  0  0  0  0  0  0  0  0  0
    6.5535   11.1873   17.1827 O   0  0  0  0  0  0  0  0  0  0  0  0
    6.5473    9.1333   15.8183 C   0  0  0  0  0  0  0  0  0  0  0  0
    6.5883    8.3104   16.9988 C   0  0  0  0  0  0  0  0  0  0  0  0
    5.4615    7.8732   17.5877 C   0  0  0  0  0  0  0  0  0  0  0  0
    5.8439    7.1234   18.6738 N   0  0  0  0  0  0  0  0  0  0  0  0
    7.1582    7.1136   18.7321 N   0  0  0  0  0  0  0  0  0  0  0  0
    7.6875    7.8225   17.7344 C   0  0  0  0  0  0  0  0  0  0  0  0
    9.1265    8.0695   17.4293 C   0  0  0  0  0  0  0  0  0  0  0  0
    4.1723    8.1752   17.1121 O   0  0  0  0  0  0  0  0  0  0  0  0
    4.1111    8.9683   15.9732 C   0  0  0  0  0  0  0  0  0  0  0  0
    5.1650    9.4195   15.3632 C   0  0  0  0  0  0  0  0  0  0  0  0
    2.8221    9.3221   15.4236 N   0  0  0  0  0  0  0  0  0  0  0  0
    8.7101   11.6950   15.5067 H   0  0  0  0  0  0  0  0  0  0  0  0
    5.1964    6.6446   19.3402 H   0  0  0  0  0  0  0  0  0  0  0  0
    2.4428   10.2462   15.6424 H   0  0  0  0  0  0  0  0  0  0  0  0
    2.3280    8.6494   14.8365 H   0  0  0  0  0  0  0  0  0  0  0  0
    4.9886   10.2639   14.1463 C   0  0  0  0  0  0  0  0  0  0  0  0
    4.7058   11.4645   14.3080 O   0  0  0  0  0  0  0  0  0  0  0  0
    5.1252    9.7820   12.8731 O   0  0  0  0  0  0  0  0  0  0  0  0
    4.3653    8.7312   12.3259 C   0  0  0  0  0  0  0  0  0  0  0  0
    5.0906    8.2576   11.0620 C   0  0  0  0  0  0  0  0  0  0  0  0
  1  2  1  0  0  0
  2  3  2  0  0  0
  2  7  1  0  0  0
  3  4  1  0  0  0
  4  5  2  0  0  0
  4 11  1  0  0  0
  5  6  1  0  0  0
  5  8  1  0  0  0
  6  7  2  0  0  0
  8  9  1  0  0  0
  9 10  2  0  0  0
  9 11  1  0  0  0
 11 12  1  0  0  0
 11 20  1  0  0  0
 12 13  2  0  0  0
 12 16  1  0  0  0
 13 14  1  0  0  0
 13 18  1  0  0  0
 14 15  1  0  0  0
 15 16  2  0  0  0
 16 17  1  0  0  0
 18 19  1  0  0  0
 19 20  2  0  0  0
 19 21  1  0  0  0
 20 26  1  0  0  0
 26 27  2  0  0  0
 26 28  1  0  0  0
 28 29  1  0  0  0
 29 30  1  0  0  0
  8 22  1  0  0  0
 14 23  1  0  0  0
 21 24  1  0  0  0
 21 25  1  0  0  0
M  END
> <minimizedAffinity>
-7.38101

$$$$
558


 29 32  0  0  0  0  0  0  0  0999 V2000
   10.8103    6.7146   17.9536 Br  0  0  0  0  0  0  0  0  0  0  0  0
    9.6772    8.1838   17.5481 C   0  0  0  0  0  0  0  0  0  0  0  0
    8.5084    8.0349   16.7946 C   0  0  0  0  0  0  0  0  0  0  0  0
    7.6963    9.0996   16.5073 C   0  0  0  0  0  0  0  0  0  0  0  0
    8.0337   10.3398   16.9644 C   0  0  0  0  0  0  0  0  0  0  0  0
    9.1951   10.5406   17.7231 C   0  0  0  0  0  0  0  0  0  0  0  0
    9.9898    9.4533   17.9965 C   0  0  0  0  0  0  0  0  0  0  0  0
    7.0742   11.3036   16.5647 N   0  0  0  0  0  0  0  0  0  0  0  0
    6.0885   10.6322   15.8203 C   0  0  0  0  0  0  0  0  0  0  0  0
    5.0597   11.1184   15.2812 O   0  0  0  0  0  0  0  0  0  0  0  0
    6.4370    9.1963   15.7474 C   0  0  0  0  0  0  0  0  0  0  0  0
    6.6480    8.8059   14.3156 C   0  0  0  0  0  0  0  0  0  0  0  0
    6.0200    7.8443   13.6917 C   0  0  0  0  0  0  0  0  0  0  0  0
    5.0568    7.0976   14.4105 N   0  0  0  0  0  0  0  0  0  0  0  0
    4.7887    7.3948   15.7718 C   0  0  0  0  0  0  0  0  0  0  0  0
    5.4167    8.3581   16.4001 C   0  0  0  0  0  0  0  0  0  0  0  0
    3.7947    6.6139   16.4897 N   0  0  0  0  0  0  0  0  0  0  0  0
    6.5177    7.7847   12.2957 C   0  0  0  0  0  0  0  0  0  0  0  0
    7.4874    8.7914   12.1604 O   0  0  0  0  0  0  0  0  0  0  0  0
    7.5925    9.4367   13.3769 C   0  0  0  0  0  0  0  0  0  0  0  0
    8.3815   10.4120   13.6265 O   0  0  0  0  0  0  0  0  0  0  0  0
    5.4021    8.1284   11.3062 C   0  0  0  0  0  0  0  0  0  0  0  0
    7.0895    6.4106   11.9762 C   0  0  0  0  0  0  0  0  0  0  0  0
    7.1120   12.3450   16.7981 H   0  0  0  0  0  0  0  0  0  0  0  0
    4.5204    6.3116   13.9603 H   0  0  0  0  0  0  0  0  0  0  0  0
    3.7882    6.5091   17.5173 H   0  0  0  0  0  0  0  0  0  0  0  0
    3.0612    6.1448   15.9343 H   0  0  0  0  0  0  0  0  0  0  0  0
    5.0810    8.6005   17.8066 C   0  0  0  0  0  0  0  0  0  0  0  0
    4.8007    8.7798   18.9140 N   0  0  0  0  0  0  0  0  0  0  0  0
  1  2  1  0  0  0
  2  3  2  0  0  0
  2  7  1  0  0  0
  3  4  1  0  0  0
  4  5  2  0  0  0
  4 11  1  0  0  0
  5  6  1  0  0  0
  5  8  1  0  0  0
  6  7  2  0  0  0
  8  9  1  0  0  0
  9 10  2  0  0  0
  9 11  1  0  0  0
 11 12  1  0  0  0
 11 16  1  0  0  0
 12 13  2  0  0  0
 12 20  1  0  0  0
 13 14  1  0  0  0
 13 18  1  0  0  0
 14 15  1  0  0  0
 15 16  2  0  0  0
 15 17  1  0  0  0
 16 28  1  0  0  0
 28 29  3  0  0  0
 18 19  1  0  0  0
 18 22  1  0  0  0
 18 23  1  0  0  0
 19 20  1  0  0  0
 20 21  2  0  0  0
  8 24  1  0  0  0
 14 25  1  0  0  0
 17 26  1  0  0  0
 17 27  1  0  0  0
M  END
> <minimizedAffinity>
-7.02838

$$$$
559


 32 35  0  0  0  0  0  0  0  0999 V2000
   11.9290   11.0219   14.3332 Br  0  0  0  0  0  0  0  0  0  0  0  0
   10.2741   10.3919   15.0743 C   0  0  0  0  0  0  0  0  0  0  0  0
    9.5123    9.4289   14.4386 C   0  0  0  0  0  0  0  0  0  0  0  0
    8.3214    8.9702   14.9632 C   0  0  0  0  0  0  0  0  0  0  0  0
    7.9255    9.5252   16.1625 C   0  0  0  0  0  0  0  0  0  0  0  0
    8.6891   10.4948   16.8049 C   0  0  0  0  0  0  0  0  0  0  0  0
    9.8609   10.9298   16.2660 C   0  0  0  0  0  0  0  0  0  0  0  0
    6.6728    8.9396   16.5510 N   0  0  0  0  0  0  0  0  0  0  0  0
    6.2778    7.9975   15.5690 C   0  0  0  0  0  0  0  0  0  0  0  0
    5.2201    7.3278   15.6223 O   0  0  0  0  0  0  0  0  0  0  0  0
    7.3208    7.9711   14.5225 C   0  0  0  0  0  0  0  0  0  0  0  0
    6.7669    8.2772   13.2313 N   0  0  0  0  0  0  0  0  0  0  0  0
    6.1801    7.0259   12.7991 C   0  0  0  0  0  0  0  0  0  0  0  0
    7.2090    5.9985   13.1891 C   0  0  0  0  0  0  0  0  0  0  0  0
    7.8661    6.5920   14.4121 C   0  0  0  0  0  0  0  0  0  0  0  0
    9.3113    6.4971   14.1620 C   0  0  0  0  0  0  0  0  0  0  0  0
   10.2346    6.7632   14.9724 O   0  0  0  0  0  0  0  0  0  0  0  0
    9.5433    6.0401   12.8100 N   0  0  0  0  0  0  0  0  0  0  0  0
    8.2846    5.8453   12.1856 C   0  0  0  0  0  0  0  0  0  0  0  0
    8.1370    5.5854   10.9676 O   0  0  0  0  0  0  0  0  0  0  0  0
    6.1706    9.2003   17.4272 H   0  0  0  0  0  0  0  0  0  0  0  0
    7.5353    8.5190   12.5851 H   0  0  0  0  0  0  0  0  0  0  0  0
   10.8221    5.8138   12.1839 C   0  0  0  0  0  0  0  0  0  0  0  0
   11.9182    6.6270   12.8287 C   0  0  0  0  0  0  0  0  0  0  0  0
   11.1630    4.3237   12.2806 C   0  0  0  0  0  0  0  0  0  0  0  0
   10.7815    6.1982   10.7212 C   0  0  0  0  0  0  0  0  0  0  0  0
    5.8920    7.0634   11.3225 C   0  0  0  0  0  0  0  0  0  0  0  0
    4.8243    8.0294   11.0164 C   0  0  0  0  0  0  0  0  0  0  0  0
    4.7296    8.4743    9.8399 O   0  0  0  0  0  0  0  0  0  0  0  0
    3.8756    8.5077   11.9556 N   0  0  0  0  0  0  0  0  0  0  0  0
    4.0946    8.8513   12.9019 H   0  0  0  0  0  0  0  0  0  0  0  0
    2.8661    8.5082   11.6532 H   0  0  0  0  0  0  0  0  0  0  0  0
  1  2  1  0  0  0
  2  3  2  0  0  0
  2  7  1  0  0  0
  3  4  1  0  0  0
  4  5  2  0  0  0
  4 11  1  0  0  0
  5  6  1  0  0  0
  5  8  1  0  0  0
  6  7  2  0  0  0
  8  9  1  0  0  0
  9 10  2  0  0  0
  9 11  1  0  0  0
 11 12  1  0  0  0
 11 15  1  0  0  0
 12 13  1  0  0  0
 13 14  1  0  0  0
 13 27  1  0  0  0
 14 15  1  0  0  0
 14 19  1  0  0  0
 15 16  1  0  0  0
 16 17  2  0  0  0
 16 18  1  0  0  0
 18 19  1  0  0  0
 18 23  1  0  0  0
 19 20  2  0  0  0
 23 24  1  0  0  0
 23 25  1  0  0  0
 23 26  1  0  0  0
 27 28  1  0  0  0
 28 29  2  0  0  0
 28 30  1  0  0  0
  8 21  1  0  0  0
 12 22  1  0  0  0
 30 31  1  0  0  0
 30 32  1  0  0  0
M  END
> <minimizedAffinity>
-7.82246

$$$$
566


 30 33  0  0  0  0  0  0  0  0999 V2000
    3.5801    8.4247   18.4090 Br  0  0  0  0  0  0  0  0  0  0  0  0
    5.0402    9.1668   17.4301 C   0  0  0  0  0  0  0  0  0  0  0  0
    5.3336    8.7246   16.1649 C   0  0  0  0  0  0  0  0  0  0  0  0
    6.4078    9.2642   15.4343 C   0  0  0  0  0  0  0  0  0  0  0  0
    7.1972   10.2485   15.9596 C   0  0  0  0  0  0  0  0  0  0  0  0
    6.8968   10.7007   17.2526 C   0  0  0  0  0  0  0  0  0  0  0  0
    5.8421   10.1590   17.9496 C   0  0  0  0  0  0  0  0  0  0  0  0
    8.2108   10.6315   15.0409 N   0  0  0  0  0  0  0  0  0  0  0  0
    8.0454    9.8434   13.8789 C   0  0  0  0  0  0  0  0  0  0  0  0
    8.8133    9.9592   12.8669 O   0  0  0  0  0  0  0  0  0  0  0  0
    6.9123    8.9562   14.0781 C   0  0  0  0  0  0  0  0  0  0  0  0
    5.8806    9.0978   13.0690 N   0  0  0  0  0  0  0  0  0  0  0  0
    6.2358    8.1703   12.0105 C   0  0  0  0  0  0  0  0  0  0  0  0
    6.6849    6.9666   12.7879 C   0  0  0  0  0  0  0  0  0  0  0  0
    7.3779    7.5182   13.9870 C   0  0  0  0  0  0  0  0  0  0  0  0
    8.8175    7.3967   13.7083 C   0  0  0  0  0  0  0  0  0  0  0  0
    9.7945    7.9712   14.2917 O   0  0  0  0  0  0  0  0  0  0  0  0
    9.0177    6.4948   12.6273 N   0  0  0  0  0  0  0  0  0  0  0  0
    7.7426    6.2023   12.0922 C   0  0  0  0  0  0  0  0  0  0  0  0
    7.4931    5.3983   11.1433 O   0  0  0  0  0  0  0  0  0  0  0  0
    8.9280   11.3741   15.2431 H   0  0  0  0  0  0  0  0  0  0  0  0
    5.7759   10.0728   12.7349 H   0  0  0  0  0  0  0  0  0  0  0  0
    5.0340    7.9122   11.1573 C   0  0  0  0  0  0  0  0  0  0  0  0
    5.2484    8.5294    9.9186 O   0  0  0  0  0  0  0  0  0  0  0  0
    3.8139    8.5551   11.7694 C   0  0  0  0  0  0  0  0  0  0  0  0
    4.4344    9.0082    9.6163 H   0  0  0  0  0  0  0  0  0  0  0  0
   10.2844    5.9694   12.1572 C   0  0  0  0  0  0  0  0  0  0  0  0
   10.8044    6.7110   10.9684 C   0  0  0  0  0  0  0  0  0  0  0  0
   11.1782    5.6575    9.9182 C   0  0  0  0  0  0  0  0  0  0  0  0
   10.7873    4.2840   10.3897 C   0  0  0  0  0  0  0  0  0  0  0  0
  1  2  1  0  0  0
  2  3  2  0  0  0
  2  7  1  0  0  0
  3  4  1  0  0  0
  4  5  2  0  0  0
  4 11  1  0  0  0
  5  6  1  0  0  0
  5  8  1  0  0  0
  6  7  2  0  0  0
  8  9  1  0  0  0
  9 10  2  0  0  0
  9 11  1  0  0  0
 11 12  1  0  0  0
 11 15  1  0  0  0
 12 13  1  0  0  0
 13 14  1  0  0  0
 13 23  1  0  0  0
 14 15  1  0  0  0
 14 19  1  0  0  0
 15 16  1  0  0  0
 16 17  2  0  0  0
 16 18  1  0  0  0
 18 19  1  0  0  0
 18 27  1  0  0  0
 19 20  2  0  0  0
 27 28  1  0  0  0
 28 29  1  0  0  0
 29 30  1  0  0  0
 23 24  1  0  0  0
 23 25  1  0  0  0
  8 21  1  0  0  0
 12 22  1  0  0  0
 24 26  1  0  0  0
M  END
> <minimizedAffinity>
-7.45761

$$$$
571


 34 38  0  0  0  0  0  0  0  0999 V2000
   11.9677   11.4286   14.2350 Br  0  0  0  0  0  0  0  0  0  0  0  0
   10.5526   10.5319   15.1509 C   0  0  0  0  0  0  0  0  0  0  0  0
    9.5775    9.8174   14.4913 C   0  0  0  0  0  0  0  0  0  0  0  0
    8.5359    9.1657   15.1689 C   0  0  0  0  0  0  0  0  0  0  0  0
    8.5184    9.2625   16.5389 C   0  0  0  0  0  0  0  0  0  0  0  0
    9.4982    9.9799   17.2105 C   0  0  0  0  0  0  0  0  0  0  0  0
   10.5154   10.6164   16.5344 C   0  0  0  0  0  0  0  0  0  0  0  0
    7.4093    8.5724   17.0813 N   0  0  0  0  0  0  0  0  0  0  0  0
    6.6906    8.0133   16.0045 C   0  0  0  0  0  0  0  0  0  0  0  0
    5.6390    7.3333   16.1692 O   0  0  0  0  0  0  0  0  0  0  0  0
    7.3823    8.3701   14.7481 C   0  0  0  0  0  0  0  0  0  0  0  0
    6.4957    9.1515   13.8803 N   0  0  0  0  0  0  0  0  0  0  0  0
    6.8637    8.7953   12.5283 C   0  0  0  0  0  0  0  0  0  0  0  0
    7.4582    7.4426   12.5538 C   0  0  0  0  0  0  0  0  0  0  0  0
    7.6701    7.1112   14.0198 C   0  0  0  0  0  0  0  0  0  0  0  0
    9.0189    6.5644   14.1066 C   0  0  0  0  0  0  0  0  0  0  0  0
    9.6419    6.2770   15.1587 O   0  0  0  0  0  0  0  0  0  0  0  0
    9.5700    6.3883   12.7838 N   0  0  0  0  0  0  0  0  0  0  0  0
    8.8097    7.3099   11.9746 C   0  0  0  0  0  0  0  0  0  0  0  0
    9.2401    7.8834   10.9628 O   0  0  0  0  0  0  0  0  0  0  0  0
    7.1674    8.4920   18.1073 H   0  0  0  0  0  0  0  0  0  0  0  0
    6.6045   10.1779   14.0474 H   0  0  0  0  0  0  0  0  0  0  0  0
    5.6702    8.9210   11.6112 C   0  0  0  0  0  0  0  0  0  0  0  0
    5.7722    8.0108   10.5768 O   0  0  0  0  0  0  0  0  0  0  0  0
    4.3607    8.8083   12.3535 C   0  0  0  0  0  0  0  0  0  0  0  0
    4.9812    8.0028   10.0052 H   0  0  0  0  0  0  0  0  0  0  0  0
   10.5968    5.4999   12.3415 C   0  0  0  0  0  0  0  0  0  0  0  0
   10.2382    4.5913   11.2018 C   0  0  0  0  0  0  0  0  0  0  0  0
   11.1822    3.4851   10.9673 C   0  0  0  0  0  0  0  0  0  0  0  0
   10.9404    2.5912    9.9312 C   0  0  0  0  0  0  0  0  0  0  0  0
   11.8142    1.5851    9.6889 C   0  0  0  0  0  0  0  0  0  0  0  0
   12.9477    1.4009   10.4269 C   0  0  0  0  0  0  0  0  0  0  0  0
   13.1797    2.2989   11.4576 C   0  0  0  0  0  0  0  0  0  0  0  0
   12.3135    3.3203   11.7224 C   0  0  0  0  0  0  0  0  0  0  0  0
  1  2  1  0  0  0
  2  3  2  0  0  0
  2  7  1  0  0  0
  3  4  1  0  0  0
  4  5  2  0  0  0
  4 11  1  0  0  0
  5  6  1  0  0  0
  5  8  1  0  0  0
  6  7  2  0  0  0
  8  9  1  0  0  0
  9 10  2  0  0  0
  9 11  1  0  0  0
 11 12  1  0  0  0
 11 15  1  0  0  0
 12 13  1  0  0  0
 13 14  1  0  0  0
 13 23  1  0  0  0
 14 15  1  0  0  0
 14 19  1  0  0  0
 15 16  1  0  0  0
 16 17  2  0  0  0
 16 18  1  0  0  0
 18 19  1  0  0  0
 18 27  1  0  0  0
 19 20  2  0  0  0
 27 28  1  0  0  0
 28 29  1  0  0  0
 29 30  2  0  0  0
 29 34  1  0  0  0
 30 31  1  0  0  0
 31 32  2  0  0  0
 32 33  1  0  0  0
 33 34  2  0  0  0
 23 24  1  0  0  0
 23 25  1  0  0  0
  8 21  1  0  0  0
 12 22  1  0  0  0
 24 26  1  0  0  0
M  END
> <minimizedAffinity>
-8.39864

$$$$
578


 27 30  0  0  0  0  0  0  0  0999 V2000
   17.1362    4.0426   11.7201 Br  0  0  0  0  0  0  0  0  0  0  0  0
   15.8560    5.4558   11.6133 C   0  0  0  0  0  0  0  0  0  0  0  0
   14.5106    5.2388   11.7744 C   0  0  0  0  0  0  0  0  0  0  0  0
   13.5401    6.2538   11.7023 C   0  0  0  0  0  0  0  0  0  0  0  0
   13.9911    7.5161   11.4580 C   0  0  0  0  0  0  0  0  0  0  0  0
   15.3676    7.7575   11.2890 C   0  0  0  0  0  0  0  0  0  0  0  0
   16.2923    6.7424   11.3651 C   0  0  0  0  0  0  0  0  0  0  0  0
   12.9114    8.4390   11.4214 N   0  0  0  0  0  0  0  0  0  0  0  0
   11.7296    7.7092   11.6563 C   0  0  0  0  0  0  0  0  0  0  0  0
   10.5441    8.2030   11.7118 O   0  0  0  0  0  0  0  0  0  0  0  0
   12.0980    6.2921   11.8259 C   0  0  0  0  0  0  0  0  0  0  0  0
   11.6966    5.9958   13.2128 N   0  0  0  0  0  0  0  0  0  0  0  0
   10.4525    5.2917   13.1853 C   0  0  0  0  0  0  0  0  0  0  0  0
   10.4605    4.5771   11.8844 C   0  0  0  0  0  0  0  0  0  0  0  0
   11.3254    5.3777   10.9489 C   0  0  0  0  0  0  0  0  0  0  0  0
   12.0442    4.3713   10.2014 C   0  0  0  0  0  0  0  0  0  0  0  0
   12.6846    4.5806    9.1293 O   0  0  0  0  0  0  0  0  0  0  0  0
   11.9143    3.1199   10.8614 N   0  0  0  0  0  0  0  0  0  0  0  0
   11.1895    3.2832   12.0718 C   0  0  0  0  0  0  0  0  0  0  0  0
   11.2054    2.4860   13.0306 O   0  0  0  0  0  0  0  0  0  0  0  0
    9.2306    6.1581   13.3815 C   0  0  0  0  0  0  0  0  0  0  0  0
   12.9636    9.4860   11.2506 H   0  0  0  0  0  0  0  0  0  0  0  0
   12.4410    5.4574   13.7082 H   0  0  0  0  0  0  0  0  0  0  0  0
   12.4672    1.8836   10.3248 C   0  0  0  0  0  0  0  0  0  0  0  0
   13.8739    1.6506   10.7864 C   0  0  0  0  0  0  0  0  0  0  0  0
   14.8985    1.8890    9.7101 C   0  0  0  0  0  0  0  0  0  0  0  0
   14.2892    1.3606    8.4066 C   0  0  0  0  0  0  0  0  0  0  0  0
  1  2  1  0  0  0
  2  3  2  0  0  0
  2  7  1  0  0  0
  3  4  1  0  0  0
  4  5  2  0  0  0
  4 11  1  0  0  0
  5  6  1  0  0  0
  5  8  1  0  0  0
  6  7  2  0  0  0
  8  9  1  0  0  0
  9 10  2  0  0  0
  9 11  1  0  0  0
 11 12  1  0  0  0
 11 15  1  0  0  0
 12 13  1  0  0  0
 13 14  1  0  0  0
 13 21  1  0  0  0
 14 15  1  0  0  0
 14 19  1  0  0  0
 15 16  1  0  0  0
 16 17  2  0  0  0
 16 18  1  0  0  0
 18 19  1  0  0  0
 18 24  1  0  0  0
 19 20  2  0  0  0
 24 25  1  0  0  0
 25 26  1  0  0  0
 26 27  1  0  0  0
  8 22  1  0  0  0
 12 23  1  0  0  0
M  END
> <minimizedAffinity>
-7.84873

$$$$
579


 32 35  0  0  0  0  0  0  0  0999 V2000
    3.7235    8.9323   18.0255 Br  0  0  0  0  0  0  0  0  0  0  0  0
    5.3444    9.4208   17.1471 C   0  0  0  0  0  0  0  0  0  0  0  0
    5.8142    8.7696   16.0284 C   0  0  0  0  0  0  0  0  0  0  0  0
    6.9999    9.1321   15.3903 C   0  0  0  0  0  0  0  0  0  0  0  0
    7.7364   10.1770   15.8897 C   0  0  0  0  0  0  0  0  0  0  0  0
    7.2896   10.8514   17.0147 C   0  0  0  0  0  0  0  0  0  0  0  0
    6.0951   10.4671   17.6354 C   0  0  0  0  0  0  0  0  0  0  0  0
    8.9033   10.3836   15.0880 N   0  0  0  0  0  0  0  0  0  0  0  0
    8.8973    9.4268   14.0421 C   0  0  0  0  0  0  0  0  0  0  0  0
    9.7845    9.3616   13.1693 O   0  0  0  0  0  0  0  0  0  0  0  0
    7.7138    8.5960   14.1957 C   0  0  0  0  0  0  0  0  0  0  0  0
    6.9028    8.7711   12.9913 N   0  0  0  0  0  0  0  0  0  0  0  0
    6.3558    7.4795   12.7013 C   0  0  0  0  0  0  0  0  0  0  0  0
    7.4473    6.5402   13.0643 C   0  0  0  0  0  0  0  0  0  0  0  0
    7.9722    7.1274   14.3537 C   0  0  0  0  0  0  0  0  0  0  0  0
    9.3724    6.7289   14.3971 C   0  0  0  0  0  0  0  0  0  0  0  0
   10.1039    6.7300   15.4103 O   0  0  0  0  0  0  0  0  0  0  0  0
    9.7556    6.3414   13.0833 N   0  0  0  0  0  0  0  0  0  0  0  0
    8.6451    6.5958   12.1903 C   0  0  0  0  0  0  0  0  0  0  0  0
    8.7957    6.8004   10.9750 O   0  0  0  0  0  0  0  0  0  0  0  0
    9.6291   11.1312   15.2714 H   0  0  0  0  0  0  0  0  0  0  0  0
    7.5077    9.0525   12.1832 H   0  0  0  0  0  0  0  0  0  0  0  0
   11.0359    5.7921   12.7425 C   0  0  0  0  0  0  0  0  0  0  0  0
   11.0455    4.3305   12.4415 C   0  0  0  0  0  0  0  0  0  0  0  0
   11.5949    4.0285   11.2064 O   0  0  0  0  0  0  0  0  0  0  0  0
   10.6140    3.8839   10.2282 C   0  0  0  0  0  0  0  0  0  0  0  0
    5.8303    7.3457   11.3133 C   0  0  0  0  0  0  0  0  0  0  0  0
    4.6108    8.1473   11.1625 C   0  0  0  0  0  0  0  0  0  0  0  0
    4.2172    8.4750   10.0073 O   0  0  0  0  0  0  0  0  0  0  0  0
    3.8616    8.5621   12.3031 N   0  0  0  0  0  0  0  0  0  0  0  0
    2.8331    8.7008   12.2331 H   0  0  0  0  0  0  0  0  0  0  0  0
    4.3522    8.7247   13.2061 H   0  0  0  0  0  0  0  0  0  0  0  0
  1  2  1  0  0  0
  2  3  2  0  0  0
  2  7  1  0  0  0
  3  4  1  0  0  0
  4  5  2  0  0  0
  4 11  1  0  0  0
  5  6  1  0  0  0
  5  8  1  0  0  0
  6  7  2  0  0  0
  8  9  1  0  0  0
  9 10  2  0  0  0
  9 11  1  0  0  0
 11 12  1  0  0  0
 11 15  1  0  0  0
 12 13  1  0  0  0
 13 14  1  0  0  0
 13 27  1  0  0  0
 14 15  1  0  0  0
 14 19  1  0  0  0
 15 16  1  0  0  0
 16 17  2  0  0  0
 16 18  1  0  0  0
 18 19  1  0  0  0
 18 23  1  0  0  0
 19 20  2  0  0  0
 23 24  1  0  0  0
 24 25  1  0  0  0
 25 26  1  0  0  0
 27 28  1  0  0  0
 28 29  2  0  0  0
 28 30  1  0  0  0
  8 21  1  0  0  0
 12 22  1  0  0  0
 30 31  1  0  0  0
 30 32  1  0  0  0
M  END
> <minimizedAffinity>
-7.45886

$$$$
588


 24 27  0  0  0  0  0  0  0  0999 V2000
    5.6700   10.1331   18.3664 Br  0  0  0  0  0  0  0  0  0  0  0  0
    5.5880    9.5146   16.5659 C   0  0  0  0  0  0  0  0  0  0  0  0
    6.2662    8.3762   16.2403 C   0  0  0  0  0  0  0  0  0  0  0  0
    6.2244    7.9041   14.9393 C   0  0  0  0  0  0  0  0  0  0  0  0
    5.4969    8.5837   13.9700 C   0  0  0  0  0  0  0  0  0  0  0  0
    4.8056    9.7361   14.2837 C   0  0  0  0  0  0  0  0  0  0  0  0
    4.8764   10.1682   15.5890 C   0  0  0  0  0  0  0  0  0  0  0  0
    5.3812    8.1973   12.6153 N   0  0  0  0  0  0  0  0  0  0  0  0
    4.3508    8.6072   11.8662 N   0  0  0  0  0  0  0  0  0  0  0  0
    4.5368    8.0853   10.6842 N   0  0  0  0  0  0  0  0  0  0  0  0
    5.6462    7.3642   10.6664 N   0  0  0  0  0  0  0  0  0  0  0  0
    6.1983    7.4321   11.9124 C   0  0  0  0  0  0  0  0  0  0  0  0
    7.4803    6.7208   12.2480 C   0  0  0  0  0  0  0  0  0  0  0  0
    7.3931    6.0920   13.5636 N   0  0  0  0  0  0  0  0  0  0  0  0
    7.0160    6.6752   14.8054 C   0  0  0  0  0  0  0  0  0  0  0  0
    7.3848    6.1007   15.8677 O   0  0  0  0  0  0  0  0  0  0  0  0
    8.5320    7.7908   12.3634 C   0  0  0  0  0  0  0  0  0  0  0  0
    9.8877    7.1859   12.1995 C   0  0  0  0  0  0  0  0  0  0  0  0
    9.9525    6.6715   10.9315 O   0  0  0  0  0  0  0  0  0  0  0  0
    9.1216    5.6137   10.6789 C   0  0  0  0  0  0  0  0  0  0  0  0
    7.7573    5.6910   11.2150 C   0  0  0  0  0  0  0  0  0  0  0  0
   10.9484    8.2907   12.2847 C   0  0  0  0  0  0  0  0  0  0  0  0
   10.2333    6.1876   13.2717 C   0  0  0  0  0  0  0  0  0  0  0  0
    7.6419    5.0583   13.6220 H   0  0  0  0  0  0  0  0  0  0  0  0
  1  2  1  0  0  0
  2  3  2  0  0  0
  2  7  1  0  0  0
  3  4  1  0  0  0
  4  5  2  0  0  0
  4 15  1  0  0  0
  5  6  1  0  0  0
  5  8  1  0  0  0
  6  7  2  0  0  0
  8  9  1  0  0  0
  8 12  1  0  0  0
  9 10  2  0  0  0
 10 11  1  0  0  0
 11 12  2  0  0  0
 12 13  1  0  0  0
 13 14  1  0  0  0
 13 17  1  0  0  0
 13 21  1  0  0  0
 14 15  1  0  0  0
 15 16  2  0  0  0
 17 18  1  0  0  0
 18 19  1  0  0  0
 18 22  1  0  0  0
 18 23  1  0  0  0
 19 20  1  0  0  0
 20 21  1  0  0  0
 14 24  1  0  0  0
M  END
> <minimizedAffinity>
-8.33176

$$$$
591


 23 26  0  0  0  0  0  0  0  0999 V2000
   10.6079    3.8487   10.5526 Br  0  0  0  0  0  0  0  0  0  0  0  0
    9.8794    5.3969   11.4240 C   0  0  0  0  0  0  0  0  0  0  0  0
    8.5259    5.6536   11.3742 C   0  0  0  0  0  0  0  0  0  0  0  0
    8.0076    6.7669   12.0024 C   0  0  0  0  0  0  0  0  0  0  0  0
    8.7923    7.6663   12.6989 C   0  0  0  0  0  0  0  0  0  0  0  0
   10.1572    7.3921   12.7381 C   0  0  0  0  0  0  0  0  0  0  0  0
   10.6825    6.2803   12.1136 C   0  0  0  0  0  0  0  0  0  0  0  0
    8.4277    8.8395   13.3886 N   0  0  0  0  0  0  0  0  0  0  0  0
    9.2991    9.7495   13.7926 N   0  0  0  0  0  0  0  0  0  0  0  0
    8.6239   10.7110   14.4025 N   0  0  0  0  0  0  0  0  0  0  0  0
    7.3484   10.4068   14.3802 N   0  0  0  0  0  0  0  0  0  0  0  0
    7.1834    9.2213   13.7426 C   0  0  0  0  0  0  0  0  0  0  0  0
    5.8486    8.6428   13.5770 C   0  0  0  0  0  0  0  0  0  0  0  0
    5.6516    7.8034   12.4462 N   0  0  0  0  0  0  0  0  0  0  0  0
    6.5563    6.8877   11.8503 C   0  0  0  0  0  0  0  0  0  0  0  0
    6.1006    6.0200   11.0582 O   0  0  0  0  0  0  0  0  0  0  0  0
    5.4365    7.8172   14.8057 C   0  0  0  0  0  0  0  0  0  0  0  0
    3.9467    7.9461   14.9975 C   0  0  0  0  0  0  0  0  0  0  0  0
    3.6968    9.2354   15.6013 N   0  0  0  0  0  0  0  0  0  0  0  0
    4.4193   10.2436   14.8719 C   0  0  0  0  0  0  0  0  0  0  0  0
    4.8476    9.7901   13.4980 C   0  0  0  0  0  0  0  0  0  0  0  0
    4.1298    9.1619   16.9959 C   0  0  0  0  0  0  0  0  0  0  0  0
    4.7150    7.8724   11.9981 H   0  0  0  0  0  0  0  0  0  0  0  0
  1  2  1  0  0  0
  2  3  2  0  0  0
  2  7  1  0  0  0
  3  4  1  0  0  0
  4  5  2  0  0  0
  4 15  1  0  0  0
  5  6  1  0  0  0
  5  8  1  0  0  0
  6  7  2  0  0  0
  8  9  1  0  0  0
  8 12  1  0  0  0
  9 10  2  0  0  0
 10 11  1  0  0  0
 11 12  2  0  0  0
 12 13  1  0  0  0
 13 14  1  0  0  0
 13 17  1  0  0  0
 13 21  1  0  0  0
 14 15  1  0  0  0
 15 16  2  0  0  0
 17 18  1  0  0  0
 18 19  1  0  0  0
 19 20  1  0  0  0
 19 22  1  0  0  0
 20 21  1  0  0  0
 14 23  1  0  0  0
M  END
> <minimizedAffinity>
-7.94491

$$$$
592


 27 30  0  0  0  0  0  0  0  0999 V2000
    7.5595   10.5475   19.2388 Br  0  0  0  0  0  0  0  0  0  0  0  0
    7.7587   10.4082   17.3552 C   0  0  0  0  0  0  0  0  0  0  0  0
    6.6999    9.9718   16.6082 C   0  0  0  0  0  0  0  0  0  0  0  0
    6.8478    9.8690   15.2211 C   0  0  0  0  0  0  0  0  0  0  0  0
    8.0358   10.2063   14.6621 C   0  0  0  0  0  0  0  0  0  0  0  0
    9.1256   10.6560   15.4360 C   0  0  0  0  0  0  0  0  0  0  0  0
    8.9767   10.7548   16.7982 C   0  0  0  0  0  0  0  0  0  0  0  0
    8.2321   10.1227   13.2954 O   0  0  0  0  0  0  0  0  0  0  0  0
    7.1905    9.6870   12.5051 C   0  0  0  0  0  0  0  0  0  0  0  0
    6.0143    9.3445   12.9739 C   0  0  0  0  0  0  0  0  0  0  0  0
    5.7137    9.3995   14.3980 C   0  0  0  0  0  0  0  0  0  0  0  0
    5.1572    8.1275   14.9182 C   0  0  0  0  0  0  0  0  0  0  0  0
    3.8829    8.3575   15.3571 C   0  0  0  0  0  0  0  0  0  0  0  0
    3.3734    7.1840   15.8349 N   0  0  0  0  0  0  0  0  0  0  0  0
    4.3211    6.2760   15.6845 N   0  0  0  0  0  0  0  0  0  0  0  0
    5.4210    6.8036   15.1320 C   0  0  0  0  0  0  0  0  0  0  0  0
    6.6658    6.0324   14.8340 C   0  0  0  0  0  0  0  0  0  0  0  0
    3.5173    9.7086   15.1750 N   0  0  0  0  0  0  0  0  0  0  0  0
    4.6128   10.3675   14.5934 C   0  0  0  0  0  0  0  0  0  0  0  0
    4.6861   11.5842   14.2743 O   0  0  0  0  0  0  0  0  0  0  0  0
    7.4102    9.6053   11.0875 N   0  0  0  0  0  0  0  0  0  0  0  0
    4.1755    5.2742   15.9804 H   0  0  0  0  0  0  0  0  0  0  0  0
    2.5672   10.1319   15.4421 H   0  0  0  0  0  0  0  0  0  0  0  0
    8.3799    9.4816   10.7239 H   0  0  0  0  0  0  0  0  0  0  0  0
    6.6294    9.6654   10.3961 H   0  0  0  0  0  0  0  0  0  0  0  0
    4.9720    8.8976   12.0809 C   0  0  0  0  0  0  0  0  0  0  0  0
    4.1486    8.5263   11.3563 N   0  0  0  0  0  0  0  0  0  0  0  0
  1  2  1  0  0  0
  2  3  2  0  0  0
  2  7  1  0  0  0
  3  4  1  0  0  0
  4  5  2  0  0  0
  4 11  1  0  0  0
  5  6  1  0  0  0
  5  8  1  0  0  0
  6  7  2  0  0  0
  8  9  1  0  0  0
  9 10  2  0  0  0
  9 21  1  0  0  0
 10 11  1  0  0  0
 10 26  1  0  0  0
 11 12  1  0  0  0
 11 19  1  0  0  0
 12 13  1  0  0  0
 12 16  2  0  0  0
 13 14  2  0  0  0
 13 18  1  0  0  0
 14 15  1  0  0  0
 15 16  1  0  0  0
 16 17  1  0  0  0
 18 19  1  0  0  0
 19 20  2  0  0  0
 26 27  3  0  0  0
 15 22  1  0  0  0
 18 23  1  0  0  0
 21 24  1  0  0  0
 21 25  1  0  0  0
M  END
> <minimizedAffinity>
-7.76446

$$$$
596


 29 32  0  0  0  0  0  0  0  0999 V2000
   14.3392    3.1635   11.3543 C   0  0  0  0  0  0  0  0  0  0  0  0
   13.3164    3.3373   12.2729 C   0  0  0  0  0  0  0  0  0  0  0  0
   12.0866    2.7491   12.0662 C   0  0  0  0  0  0  0  0  0  0  0  0
   11.1984    2.9566   12.9520 O   0  0  0  0  0  0  0  0  0  0  0  0
   11.8661    2.0228   11.0137 O   0  0  0  0  0  0  0  0  0  0  0  0
   12.7659    1.8220   10.1295 C   0  0  0  0  0  0  0  0  0  0  0  0
   14.0497    2.3854   10.2606 C   0  0  0  0  0  0  0  0  0  0  0  0
   14.9942    2.1433    9.3062 C   0  0  0  0  0  0  0  0  0  0  0  0
   14.6353    1.3371    8.2204 C   0  0  0  0  0  0  0  0  0  0  0  0
   13.3662    0.8027    8.1191 C   0  0  0  0  0  0  0  0  0  0  0  0
   12.3902    1.0241    9.0646 C   0  0  0  0  0  0  0  0  0  0  0  0
   13.1065    0.0079    6.9816 O   0  0  0  0  0  0  0  0  0  0  0  0
   22.0114    2.7685   12.3909 Br  0  0  0  0  0  0  0  0  0  0  0  0
   20.3997    3.7307   12.1340 C   0  0  0  0  0  0  0  0  0  0  0  0
   19.1840    3.0835   12.0067 C   0  0  0  0  0  0  0  0  0  0  0  0
   17.9824    3.7446   11.8296 C   0  0  0  0  0  0  0  0  0  0  0  0
   18.0122    5.1234   11.7805 C   0  0  0  0  0  0  0  0  0  0  0  0
   19.2009    5.8276   11.9015 C   0  0  0  0  0  0  0  0  0  0  0  0
   20.3743    5.1315   12.0749 C   0  0  0  0  0  0  0  0  0  0  0  0
   16.8667    5.7864   11.6100 O   0  0  0  0  0  0  0  0  0  0  0  0
   15.7265    5.2038   11.4879 C   0  0  0  0  0  0  0  0  0  0  0  0
   14.6315    5.8274   11.3276 O   0  0  0  0  0  0  0  0  0  0  0  0
   15.6293    3.8291   11.5272 C   0  0  0  0  0  0  0  0  0  0  0  0
   16.7807    3.0947   11.6999 C   0  0  0  0  0  0  0  0  0  0  0  0
   11.0639    0.5164    8.8388 C   0  0  0  0  0  0  0  0  0  0  0  0
   10.7658   -0.8370    8.6032 N   0  0  0  0  0  0  0  0  0  0  0  0
   11.2672   -1.8021    9.5421 C   0  0  0  0  0  0  0  0  0  0  0  0
    9.3325   -1.0503    8.2765 C   0  0  0  0  0  0  0  0  0  0  0  0
   11.2510   -1.1057    7.6985 H   0  0  0  0  0  0  0  0  0  0  0  0
 13 14  1  0  0  0
 14 15  2  0  0  0
 14 19  1  0  0  0
 15 16  1  0  0  0
 16 17  2  0  0  0
 16 24  1  0  0  0
 17 18  1  0  0  0
 17 20  1  0  0  0
 18 19  2  0  0  0
 20 21  1  0  0  0
 21 22  2  0  0  0
 21 23  1  0  0  0
 23 24  2  0  0  0
 23  1  1  0  0  0
  1  2  2  0  0  0
  1  7  1  0  0  0
  2  3  1  0  0  0
  3  4  2  0  0  0
  3  5  1  0  0  0
  5  6  1  0  0  0
  6  7  2  0  0  0
  6 11  1  0  0  0
  7  8  1  0  0  0
  8  9  2  0  0  0
  9 10  1  0  0  0
 10 11  2  0  0  0
 10 12  1  0  0  0
 11 25  1  0  0  0
 25 26  1  0  0  0
 26 27  1  0  0  0
 26 28  1  0  0  0
 26 29  1  0  0  0
M  CHG 1  12  -1
M  CHG 1  26   1
M  END
> <minimizedAffinity>
-8.96967

$$$$
610


 32 35  0  0  0  0  0  0  0  0999 V2000
   14.3488    1.1187    7.6956 Br  0  0  0  0  0  0  0  0  0  0  0  0
   14.8838    2.0983    9.2432 C   0  0  0  0  0  0  0  0  0  0  0  0
   14.0058    2.9832    9.8628 C   0  0  0  0  0  0  0  0  0  0  0  0
   14.3938    3.6957   10.9892 C   0  0  0  0  0  0  0  0  0  0  0  0
   15.6609    3.5310   11.5058 C   0  0  0  0  0  0  0  0  0  0  0  0
   16.0405    4.2237   12.6092 N   0  0  0  0  0  0  0  0  0  0  0  0
   15.2095    5.0811   13.2281 C   0  0  0  0  0  0  0  0  0  0  0  0
   13.9833    5.2281   12.7124 N   0  0  0  0  0  0  0  0  0  0  0  0
   13.5402    4.5754   11.6222 C   0  0  0  0  0  0  0  0  0  0  0  0
   16.5188    2.6433   10.8694 C   0  0  0  0  0  0  0  0  0  0  0  0
   16.1542    1.9258    9.7510 C   0  0  0  0  0  0  0  0  0  0  0  0
   15.6452    5.7932   14.3930 N   0  0  0  0  0  0  0  0  0  0  0  0
   14.9538    7.0501   14.4892 C   0  0  0  0  0  0  0  0  0  0  0  0
   15.4308    8.0912   13.5345 C   0  0  0  0  0  0  0  0  0  0  0  0
   16.6912    7.7424   12.9175 N   0  0  0  0  0  0  0  0  0  0  0  0
   17.6596    7.0669   13.7532 C   0  0  0  0  0  0  0  0  0  0  0  0
   17.0680    5.9047   14.4888 C   0  0  0  0  0  0  0  0  0  0  0  0
   16.8987    8.0769   11.5576 C   0  0  0  0  0  0  0  0  0  0  0  0
   16.0124    8.6619   10.8971 O   0  0  0  0  0  0  0  0  0  0  0  0
   15.2885    5.2079   15.2067 H   0  0  0  0  0  0  0  0  0  0  0  0
   18.2164    7.6960   10.9714 C   0  0  0  0  0  0  0  0  0  0  0  0
   18.1979    6.2945   10.4403 C   0  0  0  0  0  0  0  0  0  0  0  0
   19.4091    5.5296   10.7740 C   0  0  0  0  0  0  0  0  0  0  0  0
   19.3517    4.4698   11.4316 O   0  0  0  0  0  0  0  0  0  0  0  0
   20.6385    5.9911   10.3506 O   0  0  0  0  0  0  0  0  0  0  0  0
   12.1871    4.8066   11.1427 C   0  0  0  0  0  0  0  0  0  0  0  0
   11.1441    3.9934   11.5644 C   0  0  0  0  0  0  0  0  0  0  0  0
    9.8467    4.1899   11.1424 C   0  0  0  0  0  0  0  0  0  0  0  0
    9.5288    5.2148   10.2753 C   0  0  0  0  0  0  0  0  0  0  0  0
   10.5739    6.0280    9.8542 C   0  0  0  0  0  0  0  0  0  0  0  0
   11.8678    5.8241   10.2806 C   0  0  0  0  0  0  0  0  0  0  0  0
   11.5206    2.6731   12.6739 Cl  0  0  0  0  0  0  0  0  0  0  0  0
  1  2  1  0  0  0
  2  3  2  0  0  0
  2 11  1  0  0  0
  3  4  1  0  0  0
  4  5  2  0  0  0
  4  9  1  0  0  0
  5  6  1  0  0  0
  5 10  1  0  0  0
  6  7  2  0  0  0
  7  8  1  0  0  0
  7 12  1  0  0  0
  8  9  2  0  0  0
  9 26  1  0  0  0
 26 27  2  0  0  0
 26 31  1  0  0  0
 27 28  1  0  0  0
 27 32  1  0  0  0
 28 29  2  0  0  0
 29 30  1  0  0  0
 30 31  2  0  0  0
 12 13  1  0  0  0
 12 17  1  0  0  0
 13 14  1  0  0  0
 14 15  1  0  0  0
 15 16  1  0  0  0
 15 18  1  0  0  0
 16 17  1  0  0  0
 18 19  2  0  0  0
 18 21  1  0  0  0
 21 22  1  0  0  0
 22 23  1  0  0  0
 23 24  2  0  0  0
 23 25  1  0  0  0
 10 11  2  0  0  0
 12 20  1  0  0  0
M  CHG 1  12   1
M  END
> <minimizedAffinity>
-7.22625

$$$$
611


 33 36  0  0  0  0  0  0  0  0999 V2000
   18.5153    3.0353   11.4913 Br  0  0  0  0  0  0  0  0  0  0  0  0
   16.7927    3.8163   11.7702 C   0  0  0  0  0  0  0  0  0  0  0  0
   15.6695    3.3785   11.0912 C   0  0  0  0  0  0  0  0  0  0  0  0
   14.4153    3.9202   11.2696 C   0  0  0  0  0  0  0  0  0  0  0  0
   14.2389    4.9567   12.1678 C   0  0  0  0  0  0  0  0  0  0  0  0
   13.0144    5.5095   12.3527 N   0  0  0  0  0  0  0  0  0  0  0  0
   11.9257    5.0882   11.6874 C   0  0  0  0  0  0  0  0  0  0  0  0
   12.0955    4.0791   10.8142 N   0  0  0  0  0  0  0  0  0  0  0  0
   13.2960    3.4937   10.5930 C   0  0  0  0  0  0  0  0  0  0  0  0
   15.3511    5.3988   12.8495 C   0  0  0  0  0  0  0  0  0  0  0  0
   16.6138    4.8487   12.6648 C   0  0  0  0  0  0  0  0  0  0  0  0
   10.6560    5.6920   11.9079 N   0  0  0  0  0  0  0  0  0  0  0  0
   10.2725    5.5999   13.2991 C   0  0  0  0  0  0  0  0  0  0  0  0
    9.1996    6.6082   13.5638 C   0  0  0  0  0  0  0  0  0  0  0  0
    8.6656    7.0603   12.2953 N   0  0  0  0  0  0  0  0  0  0  0  0
    8.3881    6.0477   11.2925 C   0  0  0  0  0  0  0  0  0  0  0  0
    9.5951    5.1173   11.1220 C   0  0  0  0  0  0  0  0  0  0  0  0
    8.4452    8.4337   12.0986 C   0  0  0  0  0  0  0  0  0  0  0  0
    7.9857    8.8012   10.9890 O   0  0  0  0  0  0  0  0  0  0  0  0
   10.7428    6.6944   11.6392 H   0  0  0  0  0  0  0  0  0  0  0  0
    8.7317    9.4326   13.1303 C   0  0  0  0  0  0  0  0  0  0  0  0
    7.4978   10.2384   13.4176 C   0  0  0  0  0  0  0  0  0  0  0  0
    6.3788    9.4025   13.9983 C   0  0  0  0  0  0  0  0  0  0  0  0
    5.0421    9.9884   13.7757 C   0  0  0  0  0  0  0  0  0  0  0  0
    4.9290   11.2308   13.8989 O   0  0  0  0  0  0  0  0  0  0  0  0
    3.9713    9.1719   13.4442 O   0  0  0  0  0  0  0  0  0  0  0  0
   13.4234    2.4065    9.6344 C   0  0  0  0  0  0  0  0  0  0  0  0
   12.4440    1.4352    9.4943 C   0  0  0  0  0  0  0  0  0  0  0  0
   12.5624    0.3859    8.6005 C   0  0  0  0  0  0  0  0  0  0  0  0
   13.7244    0.3292    7.8219 C   0  0  0  0  0  0  0  0  0  0  0  0
   14.7179    1.2790    7.9365 C   0  0  0  0  0  0  0  0  0  0  0  0
   14.5590    2.2914    8.8282 C   0  0  0  0  0  0  0  0  0  0  0  0
   10.9962    1.5302   10.4840 Cl  0  0  0  0  0  0  0  0  0  0  0  0
  1  2  1  0  0  0
  2  3  2  0  0  0
  2 11  1  0  0  0
  3  4  1  0  0  0
  4  5  2  0  0  0
  4  9  1  0  0  0
  5  6  1  0  0  0
  5 10  1  0  0  0
  6  7  2  0  0  0
  7  8  1  0  0  0
  7 12  1  0  0  0
  8  9  2  0  0  0
  9 27  1  0  0  0
 27 28  2  0  0  0
 27 32  1  0  0  0
 28 29  1  0  0  0
 28 33  1  0  0  0
 29 30  2  0  0  0
 30 31  1  0  0  0
 31 32  2  0  0  0
 12 13  1  0  0  0
 12 17  1  0  0  0
 13 14  1  0  0  0
 14 15  1  0  0  0
 15 16  1  0  0  0
 15 18  1  0  0  0
 16 17  1  0  0  0
 18 19  2  0  0  0
 18 21  1  0  0  0
 21 22  1  0  0  0
 22 23  1  0  0  0
 23 24  1  0  0  0
 24 25  2  0  0  0
 24 26  1  0  0  0
 10 11  2  0  0  0
 12 20  1  0  0  0
M  CHG 1  12   1
M  END
> <minimizedAffinity>
-9.67786

$$$$
616


 28 31  0  0  0  0  0  0  0  0999 V2000
   12.3662    3.5472   11.1840 C   0  0  0  0  0  0  0  0  0  0  0  0
   13.2391    3.3584   12.1144 O   0  0  0  0  0  0  0  0  0  0  0  0
   11.8384    4.8360   11.1024 N   0  0  0  0  0  0  0  0  0  0  0  0
   10.8456    5.2954   10.1689 C   0  0  0  0  0  0  0  0  0  0  0  0
   10.4586    6.7604   10.4099 C   0  0  0  0  0  0  0  0  0  0  0  0
   10.1923    6.9409   11.8287 N   0  0  0  0  0  0  0  0  0  0  0  0
   11.0883    6.3419   12.8189 C   0  0  0  0  0  0  0  0  0  0  0  0
   12.3251    5.8805   12.0429 C   0  0  0  0  0  0  0  0  0  0  0  0
    9.0777    7.6842   12.2751 C   0  0  0  0  0  0  0  0  0  0  0  0
    8.3292    8.1768   11.3973 O   0  0  0  0  0  0  0  0  0  0  0  0
    8.6510   -2.2645    7.4017 Br  0  0  0  0  0  0  0  0  0  0  0  0
    9.9895   -1.0274    8.0003 C   0  0  0  0  0  0  0  0  0  0  0  0
    9.7250   -0.0800    8.9554 C   0  0  0  0  0  0  0  0  0  0  0  0
   10.7056    0.8180    9.3857 C   0  0  0  0  0  0  0  0  0  0  0  0
   11.9623    0.7600    8.8487 C   0  0  0  0  0  0  0  0  0  0  0  0
   12.7256    1.7356    9.4316 N   0  0  0  0  0  0  0  0  0  0  0  0
   12.0193    2.4301   10.3275 C   0  0  0  0  0  0  0  0  0  0  0  0
   10.7313    1.8386   10.2932 C   0  0  0  0  0  0  0  0  0  0  0  0
   12.2374   -0.1923    7.8856 C   0  0  0  0  0  0  0  0  0  0  0  0
   11.2573   -1.0796    7.4643 C   0  0  0  0  0  0  0  0  0  0  0  0
   13.7141    1.8606    9.1691 H   0  0  0  0  0  0  0  0  0  0  0  0
    8.8487    7.8412   13.7026 C   0  0  0  0  0  0  0  0  0  0  0  0
    7.4604    7.9542   14.0912 N   0  0  0  0  0  0  0  0  0  0  0  0
    7.3916    8.3999   15.4846 C   0  0  0  0  0  0  0  0  0  0  0  0
    7.2103    7.2461   16.4088 C   0  0  0  0  0  0  0  0  0  0  0  0
    7.9020    6.1296   15.9453 O   0  0  0  0  0  0  0  0  0  0  0  0
    7.3108    5.6106   14.7911 C   0  0  0  0  0  0  0  0  0  0  0  0
    6.7264    6.7108   13.9351 C   0  0  0  0  0  0  0  0  0  0  0  0
 11 12  1  0  0  0
 12 13  2  0  0  0
 12 20  1  0  0  0
 13 14  1  0  0  0
 14 15  2  0  0  0
 14 18  1  0  0  0
 15 16  1  0  0  0
 15 19  1  0  0  0
 16 17  1  0  0  0
 17 18  2  0  0  0
 17  1  1  0  0  0
  1  2  2  0  0  0
  1  3  1  0  0  0
  3  4  1  0  0  0
  3  8  1  0  0  0
  4  5  1  0  0  0
  5  6  1  0  0  0
  6  7  1  0  0  0
  6  9  1  0  0  0
  7  8  1  0  0  0
  9 10  2  0  0  0
  9 22  1  0  0  0
 22 23  1  0  0  0
 23 24  1  0  0  0
 23 28  1  0  0  0
 24 25  1  0  0  0
 25 26  1  0  0  0
 26 27  1  0  0  0
 27 28  1  0  0  0
 19 20  2  0  0  0
 16 21  1  0  0  0
M  END
> <minimizedAffinity>
-9.07911

$$$$
617


 25 28  0  0  0  0  0  0  0  0999 V2000
   10.5309    0.6001    9.1142 Br  0  0  0  0  0  0  0  0  0  0  0  0
   12.3776    1.0473    9.2023 C   0  0  0  0  0  0  0  0  0  0  0  0
   12.8551    1.9496   10.1301 C   0  0  0  0  0  0  0  0  0  0  0  0
   14.1917    2.2848   10.2069 C   0  0  0  0  0  0  0  0  0  0  0  0
   15.0641    1.6874    9.3169 C   0  0  0  0  0  0  0  0  0  0  0  0
   16.2773    2.1880    9.6118 N   0  0  0  0  0  0  0  0  0  0  0  0
   16.2045    3.0672   10.6422 C   0  0  0  0  0  0  0  0  0  0  0  0
   14.8850    3.1416   11.0343 C   0  0  0  0  0  0  0  0  0  0  0  0
   14.5641    3.9625   12.0537 N   0  0  0  0  0  0  0  0  0  0  0  0
   15.4893    4.7031   12.6930 C   0  0  0  0  0  0  0  0  0  0  0  0
   16.7789    4.6505   12.3339 N   0  0  0  0  0  0  0  0  0  0  0  0
   17.1193    3.8401   11.3209 C   0  0  0  0  0  0  0  0  0  0  0  0
   18.3243    3.7781   10.9700 O   0  0  0  0  0  0  0  0  0  0  0  0
   14.5723    0.7855    8.3917 C   0  0  0  0  0  0  0  0  0  0  0  0
   13.2374    0.4448    8.3071 C   0  0  0  0  0  0  0  0  0  0  0  0
   17.1652    1.9508    9.1319 H   0  0  0  0  0  0  0  0  0  0  0  0
   17.7957    5.4597   13.0275 C   0  0  0  0  0  0  0  0  0  0  0  0
   17.6274    6.8934   12.7006 C   0  0  0  0  0  0  0  0  0  0  0  0
   18.5624    7.4578   11.7969 N   0  0  0  0  0  0  0  0  0  0  0  0
   18.0239    7.9027   10.5584 C   0  0  0  0  0  0  0  0  0  0  0  0
   18.1622    6.8997    9.4490 C   0  0  0  0  0  0  0  0  0  0  0  0
   19.4092    6.1681    9.5133 N   0  0  0  0  0  0  0  0  0  0  0  0
   20.3734    6.8452   10.3642 C   0  0  0  0  0  0  0  0  0  0  0  0
   19.8162    6.7937   11.7657 C   0  0  0  0  0  0  0  0  0  0  0  0
   19.2730    5.1775    9.8189 H   0  0  0  0  0  0  0  0  0  0  0  0
  1  2  1  0  0  0
  2  3  2  0  0  0
  2 15  1  0  0  0
  3  4  1  0  0  0
  4  5  2  0  0  0
  4  8  1  0  0  0
  5  6  1  0  0  0
  5 14  1  0  0  0
  6  7  1  0  0  0
  7  8  2  0  0  0
  7 12  1  0  0  0
  8  9  1  0  0  0
  9 10  2  0  0  0
 10 11  1  0  0  0
 11 12  1  0  0  0
 11 17  1  0  0  0
 12 13  2  0  0  0
 17 18  1  0  0  0
 18 19  1  0  0  0
 19 20  1  0  0  0
 19 24  1  0  0  0
 20 21  1  0  0  0
 21 22  1  0  0  0
 22 23  1  0  0  0
 23 24  1  0  0  0
 14 15  2  0  0  0
  6 16  1  0  0  0
 22 25  1  0  0  0
M  END
> <minimizedAffinity>
-7.60188

$$$$
624


 22 25  0  0  0  0  0  0  0  0999 V2000
    9.3858   -1.7045    7.8993 Br  0  0  0  0  0  0  0  0  0  0  0  0
   10.8010   -0.4900    8.2855 C   0  0  0  0  0  0  0  0  0  0  0  0
   12.0140   -0.6562    7.6508 C   0  0  0  0  0  0  0  0  0  0  0  0
   13.0745    0.2203    7.9137 C   0  0  0  0  0  0  0  0  0  0  0  0
   12.8699    1.2261    8.8022 C   0  0  0  0  0  0  0  0  0  0  0  0
   11.6772    1.4321    9.4604 C   0  0  0  0  0  0  0  0  0  0  0  0
   10.6543    0.5613    9.1873 C   0  0  0  0  0  0  0  0  0  0  0  0
   11.6093    2.4861   10.3320 C   0  0  0  0  0  0  0  0  0  0  0  0
   10.5396    2.6836   10.9314 O   0  0  0  0  0  0  0  0  0  0  0  0
   12.6812    3.3342   10.5668 C   0  0  0  0  0  0  0  0  0  0  0  0
   13.8453    3.0733    9.8766 C   0  0  0  0  0  0  0  0  0  0  0  0
   13.9236    2.0195    9.0020 N   0  0  0  0  0  0  0  0  0  0  0  0
   14.9959    1.5284    8.1657 C   0  0  0  0  0  0  0  0  0  0  0  0
   14.4612    0.3303    7.4293 C   0  0  0  0  0  0  0  0  0  0  0  0
   12.5918    4.4538   11.4982 C   0  0  0  0  0  0  0  0  0  0  0  0
   13.0854    4.3363   12.6431 O   0  0  0  0  0  0  0  0  0  0  0  0
   11.9482    5.6771   11.1158 N   0  0  0  0  0  0  0  0  0  0  0  0
   11.8452    6.8022   12.0202 C   0  0  0  0  0  0  0  0  0  0  0  0
   10.3558    7.1646   12.0787 C   0  0  0  0  0  0  0  0  0  0  0  0
    9.8824    7.3495   10.8020 O   0  0  0  0  0  0  0  0  0  0  0  0
    9.9022    6.2131   10.0212 C   0  0  0  0  0  0  0  0  0  0  0  0
   11.3691    5.8362    9.7967 C   0  0  0  0  0  0  0  0  0  0  0  0
  1  2  1  0  0  0
  2  3  2  0  0  0
  2  7  1  0  0  0
  3  4  1  0  0  0
  4  5  2  0  0  0
  4 14  1  0  0  0
  5  6  1  0  0  0
  5 12  1  0  0  0
  6  7  2  0  0  0
  6  8  1  0  0  0
  8  9  2  0  0  0
  8 10  1  0  0  0
 10 11  2  0  0  0
 10 15  1  0  0  0
 11 12  1  0  0  0
 12 13  1  0  0  0
 13 14  1  0  0  0
 15 16  2  0  0  0
 15 17  1  0  0  0
 17 18  1  0  0  0
 17 22  1  0  0  0
 18 19  1  0  0  0
 19 20  1  0  0  0
 20 21  1  0  0  0
 21 22  1  0  0  0
M  END
> <minimizedAffinity>
-8.21136

$$$$
625


 31 34  0  0  0  0  0  0  0  0999 V2000
   10.0228   -1.1303    8.4522 Br  0  0  0  0  0  0  0  0  0  0  0  0
   11.4628   -0.0412    8.9921 C   0  0  0  0  0  0  0  0  0  0  0  0
   11.3516    0.8137   10.0765 C   0  0  0  0  0  0  0  0  0  0  0  0
   12.3734    1.6247   10.4773 C   0  0  0  0  0  0  0  0  0  0  0  0
   12.4638    2.4762   11.5428 N   0  0  0  0  0  0  0  0  0  0  0  0
   13.7095    2.9820   11.5427 C   0  0  0  0  0  0  0  0  0  0  0  0
   14.4224    2.4614   10.4290 C   0  0  0  0  0  0  0  0  0  0  0  0
   13.5445    1.6124    9.8052 C   0  0  0  0  0  0  0  0  0  0  0  0
   13.6827    0.7573    8.7088 C   0  0  0  0  0  0  0  0  0  0  0  0
   12.6537   -0.0743    8.2915 C   0  0  0  0  0  0  0  0  0  0  0  0
   12.7646   -0.9523    7.1984 O   0  0  0  0  0  0  0  0  0  0  0  0
   11.9606   -1.5478    6.9525 H   0  0  0  0  0  0  0  0  0  0  0  0
   15.7385    2.8743    9.9237 C   0  0  0  0  0  0  0  0  0  0  0  0
   16.0694    2.4685    8.7773 O   0  0  0  0  0  0  0  0  0  0  0  0
   16.6234    3.6652   10.5774 O   0  0  0  0  0  0  0  0  0  0  0  0
   17.6712    3.3714   11.4296 C   0  0  0  0  0  0  0  0  0  0  0  0
   18.3016    4.5849   12.1017 C   0  0  0  0  0  0  0  0  0  0  0  0
   11.2573    2.9254   12.2646 C   0  0  0  0  0  0  0  0  0  0  0  0
   10.9203    4.3100   11.6656 C   0  0  0  0  0  0  0  0  0  0  0  0
   10.7772    5.3201   12.5718 C   0  0  0  0  0  0  0  0  0  0  0  0
   10.4824    6.6103   12.1006 C   0  0  0  0  0  0  0  0  0  0  0  0
   10.3399    6.8968   10.7758 C   0  0  0  0  0  0  0  0  0  0  0  0
   10.4996    5.8321    9.8884 C   0  0  0  0  0  0  0  0  0  0  0  0
   10.7887    4.5402   10.3450 C   0  0  0  0  0  0  0  0  0  0  0  0
   14.3582    3.8632   12.5134 C   0  0  0  0  0  0  0  0  0  0  0  0
   14.2396    5.2789   12.3512 N   0  0  0  0  0  0  0  0  0  0  0  0
   14.1343    6.0347   11.2313 C   0  0  0  0  0  0  0  0  0  0  0  0
   14.8513    7.3797   11.5017 C   0  0  0  0  0  0  0  0  0  0  0  0
   14.7212    7.4484   13.0213 C   0  0  0  0  0  0  0  0  0  0  0  0
   15.0552    5.9984   13.3442 C   0  0  0  0  0  0  0  0  0  0  0  0
   13.2111    5.4259   12.9106 H   0  0  0  0  0  0  0  0  0  0  0  0
  1  2  1  0  0  0
  2  3  2  0  0  0
  2 10  1  0  0  0
  3  4  1  0  0  0
  4  5  1  0  0  0
  4  8  2  0  0  0
  5  6  1  0  0  0
  5 18  1  0  0  0
  6  7  2  0  0  0
  6 25  1  0  0  0
  7  8  1  0  0  0
  7 13  1  0  0  0
  8  9  1  0  0  0
  9 10  2  0  0  0
 10 11  1  0  0  0
 13 14  2  0  0  0
 13 15  1  0  0  0
 15 16  1  0  0  0
 16 17  1  0  0  0
 25 26  1  0  0  0
 26 27  1  0  0  0
 26 30  1  0  0  0
 27 28  1  0  0  0
 28 29  1  0  0  0
 29 30  1  0  0  0
 18 19  1  0  0  0
 19 20  2  0  0  0
 19 24  1  0  0  0
 20 21  1  0  0  0
 21 22  2  0  0  0
 22 23  1  0  0  0
 23 24  2  0  0  0
 11 12  1  0  0  0
 26 31  1  0  0  0
M  CHG 1  26   1
M  END
> <minimizedAffinity>
-7.58472

$$$$
626


 32 35  0  0  0  0  0  0  0  0999 V2000
   10.8450    4.3095   11.0245 N   0  0  0  0  0  0  0  0  0  0  0  0
   10.3510    5.4453   10.3700 C   0  0  0  0  0  0  0  0  0  0  0  0
    9.9976    5.3775    9.1652 O   0  0  0  0  0  0  0  0  0  0  0  0
   11.1007    4.4608   12.0479 H   0  0  0  0  0  0  0  0  0  0  0  0
   13.7375    3.5387   11.1085 Br  0  0  0  0  0  0  0  0  0  0  0  0
   12.2900    2.4664   10.4492 C   0  0  0  0  0  0  0  0  0  0  0  0
   12.5636    1.2097    9.9594 C   0  0  0  0  0  0  0  0  0  0  0  0
   11.5543    0.4170    9.4705 C   0  0  0  0  0  0  0  0  0  0  0  0
   11.4653   -0.8160    8.9370 N   0  0  0  0  0  0  0  0  0  0  0  0
   10.1873   -1.1008    8.6238 C   0  0  0  0  0  0  0  0  0  0  0  0
    9.4862   -0.0097    8.9782 N   0  0  0  0  0  0  0  0  0  0  0  0
   10.2919    0.9380    9.4998 C   0  0  0  0  0  0  0  0  0  0  0  0
   10.0079    2.2176    9.9982 C   0  0  0  0  0  0  0  0  0  0  0  0
   11.0175    3.0140   10.4890 C   0  0  0  0  0  0  0  0  0  0  0  0
    9.7060   -2.2935    8.0486 O   0  0  0  0  0  0  0  0  0  0  0  0
    8.4402    0.1029    8.8675 H   0  0  0  0  0  0  0  0  0  0  0  0
    9.3857   -3.0033    8.7207 H   0  0  0  0  0  0  0  0  0  0  0  0
   10.2071    6.7590   11.0065 C   0  0  0  0  0  0  0  0  0  0  0  0
    8.9174    7.1755   11.3897 N   0  0  0  0  0  0  0  0  0  0  0  0
    8.0680    6.2347   12.0252 C   0  0  0  0  0  0  0  0  0  0  0  0
    6.5974    6.6484   11.9609 C   0  0  0  0  0  0  0  0  0  0  0  0
    6.4888    7.9432   12.4829 N   0  0  0  0  0  0  0  0  0  0  0  0
    7.6675    8.6466   12.8077 C   0  0  0  0  0  0  0  0  0  0  0  0
    8.8113    8.5196   11.8469 C   0  0  0  0  0  0  0  0  0  0  0  0
    5.3083    8.6314   12.2143 C   0  0  0  0  0  0  0  0  0  0  0  0
    4.2707    8.6760   13.2451 C   0  0  0  0  0  0  0  0  0  0  0  0
    3.2103    9.3419   12.9266 O   0  0  0  0  0  0  0  0  0  0  0  0
    4.2887    8.0943   14.5078 N   0  0  0  0  0  0  0  0  0  0  0  0
    5.1101    7.5372   14.8194 H   0  0  0  0  0  0  0  0  0  0  0  0
    3.1858    8.2070   15.4578 C   0  0  0  0  0  0  0  0  0  0  0  0
    3.3577    7.8155   16.8658 C   0  0  0  0  0  0  0  0  0  0  0  0
    3.2767    9.2888   16.5126 C   0  0  0  0  0  0  0  0  0  0  0  0
  5  6  1  0  0  0
  6  7  2  0  0  0
  6 14  1  0  0  0
  7  8  1  0  0  0
  8  9  1  0  0  0
  8 12  2  0  0  0
  9 10  2  0  0  0
 10 11  1  0  0  0
 10 15  1  0  0  0
 11 12  1  0  0  0
 12 13  1  0  0  0
 13 14  2  0  0  0
 14  1  1  0  0  0
  1  2  1  0  0  0
  2  3  2  0  0  0
  2 18  1  0  0  0
 18 19  1  0  0  0
 19 20  1  0  0  0
 19 24  1  0  0  0
 20 21  1  0  0  0
 21 22  1  0  0  0
 22 23  1  0  0  0
 22 25  1  0  0  0
 23 24  1  0  0  0
 25 26  1  0  0  0
 26 27  2  0  0  0
 26 28  1  0  0  0
 28 30  1  0  0  0
 30 31  1  0  0  0
 30 32  1  0  0  0
 31 32  1  0  0  0
 11 16  1  0  0  0
  1  4  1  0  0  0
 28 29  1  0  0  0
 15 17  1  0  0  0
M  END
> <minimizedAffinity>
-8.97512

$$$$
631


 29 32  0  0  0  0  0  0  0  0999 V2000
   11.7470    5.2212   11.5754 N   0  0  0  0  0  0  0  0  0  0  0  0
   10.4565    5.1870   12.2981 C   0  0  0  0  0  0  0  0  0  0  0  0
    9.6341    6.2424   11.5761 C   0  0  0  0  0  0  0  0  0  0  0  0
   10.6786    7.2603   11.1699 C   0  0  0  0  0  0  0  0  0  0  0  0
   12.0004    6.5879   11.2583 C   0  0  0  0  0  0  0  0  0  0  0  0
   13.1169    7.0980   11.0941 O   0  0  0  0  0  0  0  0  0  0  0  0
   11.0070   -1.1312    8.5579 Br  0  0  0  0  0  0  0  0  0  0  0  0
   11.4377    0.5234    9.4212 C   0  0  0  0  0  0  0  0  0  0  0  0
   12.7092    0.7480    9.9450 C   0  0  0  0  0  0  0  0  0  0  0  0
   12.9407    1.9613   10.5509 C   0  0  0  0  0  0  0  0  0  0  0  0
   14.0227    2.4926   11.1467 N   0  0  0  0  0  0  0  0  0  0  0  0
   13.7369    3.7157   11.5839 N   0  0  0  0  0  0  0  0  0  0  0  0
   12.4687    4.0453   11.2999 C   0  0  0  0  0  0  0  0  0  0  0  0
   11.9607    2.9121   10.6349 C   0  0  0  0  0  0  0  0  0  0  0  0
   10.7107    2.7026   10.1240 C   0  0  0  0  0  0  0  0  0  0  0  0
   10.4551    1.4990    9.5155 C   0  0  0  0  0  0  0  0  0  0  0  0
   14.4319    4.3091   12.0773 H   0  0  0  0  0  0  0  0  0  0  0  0
    8.6609    6.7277   12.5676 C   0  0  0  0  0  0  0  0  0  0  0  0
    7.8482    5.9473   13.1155 O   0  0  0  0  0  0  0  0  0  0  0  0
    8.6678    8.1118   12.8903 N   0  0  0  0  0  0  0  0  0  0  0  0
    9.3529    8.7240   12.4059 H   0  0  0  0  0  0  0  0  0  0  0  0
    7.7513    8.6708   13.8597 C   0  0  0  0  0  0  0  0  0  0  0  0
    6.8558    9.7384   13.2679 C   0  0  0  0  0  0  0  0  0  0  0  0
    5.8002    9.1337   12.4320 C   0  0  0  0  0  0  0  0  0  0  0  0
    6.0043    8.6758   11.1865 N   0  0  0  0  0  0  0  0  0  0  0  0
    4.8695    8.1842   10.6876 C   0  0  0  0  0  0  0  0  0  0  0  0
    3.9059    8.3288   11.6369 N   0  0  0  0  0  0  0  0  0  0  0  0
    4.4843    8.9072   12.6939 C   0  0  0  0  0  0  0  0  0  0  0  0
    2.9193    8.0186   11.4852 H   0  0  0  0  0  0  0  0  0  0  0  0
  7  8  1  0  0  0
  8  9  2  0  0  0
  8 16  1  0  0  0
  9 10  1  0  0  0
 10 11  2  0  0  0
 10 14  1  0  0  0
 11 12  1  0  0  0
 12 13  1  0  0  0
 13 14  2  0  0  0
 13  1  1  0  0  0
 14 15  1  0  0  0
 15 16  2  0  0  0
  1  2  1  0  0  0
  1  5  1  0  0  0
  2  3  1  0  0  0
  3  4  1  0  0  0
  3 18  1  0  0  0
  4  5  1  0  0  0
  5  6  2  0  0  0
 18 19  2  0  0  0
 18 20  1  0  0  0
 20 22  1  0  0  0
 22 23  1  0  0  0
 23 24  1  0  0  0
 24 25  1  0  0  0
 24 28  2  0  0  0
 25 26  2  0  0  0
 26 27  1  0  0  0
 27 28  1  0  0  0
 12 17  1  0  0  0
 20 21  1  0  0  0
 27 29  1  0  0  0
M  END
> <minimizedAffinity>
-8.57306

$$$$
648


 32 35  0  0  0  0  0  0  0  0999 V2000
   11.8662    3.4295   11.3317 C   0  0  0  0  0  0  0  0  0  0  0  0
   12.3570    3.2149   12.4983 O   0  0  0  0  0  0  0  0  0  0  0  0
   11.7126    4.7322   10.9376 N   0  0  0  0  0  0  0  0  0  0  0  0
   11.1718    5.1715    9.6888 C   0  0  0  0  0  0  0  0  0  0  0  0
    9.8203    5.7593    9.9308 C   0  0  0  0  0  0  0  0  0  0  0  0
    9.7044    6.2954   11.2792 N   0  0  0  0  0  0  0  0  0  0  0  0
   10.8265    6.6707   12.0735 C   0  0  0  0  0  0  0  0  0  0  0  0
   12.0914    5.8576   11.8166 C   0  0  0  0  0  0  0  0  0  0  0  0
    8.3522    6.3529   11.7592 C   0  0  0  0  0  0  0  0  0  0  0  0
    7.4359    5.8474   10.9854 O   0  0  0  0  0  0  0  0  0  0  0  0
   14.3280    1.4980   10.0320 Br  0  0  0  0  0  0  0  0  0  0  0  0
   12.4113    1.3477    9.9675 C   0  0  0  0  0  0  0  0  0  0  0  0
   11.6807    0.3722    9.3454 C   0  0  0  0  0  0  0  0  0  0  0  0
   10.3903    0.6547    9.5519 N   0  0  0  0  0  0  0  0  0  0  0  0
   10.3017    1.7466   10.2638 N   0  0  0  0  0  0  0  0  0  0  0  0
   11.5320    2.2521   10.5715 C   0  0  0  0  0  0  0  0  0  0  0  0
    9.3244   -0.1838    9.0170 C   0  0  0  0  0  0  0  0  0  0  0  0
    9.8353   -1.4553    8.3940 C   0  0  0  0  0  0  0  0  0  0  0  0
    7.9519    6.9131   13.0027 C   0  0  0  0  0  0  0  0  0  0  0  0
    7.6471    8.2585   13.1651 N   0  0  0  0  0  0  0  0  0  0  0  0
    7.3761    8.4994   14.4061 N   0  0  0  0  0  0  0  0  0  0  0  0
    7.4712    7.3980   15.1452 C   0  0  0  0  0  0  0  0  0  0  0  0
    7.8417    6.3829   14.2401 C   0  0  0  0  0  0  0  0  0  0  0  0
    7.6281    9.2473   12.1133 C   0  0  0  0  0  0  0  0  0  0  0  0
    7.2339    7.2120   16.5653 C   0  0  0  0  0  0  0  0  0  0  0  0
    7.9854    6.3600   17.1606 O   0  0  0  0  0  0  0  0  0  0  0  0
    6.2727    7.8716   17.3153 N   0  0  0  0  0  0  0  0  0  0  0  0
    6.1922    7.5729   18.7487 C   0  0  0  0  0  0  0  0  0  0  0  0
    4.7480    7.2006   19.0112 C   0  0  0  0  0  0  0  0  0  0  0  0
    4.0135    8.3797   18.7886 O   0  0  0  0  0  0  0  0  0  0  0  0
    3.9680    8.6554   17.4503 C   0  0  0  0  0  0  0  0  0  0  0  0
    5.3325    8.8127   16.7920 C   0  0  0  0  0  0  0  0  0  0  0  0
 11 12  1  0  0  0
 12 13  2  0  0  0
 12 16  1  0  0  0
 13 14  1  0  0  0
 14 15  1  0  0  0
 14 17  1  0  0  0
 15 16  2  0  0  0
 16  1  1  0  0  0
  1  2  2  0  0  0
  1  3  1  0  0  0
  3  4  1  0  0  0
  3  8  1  0  0  0
  4  5  1  0  0  0
  5  6  1  0  0  0
  6  7  1  0  0  0
  6  9  1  0  0  0
  7  8  1  0  0  0
  9 10  2  0  0  0
  9 19  1  0  0  0
 19 20  1  0  0  0
 19 23  2  0  0  0
 20 21  1  0  0  0
 20 24  1  0  0  0
 21 22  2  0  0  0
 22 23  1  0  0  0
 22 25  1  0  0  0
 25 26  2  0  0  0
 25 27  1  0  0  0
 27 28  1  0  0  0
 27 32  1  0  0  0
 28 29  1  0  0  0
 29 30  1  0  0  0
 30 31  1  0  0  0
 31 32  1  0  0  0
 17 18  1  0  0  0
M  END
> <minimizedAffinity>
-8.99746

$$$$
653


 29 32  0  0  0  0  0  0  0  0999 V2000
   12.1933    2.9636   11.4551 C   0  0  0  0  0  0  0  0  0  0  0  0
   11.5744    2.1363   10.5530 C   0  0  0  0  0  0  0  0  0  0  0  0
   12.3017    1.4178    9.6217 C   0  0  0  0  0  0  0  0  0  0  0  0
   13.6747    1.5118    9.5700 C   0  0  0  0  0  0  0  0  0  0  0  0
   14.3230    2.3583   10.4895 C   0  0  0  0  0  0  0  0  0  0  0  0
   13.6020    3.0691   11.4122 C   0  0  0  0  0  0  0  0  0  0  0  0
   14.2891    3.9388   12.3700 C   0  0  0  0  0  0  0  0  0  0  0  0
   15.6507    4.3949   12.0256 C   0  0  0  0  0  0  0  0  0  0  0  0
   16.4299    3.4170   11.2769 N   0  0  0  0  0  0  0  0  0  0  0  0
   15.7711    2.5142   10.3990 C   0  0  0  0  0  0  0  0  0  0  0  0
   16.4580    1.8634    9.5548 O   0  0  0  0  0  0  0  0  0  0  0  0
   17.8622    3.4416   11.4662 C   0  0  0  0  0  0  0  0  0  0  0  0
   11.3866    0.6944    8.8822 O   0  0  0  0  0  0  0  0  0  0  0  0
   10.1033    0.7997    9.4450 C   0  0  0  0  0  0  0  0  0  0  0  0
   10.1969    1.8613   10.3911 O   0  0  0  0  0  0  0  0  0  0  0  0
   14.4352    0.8072    8.6542 O   0  0  0  0  0  0  0  0  0  0  0  0
   14.2583    0.9858    7.2643 C   0  0  0  0  0  0  0  0  0  0  0  0
   11.4405    3.7773   12.4334 C   0  0  0  0  0  0  0  0  0  0  0  0
   11.0166    6.1820   11.6706 C   0  0  0  0  0  0  0  0  0  0  0  0
   12.1282    6.6423   12.0867 O   0  0  0  0  0  0  0  0  0  0  0  0
   10.6809    4.8544   11.8249 N   0  0  0  0  0  0  0  0  0  0  0  0
    9.7337    4.5325   11.4487 H   0  0  0  0  0  0  0  0  0  0  0  0
   10.0872    7.1369   11.0090 C   0  0  0  0  0  0  0  0  0  0  0  0
    5.8381    7.8207   14.3300 Br  0  0  0  0  0  0  0  0  0  0  0  0
    7.0340    7.2072   12.9739 C   0  0  0  0  0  0  0  0  0  0  0  0
    8.2871    7.6907   12.6755 C   0  0  0  0  0  0  0  0  0  0  0  0
    8.7762    6.9768   11.6668 N   0  0  0  0  0  0  0  0  0  0  0  0
    7.8600    6.0695   11.3378 N   0  0  0  0  0  0  0  0  0  0  0  0
    6.7690    6.1680   12.1121 C   0  0  0  0  0  0  0  0  0  0  0  0
 24 25  1  0  0  0
 25 26  2  0  0  0
 25 29  1  0  0  0
 26 27  1  0  0  0
 27 28  1  0  0  0
 27 23  1  0  0  0
 28 29  2  0  0  0
 23 19  1  0  0  0
 19 20  2  0  0  0
 19 21  1  0  0  0
 21 18  1  0  0  0
 18  1  1  0  0  0
  1  2  2  0  0  0
  1  6  1  0  0  0
  2  3  1  0  0  0
  2 15  1  0  0  0
  3  4  2  0  0  0
  3 13  1  0  0  0
  4  5  1  0  0  0
  4 16  1  0  0  0
  5  6  2  0  0  0
  5 10  1  0  0  0
  6  7  1  0  0  0
  7  8  1  0  0  0
  8  9  1  0  0  0
  9 10  1  0  0  0
  9 12  1  0  0  0
 10 11  2  0  0  0
 16 17  1  0  0  0
 13 14  1  0  0  0
 14 15  1  0  0  0
 21 22  1  0  0  0
M  END
> <minimizedAffinity>
-8.33237

$$$$
662


 25 29  0  0  0  0  0  0  0  0999 V2000
   10.6960    4.3985   10.8671 C   0  0  0  0  0  0  0  0  0  0  0  0
   11.9885    4.3458   10.5075 N   0  0  0  0  0  0  0  0  0  0  0  0
   12.2466    3.1944    9.8874 N   0  0  0  0  0  0  0  0  0  0  0  0
   11.0830    2.4839    9.8460 C   0  0  0  0  0  0  0  0  0  0  0  0
   10.1504    3.2435   10.4525 N   0  0  0  0  0  0  0  0  0  0  0  0
   11.0945    1.2427    9.2459 C   0  0  0  0  0  0  0  0  0  0  0  0
   12.2355    0.6946    8.6872 C   0  0  0  0  0  0  0  0  0  0  0  0
   11.9414   -0.5151    8.1815 N   0  0  0  0  0  0  0  0  0  0  0  0
   10.6558   -0.7310    8.4096 N   0  0  0  0  0  0  0  0  0  0  0  0
   10.1038    0.3168    9.0563 C   0  0  0  0  0  0  0  0  0  0  0  0
   13.3566    1.4303    8.7518 N   0  0  0  0  0  0  0  0  0  0  0  0
   13.3411    2.6392    9.3367 C   0  0  0  0  0  0  0  0  0  0  0  0
   12.5819   -1.1790    7.6963 H   0  0  0  0  0  0  0  0  0  0  0  0
    9.0209    7.4030   11.9890 N   0  0  0  0  0  0  0  0  0  0  0  0
    9.5483    6.6396   11.0480 N   0  0  0  0  0  0  0  0  0  0  0  0
   10.0364    5.4999   11.5665 C   0  0  0  0  0  0  0  0  0  0  0  0
    9.7875    5.5769   12.9206 C   0  0  0  0  0  0  0  0  0  0  0  0
    9.1443    6.7839   13.1753 C   0  0  0  0  0  0  0  0  0  0  0  0
    8.4013    8.7125   11.7688 C   0  0  0  0  0  0  0  0  0  0  0  0
    3.3809    9.0155   13.7069 Br  0  0  0  0  0  0  0  0  0  0  0  0
    4.8807    8.7390   12.5882 C   0  0  0  0  0  0  0  0  0  0  0  0
    6.2045    8.9495   12.9170 C   0  0  0  0  0  0  0  0  0  0  0  0
    6.9575    8.6354   11.8499 N   0  0  0  0  0  0  0  0  0  0  0  0
    6.1569    8.2411   10.8760 N   0  0  0  0  0  0  0  0  0  0  0  0
    4.8692    8.2881   11.2872 C   0  0  0  0  0  0  0  0  0  0  0  0
 20 21  1  0  0  0
 21 22  2  0  0  0
 21 25  1  0  0  0
 22 23  1  0  0  0
 23 24  1  0  0  0
 23 19  1  0  0  0
 24 25  2  0  0  0
 19 14  1  0  0  0
 14 15  1  0  0  0
 14 18  1  0  0  0
 15 16  2  0  0  0
 16 17  1  0  0  0
 16  1  1  0  0  0
 17 18  2  0  0  0
  1  2  2  0  0  0
  1  5  1  0  0  0
  2  3  1  0  0  0
  3  4  1  0  0  0
  3 12  1  0  0  0
  4  5  2  0  0  0
  4  6  1  0  0  0
  6  7  2  0  0  0
  6 10  1  0  0  0
  7  8  1  0  0  0
  7 11  1  0  0  0
  8  9  1  0  0  0
  9 10  2  0  0  0
 11 12  2  0  0  0
  8 13  1  0  0  0
M  END
> <minimizedAffinity>
-8.44819

$$$$
663


 28 31  0  0  0  0  0  0  0  0999 V2000
   17.0703    4.2759   11.6958 C   0  0  0  0  0  0  0  0  0  0  0  0
   17.8510    3.6612   12.5263 O   0  0  0  0  0  0  0  0  0  0  0  0
   17.2513    5.6454   11.6036 N   0  0  0  0  0  0  0  0  0  0  0  0
   16.6243    6.6350   10.7697 C   0  0  0  0  0  0  0  0  0  0  0  0
   15.5734    7.3287   11.6148 C   0  0  0  0  0  0  0  0  0  0  0  0
   16.0704    7.5045   13.0355 C   0  0  0  0  0  0  0  0  0  0  0  0
   15.6156    8.8004   13.4900 N   0  0  0  0  0  0  0  0  0  0  0  0
   14.2952    8.6488   13.9889 C   0  0  0  0  0  0  0  0  0  0  0  0
   13.4105    9.5503   14.1553 O   0  0  0  0  0  0  0  0  0  0  0  0
   14.1259    7.2535   14.2848 N   0  0  0  0  0  0  0  0  0  0  0  0
   15.3640    6.5899   13.9518 C   0  0  0  0  0  0  0  0  0  0  0  0
   15.7013    5.4691   14.3898 O   0  0  0  0  0  0  0  0  0  0  0  0
   17.5593    7.4556   13.1568 C   0  0  0  0  0  0  0  0  0  0  0  0
   18.2277    6.2679   12.5517 C   0  0  0  0  0  0  0  0  0  0  0  0
   16.1267    9.7042   13.4734 H   0  0  0  0  0  0  0  0  0  0  0  0
   13.2905    6.7593   14.6675 H   0  0  0  0  0  0  0  0  0  0  0  0
   14.1423    1.8334    9.7054 C   0  0  0  0  0  0  0  0  0  0  0  0
   13.8372    2.6371   10.7765 C   0  0  0  0  0  0  0  0  0  0  0  0
   14.7866    3.3976   11.4052 C   0  0  0  0  0  0  0  0  0  0  0  0
   16.1389    3.4130   11.0055 C   0  0  0  0  0  0  0  0  0  0  0  0
   16.4309    2.6056    9.9313 C   0  0  0  0  0  0  0  0  0  0  0  0
   15.4483    1.8298    9.2962 C   0  0  0  0  0  0  0  0  0  0  0  0
    9.4734   -0.7399    8.6909 Br  0  0  0  0  0  0  0  0  0  0  0  0
   11.2577   -0.0243    8.5833 C   0  0  0  0  0  0  0  0  0  0  0  0
   11.9018    0.7593    9.5155 C   0  0  0  0  0  0  0  0  0  0  0  0
   13.1369    1.0554    9.0727 N   0  0  0  0  0  0  0  0  0  0  0  0
   13.2637    0.4744    7.8985 N   0  0  0  0  0  0  0  0  0  0  0  0
   12.1608   -0.1885    7.5567 C   0  0  0  0  0  0  0  0  0  0  0  0
 23 24  1  0  0  0
 24 25  2  0  0  0
 24 28  1  0  0  0
 25 26  1  0  0  0
 26 27  1  0  0  0
 26 17  1  0  0  0
 27 28  2  0  0  0
 17 18  2  0  0  0
 17 22  1  0  0  0
 18 19  1  0  0  0
 19 20  2  0  0  0
 20 21  1  0  0  0
 20  1  1  0  0  0
 21 22  2  0  0  0
  1  2  2  0  0  0
  1  3  1  0  0  0
  3  4  1  0  0  0
  3 14  1  0  0  0
  4  5  1  0  0  0
  5  6  1  0  0  0
  6  7  1  0  0  0
  6 11  1  0  0  0
  6 13  1  0  0  0
  7  8  1  0  0  0
  8  9  2  0  0  0
  8 10  1  0  0  0
 10 11  1  0  0  0
 11 12  2  0  0  0
 13 14  1  0  0  0
  7 15  1  0  0  0
 10 16  1  0  0  0
M  END
> <minimizedAffinity>
-8.39125

$$$$
666


 28 31  0  0  0  0  0  0  0  0999 V2000
   12.4239    4.2176   10.3844 C   0  0  0  0  0  0  0  0  0  0  0  0
   13.4382    3.4752   10.7174 C   0  0  0  0  0  0  0  0  0  0  0  0
   13.1162    2.1122   10.2917 C   0  0  0  0  0  0  0  0  0  0  0  0
   13.8874    1.1169   10.4607 O   0  0  0  0  0  0  0  0  0  0  0  0
   11.8254    2.0588    9.6668 N   0  0  0  0  0  0  0  0  0  0  0  0
   11.3716    3.4107    9.7207 C   0  0  0  0  0  0  0  0  0  0  0  0
   10.2720    3.8395    9.2815 O   0  0  0  0  0  0  0  0  0  0  0  0
   11.1665    0.9201    9.1361 C   0  0  0  0  0  0  0  0  0  0  0  0
    9.8948    0.5495    9.4911 C   0  0  0  0  0  0  0  0  0  0  0  0
    9.2643   -0.5805    8.9295 C   0  0  0  0  0  0  0  0  0  0  0  0
    9.9188   -1.3518    7.9962 C   0  0  0  0  0  0  0  0  0  0  0  0
   11.1907   -0.9851    7.6376 C   0  0  0  0  0  0  0  0  0  0  0  0
   11.7992    0.1360    8.2037 C   0  0  0  0  0  0  0  0  0  0  0  0
   14.6537    3.8624   11.3615 N   0  0  0  0  0  0  0  0  0  0  0  0
   14.6124    4.6133   12.4771 C   0  0  0  0  0  0  0  0  0  0  0  0
   15.7893    5.0184   13.1306 C   0  0  0  0  0  0  0  0  0  0  0  0
   17.0204    4.6450   12.6249 C   0  0  0  0  0  0  0  0  0  0  0  0
   17.0365    3.8756   11.4813 C   0  0  0  0  0  0  0  0  0  0  0  0
   15.8662    3.5012   10.8754 C   0  0  0  0  0  0  0  0  0  0  0  0
   12.2377    5.6073   10.5743 N   0  0  0  0  0  0  0  0  0  0  0  0
   12.8618    6.2830   10.1342 H   0  0  0  0  0  0  0  0  0  0  0  0
    7.5859    7.3218   14.1683 Br  0  0  0  0  0  0  0  0  0  0  0  0
    9.0435    6.7997   13.0471 C   0  0  0  0  0  0  0  0  0  0  0  0
    9.9478    5.8439   13.4282 C   0  0  0  0  0  0  0  0  0  0  0  0
   10.9558    5.4896   12.6231 N   0  0  0  0  0  0  0  0  0  0  0  0
   11.1651    6.0305   11.3930 C   0  0  0  0  0  0  0  0  0  0  0  0
   10.2371    7.0081   11.0135 C   0  0  0  0  0  0  0  0  0  0  0  0
    9.1952    7.3905   11.8140 C   0  0  0  0  0  0  0  0  0  0  0  0
 22 23  1  0  0  0
 23 24  2  0  0  0
 23 28  1  0  0  0
 24 25  1  0  0  0
 25 26  2  0  0  0
 26 27  1  0  0  0
 26 20  1  0  0  0
 27 28  2  0  0  0
 20  1  1  0  0  0
  1  2  2  0  0  0
  1  6  1  0  0  0
  2  3  1  0  0  0
  2 14  1  0  0  0
  3  4  2  0  0  0
  3  5  1  0  0  0
  5  6  1  0  0  0
  5  8  1  0  0  0
  6  7  2  0  0  0
  8  9  2  0  0  0
  8 13  1  0  0  0
  9 10  1  0  0  0
 10 11  2  0  0  0
 11 12  1  0  0  0
 12 13  2  0  0  0
 14 15  2  0  0  0
 14 19  1  0  0  0
 15 16  1  0  0  0
 16 17  2  0  0  0
 17 18  1  0  0  0
 18 19  2  0  0  0
 20 21  1  0  0  0
M  END
> <minimizedAffinity>
-9.20163

$$$$
670


 23 26  0  0  0  0  0  0  0  0999 V2000
   13.1191    3.5229   10.2488 C   0  0  0  0  0  0  0  0  0  0  0  0
   12.9688    2.3442    9.4369 N   0  0  0  0  0  0  0  0  0  0  0  0
   11.7650    1.6397    9.4327 N   0  0  0  0  0  0  0  0  0  0  0  0
   11.5693    0.4713    8.6480 C   0  0  0  0  0  0  0  0  0  0  0  0
   10.4101   -0.1574    8.6810 C   0  0  0  0  0  0  0  0  0  0  0  0
    9.0162   -0.3952    9.1057 C   0  0  0  0  0  0  0  0  0  0  0  0
    9.6035   -1.3285    8.1572 C   0  0  0  0  0  0  0  0  0  0  0  0
   12.6388   -0.0342    7.8099 C   0  0  0  0  0  0  0  0  0  0  0  0
   13.7901    0.6179    7.7985 C   0  0  0  0  0  0  0  0  0  0  0  0
   14.0035    1.8339    8.6098 C   0  0  0  0  0  0  0  0  0  0  0  0
   15.1094    2.4363    8.5808 O   0  0  0  0  0  0  0  0  0  0  0  0
   10.9872    2.0164   10.0492 H   0  0  0  0  0  0  0  0  0  0  0  0
   10.6470    5.6597   11.0480 N   0  0  0  0  0  0  0  0  0  0  0  0
   11.6091    4.8917   11.7844 C   0  0  0  0  0  0  0  0  0  0  0  0
   11.7548    4.0767   10.5146 C   0  0  0  0  0  0  0  0  0  0  0  0
   11.4830    5.4458    9.9011 C   0  0  0  0  0  0  0  0  0  0  0  0
    5.4314    8.5471   12.3031 Br  0  0  0  0  0  0  0  0  0  0  0  0
    7.0760    7.6526   11.9093 C   0  0  0  0  0  0  0  0  0  0  0  0
    7.1061    6.2864   11.7443 C   0  0  0  0  0  0  0  0  0  0  0  0
    8.2567    5.6861   11.4716 N   0  0  0  0  0  0  0  0  0  0  0  0
    9.4445    6.3144   11.3353 C   0  0  0  0  0  0  0  0  0  0  0  0
    9.4076    7.6697   11.5012 N   0  0  0  0  0  0  0  0  0  0  0  0
    8.2692    8.3302   11.7782 C   0  0  0  0  0  0  0  0  0  0  0  0
 17 18  1  0  0  0
 18 19  2  0  0  0
 18 23  1  0  0  0
 19 20  1  0  0  0
 20 21  2  0  0  0
 21 22  1  0  0  0
 21 13  1  0  0  0
 22 23  2  0  0  0
 13 14  1  0  0  0
 13 16  1  0  0  0
 14 15  1  0  0  0
 15 16  1  0  0  0
 15  1  1  0  0  0
  1  2  1  0  0  0
  2  3  1  0  0  0
  2 10  1  0  0  0
  3  4  1  0  0  0
  4  5  2  0  0  0
  4  8  1  0  0  0
  5  6  1  0  0  0
  5  7  1  0  0  0
  6  7  1  0  0  0
  8  9  2  0  0  0
  9 10  1  0  0  0
 10 11  2  0  0  0
  3 12  1  0  0  0
M  END
> <minimizedAffinity>
-8.45419

$$$$
677


 29 32  0  0  0  0  0  0  0  0999 V2000
   12.2497    3.1810   11.2728 C   0  0  0  0  0  0  0  0  0  0  0  0
   11.5501    2.2798   10.3938 C   0  0  0  0  0  0  0  0  0  0  0  0
   12.2389    1.5405    9.5037 C   0  0  0  0  0  0  0  0  0  0  0  0
   13.6400    1.6299    9.4136 C   0  0  0  0  0  0  0  0  0  0  0  0
   14.3231    2.4858   10.2429 C   0  0  0  0  0  0  0  0  0  0  0  0
   13.6154    3.2638   11.1731 C   0  0  0  0  0  0  0  0  0  0  0  0
   14.3274    4.2628   12.0109 C   0  0  0  0  0  0  0  0  0  0  0  0
   15.7092    4.6314   11.4813 C   0  0  0  0  0  0  0  0  0  0  0  0
   16.4664    3.4611   11.1039 N   0  0  0  0  0  0  0  0  0  0  0  0
   15.7791    2.5817   10.2030 C   0  0  0  0  0  0  0  0  0  0  0  0
   16.4905    1.9283    9.4123 O   0  0  0  0  0  0  0  0  0  0  0  0
   17.8026    3.2000   11.5945 C   0  0  0  0  0  0  0  0  0  0  0  0
   14.2545    0.8575    8.4997 O   0  0  0  0  0  0  0  0  0  0  0  0
   11.3043    0.7694    8.7954 O   0  0  0  0  0  0  0  0  0  0  0  0
   10.0430    0.8464    9.4250 C   0  0  0  0  0  0  0  0  0  0  0  0
   10.1913    1.9816   10.2549 O   0  0  0  0  0  0  0  0  0  0  0  0
   15.1821    0.7575    8.2666 H   0  0  0  0  0  0  0  0  0  0  0  0
   11.3350    3.8697   12.1582 C   0  0  0  0  0  0  0  0  0  0  0  0
    9.8444    5.7293   12.6427 C   0  0  0  0  0  0  0  0  0  0  0  0
   10.5422    5.9483   13.6471 O   0  0  0  0  0  0  0  0  0  0  0  0
   10.2122    4.6008   11.7629 N   0  0  0  0  0  0  0  0  0  0  0  0
    9.5862    4.5446   10.9464 H   0  0  0  0  0  0  0  0  0  0  0  0
    7.4479   10.4915   12.5421 Br  0  0  0  0  0  0  0  0  0  0  0  0
    7.5151    8.6081   12.2331 C   0  0  0  0  0  0  0  0  0  0  0  0
    6.4513    7.9581   11.6925 C   0  0  0  0  0  0  0  0  0  0  0  0
    6.4839    6.6448   11.4713 N   0  0  0  0  0  0  0  0  0  0  0  0
    7.5836    5.9451   11.7857 C   0  0  0  0  0  0  0  0  0  0  0  0
    8.7014    6.5579   12.3410 C   0  0  0  0  0  0  0  0  0  0  0  0
    8.6758    7.9142   12.5722 C   0  0  0  0  0  0  0  0  0  0  0  0
 23 24  1  0  0  0
 24 25  2  0  0  0
 24 29  1  0  0  0
 25 26  1  0  0  0
 26 27  2  0  0  0
 27 28  1  0  0  0
 28 29  2  0  0  0
 28 19  1  0  0  0
 19 20  2  0  0  0
 19 21  1  0  0  0
 21 18  1  0  0  0
 18  1  1  0  0  0
  1  2  2  0  0  0
  1  6  1  0  0  0
  2  3  1  0  0  0
  2 16  1  0  0  0
  3  4  2  0  0  0
  3 14  1  0  0  0
  4  5  1  0  0  0
  4 13  1  0  0  0
  5  6  2  0  0  0
  5 10  1  0  0  0
  6  7  1  0  0  0
  7  8  1  0  0  0
  8  9  1  0  0  0
  9 10  1  0  0  0
  9 12  1  0  0  0
 10 11  2  0  0  0
 14 15  1  0  0  0
 15 16  1  0  0  0
 21 22  1  0  0  0
 13 17  1  0  0  0
M  END
> <minimizedAffinity>
-9.21428

$$$$
680


 24 27  0  0  0  0  0  0  0  0999 V2000
   11.3726    4.5535    9.9385 C   0  0  0  0  0  0  0  0  0  0  0  0
   12.2028    5.2714    9.2687 O   0  0  0  0  0  0  0  0  0  0  0  0
   10.3738    5.2288   10.6647 N   0  0  0  0  0  0  0  0  0  0  0  0
    9.2791    4.9413   11.5381 C   0  0  0  0  0  0  0  0  0  0  0  0
    9.4956    6.3353   12.1540 C   0  0  0  0  0  0  0  0  0  0  0  0
   10.0078    6.6535   10.8006 C   0  0  0  0  0  0  0  0  0  0  0  0
    8.2555    6.9408   12.5545 N   0  0  0  0  0  0  0  0  0  0  0  0
    6.9800    6.8903   11.8880 C   0  0  0  0  0  0  0  0  0  0  0  0
    6.6189    5.9881   11.1128 O   0  0  0  0  0  0  0  0  0  0  0  0
    6.2428    8.1214   12.3377 C   0  0  0  0  0  0  0  0  0  0  0  0
    6.6606    8.1647   13.7885 C   0  0  0  0  0  0  0  0  0  0  0  0
    6.4889    9.5426   14.3652 C   0  0  0  0  0  0  0  0  0  0  0  0
    7.3051   10.5138   13.5885 C   0  0  0  0  0  0  0  0  0  0  0  0
    7.3932   10.3376   12.2861 C   0  0  0  0  0  0  0  0  0  0  0  0
    6.7532    9.2586   11.5204 C   0  0  0  0  0  0  0  0  0  0  0  0
    8.0680    7.7257   13.7268 C   0  0  0  0  0  0  0  0  0  0  0  0
    8.9217    8.0268   14.5971 O   0  0  0  0  0  0  0  0  0  0  0  0
    9.4893   -0.4192    8.9906 Br  0  0  0  0  0  0  0  0  0  0  0  0
   10.8471    0.8376    9.4383 C   0  0  0  0  0  0  0  0  0  0  0  0
   12.1221    0.3880    9.6861 C   0  0  0  0  0  0  0  0  0  0  0  0
   13.1026    1.2707   10.0052 N   0  0  0  0  0  0  0  0  0  0  0  0
   12.8518    2.5819   10.0872 C   0  0  0  0  0  0  0  0  0  0  0  0
   11.5828    3.1277    9.8516 C   0  0  0  0  0  0  0  0  0  0  0  0
   10.6171    2.2013    9.5296 C   0  0  0  0  0  0  0  0  0  0  0  0
 18 19  1  0  0  0
 19 20  2  0  0  0
 19 24  1  0  0  0
 20 21  1  0  0  0
 21 22  2  0  0  0
 22 23  1  0  0  0
 23 24  2  0  0  0
 23  1  1  0  0  0
  1  2  2  0  0  0
  1  3  1  0  0  0
  3  4  1  0  0  0
  3  6  1  0  0  0
  4  5  1  0  0  0
  5  6  1  0  0  0
  5  7  1  0  0  0
  7  8  1  0  0  0
  7 16  1  0  0  0
  8  9  2  0  0  0
  8 10  1  0  0  0
 10 11  1  0  0  0
 10 15  1  0  0  0
 11 12  1  0  0  0
 11 16  1  0  0  0
 12 13  1  0  0  0
 13 14  2  0  0  0
 14 15  1  0  0  0
 16 17  2  0  0  0
M  END
> <minimizedAffinity>
-8.60405

$$$$
681


 25 28  0  0  0  0  0  0  0  0999 V2000
   11.1334    3.0643   11.5670 C   0  0  0  0  0  0  0  0  0  0  0  0
   11.4887    2.6877   12.7268 O   0  0  0  0  0  0  0  0  0  0  0  0
   10.5432    4.3262   11.4238 N   0  0  0  0  0  0  0  0  0  0  0  0
   10.0040    5.1969   10.4132 C   0  0  0  0  0  0  0  0  0  0  0  0
    9.8748    6.3561   11.3898 C   0  0  0  0  0  0  0  0  0  0  0  0
   10.2067    5.3415   12.4415 C   0  0  0  0  0  0  0  0  0  0  0  0
   14.7495    0.9920    8.2639 Br  0  0  0  0  0  0  0  0  0  0  0  0
   12.9486    1.1737    8.9111 C   0  0  0  0  0  0  0  0  0  0  0  0
   11.9538    0.4493    8.2954 C   0  0  0  0  0  0  0  0  0  0  0  0
   10.7090    0.5925    8.7638 N   0  0  0  0  0  0  0  0  0  0  0  0
   10.4123    1.4179    9.8097 C   0  0  0  0  0  0  0  0  0  0  0  0
   11.3597    2.1642   10.4640 C   0  0  0  0  0  0  0  0  0  0  0  0
   12.6656    2.0063    9.9639 C   0  0  0  0  0  0  0  0  0  0  0  0
    8.6234    6.9608   11.4894 O   0  0  0  0  0  0  0  0  0  0  0  0
    8.3180    8.0798   12.2367 C   0  0  0  0  0  0  0  0  0  0  0  0
    9.2932    8.7666   12.8262 C   0  0  0  0  0  0  0  0  0  0  0  0
    9.0350    9.9562   13.6276 C   0  0  0  0  0  0  0  0  0  0  0  0
   10.0282   10.6151   14.1983 C   0  0  0  0  0  0  0  0  0  0  0  0
    7.6840   10.3723   13.7685 N   0  0  0  0  0  0  0  0  0  0  0  0
    6.6525    9.6109   13.1217 C   0  0  0  0  0  0  0  0  0  0  0  0
    6.9559    8.5244   12.3973 N   0  0  0  0  0  0  0  0  0  0  0  0
    5.8251    8.0018   11.9116 N   0  0  0  0  0  0  0  0  0  0  0  0
    4.8198    8.7723   12.3416 C   0  0  0  0  0  0  0  0  0  0  0  0
    5.3250    9.7616   13.0852 N   0  0  0  0  0  0  0  0  0  0  0  0
    7.4890   11.2152   14.3345 H   0  0  0  0  0  0  0  0  0  0  0  0
  7  8  1  0  0  0
  8  9  2  0  0  0
  8 13  1  0  0  0
  9 10  1  0  0  0
 10 11  2  0  0  0
 11 12  1  0  0  0
 12 13  2  0  0  0
 12  1  1  0  0  0
  1  2  2  0  0  0
  1  3  1  0  0  0
  3  4  1  0  0  0
  3  6  1  0  0  0
  4  5  1  0  0  0
  5  6  1  0  0  0
  5 14  1  0  0  0
 14 15  1  0  0  0
 15 16  2  0  0  0
 15 21  1  0  0  0
 16 17  1  0  0  0
 17 18  2  0  0  0
 17 19  1  0  0  0
 19 20  1  0  0  0
 20 21  1  0  0  0
 20 24  2  0  0  0
 21 22  1  0  0  0
 22 23  2  0  0  0
 23 24  1  0  0  0
 19 25  1  0  0  0
M  END
> <minimizedAffinity>
-8.50886

$$$$
683


 20 22  0  0  0  0  0  0  0  0999 V2000
   10.5100    1.6516    9.2323 N   0  0  0  0  0  0  0  0  0  0  0  0
    9.9963    0.2919    9.2125 C   0  0  0  0  0  0  0  0  0  0  0  0
   11.0997   -0.7346    9.3362 C   0  0  0  0  0  0  0  0  0  0  0  0
   11.6194   -1.1084    7.9591 C   0  0  0  0  0  0  0  0  0  0  0  0
   12.4856   -0.0053    7.3941 C   0  0  0  0  0  0  0  0  0  0  0  0
   12.8287    0.9447    8.4641 C   0  0  0  0  0  0  0  0  0  0  0  0
   11.9539    1.6546    9.2508 C   0  0  0  0  0  0  0  0  0  0  0  0
   12.4332    2.4811   10.1839 N   0  0  0  0  0  0  0  0  0  0  0  0
   13.7437    2.6470   10.3832 C   0  0  0  0  0  0  0  0  0  0  0  0
   14.6350    1.9489    9.6094 C   0  0  0  0  0  0  0  0  0  0  0  0
   14.1684    1.0877    8.6372 C   0  0  0  0  0  0  0  0  0  0  0  0
   15.1197    0.3668    7.8377 N   0  0  0  0  0  0  0  0  0  0  0  0
   16.0109    2.0833    9.7741 C   0  0  0  0  0  0  0  0  0  0  0  0
   16.4603    2.9441   10.7441 C   0  0  0  0  0  0  0  0  0  0  0  0
   15.5669    3.6425   11.5186 C   0  0  0  0  0  0  0  0  0  0  0  0
   14.1909    3.5000   11.3454 C   0  0  0  0  0  0  0  0  0  0  0  0
   10.0573    2.2775   10.4699 C   0  0  0  0  0  0  0  0  0  0  0  0
   10.1553    2.1873    8.4073 H   0  0  0  0  0  0  0  0  0  0  0  0
   15.1705   -0.6618    7.9052 H   0  0  0  0  0  0  0  0  0  0  0  0
   15.7665    0.8678    7.1861 H   0  0  0  0  0  0  0  0  0  0  0  0
  1  2  1  0  0  0
  1  7  1  0  0  0
  1 17  1  0  0  0
  2  3  1  0  0  0
  3  4  1  0  0  0
  4  5  1  0  0  0
  5  6  1  0  0  0
  6  7  2  0  0  0
  6 11  1  0  0  0
  7  8  1  0  0  0
  8  9  2  0  0  0
  9 10  1  0  0  0
  9 16  1  0  0  0
 10 11  2  0  0  0
 10 13  1  0  0  0
 11 12  1  0  0  0
 13 14  2  0  0  0
 14 15  1  0  0  0
 15 16  2  0  0  0
  1 18  1  0  0  0
 12 19  1  0  0  0
 12 20  1  0  0  0
M  CHG 1   1   1
M  END
> <minimizedAffinity>
-8.66422

$$$$
684


 19 21  0  0  0  0  0  0  0  0999 V2000
   12.9359    2.8753   11.8614 N   0  0  0  0  0  0  0  0  0  0  0  0
   13.7519    3.9481   11.2631 C   0  0  0  0  0  0  0  0  0  0  0  0
   15.1449    3.4417   11.0809 C   0  0  0  0  0  0  0  0  0  0  0  0
   15.1267    2.2624   10.1459 C   0  0  0  0  0  0  0  0  0  0  0  0
   13.7955    1.6704    9.9339 C   0  0  0  0  0  0  0  0  0  0  0  0
   12.7354    1.9630   10.7626 C   0  0  0  0  0  0  0  0  0  0  0  0
   11.5583    1.3920   10.5156 N   0  0  0  0  0  0  0  0  0  0  0  0
   11.3421    0.5367    9.4935 C   0  0  0  0  0  0  0  0  0  0  0  0
   12.3810    0.2206    8.6435 C   0  0  0  0  0  0  0  0  0  0  0  0
   13.6172    0.7880    8.8600 C   0  0  0  0  0  0  0  0  0  0  0  0
   14.6865    0.4594    7.9808 N   0  0  0  0  0  0  0  0  0  0  0  0
   12.1609   -0.6636    7.5856 C   0  0  0  0  0  0  0  0  0  0  0  0
   10.9328   -1.2411    7.3513 C   0  0  0  0  0  0  0  0  0  0  0  0
    9.8971   -0.9216    8.2057 C   0  0  0  0  0  0  0  0  0  0  0  0
   10.1147   -0.0434    9.2567 C   0  0  0  0  0  0  0  0  0  0  0  0
   11.6918    3.4989   12.2638 C   0  0  0  0  0  0  0  0  0  0  0  0
   13.4369    2.4326   12.6496 H   0  0  0  0  0  0  0  0  0  0  0  0
   14.6259    0.8275    7.0060 H   0  0  0  0  0  0  0  0  0  0  0  0
   15.5065   -0.1096    8.2354 H   0  0  0  0  0  0  0  0  0  0  0  0
  1  2  1  0  0  0
  1  6  1  0  0  0
  1 16  1  0  0  0
  2  3  1  0  0  0
  3  4  1  0  0  0
  4  5  1  0  0  0
  5  6  2  0  0  0
  5 10  1  0  0  0
  6  7  1  0  0  0
  7  8  2  0  0  0
  8  9  1  0  0  0
  8 15  1  0  0  0
  9 10  2  0  0  0
  9 12  1  0  0  0
 10 11  1  0  0  0
 12 13  2  0  0  0
 13 14  1  0  0  0
 14 15  2  0  0  0
  1 17  1  0  0  0
 11 18  1  0  0  0
 11 19  1  0  0  0
M  CHG 1   1   1
M  END
> <minimizedAffinity>
-8.21865

$$$$
692


 29 32  0  0  0  0  0  0  0  0999 V2000
   16.9460    8.5483   11.3102 Br  0  0  0  0  0  0  0  0  0  0  0  0
   16.5672    6.7049   11.5711 C   0  0  0  0  0  0  0  0  0  0  0  0
   15.2531    6.2791   11.6047 C   0  0  0  0  0  0  0  0  0  0  0  0
   14.9047    4.9334   11.7952 C   0  0  0  0  0  0  0  0  0  0  0  0
   15.9006    4.0023   11.9542 C   0  0  0  0  0  0  0  0  0  0  0  0
   17.2167    4.4215   11.9215 C   0  0  0  0  0  0  0  0  0  0  0  0
   17.5594    5.7427   11.7346 C   0  0  0  0  0  0  0  0  0  0  0  0
   18.6227    3.1573   12.1381 Br  0  0  0  0  0  0  0  0  0  0  0  0
   13.5031    4.5348   11.8372 C   0  0  0  0  0  0  0  0  0  0  0  0
   13.2572    3.4516   12.4353 O   0  0  0  0  0  0  0  0  0  0  0  0
   12.4434    5.3315   11.2291 C   0  0  0  0  0  0  0  0  0  0  0  0
   13.0532    6.6696   10.7333 C   0  0  0  0  0  0  0  0  0  0  0  0
   14.1467    7.0978   11.4590 O   0  0  0  0  0  0  0  0  0  0  0  0
   11.7748    4.7906   10.0500 C   0  0  0  0  0  0  0  0  0  0  0  0
   11.6785    3.4536    9.6873 N   0  0  0  0  0  0  0  0  0  0  0  0
   10.8784    2.5435   10.4456 C   0  0  0  0  0  0  0  0  0  0  0  0
   10.4982    1.3959    9.4750 C   0  0  0  0  0  0  0  0  0  0  0  0
   11.7697    0.5927    9.2970 C   0  0  0  0  0  0  0  0  0  0  0  0
   12.9923    1.3752    9.7222 C   0  0  0  0  0  0  0  0  0  0  0  0
   12.9214    2.8190    9.2732 C   0  0  0  0  0  0  0  0  0  0  0  0
   11.1321    3.4886    8.7491 H   0  0  0  0  0  0  0  0  0  0  0  0
   11.4166    5.6408   12.3074 C   0  0  0  0  0  0  0  0  0  0  0  0
   11.0631    7.0379   12.3636 N   0  0  0  0  0  0  0  0  0  0  0  0
   10.8204    7.3806   13.7577 C   0  0  0  0  0  0  0  0  0  0  0  0
    9.8090    6.4393   14.3225 C   0  0  0  0  0  0  0  0  0  0  0  0
    8.5429    6.3357   13.5544 C   0  0  0  0  0  0  0  0  0  0  0  0
    8.6784    6.4493   12.0752 C   0  0  0  0  0  0  0  0  0  0  0  0
    9.8188    7.3657   11.6919 C   0  0  0  0  0  0  0  0  0  0  0  0
   11.7933    7.6351   11.9367 H   0  0  0  0  0  0  0  0  0  0  0  0
  1  2  1  0  0  0
  2  3  2  0  0  0
  2  7  1  0  0  0
  3  4  1  0  0  0
  3 13  1  0  0  0
  4  5  2  0  0  0
  4  9  1  0  0  0
  5  6  1  0  0  0
  6  7  2  0  0  0
  6  8  1  0  0  0
  9 10  2  0  0  0
  9 11  1  0  0  0
 11 12  1  0  0  0
 11 14  1  0  0  0
 11 22  1  0  0  0
 12 13  1  0  0  0
 14 15  1  0  0  0
 15 16  1  0  0  0
 15 20  1  0  0  0
 16 17  1  0  0  0
 17 18  1  0  0  0
 18 19  1  0  0  0
 19 20  1  0  0  0
 22 23  1  0  0  0
 23 24  1  0  0  0
 23 28  1  0  0  0
 24 25  1  0  0  0
 25 26  1  0  0  0
 26 27  1  0  0  0
 27 28  1  0  0  0
 15 21  1  0  0  0
 23 29  1  0  0  0
M  CHG 1  15   1
M  CHG 1  23   1
M  END
> <minimizedAffinity>
-7.52162

$$$$
693


 33 36  0  0  0  0  0  0  0  0999 V2000
   10.1354    5.8474   11.8610 N   0  0  0  0  0  0  0  0  0  0  0  0
    8.9540    6.6219   11.8648 C   0  0  0  0  0  0  0  0  0  0  0  0
    7.9116    6.1894   11.3308 O   0  0  0  0  0  0  0  0  0  0  0  0
   11.0394    6.1444   12.2862 H   0  0  0  0  0  0  0  0  0  0  0  0
   14.8263    1.0544    8.6094 Br  0  0  0  0  0  0  0  0  0  0  0  0
   12.9999    1.3565    9.0956 C   0  0  0  0  0  0  0  0  0  0  0  0
   12.6034    2.5073    9.7456 C   0  0  0  0  0  0  0  0  0  0  0  0
   11.2851    2.7377   10.1001 C   0  0  0  0  0  0  0  0  0  0  0  0
   10.3792    1.7533    9.7704 C   0  0  0  0  0  0  0  0  0  0  0  0
   10.7367    0.5919    9.1234 C   0  0  0  0  0  0  0  0  0  0  0  0
   12.0600    0.3768    8.7750 C   0  0  0  0  0  0  0  0  0  0  0  0
    9.4289   -0.7345    8.6940 Br  0  0  0  0  0  0  0  0  0  0  0  0
   11.1397    4.0224   10.7683 C   0  0  0  0  0  0  0  0  0  0  0  0
   10.0971    4.5941   11.2426 N   0  0  0  0  0  0  0  0  0  0  0  0
   12.4873    4.6005   10.8115 C   0  0  0  0  0  0  0  0  0  0  0  0
   12.7546    5.7210   11.3227 O   0  0  0  0  0  0  0  0  0  0  0  0
   13.3273    3.6516   10.1850 N   0  0  0  0  0  0  0  0  0  0  0  0
   14.3467    3.7713   10.0597 H   0  0  0  0  0  0  0  0  0  0  0  0
    8.8876    7.9777   12.4965 C   0  0  0  0  0  0  0  0  0  0  0  0
    7.5397    8.3519   12.8256 N   0  0  0  0  0  0  0  0  0  0  0  0
    7.1118    9.7050   12.9052 C   0  0  0  0  0  0  0  0  0  0  0  0
    7.9481   10.6062   12.6776 O   0  0  0  0  0  0  0  0  0  0  0  0
    6.8076    7.6295   13.0217 H   0  0  0  0  0  0  0  0  0  0  0  0
    5.7155   10.1094   13.2488 C   0  0  0  0  0  0  0  0  0  0  0  0
    5.6039   10.5217   14.5787 O   0  0  0  0  0  0  0  0  0  0  0  0
    4.9402    9.8144   15.5788 C   0  0  0  0  0  0  0  0  0  0  0  0
    4.0426    8.8617   15.1746 C   0  0  0  0  0  0  0  0  0  0  0  0
    3.3625    8.1387   16.1547 C   0  0  0  0  0  0  0  0  0  0  0  0
    3.5609    8.3497   17.5001 C   0  0  0  0  0  0  0  0  0  0  0  0
    4.4735    9.3187   17.8695 C   0  0  0  0  0  0  0  0  0  0  0  0
    5.1472   10.0345   16.9077 C   0  0  0  0  0  0  0  0  0  0  0  0
    3.8379    8.6446   13.8400 O   0  0  0  0  0  0  0  0  0  0  0  0
    4.7085    9.0930   12.8383 C   0  0  0  0  0  0  0  0  0  0  0  0
  5  6  1  0  0  0
  6  7  2  0  0  0
  6 11  1  0  0  0
  7  8  1  0  0  0
  7 17  1  0  0  0
  8  9  2  0  0  0
  8 13  1  0  0  0
  9 10  1  0  0  0
 10 11  2  0  0  0
 10 12  1  0  0  0
 13 14  2  0  0  0
 13 15  1  0  0  0
 14  1  1  0  0  0
  1  2  1  0  0  0
  2  3  2  0  0  0
  2 19  1  0  0  0
 19 20  1  0  0  0
 20 21  1  0  0  0
 21 22  2  0  0  0
 21 24  1  0  0  0
 24 25  1  0  0  0
 24 33  1  0  0  0
 25 26  1  0  0  0
 26 27  2  0  0  0
 26 31  1  0  0  0
 27 28  1  0  0  0
 27 32  1  0  0  0
 28 29  2  0  0  0
 29 30  1  0  0  0
 30 31  2  0  0  0
 32 33  1  0  0  0
 15 16  2  0  0  0
 15 17  1  0  0  0
  1  4  1  0  0  0
 20 23  1  0  0  0
 17 18  1  0  0  0
M  END
> <minimizedAffinity>
-9.93606

$$$$
695


 22 25  0  0  0  0  0  0  0  0999 V2000
   11.3888    3.6746   12.0578 C   0  0  0  0  0  0  0  0  0  0  0  0
   15.5320    1.4189    9.5144 Br  0  0  0  0  0  0  0  0  0  0  0  0
   13.6536    1.6040    9.8709 C   0  0  0  0  0  0  0  0  0  0  0  0
   12.7905    0.7841    9.1750 C   0  0  0  0  0  0  0  0  0  0  0  0
   11.4477    0.9156    9.4297 C   0  0  0  0  0  0  0  0  0  0  0  0
   10.9922    1.8509   10.3609 C   0  0  0  0  0  0  0  0  0  0  0  0
   11.8447    2.6733   11.0601 C   0  0  0  0  0  0  0  0  0  0  0  0
   13.2095    2.5307   10.7926 C   0  0  0  0  0  0  0  0  0  0  0  0
   10.8005   -0.0120    8.6112 O   0  0  0  0  0  0  0  0  0  0  0  0
   11.6885   -0.3071    7.5219 C   0  0  0  0  0  0  0  0  0  0  0  0
   12.9444   -0.2183    8.2101 O   0  0  0  0  0  0  0  0  0  0  0  0
   10.4173    4.5498   11.4489 N   0  0  0  0  0  0  0  0  0  0  0  0
   10.1721    4.4839   10.4467 H   0  0  0  0  0  0  0  0  0  0  0  0
    9.7782    5.5415   12.2744 C   0  0  0  0  0  0  0  0  0  0  0  0
   10.4186    6.0931   13.3141 N   0  0  0  0  0  0  0  0  0  0  0  0
    9.8141    7.0189   14.0799 C   0  0  0  0  0  0  0  0  0  0  0  0
    8.5112    7.4331   13.8202 C   0  0  0  0  0  0  0  0  0  0  0  0
    7.8810    6.8802   12.7842 N   0  0  0  0  0  0  0  0  0  0  0  0
    8.4884    5.9450   12.0091 C   0  0  0  0  0  0  0  0  0  0  0  0
    7.6171    5.5767   11.0558 N   0  0  0  0  0  0  0  0  0  0  0  0
    6.4850    6.2446   11.2015 N   0  0  0  0  0  0  0  0  0  0  0  0
    6.6522    7.0404   12.2610 C   0  0  0  0  0  0  0  0  0  0  0  0
  2  3  1  0  0  0
  3  4  2  0  0  0
  3  8  1  0  0  0
  4  5  1  0  0  0
  4 11  1  0  0  0
  5  6  2  0  0  0
  5  9  1  0  0  0
  6  7  1  0  0  0
  7  8  2  0  0  0
  7  1  1  0  0  0
  1 12  1  0  0  0
 12 14  1  0  0  0
 14 15  2  0  0  0
 14 19  1  0  0  0
 15 16  1  0  0  0
 16 17  2  0  0  0
 17 18  1  0  0  0
 18 19  1  0  0  0
 18 22  1  0  0  0
 19 20  2  0  0  0
 20 21  1  0  0  0
 21 22  2  0  0  0
  9 10  1  0  0  0
 10 11  1  0  0  0
 12 13  1  0  0  0
M  END
> <minimizedAffinity>
-8.11202

$$$$
696


 28 31  0  0  0  0  0  0  0  0999 V2000
    7.0226    5.6216   14.5770 Br  0  0  0  0  0  0  0  0  0  0  0  0
    7.8696    6.8689   13.4237 C   0  0  0  0  0  0  0  0  0  0  0  0
    8.9944    6.4679   12.6903 C   0  0  0  0  0  0  0  0  0  0  0  0
    9.6379    7.3156   11.8413 C   0  0  0  0  0  0  0  0  0  0  0  0
    9.1606    8.6078   11.7084 C   0  0  0  0  0  0  0  0  0  0  0  0
    8.0454    9.0143   12.4324 C   0  0  0  0  0  0  0  0  0  0  0  0
    7.3965    8.1552   13.2885 C   0  0  0  0  0  0  0  0  0  0  0  0
    7.5001   10.3970   12.3175 C   0  0  0  0  0  0  0  0  0  0  0  0
   10.8050    6.8542   11.0410 C   0  0  0  0  0  0  0  0  0  0  0  0
   11.6550    5.7972   11.6490 C   0  0  0  0  0  0  0  0  0  0  0  0
   10.9587    5.1592   12.8752 C   0  0  0  0  0  0  0  0  0  0  0  0
    9.5456    5.1964   12.7627 O   0  0  0  0  0  0  0  0  0  0  0  0
   10.1964    6.4589    9.8167 O   0  0  0  0  0  0  0  0  0  0  0  0
   10.0055    7.2281    9.2531 H   0  0  0  0  0  0  0  0  0  0  0  0
   12.9404    6.3402   12.2440 C   0  0  0  0  0  0  0  0  0  0  0  0
   14.1469    5.7182   11.7424 N   0  0  0  0  0  0  0  0  0  0  0  0
   14.7322    4.8760   12.7859 C   0  0  0  0  0  0  0  0  0  0  0  0
   16.1801    4.7351   12.4938 C   0  0  0  0  0  0  0  0  0  0  0  0
   16.4254    5.7091   11.3914 C   0  0  0  0  0  0  0  0  0  0  0  0
   15.2354    6.6632   11.5567 C   0  0  0  0  0  0  0  0  0  0  0  0
   14.0460    5.2056   10.8546 H   0  0  0  0  0  0  0  0  0  0  0  0
   11.8750    4.6495   10.7383 C   0  0  0  0  0  0  0  0  0  0  0  0
   11.5572    3.3259   10.8970 N   0  0  0  0  0  0  0  0  0  0  0  0
   10.5715    2.9108    9.8735 C   0  0  0  0  0  0  0  0  0  0  0  0
   10.8782    1.5033    9.5373 C   0  0  0  0  0  0  0  0  0  0  0  0
   12.3041    1.2874    9.8723 C   0  0  0  0  0  0  0  0  0  0  0  0
   12.5824    2.3663   10.9173 C   0  0  0  0  0  0  0  0  0  0  0  0
   10.9224    3.1705   11.7983 H   0  0  0  0  0  0  0  0  0  0  0  0
  1  2  1  0  0  0
  2  3  2  0  0  0
  2  7  1  0  0  0
  3  4  1  0  0  0
  3 12  1  0  0  0
  4  5  2  0  0  0
  4  9  1  0  0  0
  5  6  1  0  0  0
  6  7  2  0  0  0
  6  8  1  0  0  0
  9 10  1  0  0  0
  9 13  1  0  0  0
 10 11  1  0  0  0
 10 15  1  0  0  0
 10 22  1  0  0  0
 11 12  1  0  0  0
 15 16  1  0  0  0
 16 17  1  0  0  0
 16 20  1  0  0  0
 17 18  1  0  0  0
 18 19  1  0  0  0
 19 20  1  0  0  0
 22 23  1  0  0  0
 23 24  1  0  0  0
 23 27  1  0  0  0
 24 25  1  0  0  0
 25 26  1  0  0  0
 26 27  1  0  0  0
 16 21  1  0  0  0
 23 28  1  0  0  0
 13 14  1  0  0  0
M  CHG 1  16   1
M  CHG 1  23   1
M  END
> <minimizedAffinity>
-7.19861

$$$$
699


 32 35  0  0  0  0  0  0  0  0999 V2000
   11.5155    6.0346   11.6609 C   0  0  0  0  0  0  0  0  0  0  0  0
   11.6075    5.4743   12.9085 O   0  0  0  0  0  0  0  0  0  0  0  0
   11.7908    4.5174   12.9194 H   0  0  0  0  0  0  0  0  0  0  0  0
   12.2932    5.2795   10.6129 C   0  0  0  0  0  0  0  0  0  0  0  0
   12.6552    3.9837   11.0498 O   0  0  0  0  0  0  0  0  0  0  0  0
   14.5700    2.4183    9.2677 Br  0  0  0  0  0  0  0  0  0  0  0  0
   12.7287    2.0557    9.5807 C   0  0  0  0  0  0  0  0  0  0  0  0
   12.1371    0.9743    8.9583 C   0  0  0  0  0  0  0  0  0  0  0  0
   10.8043    0.6874    9.1672 C   0  0  0  0  0  0  0  0  0  0  0  0
   10.1067    1.5229   10.0155 C   0  0  0  0  0  0  0  0  0  0  0  0
   10.7059    2.6018   10.6343 C   0  0  0  0  0  0  0  0  0  0  0  0
   12.0389    2.8973   10.4314 C   0  0  0  0  0  0  0  0  0  0  0  0
   10.2113   -0.3973    8.5427 C   0  0  0  0  0  0  0  0  0  0  0  0
   10.9079   -1.2337    7.6947 C   0  0  0  0  0  0  0  0  0  0  0  0
   12.2423   -0.9466    7.4845 C   0  0  0  0  0  0  0  0  0  0  0  0
   12.8339    0.1348    8.1069 C   0  0  0  0  0  0  0  0  0  0  0  0
   10.1036    6.2361   11.2316 C   0  0  0  0  0  0  0  0  0  0  0  0
    9.2409    6.7459   12.2741 N   0  0  0  0  0  0  0  0  0  0  0  0
    7.8820    6.3861   11.9098 C   0  0  0  0  0  0  0  0  0  0  0  0
    6.8444    7.0851   12.8001 C   0  0  0  0  0  0  0  0  0  0  0  0
    7.0320    8.4885   12.7055 N   0  0  0  0  0  0  0  0  0  0  0  0
    8.1717    8.9054   11.8622 C   0  0  0  0  0  0  0  0  0  0  0  0
    9.3937    8.1919   12.3365 C   0  0  0  0  0  0  0  0  0  0  0  0
    6.2378    9.4548   13.3330 C   0  0  0  0  0  0  0  0  0  0  0  0
    6.6288   10.6939   13.0820 O   0  0  0  0  0  0  0  0  0  0  0  0
    9.4332    6.3409   13.2145 H   0  0  0  0  0  0  0  0  0  0  0  0
    5.0977    9.3561   14.1856 C   0  0  0  0  0  0  0  0  0  0  0  0
    3.8012    9.1668   13.8004 C   0  0  0  0  0  0  0  0  0  0  0  0
    2.7347    9.0800   14.6845 C   0  0  0  0  0  0  0  0  0  0  0  0
    2.9482    9.1834   16.0216 C   0  0  0  0  0  0  0  0  0  0  0  0
    4.2477    9.3752   16.4436 C   0  0  0  0  0  0  0  0  0  0  0  0
    5.3019    9.4619   15.5696 C   0  0  0  0  0  0  0  0  0  0  0  0
  6  7  1  0  0  0
  7  8  2  0  0  0
  7 12  1  0  0  0
  8  9  1  0  0  0
  8 16  1  0  0  0
  9 10  2  0  0  0
  9 13  1  0  0  0
 10 11  1  0  0  0
 11 12  2  0  0  0
 12  5  1  0  0  0
  5  4  1  0  0  0
  4  1  1  0  0  0
  1  2  1  0  0  0
  1 17  1  0  0  0
 17 18  1  0  0  0
 18 19  1  0  0  0
 18 23  1  0  0  0
 19 20  1  0  0  0
 20 21  1  0  0  0
 21 22  1  0  0  0
 21 24  1  0  0  0
 22 23  1  0  0  0
 24 25  2  0  0  0
 24 27  1  0  0  0
 27 28  2  0  0  0
 27 32  1  0  0  0
 28 29  1  0  0  0
 29 30  2  0  0  0
 30 31  1  0  0  0
 31 32  2  0  0  0
 13 14  2  0  0  0
 14 15  1  0  0  0
 15 16  2  0  0  0
  2  3  1  0  0  0
 18 26  1  0  0  0
M  CHG 1  18   1
M  END
> <minimizedAffinity>
-9.55757

$$$$
706


 30 33  0  0  0  0  0  0  0  0999 V2000
   12.6682    4.2426   12.0955 C   0  0  0  0  0  0  0  0  0  0  0  0
   15.9200    4.7183   11.7581 Br  0  0  0  0  0  0  0  0  0  0  0  0
   14.6736    3.5017   10.9293 C   0  0  0  0  0  0  0  0  0  0  0  0
   13.3515    3.4090   11.1651 N   0  0  0  0  0  0  0  0  0  0  0  0
   12.8264    2.4440   10.3937 C   0  0  0  0  0  0  0  0  0  0  0  0
   13.8577    1.9107    9.6453 C   0  0  0  0  0  0  0  0  0  0  0  0
   14.9649    2.5772    9.9976 N   0  0  0  0  0  0  0  0  0  0  0  0
   13.5822    0.9144    8.7793 N   0  0  0  0  0  0  0  0  0  0  0  0
   12.3376    0.4153    8.6109 C   0  0  0  0  0  0  0  0  0  0  0  0
   12.1218   -0.5219    7.7858 O   0  0  0  0  0  0  0  0  0  0  0  0
   11.3096    0.9118    9.3228 N   0  0  0  0  0  0  0  0  0  0  0  0
   11.5733    1.9056   10.1888 C   0  0  0  0  0  0  0  0  0  0  0  0
   10.6265    2.3747   10.8527 O   0  0  0  0  0  0  0  0  0  0  0  0
    9.9831    0.3606    9.1235 C   0  0  0  0  0  0  0  0  0  0  0  0
   14.6702    0.3605    7.9997 C   0  0  0  0  0  0  0  0  0  0  0  0
   12.2416    5.5842   11.6225 C   0  0  0  0  0  0  0  0  0  0  0  0
   11.6287    6.4520   12.5712 N   0  0  0  0  0  0  0  0  0  0  0  0
   10.2940    6.6494   12.7106 C   0  0  0  0  0  0  0  0  0  0  0  0
   10.0709    7.5567   13.7168 C   0  0  0  0  0  0  0  0  0  0  0  0
   11.2923    7.8884   14.1676 N   0  0  0  0  0  0  0  0  0  0  0  0
   12.2314    7.2250   13.4789 C   0  0  0  0  0  0  0  0  0  0  0  0
   14.1428    7.3287   13.7079 Br  0  0  0  0  0  0  0  0  0  0  0  0
    8.8284    7.9601   14.0944 N   0  0  0  0  0  0  0  0  0  0  0  0
    7.7899    7.4245   13.4279 C   0  0  0  0  0  0  0  0  0  0  0  0
    6.6320    7.7904   13.7685 O   0  0  0  0  0  0  0  0  0  0  0  0
    7.9480    6.5325   12.4345 N   0  0  0  0  0  0  0  0  0  0  0  0
    9.1692    6.1434   12.0715 C   0  0  0  0  0  0  0  0  0  0  0  0
    9.3862    5.3120   11.1495 O   0  0  0  0  0  0  0  0  0  0  0  0
    6.7964    5.9855   11.7485 C   0  0  0  0  0  0  0  0  0  0  0  0
    8.6296    8.9246   15.1680 C   0  0  0  0  0  0  0  0  0  0  0  0
  2  3  1  0  0  0
  3  4  1  0  0  0
  3  7  2  0  0  0
  4  5  1  0  0  0
  4  1  1  0  0  0
  5  6  2  0  0  0
  5 12  1  0  0  0
  6  7  1  0  0  0
  6  8  1  0  0  0
  8  9  1  0  0  0
  8 15  1  0  0  0
  9 10  2  0  0  0
  9 11  1  0  0  0
 11 12  1  0  0  0
 11 14  1  0  0  0
 12 13  2  0  0  0
  1 16  1  0  0  0
 16 17  1  0  0  0
 17 18  1  0  0  0
 17 21  1  0  0  0
 18 19  2  0  0  0
 18 27  1  0  0  0
 19 20  1  0  0  0
 19 23  1  0  0  0
 20 21  2  0  0  0
 21 22  1  0  0  0
 23 24  1  0  0  0
 23 30  1  0  0  0
 24 25  2  0  0  0
 24 26  1  0  0  0
 26 27  1  0  0  0
 26 29  1  0  0  0
 27 28  2  0  0  0
M  END
> <minimizedAffinity>
-8.12636

$$$$
708


 31 34  0  0  0  0  0  0  0  0999 V2000
    9.6714    7.9145   13.0574 C   0  0  0  0  0  0  0  0  0  0  0  0
   10.3856    7.8029   11.7423 C   0  0  0  0  0  0  0  0  0  0  0  0
   13.1427    8.1837   13.4276 Br  0  0  0  0  0  0  0  0  0  0  0  0
   12.5642    6.7367   12.3335 C   0  0  0  0  0  0  0  0  0  0  0  0
   11.3563    6.7291   11.6911 N   0  0  0  0  0  0  0  0  0  0  0  0
   11.3264    5.5529   11.0336 C   0  0  0  0  0  0  0  0  0  0  0  0
   12.4885    4.8321   11.2563 C   0  0  0  0  0  0  0  0  0  0  0  0
   13.2359    5.6057   12.0729 N   0  0  0  0  0  0  0  0  0  0  0  0
   12.7425    3.6241   10.7245 N   0  0  0  0  0  0  0  0  0  0  0  0
   11.7909    3.1062    9.9274 C   0  0  0  0  0  0  0  0  0  0  0  0
   11.9842    1.9601    9.3987 O   0  0  0  0  0  0  0  0  0  0  0  0
   10.6476    3.7726    9.6830 N   0  0  0  0  0  0  0  0  0  0  0  0
   10.3871    4.9969   10.2204 C   0  0  0  0  0  0  0  0  0  0  0  0
    9.3221    5.6029    9.9821 O   0  0  0  0  0  0  0  0  0  0  0  0
   13.9591    2.8774   10.9639 C   0  0  0  0  0  0  0  0  0  0  0  0
    9.9004    3.3852    9.0682 H   0  0  0  0  0  0  0  0  0  0  0  0
    8.6594    6.8350   13.3141 C   0  0  0  0  0  0  0  0  0  0  0  0
    7.5320    7.3755   14.0608 N   0  0  0  0  0  0  0  0  0  0  0  0
    6.3495    7.8288   13.5856 C   0  0  0  0  0  0  0  0  0  0  0  0
    5.5514    8.2557   14.6214 C   0  0  0  0  0  0  0  0  0  0  0  0
    6.2723    8.0538   15.7402 N   0  0  0  0  0  0  0  0  0  0  0  0
    7.4649    7.5235   15.3936 C   0  0  0  0  0  0  0  0  0  0  0  0
    8.8842    7.0332   16.5736 Br  0  0  0  0  0  0  0  0  0  0  0  0
    4.3148    8.7594   14.4519 N   0  0  0  0  0  0  0  0  0  0  0  0
    3.8626    8.8357   13.1761 C   0  0  0  0  0  0  0  0  0  0  0  0
    2.6967    9.3089   13.0122 O   0  0  0  0  0  0  0  0  0  0  0  0
    4.6130    8.4278   12.1312 N   0  0  0  0  0  0  0  0  0  0  0  0
    5.8511    7.9243   12.3130 C   0  0  0  0  0  0  0  0  0  0  0  0
    6.5739    7.5364   11.3633 O   0  0  0  0  0  0  0  0  0  0  0  0
    3.5029    9.2011   15.5832 C   0  0  0  0  0  0  0  0  0  0  0  0
    4.2133    8.5095   11.1753 H   0  0  0  0  0  0  0  0  0  0  0  0
  3  4  1  0  0  0
  4  5  1  0  0  0
  4  8  2  0  0  0
  5  6  1  0  0  0
  5  2  1  0  0  0
  6  7  2  0  0  0
  6 13  1  0  0  0
  7  8  1  0  0  0
  7  9  1  0  0  0
  9 10  1  0  0  0
  9 15  1  0  0  0
 10 11  2  0  0  0
 10 12  1  0  0  0
 12 13  1  0  0  0
 13 14  2  0  0  0
  2  1  1  0  0  0
  1 17  1  0  0  0
 17 18  1  0  0  0
 18 19  1  0  0  0
 18 22  1  0  0  0
 19 20  2  0  0  0
 19 28  1  0  0  0
 20 21  1  0  0  0
 20 24  1  0  0  0
 21 22  2  0  0  0
 22 23  1  0  0  0
 24 25  1  0  0  0
 24 30  1  0  0  0
 25 26  2  0  0  0
 25 27  1  0  0  0
 27 28  1  0  0  0
 28 29  2  0  0  0
 12 16  1  0  0  0
 27 31  1  0  0  0
M  END
> <minimizedAffinity>
-8.35706

$$$$
709


 30 33  0  0  0  0  0  0  0  0999 V2000
   13.8687    3.0959   11.4152 C   0  0  0  0  0  0  0  0  0  0  0  0
   16.2551    1.9103    9.5649 Br  0  0  0  0  0  0  0  0  0  0  0  0
   14.3800    1.5492    9.5642 C   0  0  0  0  0  0  0  0  0  0  0  0
   13.5153    2.1381   10.4239 N   0  0  0  0  0  0  0  0  0  0  0  0
   12.2925    1.6408   10.1254 C   0  0  0  0  0  0  0  0  0  0  0  0
   12.3895    0.7347    9.0730 C   0  0  0  0  0  0  0  0  0  0  0  0
   13.7050    0.7126    8.7606 N   0  0  0  0  0  0  0  0  0  0  0  0
   11.3001    0.1103    8.5910 N   0  0  0  0  0  0  0  0  0  0  0  0
   10.0860    0.3497    9.1170 C   0  0  0  0  0  0  0  0  0  0  0  0
    9.0505   -0.2366    8.6676 O   0  0  0  0  0  0  0  0  0  0  0  0
    9.9320    1.2170   10.1338 N   0  0  0  0  0  0  0  0  0  0  0  0
   11.0291    1.8496   10.6243 C   0  0  0  0  0  0  0  0  0  0  0  0
   10.9248    2.6747   11.5788 O   0  0  0  0  0  0  0  0  0  0  0  0
   11.3932   -0.8320    7.4995 C   0  0  0  0  0  0  0  0  0  0  0  0
    9.0002    1.4176   10.5562 H   0  0  0  0  0  0  0  0  0  0  0  0
   14.0672    4.4982   10.9616 C   0  0  0  0  0  0  0  0  0  0  0  0
   13.4032    5.5362   11.6678 N   0  0  0  0  0  0  0  0  0  0  0  0
   12.2348    6.1233   11.3606 C   0  0  0  0  0  0  0  0  0  0  0  0
   11.9557    7.0905   12.3035 C   0  0  0  0  0  0  0  0  0  0  0  0
   12.9937    7.0429   13.1632 N   0  0  0  0  0  0  0  0  0  0  0  0
   13.8787    6.1186   12.8080 C   0  0  0  0  0  0  0  0  0  0  0  0
   15.5233    5.6626   13.7024 Br  0  0  0  0  0  0  0  0  0  0  0  0
   10.8381    7.8107   12.2160 N   0  0  0  0  0  0  0  0  0  0  0  0
    9.9760    7.6069   11.2167 C   0  0  0  0  0  0  0  0  0  0  0  0
    8.8991    8.2818   11.1054 O   0  0  0  0  0  0  0  0  0  0  0  0
   10.1759    6.6840   10.2592 N   0  0  0  0  0  0  0  0  0  0  0  0
   11.2994    5.9609   10.3506 C   0  0  0  0  0  0  0  0  0  0  0  0
   11.4926    5.0976    9.4659 O   0  0  0  0  0  0  0  0  0  0  0  0
   10.5338    8.8275   13.1956 C   0  0  0  0  0  0  0  0  0  0  0  0
    9.4760    6.5487    9.4855 H   0  0  0  0  0  0  0  0  0  0  0  0
  2  3  1  0  0  0
  3  4  1  0  0  0
  3  7  2  0  0  0
  4  5  1  0  0  0
  4  1  1  0  0  0
  5  6  2  0  0  0
  5 12  1  0  0  0
  6  7  1  0  0  0
  6  8  1  0  0  0
  8  9  1  0  0  0
  8 14  1  0  0  0
  9 10  2  0  0  0
  9 11  1  0  0  0
 11 12  1  0  0  0
 12 13  2  0  0  0
  1 16  1  0  0  0
 16 17  1  0  0  0
 17 18  1  0  0  0
 17 21  1  0  0  0
 18 19  2  0  0  0
 18 27  1  0  0  0
 19 20  1  0  0  0
 19 23  1  0  0  0
 20 21  2  0  0  0
 21 22  1  0  0  0
 23 24  1  0  0  0
 23 29  1  0  0  0
 24 25  2  0  0  0
 24 26  1  0  0  0
 26 27  1  0  0  0
 27 28  2  0  0  0
 11 15  1  0  0  0
 26 30  1  0  0  0
M  END
> <minimizedAffinity>
-8.55121

$$$$
716


 31 35  0  0  0  0  0  0  0  0999 V2000
   11.3132    3.8365   10.4879 C   0  0  0  0  0  0  0  0  0  0  0  0
    9.8911    4.2680   10.7665 C   0  0  0  0  0  0  0  0  0  0  0  0
    9.9023    5.5435   11.5571 C   0  0  0  0  0  0  0  0  0  0  0  0
   10.4932    6.6148   10.6300 C   0  0  0  0  0  0  0  0  0  0  0  0
   11.8807    6.1883   10.2227 C   0  0  0  0  0  0  0  0  0  0  0  0
   11.9046    4.8495    9.5316 C   0  0  0  0  0  0  0  0  0  0  0  0
   12.7472    6.1559   11.4412 C   0  0  0  0  0  0  0  0  0  0  0  0
   12.1834    5.1364   12.4055 C   0  0  0  0  0  0  0  0  0  0  0  0
   12.1614    3.8110   11.7210 C   0  0  0  0  0  0  0  0  0  0  0  0
   10.7637    5.5060   12.7751 C   0  0  0  0  0  0  0  0  0  0  0  0
    9.5059   -0.8895    8.5486 Br  0  0  0  0  0  0  0  0  0  0  0  0
   10.6284    0.5609    9.1090 C   0  0  0  0  0  0  0  0  0  0  0  0
   10.2487    1.7363    9.6424 N   0  0  0  0  0  0  0  0  0  0  0  0
   11.3049    2.4949    9.9070 N   0  0  0  0  0  0  0  0  0  0  0  0
   12.3721    1.7692    9.5260 C   0  0  0  0  0  0  0  0  0  0  0  0
   11.9787    0.5837    9.0363 N   0  0  0  0  0  0  0  0  0  0  0  0
    8.5357    5.9535   11.9450 C   0  0  0  0  0  0  0  0  0  0  0  0
    7.5797    5.5862   11.2162 O   0  0  0  0  0  0  0  0  0  0  0  0
    8.3099    6.7417   13.1101 N   0  0  0  0  0  0  0  0  0  0  0  0
    9.1503    7.0048   13.6580 H   0  0  0  0  0  0  0  0  0  0  0  0
    7.0373    7.1822   13.5599 C   0  0  0  0  0  0  0  0  0  0  0  0
    6.3316    8.2089   12.9992 C   0  0  0  0  0  0  0  0  0  0  0  0
    5.1775    8.3287   13.6975 N   0  0  0  0  0  0  0  0  0  0  0  0
    5.1625    7.4208   14.6498 N   0  0  0  0  0  0  0  0  0  0  0  0
    6.2832    6.6930   14.6067 C   0  0  0  0  0  0  0  0  0  0  0  0
    4.1015    9.2793   13.4785 C   0  0  0  0  0  0  0  0  0  0  0  0
    6.6381    9.0770   11.8802 C   0  0  0  0  0  0  0  0  0  0  0  0
    6.2398    8.8094   10.7191 O   0  0  0  0  0  0  0  0  0  0  0  0
    7.3961   10.2730   12.0026 N   0  0  0  0  0  0  0  0  0  0  0  0
    6.8670   11.1926   12.0272 H   0  0  0  0  0  0  0  0  0  0  0  0
    8.4310   10.3195   12.0685 H   0  0  0  0  0  0  0  0  0  0  0  0
 11 12  1  0  0  0
 12 13  2  0  0  0
 12 16  1  0  0  0
 13 14  1  0  0  0
 14 15  1  0  0  0
 14  1  1  0  0  0
 15 16  2  0  0  0
  1  2  1  0  0  0
  1  6  1  0  0  0
  1  9  1  0  0  0
  2  3  1  0  0  0
  3  4  1  0  0  0
  3 10  1  0  0  0
  3 17  1  0  0  0
  4  5  1  0  0  0
  5  6  1  0  0  0
  5  7  1  0  0  0
  7  8  1  0  0  0
  8  9  1  0  0  0
  8 10  1  0  0  0
 17 18  2  0  0  0
 17 19  1  0  0  0
 19 21  1  0  0  0
 21 22  2  0  0  0
 21 25  1  0  0  0
 22 23  1  0  0  0
 22 27  1  0  0  0
 23 24  1  0  0  0
 23 26  1  0  0  0
 24 25  2  0  0  0
 27 28  2  0  0  0
 27 29  1  0  0  0
 19 20  1  0  0  0
 29 30  1  0  0  0
 29 31  1  0  0  0
M  END
> <minimizedAffinity>
-8.96756

$$$$
723


 23 26  0  0  0  0  0  0  0  0999 V2000
    4.9627    8.6934   14.7455 N   0  0  0  0  0  0  0  0  0  0  0  0
    5.5034    9.9158   15.2514 C   0  0  0  0  0  0  0  0  0  0  0  0
    5.5667    9.9641   16.7295 C   0  0  0  0  0  0  0  0  0  0  0  0
    4.9352    8.9644   17.4180 O   0  0  0  0  0  0  0  0  0  0  0  0
    3.7488    8.5560   16.8187 C   0  0  0  0  0  0  0  0  0  0  0  0
    3.9707    7.9573   15.4671 C   0  0  0  0  0  0  0  0  0  0  0  0
    7.2711    6.8482   16.0711 Br  0  0  0  0  0  0  0  0  0  0  0  0
    7.2975    6.6700   14.1762 C   0  0  0  0  0  0  0  0  0  0  0  0
    8.1353    5.9096   13.4367 N   0  0  0  0  0  0  0  0  0  0  0  0
    7.8580    5.9956   12.1561 N   0  0  0  0  0  0  0  0  0  0  0  0
    6.8117    6.8352   12.0547 C   0  0  0  0  0  0  0  0  0  0  0  0
    6.1160    7.2651   10.9969 N   0  0  0  0  0  0  0  0  0  0  0  0
    5.0758    8.1067   11.1351 C   0  0  0  0  0  0  0  0  0  0  0  0
    4.7037    8.5439   12.3512 N   0  0  0  0  0  0  0  0  0  0  0  0
    5.3679    8.1482   13.4807 C   0  0  0  0  0  0  0  0  0  0  0  0
    6.4207    7.2916   13.3197 C   0  0  0  0  0  0  0  0  0  0  0  0
    8.5547    5.3133   11.0816 C   0  0  0  0  0  0  0  0  0  0  0  0
    6.7817   10.2637   14.5912 C   0  0  0  0  0  0  0  0  0  0  0  0
    8.0015   10.0809   15.0986 N   0  0  0  0  0  0  0  0  0  0  0  0
    8.8801   10.5395   14.1618 C   0  0  0  0  0  0  0  0  0  0  0  0
    8.1406   10.9801   13.1282 N   0  0  0  0  0  0  0  0  0  0  0  0
    6.8829   10.8034   13.4112 O   0  0  0  0  0  0  0  0  0  0  0  0
   10.3582   10.5557   14.2504 C   0  0  0  0  0  0  0  0  0  0  0  0
  7  8  1  0  0  0
  8  9  2  0  0  0
  8 16  1  0  0  0
  9 10  1  0  0  0
 10 11  1  0  0  0
 10 17  1  0  0  0
 11 12  1  0  0  0
 11 16  2  0  0  0
 12 13  2  0  0  0
 13 14  1  0  0  0
 14 15  2  0  0  0
 15 16  1  0  0  0
 15  1  1  0  0  0
  1  2  1  0  0  0
  1  6  1  0  0  0
  2  3  1  0  0  0
  2 18  1  0  0  0
  3  4  1  0  0  0
  4  5  1  0  0  0
  5  6  1  0  0  0
 18 19  2  0  0  0
 18 22  1  0  0  0
 19 20  1  0  0  0
 20 21  2  0  0  0
 20 23  1  0  0  0
 21 22  1  0  0  0
M  END
> <minimizedAffinity>
-6.75563

$$$$
727


 21 24  0  0  0  0  0  0  0  0999 V2000
   15.0883    4.7114   12.8739 Br  0  0  0  0  0  0  0  0  0  0  0  0
   13.6370    5.8515   12.4075 C   0  0  0  0  0  0  0  0  0  0  0  0
   13.4244    7.1132   12.8843 N   0  0  0  0  0  0  0  0  0  0  0  0
   12.3417    7.5972   12.3239 N   0  0  0  0  0  0  0  0  0  0  0  0
   11.8183    6.6917   11.4813 C   0  0  0  0  0  0  0  0  0  0  0  0
   10.7485    6.6860   10.6700 N   0  0  0  0  0  0  0  0  0  0  0  0
   10.4496    5.6374    9.9080 C   0  0  0  0  0  0  0  0  0  0  0  0
   11.2228    4.5562    9.9408 N   0  0  0  0  0  0  0  0  0  0  0  0
   12.3402    4.4559   10.7347 C   0  0  0  0  0  0  0  0  0  0  0  0
   12.6337    5.5481   11.5121 C   0  0  0  0  0  0  0  0  0  0  0  0
   11.7267    8.9167   12.5307 C   0  0  0  0  0  0  0  0  0  0  0  0
   13.0972    3.2848   10.7648 N   0  0  0  0  0  0  0  0  0  0  0  0
   12.5852    2.0750   11.3699 C   0  0  0  0  0  0  0  0  0  0  0  0
   12.2629    1.0931   10.2240 C   0  0  0  0  0  0  0  0  0  0  0  0
   13.2894    1.2230    9.1674 C   0  0  0  0  0  0  0  0  0  0  0  0
   13.4282    0.4442    8.0696 N   0  0  0  0  0  0  0  0  0  0  0  0
   14.4831    0.9008    7.3737 C   0  0  0  0  0  0  0  0  0  0  0  0
   15.0245    1.9482    7.9925 N   0  0  0  0  0  0  0  0  0  0  0  0
   14.2861    2.1503    9.1059 C   0  0  0  0  0  0  0  0  0  0  0  0
   14.4082    3.1663   10.1795 C   0  0  0  0  0  0  0  0  0  0  0  0
   12.6239   -0.6808    7.6669 C   0  0  0  0  0  0  0  0  0  0  0  0
  1  2  1  0  0  0
  2  3  2  0  0  0
  2 10  1  0  0  0
  3  4  1  0  0  0
  4  5  1  0  0  0
  4 11  1  0  0  0
  5  6  1  0  0  0
  5 10  2  0  0  0
  6  7  2  0  0  0
  7  8  1  0  0  0
  8  9  2  0  0  0
  9 10  1  0  0  0
  9 12  1  0  0  0
 12 13  1  0  0  0
 12 20  1  0  0  0
 13 14  1  0  0  0
 14 15  1  0  0  0
 15 16  1  0  0  0
 15 19  2  0  0  0
 16 17  1  0  0  0
 16 21  1  0  0  0
 17 18  2  0  0  0
 18 19  1  0  0  0
 19 20  1  0  0  0
M  END
> <minimizedAffinity>
-6.95650

$$$$
729


 27 30  0  0  0  0  0  0  0  0999 V2000
    8.2880    7.5028   13.2826 N   0  0  0  0  0  0  0  0  0  0  0  0
    9.4210    8.3438   13.0190 C   0  0  0  0  0  0  0  0  0  0  0  0
   10.2441    7.5849   11.9745 C   0  0  0  0  0  0  0  0  0  0  0  0
    9.8983    6.1590   11.9718 N   0  0  0  0  0  0  0  0  0  0  0  0
    9.7820    5.6818   13.3521 C   0  0  0  0  0  0  0  0  0  0  0  0
    8.5548    6.2855   14.0096 C   0  0  0  0  0  0  0  0  0  0  0  0
    7.4685    8.3595   16.2519 Br  0  0  0  0  0  0  0  0  0  0  0  0
    6.0349    8.6529   15.0462 C   0  0  0  0  0  0  0  0  0  0  0  0
    4.8123    9.1501   15.3053 N   0  0  0  0  0  0  0  0  0  0  0  0
    4.0696    9.1959   14.2321 N   0  0  0  0  0  0  0  0  0  0  0  0
    4.8062    8.7168   13.2115 C   0  0  0  0  0  0  0  0  0  0  0  0
    4.5529    8.5267   11.9052 N   0  0  0  0  0  0  0  0  0  0  0  0
    5.4579    8.0145   11.0665 C   0  0  0  0  0  0  0  0  0  0  0  0
    6.6552    7.6798   11.5322 N   0  0  0  0  0  0  0  0  0  0  0  0
    7.0054    7.8334   12.8312 C   0  0  0  0  0  0  0  0  0  0  0  0
    6.0607    8.3655   13.7011 C   0  0  0  0  0  0  0  0  0  0  0  0
    2.6985    9.6581   14.0687 C   0  0  0  0  0  0  0  0  0  0  0  0
   11.0132    5.4677   11.3433 C   0  0  0  0  0  0  0  0  0  0  0  0
   11.4890    6.3633   10.1668 C   0  0  0  0  0  0  0  0  0  0  0  0
   10.5938    4.1649   10.7972 C   0  0  0  0  0  0  0  0  0  0  0  0
    9.4558    4.2109   10.1682 O   0  0  0  0  0  0  0  0  0  0  0  0
   11.2492    2.9259   10.8770 N   0  0  0  0  0  0  0  0  0  0  0  0
   12.4796    2.6069   11.5360 C   0  0  0  0  0  0  0  0  0  0  0  0
   13.4218    1.7489   10.7176 C   0  0  0  0  0  0  0  0  0  0  0  0
   12.7461    0.7452    9.8486 C   0  0  0  0  0  0  0  0  0  0  0  0
   11.5427    1.3199    9.1320 C   0  0  0  0  0  0  0  0  0  0  0  0
   10.5933    1.7794   10.2077 C   0  0  0  0  0  0  0  0  0  0  0  0
  7  8  1  0  0  0
  8  9  2  0  0  0
  8 16  1  0  0  0
  9 10  1  0  0  0
 10 11  1  0  0  0
 10 17  1  0  0  0
 11 12  1  0  0  0
 11 16  2  0  0  0
 12 13  2  0  0  0
 13 14  1  0  0  0
 14 15  2  0  0  0
 15 16  1  0  0  0
 15  1  1  0  0  0
  1  2  1  0  0  0
  1  6  1  0  0  0
  2  3  1  0  0  0
  3  4  1  0  0  0
  4  5  1  0  0  0
  4 18  1  0  0  0
  5  6  1  0  0  0
 18 19  1  0  0  0
 18 20  1  0  0  0
 20 21  2  0  0  0
 20 22  1  0  0  0
 22 23  1  0  0  0
 22 27  1  0  0  0
 23 24  1  0  0  0
 24 25  1  0  0  0
 25 26  1  0  0  0
 26 27  1  0  0  0
M  END
> <minimizedAffinity>
-7.87184

$$$$
737


 21 24  0  0  0  0  0  0  0  0999 V2000
   11.7919    2.7965    9.9091 C   0  0  0  0  0  0  0  0  0  0  0  0
   13.0555    2.9310    9.5762 C   0  0  0  0  0  0  0  0  0  0  0  0
   13.7582    1.9141    8.7785 C   0  0  0  0  0  0  0  0  0  0  0  0
   15.0286    2.0360    8.4368 C   0  0  0  0  0  0  0  0  0  0  0  0
   12.9754    0.7919    8.4007 N   0  0  0  0  0  0  0  0  0  0  0  0
   11.5967    0.6630    8.7734 C   0  0  0  0  0  0  0  0  0  0  0  0
   11.0461    1.6629    9.5127 N   0  0  0  0  0  0  0  0  0  0  0  0
    9.7750    1.3003    9.7194 N   0  0  0  0  0  0  0  0  0  0  0  0
    9.5096    0.1194    9.1420 C   0  0  0  0  0  0  0  0  0  0  0  0
   10.6532   -0.2692    8.5544 N   0  0  0  0  0  0  0  0  0  0  0  0
   13.4157    0.0357    7.8341 H   0  0  0  0  0  0  0  0  0  0  0  0
    8.4558    6.4167   14.7747 Br  0  0  0  0  0  0  0  0  0  0  0  0
    8.5618    5.9461   12.9191 C   0  0  0  0  0  0  0  0  0  0  0  0
    9.6032    5.4356   12.2521 N   0  0  0  0  0  0  0  0  0  0  0  0
    9.2676    5.2503   10.9768 C   0  0  0  0  0  0  0  0  0  0  0  0
    7.9778    5.6563   10.8409 N   0  0  0  0  0  0  0  0  0  0  0  0
    7.5184    6.0900   12.0281 C   0  0  0  0  0  0  0  0  0  0  0  0
   10.2514    4.6893   10.0040 C   0  0  0  0  0  0  0  0  0  0  0  0
   11.1688    3.8013   10.6742 N   0  0  0  0  0  0  0  0  0  0  0  0
   11.4880    3.8827   12.0803 C   0  0  0  0  0  0  0  0  0  0  0  0
   10.9247    5.1039   12.7457 C   0  0  0  0  0  0  0  0  0  0  0  0
 12 13  1  0  0  0
 13 14  1  0  0  0
 13 17  2  0  0  0
 14 15  1  0  0  0
 14 21  1  0  0  0
 15 16  2  0  0  0
 15 18  1  0  0  0
 16 17  1  0  0  0
 18 19  1  0  0  0
 19 20  1  0  0  0
 19  1  1  0  0  0
 20 21  1  0  0  0
  1  2  2  0  0  0
  1  7  1  0  0  0
  2  3  1  0  0  0
  3  4  2  0  0  0
  3  5  1  0  0  0
  5  6  1  0  0  0
  6  7  1  0  0  0
  6 10  2  0  0  0
  7  8  1  0  0  0
  8  9  2  0  0  0
  9 10  1  0  0  0
  5 11  1  0  0  0
M  END
> <minimizedAffinity>
-7.86382

$$$$
743


 30 33  0  0  0  0  0  0  0  0999 V2000
    9.4234    7.3986   12.1858 C   0  0  0  0  0  0  0  0  0  0  0  0
   10.4399    7.8723   11.5769 O   0  0  0  0  0  0  0  0  0  0  0  0
    8.5418    8.2625   12.8898 N   0  0  0  0  0  0  0  0  0  0  0  0
    8.8004    9.6757   12.9130 C   0  0  0  0  0  0  0  0  0  0  0  0
    7.5650   10.5222   12.9508 C   0  0  0  0  0  0  0  0  0  0  0  0
    6.3711    9.8171   13.5240 C   0  0  0  0  0  0  0  0  0  0  0  0
    5.4825   10.7485   14.1500 N   0  0  0  0  0  0  0  0  0  0  0  0
    4.3409   10.1561   14.7597 C   0  0  0  0  0  0  0  0  0  0  0  0
    3.6625    9.0967   13.9558 C   0  0  0  0  0  0  0  0  0  0  0  0
    4.3178    8.8477   12.6464 C   0  0  0  0  0  0  0  0  0  0  0  0
    3.8623    8.3044   11.5166 N   0  0  0  0  0  0  0  0  0  0  0  0
    4.8415    8.2982   10.6016 C   0  0  0  0  0  0  0  0  0  0  0  0
    5.9410    8.8414   11.1410 N   0  0  0  0  0  0  0  0  0  0  0  0
    5.6266    9.1812   12.3975 C   0  0  0  0  0  0  0  0  0  0  0  0
    6.8186    8.7033   14.4570 C   0  0  0  0  0  0  0  0  0  0  0  0
    7.4053    7.6355   13.5576 C   0  0  0  0  0  0  0  0  0  0  0  0
    6.0195   11.2694   14.8777 H   0  0  0  0  0  0  0  0  0  0  0  0
    6.8893    8.9791   10.6638 H   0  0  0  0  0  0  0  0  0  0  0  0
    9.2322    5.9414   12.1127 C   0  0  0  0  0  0  0  0  0  0  0  0
   10.4003    5.1670   12.6408 C   0  0  0  0  0  0  0  0  0  0  0  0
   11.4933    3.0393   11.9154 C   0  0  0  0  0  0  0  0  0  0  0  0
   11.3045    2.5747   13.0785 O   0  0  0  0  0  0  0  0  0  0  0  0
   11.0454    4.3619   11.6511 N   0  0  0  0  0  0  0  0  0  0  0  0
   11.1988    4.7455   10.6992 H   0  0  0  0  0  0  0  0  0  0  0  0
   12.0979   -0.3664    7.8326 Br  0  0  0  0  0  0  0  0  0  0  0  0
   12.4289    0.8403    9.2946 C   0  0  0  0  0  0  0  0  0  0  0  0
   11.5733    1.4772   10.0363 O   0  0  0  0  0  0  0  0  0  0  0  0
   12.1448    2.2086   10.9343 C   0  0  0  0  0  0  0  0  0  0  0  0
   13.5298    2.0575   10.7955 C   0  0  0  0  0  0  0  0  0  0  0  0
   13.6850    1.1805    9.7428 C   0  0  0  0  0  0  0  0  0  0  0  0
 25 26  1  0  0  0
 26 27  1  0  0  0
 26 30  2  0  0  0
 27 28  1  0  0  0
 28 29  2  0  0  0
 28 21  1  0  0  0
 29 30  1  0  0  0
 21 22  2  0  0  0
 21 23  1  0  0  0
 23 20  1  0  0  0
 20 19  1  0  0  0
 19  1  1  0  0  0
  1  2  2  0  0  0
  1  3  1  0  0  0
  3  4  1  0  0  0
  3 16  1  0  0  0
  4  5  1  0  0  0
  5  6  1  0  0  0
  6  7  1  0  0  0
  6 14  1  0  0  0
  6 15  1  0  0  0
  7  8  1  0  0  0
  8  9  1  0  0  0
  9 10  1  0  0  0
 10 11  1  0  0  0
 10 14  2  0  0  0
 11 12  2  0  0  0
 12 13  1  0  0  0
 13 14  1  0  0  0
 15 16  1  0  0  0
 23 24  1  0  0  0
  7 17  1  0  0  0
 13 18  1  0  0  0
M  END
> <minimizedAffinity>
-9.43479

$$$$
746


 30 33  0  0  0  0  0  0  0  0999 V2000
   13.1565    5.2867   11.4438 C   0  0  0  0  0  0  0  0  0  0  0  0
   14.3606    5.4000   11.8645 O   0  0  0  0  0  0  0  0  0  0  0  0
   12.6063    4.0000   11.4335 N   0  0  0  0  0  0  0  0  0  0  0  0
   11.2554    3.7261   10.9883 C   0  0  0  0  0  0  0  0  0  0  0  0
   11.3374    2.8174    9.8009 C   0  0  0  0  0  0  0  0  0  0  0  0
   12.1739    1.6075   10.0720 C   0  0  0  0  0  0  0  0  0  0  0  0
   11.3698    0.4258    9.8141 N   0  0  0  0  0  0  0  0  0  0  0  0
   11.0630    0.3954    8.3960 C   0  0  0  0  0  0  0  0  0  0  0  0
   12.2974   -0.1969    7.7065 C   0  0  0  0  0  0  0  0  0  0  0  0
   13.4297    0.6816    8.0866 C   0  0  0  0  0  0  0  0  0  0  0  0
   14.6320    0.8324    7.4986 N   0  0  0  0  0  0  0  0  0  0  0  0
   15.3126    1.7437    8.2111 C   0  0  0  0  0  0  0  0  0  0  0  0
   14.5311    2.1477    9.2288 N   0  0  0  0  0  0  0  0  0  0  0  0
   13.3514    1.5070    9.1812 C   0  0  0  0  0  0  0  0  0  0  0  0
   12.6018    1.5956   11.5395 C   0  0  0  0  0  0  0  0  0  0  0  0
   13.3559    2.8395   11.8794 C   0  0  0  0  0  0  0  0  0  0  0  0
   10.4379    0.4820   10.3121 H   0  0  0  0  0  0  0  0  0  0  0  0
   15.0191    0.3564    6.6450 H   0  0  0  0  0  0  0  0  0  0  0  0
   12.5026    6.5376   11.0235 C   0  0  0  0  0  0  0  0  0  0  0  0
   13.3637    7.7478   11.0538 C   0  0  0  0  0  0  0  0  0  0  0  0
   10.0153    6.8615   11.1930 C   0  0  0  0  0  0  0  0  0  0  0  0
    9.8897    6.6779    9.9650 O   0  0  0  0  0  0  0  0  0  0  0  0
   11.2937    6.8041   11.7765 N   0  0  0  0  0  0  0  0  0  0  0  0
   11.3872    6.9589   12.8012 H   0  0  0  0  0  0  0  0  0  0  0  0
    5.1700    8.7670   12.4230 Br  0  0  0  0  0  0  0  0  0  0  0  0
    6.8787    7.8891   12.5486 C   0  0  0  0  0  0  0  0  0  0  0  0
    7.7668    7.8094   11.5917 O   0  0  0  0  0  0  0  0  0  0  0  0
    8.8398    7.1339   12.0051 C   0  0  0  0  0  0  0  0  0  0  0  0
    8.5980    6.7697   13.3111 C   0  0  0  0  0  0  0  0  0  0  0  0
    7.3607    7.2384   13.6732 C   0  0  0  0  0  0  0  0  0  0  0  0
 25 26  1  0  0  0
 26 27  1  0  0  0
 26 30  2  0  0  0
 27 28  1  0  0  0
 28 29  2  0  0  0
 28 21  1  0  0  0
 29 30  1  0  0  0
 21 22  2  0  0  0
 21 23  1  0  0  0
 23 19  1  0  0  0
 19 20  1  0  0  0
 19  1  1  0  0  0
  1  2  2  0  0  0
  1  3  1  0  0  0
  3  4  1  0  0  0
  3 16  1  0  0  0
  4  5  1  0  0  0
  5  6  1  0  0  0
  6  7  1  0  0  0
  6 14  1  0  0  0
  6 15  1  0  0  0
  7  8  1  0  0  0
  8  9  1  0  0  0
  9 10  1  0  0  0
 10 11  1  0  0  0
 10 14  2  0  0  0
 11 12  1  0  0  0
 12 13  2  0  0  0
 13 14  1  0  0  0
 15 16  1  0  0  0
 23 24  1  0  0  0
  7 17  1  0  0  0
 11 18  1  0  0  0
M  END
> <minimizedAffinity>
-8.76552

$$$$
754


 27 30  0  0  0  0  0  0  0  0999 V2000
   13.9851    2.7029    9.8901 C   0  0  0  0  0  0  0  0  0  0  0  0
   13.9428    2.5878    8.6569 O   0  0  0  0  0  0  0  0  0  0  0  0
   12.8092    2.5118   10.6563 N   0  0  0  0  0  0  0  0  0  0  0  0
   11.5640    2.1805    9.9943 C   0  0  0  0  0  0  0  0  0  0  0  0
   10.4938    3.2159   10.2409 C   0  0  0  0  0  0  0  0  0  0  0  0
   10.7799    3.8030   11.5605 N   0  0  0  0  0  0  0  0  0  0  0  0
   11.3033    2.9146   12.5409 C   0  0  0  0  0  0  0  0  0  0  0  0
   12.7506    2.6257   12.1011 C   0  0  0  0  0  0  0  0  0  0  0  0
   10.5059    5.1832   11.7183 C   0  0  0  0  0  0  0  0  0  0  0  0
    9.2311    5.6471   11.8390 N   0  0  0  0  0  0  0  0  0  0  0  0
    8.9571    6.9526   11.9869 C   0  0  0  0  0  0  0  0  0  0  0  0
    9.9604    7.8561   12.0196 N   0  0  0  0  0  0  0  0  0  0  0  0
   11.2495    7.4908   11.9086 C   0  0  0  0  0  0  0  0  0  0  0  0
   11.4989    6.1189   11.7545 C   0  0  0  0  0  0  0  0  0  0  0  0
   12.3705    8.4686   11.9424 C   0  0  0  0  0  0  0  0  0  0  0  0
    7.6126    7.3851   12.1095 N   0  0  0  0  0  0  0  0  0  0  0  0
    7.2392    8.6565   12.6800 C   0  0  0  0  0  0  0  0  0  0  0  0
    6.3401    9.3990   11.7373 C   0  0  0  0  0  0  0  0  0  0  0  0
    5.8969    8.6146   10.6741 O   0  0  0  0  0  0  0  0  0  0  0  0
    5.4233    7.3879   11.1310 C   0  0  0  0  0  0  0  0  0  0  0  0
    6.5481    6.5223   11.6444 C   0  0  0  0  0  0  0  0  0  0  0  0
   17.6625    5.2525   12.8931 Br  0  0  0  0  0  0  0  0  0  0  0  0
   16.7701    4.0162   11.7035 C   0  0  0  0  0  0  0  0  0  0  0  0
   15.5398    4.0167   11.3361 O   0  0  0  0  0  0  0  0  0  0  0  0
   15.2720    3.0378   10.5256 C   0  0  0  0  0  0  0  0  0  0  0  0
   16.4388    2.3308   10.3458 C   0  0  0  0  0  0  0  0  0  0  0  0
   17.3991    2.9553   11.0997 C   0  0  0  0  0  0  0  0  0  0  0  0
 22 23  1  0  0  0
 23 24  1  0  0  0
 23 27  2  0  0  0
 24 25  1  0  0  0
 25 26  2  0  0  0
 25  1  1  0  0  0
 26 27  1  0  0  0
  1  2  2  0  0  0
  1  3  1  0  0  0
  3  4  1  0  0  0
  3  8  1  0  0  0
  4  5  1  0  0  0
  5  6  1  0  0  0
  6  7  1  0  0  0
  6  9  1  0  0  0
  7  8  1  0  0  0
  9 10  2  0  0  0
  9 14  1  0  0  0
 10 11  1  0  0  0
 11 12  2  0  0  0
 11 16  1  0  0  0
 12 13  1  0  0  0
 13 14  2  0  0  0
 13 15  1  0  0  0
 16 17  1  0  0  0
 16 21  1  0  0  0
 17 18  1  0  0  0
 18 19  1  0  0  0
 19 20  1  0  0  0
 20 21  1  0  0  0
M  END
> <minimizedAffinity>
-7.85743

$$$$
755


 28 31  0  0  0  0  0  0  0  0999 V2000
   11.6643    4.6408    9.9708 C   0  0  0  0  0  0  0  0  0  0  0  0
   12.3067    5.1732    9.0534 O   0  0  0  0  0  0  0  0  0  0  0  0
   11.1370    5.4143   11.0384 N   0  0  0  0  0  0  0  0  0  0  0  0
   10.3819    4.7790   12.1151 C   0  0  0  0  0  0  0  0  0  0  0  0
    9.8754    5.8383   13.0917 C   0  0  0  0  0  0  0  0  0  0  0  0
    9.2249    6.8696   12.3075 N   0  0  0  0  0  0  0  0  0  0  0  0
    9.9811    7.5363   11.2828 C   0  0  0  0  0  0  0  0  0  0  0  0
   11.3132    6.8504   11.1190 C   0  0  0  0  0  0  0  0  0  0  0  0
    7.8565    7.2303   12.5357 C   0  0  0  0  0  0  0  0  0  0  0  0
    7.0392    7.5640   11.5271 N   0  0  0  0  0  0  0  0  0  0  0  0
    5.7668    7.8975   11.7709 C   0  0  0  0  0  0  0  0  0  0  0  0
    5.2640    7.9123   13.0209 N   0  0  0  0  0  0  0  0  0  0  0  0
    6.0306    7.5883   14.0774 C   0  0  0  0  0  0  0  0  0  0  0  0
    7.3386    7.2470   13.8052 C   0  0  0  0  0  0  0  0  0  0  0  0
    4.8696    8.2644   10.6470 C   0  0  0  0  0  0  0  0  0  0  0  0
    5.5487    7.5884   15.4095 N   0  0  0  0  0  0  0  0  0  0  0  0
    4.1267    7.5090   15.6737 C   0  0  0  0  0  0  0  0  0  0  0  0
    3.9592    7.2175   17.1503 C   0  0  0  0  0  0  0  0  0  0  0  0
    4.5278    8.3025   17.9032 N   0  0  0  0  0  0  0  0  0  0  0  0
    5.8318    8.7107   17.4846 C   0  0  0  0  0  0  0  0  0  0  0  0
    6.4248    7.6667   16.5626 C   0  0  0  0  0  0  0  0  0  0  0  0
    3.5730    9.3752   18.0202 C   0  0  0  0  0  0  0  0  0  0  0  0
    9.1606   -0.0302    9.1243 Br  0  0  0  0  0  0  0  0  0  0  0  0
   10.4814    1.2510    9.6391 C   0  0  0  0  0  0  0  0  0  0  0  0
   10.3777    2.5503    9.5182 O   0  0  0  0  0  0  0  0  0  0  0  0
   11.4414    3.1767    9.9562 C   0  0  0  0  0  0  0  0  0  0  0  0
   12.3065    2.2050   10.3987 C   0  0  0  0  0  0  0  0  0  0  0  0
   11.7107    0.9856   10.2034 C   0  0  0  0  0  0  0  0  0  0  0  0
 23 24  1  0  0  0
 24 25  1  0  0  0
 24 28  2  0  0  0
 25 26  1  0  0  0
 26 27  2  0  0  0
 26  1  1  0  0  0
 27 28  1  0  0  0
  1  2  2  0  0  0
  1  3  1  0  0  0
  3  4  1  0  0  0
  3  8  1  0  0  0
  4  5  1  0  0  0
  5  6  1  0  0  0
  6  7  1  0  0  0
  6  9  1  0  0  0
  7  8  1  0  0  0
  9 10  2  0  0  0
  9 14  1  0  0  0
 10 11  1  0  0  0
 11 12  2  0  0  0
 11 15  1  0  0  0
 12 13  1  0  0  0
 13 14  2  0  0  0
 13 16  1  0  0  0
 16 17  1  0  0  0
 16 21  1  0  0  0
 17 18  1  0  0  0
 18 19  1  0  0  0
 19 20  1  0  0  0
 19 22  1  0  0  0
 20 21  1  0  0  0
M  END
> <minimizedAffinity>
-8.37697

$$$$
767


 32 35  0  0  0  0  0  0  0  0999 V2000
   12.6524    6.8331   11.6749 C   0  0  0  0  0  0  0  0  0  0  0  0
   10.2728    6.4767   11.0431 C   0  0  0  0  0  0  0  0  0  0  0  0
   10.6625    6.0304    9.9110 O   0  0  0  0  0  0  0  0  0  0  0  0
   11.2624    6.8981   11.9743 N   0  0  0  0  0  0  0  0  0  0  0  0
   10.9536    7.2609   12.8954 H   0  0  0  0  0  0  0  0  0  0  0  0
    6.8409    7.1117   12.0696 C   0  0  0  0  0  0  0  0  0  0  0  0
    6.7866    5.9594   11.3644 N   0  0  0  0  0  0  0  0  0  0  0  0
    7.9808    5.6456   10.9498 O   0  0  0  0  0  0  0  0  0  0  0  0
    8.8484    6.5416   11.3460 C   0  0  0  0  0  0  0  0  0  0  0  0
    8.1429    7.4447   12.0369 N   0  0  0  0  0  0  0  0  0  0  0  0
    3.5920    8.9993   15.8959 Br  0  0  0  0  0  0  0  0  0  0  0  0
    4.4046    8.5980   14.2294 C   0  0  0  0  0  0  0  0  0  0  0  0
    5.4615    7.8838   13.9881 O   0  0  0  0  0  0  0  0  0  0  0  0
    5.7382    7.8181   12.7105 C   0  0  0  0  0  0  0  0  0  0  0  0
    4.7693    8.5602   12.0604 C   0  0  0  0  0  0  0  0  0  0  0  0
    3.9028    9.0707   13.0152 C   0  0  0  0  0  0  0  0  0  0  0  0
   13.2844    5.5207   12.0871 C   0  0  0  0  0  0  0  0  0  0  0  0
   13.2257    4.5437   11.0091 N   0  0  0  0  0  0  0  0  0  0  0  0
   12.4551    3.3813   11.1831 C   0  0  0  0  0  0  0  0  0  0  0  0
   11.8545    3.2865   12.3126 O   0  0  0  0  0  0  0  0  0  0  0  0
   13.7344    4.6860   10.1179 H   0  0  0  0  0  0  0  0  0  0  0  0
   12.2621    2.2976   10.2537 C   0  0  0  0  0  0  0  0  0  0  0  0
   11.0144    1.6775   10.2027 C   0  0  0  0  0  0  0  0  0  0  0  0
   10.8004    0.6492    9.3197 C   0  0  0  0  0  0  0  0  0  0  0  0
   11.7997    0.2325    8.4960 C   0  0  0  0  0  0  0  0  0  0  0  0
   11.5766   -0.8149    7.5988 C   0  0  0  0  0  0  0  0  0  0  0  0
   10.3613   -1.4499    7.5176 C   0  0  0  0  0  0  0  0  0  0  0  0
    9.3582   -1.0259    8.3512 C   0  0  0  0  0  0  0  0  0  0  0  0
    9.5619    0.0051    9.2411 C   0  0  0  0  0  0  0  0  0  0  0  0
   12.9533    0.8316    8.5670 O   0  0  0  0  0  0  0  0  0  0  0  0
   13.2276    1.8316    9.3971 C   0  0  0  0  0  0  0  0  0  0  0  0
   14.3813    2.3204    9.3651 O   0  0  0  0  0  0  0  0  0  0  0  0
 11 12  1  0  0  0
 12 13  1  0  0  0
 12 16  2  0  0  0
 13 14  1  0  0  0
 14 15  2  0  0  0
 14  6  1  0  0  0
 15 16  1  0  0  0
  6  7  2  0  0  0
  6 10  1  0  0  0
  7  8  1  0  0  0
  8  9  1  0  0  0
  9 10  2  0  0  0
  9  2  1  0  0  0
  2  3  2  0  0  0
  2  4  1  0  0  0
  4  1  1  0  0  0
  1 17  1  0  0  0
 17 18  1  0  0  0
 18 19  1  0  0  0
 19 20  2  0  0  0
 19 22  1  0  0  0
 22 23  2  0  0  0
 22 31  1  0  0  0
 23 24  1  0  0  0
 24 25  2  0  0  0
 24 29  1  0  0  0
 25 26  1  0  0  0
 25 30  1  0  0  0
 26 27  2  0  0  0
 27 28  1  0  0  0
 28 29  2  0  0  0
 30 31  1  0  0  0
 31 32  2  0  0  0
  4  5  1  0  0  0
 18 21  1  0  0  0
M  END
> <minimizedAffinity>
-9.97099

$$$$
769


 26 29  0  0  0  0  0  0  0  0999 V2000
   10.0958    6.3486   12.5813 C   0  0  0  0  0  0  0  0  0  0  0  0
   10.5883    6.5409   13.7904 O   0  0  0  0  0  0  0  0  0  0  0  0
   10.8491    5.5307   11.7522 N   0  0  0  0  0  0  0  0  0  0  0  0
   12.1132    4.9512   12.2737 C   0  0  0  0  0  0  0  0  0  0  0  0
   12.0509    3.4488   12.1333 C   0  0  0  0  0  0  0  0  0  0  0  0
   11.8376    3.1067   10.7830 N   0  0  0  0  0  0  0  0  0  0  0  0
   11.7159    4.2524    9.9480 C   0  0  0  0  0  0  0  0  0  0  0  0
   10.5560    5.1616   10.4207 C   0  0  0  0  0  0  0  0  0  0  0  0
    7.2234   10.8669   12.3420 Br  0  0  0  0  0  0  0  0  0  0  0  0
    7.4658    9.0007   12.2526 C   0  0  0  0  0  0  0  0  0  0  0  0
    8.7175    8.4131   12.4595 C   0  0  0  0  0  0  0  0  0  0  0  0
    8.8430    7.0522   12.3840 C   0  0  0  0  0  0  0  0  0  0  0  0
    7.6839    6.3247   12.0979 C   0  0  0  0  0  0  0  0  0  0  0  0
    6.5459    6.9143   11.9140 O   0  0  0  0  0  0  0  0  0  0  0  0
    6.3919    8.1898   11.9779 C   0  0  0  0  0  0  0  0  0  0  0  0
    5.2447    8.6691   11.7829 O   0  0  0  0  0  0  0  0  0  0  0  0
   12.7130    2.1205   10.2342 C   0  0  0  0  0  0  0  0  0  0  0  0
   12.0720    1.1016    9.3836 C   0  0  0  0  0  0  0  0  0  0  0  0
   10.7601    0.7604    9.4380 C   0  0  0  0  0  0  0  0  0  0  0  0
   10.2543   -0.2062    8.6047 C   0  0  0  0  0  0  0  0  0  0  0  0
   11.0826   -0.8311    7.7124 C   0  0  0  0  0  0  0  0  0  0  0  0
   12.4174   -0.5016    7.6388 C   0  0  0  0  0  0  0  0  0  0  0  0
   12.8906    0.4576    8.4739 C   0  0  0  0  0  0  0  0  0  0  0  0
   10.3610   -1.7613    6.9837 O   0  0  0  0  0  0  0  0  0  0  0  0
    9.1480   -1.9646    7.6943 C   0  0  0  0  0  0  0  0  0  0  0  0
    8.9792   -0.7650    8.4252 O   0  0  0  0  0  0  0  0  0  0  0  0
  9 10  1  0  0  0
 10 11  2  0  0  0
 10 15  1  0  0  0
 11 12  1  0  0  0
 12 13  2  0  0  0
 12  1  1  0  0  0
 13 14  1  0  0  0
 14 15  1  0  0  0
 15 16  2  0  0  0
  1  2  2  0  0  0
  1  3  1  0  0  0
  3  4  1  0  0  0
  3  8  1  0  0  0
  4  5  1  0  0  0
  5  6  1  0  0  0
  6  7  1  0  0  0
  6 17  1  0  0  0
  7  8  1  0  0  0
 17 18  1  0  0  0
 18 19  2  0  0  0
 18 23  1  0  0  0
 19 20  1  0  0  0
 20 21  2  0  0  0
 20 26  1  0  0  0
 21 22  1  0  0  0
 21 24  1  0  0  0
 22 23  2  0  0  0
 24 25  1  0  0  0
 25 26  1  0  0  0
M  END
> <minimizedAffinity>
-9.27802

$$$$
776


 38 41  0  0  0  0  0  0  0  0999 V2000
    7.9151    7.6431   14.6143 C   0  0  0  0  0  0  0  0  0  0  0  0
    8.9910    8.7162   14.4038 C   0  0  0  0  0  0  0  0  0  0  0  0
    9.5352    8.5980   13.0216 C   0  0  0  0  0  0  0  0  0  0  0  0
   10.2037    7.2491   12.8796 C   0  0  0  0  0  0  0  0  0  0  0  0
    9.7877    6.3448   13.8387 O   0  0  0  0  0  0  0  0  0  0  0  0
    8.4166    6.3535   14.0546 C   0  0  0  0  0  0  0  0  0  0  0  0
   10.0009    6.7879   11.4824 C   0  0  0  0  0  0  0  0  0  0  0  0
   10.7082    5.4345   11.3122 C   0  0  0  0  0  0  0  0  0  0  0  0
   12.1113    5.6629   11.4199 N   0  0  0  0  0  0  0  0  0  0  0  0
   12.4844    7.0452   11.8721 C   0  0  0  0  0  0  0  0  0  0  0  0
   11.6915    7.4557   13.0687 C   0  0  0  0  0  0  0  0  0  0  0  0
   13.1143    4.7503   11.1571 C   0  0  0  0  0  0  0  0  0  0  0  0
   14.3412    5.2042   11.3082 O   0  0  0  0  0  0  0  0  0  0  0  0
   10.0232    8.4164   15.2963 O   0  0  0  0  0  0  0  0  0  0  0  0
    8.4733   10.0766   14.7428 C   0  0  0  0  0  0  0  0  0  0  0  0
    9.7354    7.8178   16.0306 H   0  0  0  0  0  0  0  0  0  0  0  0
    4.5841    8.3797   10.6037 Br  0  0  0  0  0  0  0  0  0  0  0  0
    4.9968    8.4554   12.4599 C   0  0  0  0  0  0  0  0  0  0  0  0
    6.2407    8.0462   12.8688 C   0  0  0  0  0  0  0  0  0  0  0  0
    6.6290    8.0611   14.1566 N   0  0  0  0  0  0  0  0  0  0  0  0
    5.6874    8.5174   15.0368 C   0  0  0  0  0  0  0  0  0  0  0  0
    5.9771    8.5616   16.2679 O   0  0  0  0  0  0  0  0  0  0  0  0
    4.4788    8.9184   14.6758 N   0  0  0  0  0  0  0  0  0  0  0  0
    4.0910    8.9039   13.3892 C   0  0  0  0  0  0  0  0  0  0  0  0
    2.9552    9.2772   13.0062 O   0  0  0  0  0  0  0  0  0  0  0  0
    3.7816    9.2615   15.3692 H   0  0  0  0  0  0  0  0  0  0  0  0
   13.0530    3.3919   10.7485 C   0  0  0  0  0  0  0  0  0  0  0  0
   11.9339    2.9164   10.0414 C   0  0  0  0  0  0  0  0  0  0  0  0
   11.7657    1.6487    9.5827 C   0  0  0  0  0  0  0  0  0  0  0  0
   12.8135    0.7418    9.8443 C   0  0  0  0  0  0  0  0  0  0  0  0
   13.9007    1.1756   10.5226 C   0  0  0  0  0  0  0  0  0  0  0  0
   14.0438    2.4950   10.9851 C   0  0  0  0  0  0  0  0  0  0  0  0
   10.6625    1.2245    8.9039 O   0  0  0  0  0  0  0  0  0  0  0  0
    9.7588    0.2349    9.1531 C   0  0  0  0  0  0  0  0  0  0  0  0
   10.1278   -1.0640    8.5223 C   0  0  0  0  0  0  0  0  0  0  0  0
    9.1012   -1.4458    7.5515 N   0  0  0  0  0  0  0  0  0  0  0  0
    9.2269   -0.9712    6.6456 H   0  0  0  0  0  0  0  0  0  0  0  0
    8.1529   -1.4085    7.9378 H   0  0  0  0  0  0  0  0  0  0  0  0
 17 18  1  0  0  0
 18 19  2  0  0  0
 18 24  1  0  0  0
 19 20  1  0  0  0
 20 21  1  0  0  0
 20  1  1  0  0  0
 21 22  2  0  0  0
 21 23  1  0  0  0
 23 24  1  0  0  0
 24 25  2  0  0  0
  1  2  1  0  0  0
  1  6  1  0  0  0
  2  3  1  0  0  0
  2 14  1  0  0  0
  2 15  1  0  0  0
  3  4  1  0  0  0
  4  5  1  0  0  0
  4  7  1  0  0  0
  4 11  1  0  0  0
  5  6  1  0  0  0
  7  8  1  0  0  0
  8  9  1  0  0  0
  9 10  1  0  0  0
  9 12  1  0  0  0
 10 11  1  0  0  0
 12 13  2  0  0  0
 12 27  1  0  0  0
 27 28  2  0  0  0
 27 32  1  0  0  0
 28 29  1  0  0  0
 29 30  2  0  0  0
 29 33  1  0  0  0
 30 31  1  0  0  0
 31 32  2  0  0  0
 33 34  1  0  0  0
 34 35  1  0  0  0
 35 36  1  0  0  0
 23 26  1  0  0  0
 36 37  1  0  0  0
 36 38  1  0  0  0
 14 16  1  0  0  0
M  END
> <minimizedAffinity>
-9.88188

$$$$
783


 39 42  0  0  0  0  0  0  0  0999 V2000
   10.7978    3.0589   10.7615 C   0  0  0  0  0  0  0  0  0  0  0  0
   11.7644    3.5156   11.7796 C   0  0  0  0  0  0  0  0  0  0  0  0
   11.5839    4.9786   12.2020 C   0  0  0  0  0  0  0  0  0  0  0  0
   11.6014    5.8848   10.9963 C   0  0  0  0  0  0  0  0  0  0  0  0
   11.2862    5.2023    9.8365 O   0  0  0  0  0  0  0  0  0  0  0  0
   10.3300    4.2422    9.9595 C   0  0  0  0  0  0  0  0  0  0  0  0
   12.9813    6.5130   10.9194 C   0  0  0  0  0  0  0  0  0  0  0  0
   12.9795    7.8697   11.5709 C   0  0  0  0  0  0  0  0  0  0  0  0
   12.1704    7.8098   12.7613 N   0  0  0  0  0  0  0  0  0  0  0  0
   10.7413    7.6360   12.5472 C   0  0  0  0  0  0  0  0  0  0  0  0
   10.5636    6.9615   11.2062 C   0  0  0  0  0  0  0  0  0  0  0  0
   12.7410    7.9341   14.0305 C   0  0  0  0  0  0  0  0  0  0  0  0
   11.9174    7.8599   15.0138 O   0  0  0  0  0  0  0  0  0  0  0  0
   11.4894    2.7900   12.9673 O   0  0  0  0  0  0  0  0  0  0  0  0
   13.2025    3.2536   11.4705 C   0  0  0  0  0  0  0  0  0  0  0  0
   10.5261    2.7836   13.1748 H   0  0  0  0  0  0  0  0  0  0  0  0
   14.8298    1.1211    7.9912 Br  0  0  0  0  0  0  0  0  0  0  0  0
   13.0186    1.0472    8.6279 C   0  0  0  0  0  0  0  0  0  0  0  0
   12.5323    2.0354    9.4521 C   0  0  0  0  0  0  0  0  0  0  0  0
   11.2821    1.9983    9.9009 N   0  0  0  0  0  0  0  0  0  0  0  0
   10.4703    1.0005    9.5612 C   0  0  0  0  0  0  0  0  0  0  0  0
    9.2647    0.9296    9.9711 O   0  0  0  0  0  0  0  0  0  0  0  0
   10.9270    0.0266    8.7587 N   0  0  0  0  0  0  0  0  0  0  0  0
   12.1820    0.0096    8.2729 C   0  0  0  0  0  0  0  0  0  0  0  0
   12.5829   -0.9238    7.5174 O   0  0  0  0  0  0  0  0  0  0  0  0
   10.2771   -0.7718    8.4873 H   0  0  0  0  0  0  0  0  0  0  0  0
   14.1368    8.1400   14.4026 C   0  0  0  0  0  0  0  0  0  0  0  0
   14.2730    9.0718   15.5230 N   0  0  0  0  0  0  0  0  0  0  0  0
   13.5847    9.8519   15.4483 H   0  0  0  0  0  0  0  0  0  0  0  0
   15.2239    9.5142   15.4721 H   0  0  0  0  0  0  0  0  0  0  0  0
   14.8878    6.8919   14.8091 C   0  0  0  0  0  0  0  0  0  0  0  0
   15.6604    6.4572   13.5864 C   0  0  0  0  0  0  0  0  0  0  0  0
   16.2844    7.3876   12.7974 C   0  0  0  0  0  0  0  0  0  0  0  0
   16.9853    6.9436   11.6797 C   0  0  0  0  0  0  0  0  0  0  0  0
   17.0639    5.6083   11.3564 C   0  0  0  0  0  0  0  0  0  0  0  0
   16.4221    4.7014   12.1760 C   0  0  0  0  0  0  0  0  0  0  0  0
   15.7183    5.1108   13.2903 C   0  0  0  0  0  0  0  0  0  0  0  0
   17.7743    5.2252   10.2347 O   0  0  0  0  0  0  0  0  0  0  0  0
   17.3675    5.1401    9.3034 H   0  0  0  0  0  0  0  0  0  0  0  0
 17 18  1  0  0  0
 18 19  2  0  0  0
 18 24  1  0  0  0
 19 20  1  0  0  0
 20 21  1  0  0  0
 20  1  1  0  0  0
 21 22  2  0  0  0
 21 23  1  0  0  0
 23 24  1  0  0  0
 24 25  2  0  0  0
  1  2  1  0  0  0
  1  6  1  0  0  0
  2  3  1  0  0  0
  2 14  1  0  0  0
  2 15  1  0  0  0
  3  4  1  0  0  0
  4  5  1  0  0  0
  4  7  1  0  0  0
  4 11  1  0  0  0
  5  6  1  0  0  0
  7  8  1  0  0  0
  8  9  1  0  0  0
  9 10  1  0  0  0
  9 12  1  0  0  0
 10 11  1  0  0  0
 12 13  2  0  0  0
 12 27  1  0  0  0
 27 28  1  0  0  0
 27 31  1  0  0  0
 31 32  1  0  0  0
 32 33  2  0  0  0
 32 37  1  0  0  0
 33 34  1  0  0  0
 34 35  2  0  0  0
 35 36  1  0  0  0
 35 38  1  0  0  0
 36 37  2  0  0  0
 23 26  1  0  0  0
 28 29  1  0  0  0
 28 30  1  0  0  0
 38 39  1  0  0  0
 14 16  1  0  0  0
M  END
> <minimizedAffinity>
-9.51254

$$$$
784


 39 42  0  0  0  0  0  0  0  0999 V2000
    5.2940    9.5377   16.0558 C   0  0  0  0  0  0  0  0  0  0  0  0
    4.9042    8.1274   15.5836 C   0  0  0  0  0  0  0  0  0  0  0  0
    5.4753    8.0438   14.1612 C   0  0  0  0  0  0  0  0  0  0  0  0
    5.0221    9.2173   13.3379 C   0  0  0  0  0  0  0  0  0  0  0  0
    4.0777    9.9251   14.0415 O   0  0  0  0  0  0  0  0  0  0  0  0
    4.5339   10.4912   15.2291 C   0  0  0  0  0  0  0  0  0  0  0  0
    4.3167    8.6342   12.1208 C   0  0  0  0  0  0  0  0  0  0  0  0
    5.3309    8.3011   11.0560 C   0  0  0  0  0  0  0  0  0  0  0  0
    6.6650    8.1299   11.6554 N   0  0  0  0  0  0  0  0  0  0  0  0
    7.2537    9.3221   12.1896 C   0  0  0  0  0  0  0  0  0  0  0  0
    6.1158   10.0980   12.8482 C   0  0  0  0  0  0  0  0  0  0  0  0
    7.2966    6.8892   11.7336 C   0  0  0  0  0  0  0  0  0  0  0  0
    6.7052    5.8164   11.3227 O   0  0  0  0  0  0  0  0  0  0  0  0
    5.4876    7.1430   16.3509 O   0  0  0  0  0  0  0  0  0  0  0  0
    3.4208    7.9362   15.6053 C   0  0  0  0  0  0  0  0  0  0  0  0
    4.9344    6.3224   16.3016 H   0  0  0  0  0  0  0  0  0  0  0  0
    2.6966    9.6877   20.6421 Br  0  0  0  0  0  0  0  0  0  0  0  0
    4.2929    9.7591   19.6253 C   0  0  0  0  0  0  0  0  0  0  0  0
    4.2104    9.6249   18.2393 C   0  0  0  0  0  0  0  0  0  0  0  0
    5.2911    9.6655   17.4566 N   0  0  0  0  0  0  0  0  0  0  0  0
    6.4900    9.8467   18.0884 C   0  0  0  0  0  0  0  0  0  0  0  0
    7.5408    9.8927   17.3930 O   0  0  0  0  0  0  0  0  0  0  0  0
    6.6003    9.9800   19.4209 N   0  0  0  0  0  0  0  0  0  0  0  0
    5.5207    9.9408   20.2220 C   0  0  0  0  0  0  0  0  0  0  0  0
    5.6245   10.0671   21.4854 O   0  0  0  0  0  0  0  0  0  0  0  0
    7.5629   10.1166   19.8292 H   0  0  0  0  0  0  0  0  0  0  0  0
    8.6362    6.7077   12.2707 C   0  0  0  0  0  0  0  0  0  0  0  0
    8.5936    6.4270   13.6853 N   0  0  0  0  0  0  0  0  0  0  0  0
    9.0323    7.2157   14.7420 C   0  0  0  0  0  0  0  0  0  0  0  0
    9.5698    8.3375   14.6371 O   0  0  0  0  0  0  0  0  0  0  0  0
    8.8799    6.7423   16.1759 C   0  0  0  0  0  0  0  0  0  0  0  0
    8.1673    5.4810   13.9322 H   0  0  0  0  0  0  0  0  0  0  0  0
    9.3907    5.5447   11.5532 C   0  0  0  0  0  0  0  0  0  0  0  0
   10.8167    5.5671   11.9246 C   0  0  0  0  0  0  0  0  0  0  0  0
   11.6146    6.5958   12.1635 N   0  0  0  0  0  0  0  0  0  0  0  0
   12.8743    6.1870   12.4789 C   0  0  0  0  0  0  0  0  0  0  0  0
   12.8538    4.8416   12.4328 N   0  0  0  0  0  0  0  0  0  0  0  0
   11.6086    4.4440   12.0960 C   0  0  0  0  0  0  0  0  0  0  0  0
   13.6946    4.2472   12.6328 H   0  0  0  0  0  0  0  0  0  0  0  0
 17 18  1  0  0  0
 18 19  2  0  0  0
 18 24  1  0  0  0
 19 20  1  0  0  0
 20 21  1  0  0  0
 20  1  1  0  0  0
 21 22  2  0  0  0
 21 23  1  0  0  0
 23 24  1  0  0  0
 24 25  2  0  0  0
  1  2  1  0  0  0
  1  6  1  0  0  0
  2  3  1  0  0  0
  2 14  1  0  0  0
  2 15  1  0  0  0
  3  4  1  0  0  0
  4  5  1  0  0  0
  4  7  1  0  0  0
  4 11  1  0  0  0
  5  6  1  0  0  0
  7  8  1  0  0  0
  8  9  1  0  0  0
  9 10  1  0  0  0
  9 12  1  0  0  0
 10 11  1  0  0  0
 12 13  2  0  0  0
 12 27  1  0  0  0
 27 28  1  0  0  0
 27 33  1  0  0  0
 28 29  1  0  0  0
 29 30  2  0  0  0
 29 31  1  0  0  0
 33 34  1  0  0  0
 34 35  1  0  0  0
 34 38  2  0  0  0
 35 36  2  0  0  0
 36 37  1  0  0  0
 37 38  1  0  0  0
 23 26  1  0  0  0
 28 32  1  0  0  0
 37 39  1  0  0  0
 14 16  1  0  0  0
M  END
> <minimizedAffinity>
-8.51887

$$$$
786


 25 28  0  0  0  0  0  0  0  0999 V2000
   10.2617    5.9233   12.5460 N   0  0  0  0  0  0  0  0  0  0  0  0
    9.8534    7.1163   13.1627 C   0  0  0  0  0  0  0  0  0  0  0  0
   10.3346    8.2073   12.7922 O   0  0  0  0  0  0  0  0  0  0  0  0
    9.8551    5.0223   12.8622 H   0  0  0  0  0  0  0  0  0  0  0  0
    8.8561    7.0953   14.2488 C   0  0  0  0  0  0  0  0  0  0  0  0
    8.0377    8.3618   14.2404 C   0  0  0  0  0  0  0  0  0  0  0  0
    7.3678    8.4232   12.9554 N   0  0  0  0  0  0  0  0  0  0  0  0
    6.9198    7.2981   12.3750 C   0  0  0  0  0  0  0  0  0  0  0  0
    6.3502    7.6606   11.2080 N   0  0  0  0  0  0  0  0  0  0  0  0
    6.4364    8.9500   11.0646 N   0  0  0  0  0  0  0  0  0  0  0  0
    7.0655    9.4358   12.1423 C   0  0  0  0  0  0  0  0  0  0  0  0
    7.3454   10.8939   12.3237 C   0  0  0  0  0  0  0  0  0  0  0  0
    7.0517    5.9497   12.9481 C   0  0  0  0  0  0  0  0  0  0  0  0
    7.9818    5.8764   14.1065 C   0  0  0  0  0  0  0  0  0  0  0  0
   11.2401    5.9667   11.4821 C   0  0  0  0  0  0  0  0  0  0  0  0
   10.5249   -1.1423    8.2680 Br  0  0  0  0  0  0  0  0  0  0  0  0
   11.2427    0.4967    8.9512 C   0  0  0  0  0  0  0  0  0  0  0  0
   10.4407    1.4790    9.4886 C   0  0  0  0  0  0  0  0  0  0  0  0
   10.9482    2.6463    9.9764 N   0  0  0  0  0  0  0  0  0  0  0  0
   12.2786    2.8407    9.9288 C   0  0  0  0  0  0  0  0  0  0  0  0
   12.5514    4.0455   10.4587 N   0  0  0  0  0  0  0  0  0  0  0  0
   11.4056    4.6335   10.8494 C   0  0  0  0  0  0  0  0  0  0  0  0
   10.4020    3.7399   10.5394 C   0  0  0  0  0  0  0  0  0  0  0  0
   13.1163    1.8671    9.3922 C   0  0  0  0  0  0  0  0  0  0  0  0
   12.6067    0.6916    8.9002 C   0  0  0  0  0  0  0  0  0  0  0  0
 16 17  1  0  0  0
 17 18  2  0  0  0
 17 25  1  0  0  0
 18 19  1  0  0  0
 19 20  1  0  0  0
 19 23  1  0  0  0
 20 21  2  0  0  0
 20 24  1  0  0  0
 21 22  1  0  0  0
 22 23  2  0  0  0
 22 15  1  0  0  0
 15  1  1  0  0  0
  1  2  1  0  0  0
  2  3  2  0  0  0
  2  5  1  0  0  0
  5  6  1  0  0  0
  5 14  1  0  0  0
  6  7  1  0  0  0
  7  8  1  0  0  0
  7 11  1  0  0  0
  8  9  2  0  0  0
  8 13  1  0  0  0
  9 10  1  0  0  0
 10 11  2  0  0  0
 11 12  1  0  0  0
 13 14  1  0  0  0
 24 25  2  0  0  0
  1  4  1  0  0  0
M  END
> <minimizedAffinity>
-8.36117

$$$$
789


 21 24  0  0  0  0  0  0  0  0999 V2000
    6.7460    8.2623   11.8239 C   0  0  0  0  0  0  0  0  0  0  0  0
    6.4765    8.9698   10.8159 O   0  0  0  0  0  0  0  0  0  0  0  0
    5.8456    8.2892   12.9189 N   0  0  0  0  0  0  0  0  0  0  0  0
    4.6782    9.0904   12.8603 C   0  0  0  0  0  0  0  0  0  0  0  0
    4.1860    9.5352   14.1867 C   0  0  0  0  0  0  0  0  0  0  0  0
    4.9346    9.0752   15.3211 N   0  0  0  0  0  0  0  0  0  0  0  0
    5.2192    7.6552   15.2299 C   0  0  0  0  0  0  0  0  0  0  0  0
    6.1719    7.4813   14.0626 C   0  0  0  0  0  0  0  0  0  0  0  0
    4.1185    9.4449   16.4374 C   0  0  0  0  0  0  0  0  0  0  0  0
    2.6965    9.2245   15.9854 C   0  0  0  0  0  0  0  0  0  0  0  0
    2.7872    9.0252   14.4890 C   0  0  0  0  0  0  0  0  0  0  0  0
   12.3580    2.8556   11.2640 Br  0  0  0  0  0  0  0  0  0  0  0  0
   11.4310    4.5040   11.6048 C   0  0  0  0  0  0  0  0  0  0  0  0
   10.0829    4.6371   11.3560 C   0  0  0  0  0  0  0  0  0  0  0  0
    9.4138    5.7956   11.5916 N   0  0  0  0  0  0  0  0  0  0  0  0
    8.1540    6.1737   11.4422 N   0  0  0  0  0  0  0  0  0  0  0  0
    7.9682    7.4461   11.8203 C   0  0  0  0  0  0  0  0  0  0  0  0
    9.2335    7.8632   12.2340 C   0  0  0  0  0  0  0  0  0  0  0  0
   10.1286    6.8230   12.0856 C   0  0  0  0  0  0  0  0  0  0  0  0
   11.4591    6.7026   12.3361 N   0  0  0  0  0  0  0  0  0  0  0  0
   12.1412    5.5694   12.1113 C   0  0  0  0  0  0  0  0  0  0  0  0
 12 13  1  0  0  0
 13 14  2  0  0  0
 13 21  1  0  0  0
 14 15  1  0  0  0
 15 16  1  0  0  0
 15 19  1  0  0  0
 16 17  2  0  0  0
 17 18  1  0  0  0
 17  1  1  0  0  0
 18 19  2  0  0  0
 19 20  1  0  0  0
 20 21  2  0  0  0
  1  2  2  0  0  0
  1  3  1  0  0  0
  3  4  1  0  0  0
  3  8  1  0  0  0
  4  5  1  0  0  0
  5  6  1  0  0  0
  5 11  1  0  0  0
  6  7  1  0  0  0
  6  9  1  0  0  0
  7  8  1  0  0  0
  9 10  1  0  0  0
 10 11  1  0  0  0
M  END
> <minimizedAffinity>
-7.22218

$$$$
790


 25 28  0  0  0  0  0  0  0  0999 V2000
    7.3506    8.7542   11.7890 C   0  0  0  0  0  0  0  0  0  0  0  0
    7.1934    9.3764   10.6993 O   0  0  0  0  0  0  0  0  0  0  0  0
    6.2352    8.2687   12.5188 N   0  0  0  0  0  0  0  0  0  0  0  0
    6.5081    7.5559   13.7762 C   0  0  0  0  0  0  0  0  0  0  0  0
    5.2352    7.7585   14.5983 C   0  0  0  0  0  0  0  0  0  0  0  0
    4.8095    9.1009   14.3353 N   0  0  0  0  0  0  0  0  0  0  0  0
    4.0086    9.2046   13.0803 C   0  0  0  0  0  0  0  0  0  0  0  0
    4.8689    8.4608   12.0552 C   0  0  0  0  0  0  0  0  0  0  0  0
    5.0840   10.2519   15.0554 C   0  0  0  0  0  0  0  0  0  0  0  0
    4.5411   11.3556   14.6334 O   0  0  0  0  0  0  0  0  0  0  0  0
   12.9367    4.5261   11.1440 Br  0  0  0  0  0  0  0  0  0  0  0  0
   11.5296    5.7728   11.4463 C   0  0  0  0  0  0  0  0  0  0  0  0
   11.6879    6.8045   12.3173 C   0  0  0  0  0  0  0  0  0  0  0  0
   10.7107    7.6767   12.5322 N   0  0  0  0  0  0  0  0  0  0  0  0
   10.6354    8.7481   13.3237 N   0  0  0  0  0  0  0  0  0  0  0  0
    9.4171    9.2933   13.1731 C   0  0  0  0  0  0  0  0  0  0  0  0
    8.6970    8.5533   12.2645 C   0  0  0  0  0  0  0  0  0  0  0  0
    9.5494    7.5270   11.8723 C   0  0  0  0  0  0  0  0  0  0  0  0
    9.3772    6.5135   11.0092 N   0  0  0  0  0  0  0  0  0  0  0  0
   10.3458    5.6247   10.7772 C   0  0  0  0  0  0  0  0  0  0  0  0
    5.9060   10.4338   16.2400 C   0  0  0  0  0  0  0  0  0  0  0  0
    7.1155   11.0116   16.2439 O   0  0  0  0  0  0  0  0  0  0  0  0
    7.6317   11.0452   17.4246 C   0  0  0  0  0  0  0  0  0  0  0  0
    6.7645   10.4690   18.3186 C   0  0  0  0  0  0  0  0  0  0  0  0
    5.6771   10.0873   17.5497 C   0  0  0  0  0  0  0  0  0  0  0  0
 11 12  1  0  0  0
 12 13  2  0  0  0
 12 20  1  0  0  0
 13 14  1  0  0  0
 14 15  1  0  0  0
 14 18  1  0  0  0
 15 16  2  0  0  0
 16 17  1  0  0  0
 17 18  2  0  0  0
 17  1  1  0  0  0
 18 19  1  0  0  0
 19 20  2  0  0  0
  1  2  2  0  0  0
  1  3  1  0  0  0
  3  4  1  0  0  0
  3  8  1  0  0  0
  4  5  1  0  0  0
  5  6  1  0  0  0
  6  7  1  0  0  0
  6  9  1  0  0  0
  7  8  1  0  0  0
  9 10  2  0  0  0
  9 21  1  0  0  0
 21 22  1  0  0  0
 21 25  2  0  0  0
 22 23  1  0  0  0
 23 24  2  0  0  0
 24 25  1  0  0  0
M  END
> <minimizedAffinity>
-8.05579

$$$$
797


 28 31  0  0  0  0  0  0  0  0999 V2000
   10.4741    5.4318   11.0770 O   0  0  0  0  0  0  0  0  0  0  0  0
   11.5219    5.0293   10.2755 C   0  0  0  0  0  0  0  0  0  0  0  0
   11.6973    5.5777    9.1687 O   0  0  0  0  0  0  0  0  0  0  0  0
   12.4131    3.9502   10.7596 C   0  0  0  0  0  0  0  0  0  0  0  0
   12.2132    2.7419   10.0123 N   0  0  0  0  0  0  0  0  0  0  0  0
   11.0266    1.9811    9.9608 C   0  0  0  0  0  0  0  0  0  0  0  0
    9.9247    2.1813   10.5345 O   0  0  0  0  0  0  0  0  0  0  0  0
   11.2606    0.8203    9.0749 C   0  0  0  0  0  0  0  0  0  0  0  0
   12.5486    0.9004    8.6195 C   0  0  0  0  0  0  0  0  0  0  0  0
   13.0685   -0.0360    7.7730 C   0  0  0  0  0  0  0  0  0  0  0  0
   12.2674   -1.0793    7.3769 C   0  0  0  0  0  0  0  0  0  0  0  0
   10.9668   -1.1605    7.8357 C   0  0  0  0  0  0  0  0  0  0  0  0
   10.4327   -0.2207    8.6904 C   0  0  0  0  0  0  0  0  0  0  0  0
   13.1639    2.0985    9.1953 C   0  0  0  0  0  0  0  0  0  0  0  0
   14.3580    2.4662    8.9734 O   0  0  0  0  0  0  0  0  0  0  0  0
    9.8719    6.6994   11.0565 C   0  0  0  0  0  0  0  0  0  0  0  0
    3.1667    8.4424   15.7495 Br  0  0  0  0  0  0  0  0  0  0  0  0
    4.6058    8.2478   14.4965 C   0  0  0  0  0  0  0  0  0  0  0  0
    5.6144    7.3298   14.6908 C   0  0  0  0  0  0  0  0  0  0  0  0
    6.6437    7.1641   13.8324 N   0  0  0  0  0  0  0  0  0  0  0  0
    6.7497    7.9007   12.7121 C   0  0  0  0  0  0  0  0  0  0  0  0
    7.7673    7.7492   11.8470 N   0  0  0  0  0  0  0  0  0  0  0  0
    8.7611    6.8479   12.0321 C   0  0  0  0  0  0  0  0  0  0  0  0
    8.6733    6.0820   13.1753 C   0  0  0  0  0  0  0  0  0  0  0  0
    7.6121    6.2524   14.0598 C   0  0  0  0  0  0  0  0  0  0  0  0
    7.5232    5.5684   15.0913 O   0  0  0  0  0  0  0  0  0  0  0  0
    5.7405    8.8407   12.4879 C   0  0  0  0  0  0  0  0  0  0  0  0
    4.6861    9.0186   13.3565 C   0  0  0  0  0  0  0  0  0  0  0  0
 17 18  1  0  0  0
 18 19  2  0  0  0
 18 28  1  0  0  0
 19 20  1  0  0  0
 20 21  1  0  0  0
 20 25  1  0  0  0
 21 22  2  0  0  0
 21 27  1  0  0  0
 22 23  1  0  0  0
 23 24  2  0  0  0
 23 16  1  0  0  0
 24 25  1  0  0  0
 25 26  2  0  0  0
 16  1  1  0  0  0
  1  2  1  0  0  0
  2  3  2  0  0  0
  2  4  1  0  0  0
  4  5  1  0  0  0
  5  6  1  0  0  0
  5 14  1  0  0  0
  6  7  2  0  0  0
  6  8  1  0  0  0
  8  9  2  0  0  0
  8 13  1  0  0  0
  9 10  1  0  0  0
  9 14  1  0  0  0
 10 11  2  0  0  0
 11 12  1  0  0  0
 12 13  2  0  0  0
 14 15  2  0  0  0
 27 28  2  0  0  0
M  END
> <minimizedAffinity>
-9.45074

$$$$
800


 29 32  0  0  0  0  0  0  0  0999 V2000
    7.1781    6.4862   11.9396 C   0  0  0  0  0  0  0  0  0  0  0  0
    6.6261    5.8322   11.0173 O   0  0  0  0  0  0  0  0  0  0  0  0
    8.0126    5.8164   12.8022 O   0  0  0  0  0  0  0  0  0  0  0  0
    9.3395    6.2309   13.0670 C   0  0  0  0  0  0  0  0  0  0  0  0
   14.5805    1.4904    8.7833 Br  0  0  0  0  0  0  0  0  0  0  0  0
   13.4076    2.3944    9.9899 C   0  0  0  0  0  0  0  0  0  0  0  0
   12.7807    3.5490    9.5738 C   0  0  0  0  0  0  0  0  0  0  0  0
   11.9553    4.1877   10.4202 N   0  0  0  0  0  0  0  0  0  0  0  0
   11.7221    3.7282   11.6666 C   0  0  0  0  0  0  0  0  0  0  0  0
   10.8859    4.3878   12.5038 N   0  0  0  0  0  0  0  0  0  0  0  0
   10.2539    5.5175   12.1406 C   0  0  0  0  0  0  0  0  0  0  0  0
   10.4787    6.0008   10.8726 C   0  0  0  0  0  0  0  0  0  0  0  0
   11.3423    5.3199   10.0085 C   0  0  0  0  0  0  0  0  0  0  0  0
   11.5523    5.7480    8.8617 O   0  0  0  0  0  0  0  0  0  0  0  0
   12.3473    2.5717   12.0898 C   0  0  0  0  0  0  0  0  0  0  0  0
   13.2029    1.8807   11.2614 C   0  0  0  0  0  0  0  0  0  0  0  0
    6.8777    7.9397   12.0173 C   0  0  0  0  0  0  0  0  0  0  0  0
    5.6274    8.2092   12.6630 N   0  0  0  0  0  0  0  0  0  0  0  0
    4.3794    8.4698   12.0223 C   0  0  0  0  0  0  0  0  0  0  0  0
    4.1990    8.4996   10.7707 O   0  0  0  0  0  0  0  0  0  0  0  0
    3.4009    8.6843   13.0330 N   0  0  0  0  0  0  0  0  0  0  0  0
    4.0566    8.7195   14.3156 C   0  0  0  0  0  0  0  0  0  0  0  0
    4.0948   10.0995   14.9169 C   0  0  0  0  0  0  0  0  0  0  0  0
    4.3423    9.8343   16.3687 C   0  0  0  0  0  0  0  0  0  0  0  0
    4.0586    8.3838   16.6292 C   0  0  0  0  0  0  0  0  0  0  0  0
    3.3704    7.9140   15.3659 C   0  0  0  0  0  0  0  0  0  0  0  0
    5.4243    8.2622   14.0768 C   0  0  0  0  0  0  0  0  0  0  0  0
    6.3027    7.9571   14.9170 O   0  0  0  0  0  0  0  0  0  0  0  0
    2.3900    8.7928   12.8419 H   0  0  0  0  0  0  0  0  0  0  0  0
  5  6  1  0  0  0
  6  7  2  0  0  0
  6 16  1  0  0  0
  7  8  1  0  0  0
  8  9  1  0  0  0
  8 13  1  0  0  0
  9 10  2  0  0  0
  9 15  1  0  0  0
 10 11  1  0  0  0
 11 12  2  0  0  0
 11  4  1  0  0  0
 12 13  1  0  0  0
 13 14  2  0  0  0
  4  3  1  0  0  0
  3  1  1  0  0  0
  1  2  2  0  0  0
  1 17  1  0  0  0
 17 18  1  0  0  0
 18 19  1  0  0  0
 18 27  1  0  0  0
 19 20  2  0  0  0
 19 21  1  0  0  0
 21 22  1  0  0  0
 22 23  1  0  0  0
 22 26  1  0  0  0
 22 27  1  0  0  0
 23 24  1  0  0  0
 24 25  1  0  0  0
 25 26  1  0  0  0
 27 28  2  0  0  0
 15 16  2  0  0  0
 21 29  1  0  0  0
M  END
> <minimizedAffinity>
-9.25973

$$$$
803


 31 34  0  0  0  0  0  0  0  0999 V2000
   13.8296    6.3166   12.2062 Br  0  0  0  0  0  0  0  0  0  0  0  0
   12.6725    4.9725   11.5250 C   0  0  0  0  0  0  0  0  0  0  0  0
   13.0833    3.9866   10.6973 C   0  0  0  0  0  0  0  0  0  0  0  0
   12.2953    2.9896   10.2843 N   0  0  0  0  0  0  0  0  0  0  0  0
   11.0332    2.9622   10.7107 C   0  0  0  0  0  0  0  0  0  0  0  0
   10.2087    1.9593   10.2965 N   0  0  0  0  0  0  0  0  0  0  0  0
   10.5990    0.9928    9.4772 C   0  0  0  0  0  0  0  0  0  0  0  0
   11.8982    0.9984    9.0231 C   0  0  0  0  0  0  0  0  0  0  0  0
   12.3620    0.0234    8.1624 C   0  0  0  0  0  0  0  0  0  0  0  0
   11.5486   -1.0153    7.7080 C   0  0  0  0  0  0  0  0  0  0  0  0
   10.2499   -1.0110    8.1692 C   0  0  0  0  0  0  0  0  0  0  0  0
    9.7809   -0.0357    9.0321 C   0  0  0  0  0  0  0  0  0  0  0  0
   12.7231    2.0288    9.4579 C   0  0  0  0  0  0  0  0  0  0  0  0
   13.9063    2.0464    9.0517 O   0  0  0  0  0  0  0  0  0  0  0  0
   10.5966    3.9387   11.5397 N   0  0  0  0  0  0  0  0  0  0  0  0
   11.3151    4.9582   11.9902 C   0  0  0  0  0  0  0  0  0  0  0  0
    9.5685    3.8013   11.8083 H   0  0  0  0  0  0  0  0  0  0  0  0
   10.9198    6.0249   12.7334 N   0  0  0  0  0  0  0  0  0  0  0  0
    9.8269    5.3522   13.2042 H   0  0  0  0  0  0  0  0  0  0  0  0
   10.5298    7.0758   13.4660 C   0  0  0  0  0  0  0  0  0  0  0  0
    9.6622    8.0229   12.9064 C   0  0  0  0  0  0  0  0  0  0  0  0
    9.4367    9.2083   13.5256 C   0  0  0  0  0  0  0  0  0  0  0  0
   10.0525    9.4998   14.7184 C   0  0  0  0  0  0  0  0  0  0  0  0
   10.9109    8.6091   15.3238 C   0  0  0  0  0  0  0  0  0  0  0  0
   11.1253    7.4155   14.6753 C   0  0  0  0  0  0  0  0  0  0  0  0
    8.8512    7.7231   11.7198 C   0  0  0  0  0  0  0  0  0  0  0  0
    9.3971    7.8467   10.5942 O   0  0  0  0  0  0  0  0  0  0  0  0
    7.5459    7.3249   11.7308 O   0  0  0  0  0  0  0  0  0  0  0  0
    7.1112    6.1376   12.3653 C   0  0  0  0  0  0  0  0  0  0  0  0
    6.5642    6.4523   13.7607 C   0  0  0  0  0  0  0  0  0  0  0  0
    7.3934    5.7118   14.7826 C   0  0  0  0  0  0  0  0  0  0  0  0
  1  2  1  0  0  0
  2  3  2  0  0  0
  2 16  1  0  0  0
  3  4  1  0  0  0
  4  5  1  0  0  0
  4 13  1  0  0  0
  5  6  2  0  0  0
  5 15  1  0  0  0
  6  7  1  0  0  0
  7  8  2  0  0  0
  7 12  1  0  0  0
  8  9  1  0  0  0
  8 13  1  0  0  0
  9 10  2  0  0  0
 10 11  1  0  0  0
 11 12  2  0  0  0
 13 14  2  0  0  0
 15 16  2  0  0  0
 16 18  1  0  0  0
 18 20  1  0  0  0
 20 21  2  0  0  0
 20 25  1  0  0  0
 21 22  1  0  0  0
 21 26  1  0  0  0
 22 23  2  0  0  0
 23 24  1  0  0  0
 24 25  2  0  0  0
 26 27  2  0  0  0
 26 28  1  0  0  0
 28 29  1  0  0  0
 29 30  1  0  0  0
 30 31  1  0  0  0
 15 17  1  0  0  0
 18 19  1  0  0  0
M  END
> <minimizedAffinity>
-8.55630

$$$$
814


 31 34  0  0  0  0  0  0  0  0999 V2000
   13.3406    2.7469   11.2048 N   0  0  0  0  0  0  0  0  0  0  0  0
   12.1474    3.1403   11.5881 N   0  0  0  0  0  0  0  0  0  0  0  0
   12.1835    4.4127   12.0110 C   0  0  0  0  0  0  0  0  0  0  0  0
   13.4520    4.8294   11.8864 N   0  0  0  0  0  0  0  0  0  0  0  0
   14.1687    3.7818   11.3826 C   0  0  0  0  0  0  0  0  0  0  0  0
   15.5994    3.7833   11.0826 C   0  0  0  0  0  0  0  0  0  0  0  0
   16.4549    4.1047   12.2851 C   0  0  0  0  0  0  0  0  0  0  0  0
   16.3606    5.5640   12.6724 C   0  0  0  0  0  0  0  0  0  0  0  0
   15.0407    5.9295   13.2779 C   0  0  0  0  0  0  0  0  0  0  0  0
   13.9623    6.1432   12.2251 C   0  0  0  0  0  0  0  0  0  0  0  0
   13.6966    1.4569   10.6936 C   0  0  0  0  0  0  0  0  0  0  0  0
   13.3431    1.3144    9.2563 C   0  0  0  0  0  0  0  0  0  0  0  0
   14.0423    1.9449    8.4194 O   0  0  0  0  0  0  0  0  0  0  0  0
    8.6259   -2.1624    7.3143 Br  0  0  0  0  0  0  0  0  0  0  0  0
   10.0914   -1.0754    7.9260 C   0  0  0  0  0  0  0  0  0  0  0  0
   11.3093   -1.1289    7.2701 C   0  0  0  0  0  0  0  0  0  0  0  0
   12.3731   -0.3456    7.7076 C   0  0  0  0  0  0  0  0  0  0  0  0
   12.2463    0.4939    8.7900 C   0  0  0  0  0  0  0  0  0  0  0  0
   11.0218    0.5220    9.4191 C   0  0  0  0  0  0  0  0  0  0  0  0
    9.9553   -0.2400    9.0089 C   0  0  0  0  0  0  0  0  0  0  0  0
   11.0703    5.2261   12.5191 C   0  0  0  0  0  0  0  0  0  0  0  0
   10.3946    5.9435   11.4818 N   0  0  0  0  0  0  0  0  0  0  0  0
   10.8079    6.0019   10.5397 H   0  0  0  0  0  0  0  0  0  0  0  0
    9.1475    6.6025   11.6799 C   0  0  0  0  0  0  0  0  0  0  0  0
    9.0445    7.9727   11.7603 C   0  0  0  0  0  0  0  0  0  0  0  0
    7.8377    8.5962   11.9462 C   0  0  0  0  0  0  0  0  0  0  0  0
    6.7064    7.8503   12.0559 C   0  0  0  0  0  0  0  0  0  0  0  0
    6.8054    6.4786   11.9767 C   0  0  0  0  0  0  0  0  0  0  0  0
    8.0140    5.8406   11.7889 C   0  0  0  0  0  0  0  0  0  0  0  0
    5.4829    8.4477   12.2436 O   0  0  0  0  0  0  0  0  0  0  0  0
    5.2577    9.4420   13.2121 C   0  0  0  0  0  0  0  0  0  0  0  0
 14 15  1  0  0  0
 15 16  2  0  0  0
 15 20  1  0  0  0
 16 17  1  0  0  0
 17 18  2  0  0  0
 18 19  1  0  0  0
 18 12  1  0  0  0
 19 20  2  0  0  0
 12 13  2  0  0  0
 12 11  1  0  0  0
 11  1  1  0  0  0
  1  2  1  0  0  0
  1  5  2  0  0  0
  2  3  2  0  0  0
  3  4  1  0  0  0
  3 21  1  0  0  0
  4  5  1  0  0  0
  4 10  1  0  0  0
  5  6  1  0  0  0
  6  7  1  0  0  0
  7  8  1  0  0  0
  8  9  1  0  0  0
  9 10  1  0  0  0
 21 22  1  0  0  0
 22 24  1  0  0  0
 24 25  2  0  0  0
 24 29  1  0  0  0
 25 26  1  0  0  0
 26 27  2  0  0  0
 27 28  1  0  0  0
 27 30  1  0  0  0
 28 29  2  0  0  0
 30 31  1  0  0  0
 22 23  1  0  0  0
M  END
> <minimizedAffinity>
-8.92644

$$$$
827


 29 32  0  0  0  0  0  0  0  0999 V2000
   15.2972    5.1381   12.9731 C   0  0  0  0  0  0  0  0  0  0  0  0
   14.9476    6.4538   12.4424 N   0  0  0  0  0  0  0  0  0  0  0  0
   16.0167    6.9750   11.7552 C   0  0  0  0  0  0  0  0  0  0  0  0
   16.2642    8.2113   11.4003 C   0  0  0  0  0  0  0  0  0  0  0  0
   17.3714    8.8806   10.6581 C   0  0  0  0  0  0  0  0  0  0  0  0
   18.5431    7.9943   10.3746 C   0  0  0  0  0  0  0  0  0  0  0  0
   18.1375    6.7669    9.5931 C   0  0  0  0  0  0  0  0  0  0  0  0
   17.9144    5.6029   10.5383 C   0  0  0  0  0  0  0  0  0  0  0  0
   16.9663    5.9009   11.5628 N   0  0  0  0  0  0  0  0  0  0  0  0
   16.8379    5.0280   12.7374 C   0  0  0  0  0  0  0  0  0  0  0  0
   15.0837    5.0151   14.2912 O   0  0  0  0  0  0  0  0  0  0  0  0
   15.0130    7.0413   13.4168 H   0  0  0  0  0  0  0  0  0  0  0  0
   15.0627    4.1432   14.7119 H   0  0  0  0  0  0  0  0  0  0  0  0
   12.9757    0.6661    9.4254 Br  0  0  0  0  0  0  0  0  0  0  0  0
   13.6838    2.0374   10.5224 C   0  0  0  0  0  0  0  0  0  0  0  0
   14.9816    2.4676   10.3199 C   0  0  0  0  0  0  0  0  0  0  0  0
   15.5134    3.4700   11.1032 C   0  0  0  0  0  0  0  0  0  0  0  0
   14.7641    4.0572   12.0961 C   0  0  0  0  0  0  0  0  0  0  0  0
   13.4853    3.6307   12.2934 C   0  0  0  0  0  0  0  0  0  0  0  0
   12.9247    2.6136   11.5093 C   0  0  0  0  0  0  0  0  0  0  0  0
   13.6330    6.6398   12.1056 C   0  0  0  0  0  0  0  0  0  0  0  0
   13.0973    6.4640   10.8654 C   0  0  0  0  0  0  0  0  0  0  0  0
   11.7821    6.8371   10.5401 C   0  0  0  0  0  0  0  0  0  0  0  0
   10.9626    7.4061   11.4789 C   0  0  0  0  0  0  0  0  0  0  0  0
   11.4997    7.5863   12.7453 C   0  0  0  0  0  0  0  0  0  0  0  0
   12.7907    7.2204   13.0595 C   0  0  0  0  0  0  0  0  0  0  0  0
    9.6671    7.7905   11.1746 O   0  0  0  0  0  0  0  0  0  0  0  0
    8.5450    7.5809   11.9939 C   0  0  0  0  0  0  0  0  0  0  0  0
    8.1943    6.0882   11.8414 C   0  0  0  0  0  0  0  0  0  0  0  0
 14 15  1  0  0  0
 15 16  2  0  0  0
 15 20  1  0  0  0
 16 17  1  0  0  0
 17 18  2  0  0  0
 18 19  1  0  0  0
 18  1  1  0  0  0
 19 20  2  0  0  0
  1  2  1  0  0  0
  1 10  1  0  0  0
  1 11  1  0  0  0
  2  3  1  0  0  0
  2 21  1  0  0  0
  3  4  2  0  0  0
  3  9  1  0  0  0
  4  5  1  0  0  0
  5  6  1  0  0  0
  6  7  1  0  0  0
  7  8  1  0  0  0
  8  9  1  0  0  0
  9 10  1  0  0  0
 21 22  2  0  0  0
 21 26  1  0  0  0
 22 23  1  0  0  0
 23 24  2  0  0  0
 24 25  1  0  0  0
 24 27  1  0  0  0
 25 26  2  0  0  0
 27 28  1  0  0  0
 28 29  1  0  0  0
  2 12  1  0  0  0
 11 13  1  0  0  0
M  CHG 1   2   1
M  END
> <minimizedAffinity>
-7.07391

$$$$
833


 28 31  0  0  0  0  0  0  0  0999 V2000
   13.2200    3.5449   11.9422 C   0  0  0  0  0  0  0  0  0  0  0  0
   12.4821    4.1525   10.8433 N   0  0  0  0  0  0  0  0  0  0  0  0
   12.8159    5.4657   10.3034 C   0  0  0  0  0  0  0  0  0  0  0  0
   11.7646    6.0173    9.4122 C   0  0  0  0  0  0  0  0  0  0  0  0
   10.3825    6.0100   10.0121 C   0  0  0  0  0  0  0  0  0  0  0  0
    9.7071    4.7557    9.4898 C   0  0  0  0  0  0  0  0  0  0  0  0
   10.2890    3.5136    9.9061 C   0  0  0  0  0  0  0  0  0  0  0  0
   11.4815    3.2508   10.4885 C   0  0  0  0  0  0  0  0  0  0  0  0
   11.8552    1.9288   10.8002 N   0  0  0  0  0  0  0  0  0  0  0  0
   13.0129    2.1044   11.6280 C   0  0  0  0  0  0  0  0  0  0  0  0
   12.6310    3.9576   13.1090 O   0  0  0  0  0  0  0  0  0  0  0  0
   11.1372    1.3913   11.3385 H   0  0  0  0  0  0  0  0  0  0  0  0
   12.6797    4.9240   13.2649 H   0  0  0  0  0  0  0  0  0  0  0  0
   19.1175    5.1944   11.8964 Br  0  0  0  0  0  0  0  0  0  0  0  0
   17.2714    4.6872   11.9041 C   0  0  0  0  0  0  0  0  0  0  0  0
   16.8311    3.7296   11.0200 C   0  0  0  0  0  0  0  0  0  0  0  0
   15.4916    3.3390   11.0010 C   0  0  0  0  0  0  0  0  0  0  0  0
   14.6354    3.9648   11.9113 C   0  0  0  0  0  0  0  0  0  0  0  0
   15.0597    4.9131   12.7877 C   0  0  0  0  0  0  0  0  0  0  0  0
   16.3928    5.2869   12.7911 C   0  0  0  0  0  0  0  0  0  0  0  0
   12.1651    1.3006    9.5560 C   0  0  0  0  0  0  0  0  0  0  0  0
   11.2799    0.4107    8.9713 C   0  0  0  0  0  0  0  0  0  0  0  0
   11.7081   -0.2044    7.8021 C   0  0  0  0  0  0  0  0  0  0  0  0
   12.9377    0.0206    7.2113 C   0  0  0  0  0  0  0  0  0  0  0  0
   13.8055    0.9361    7.8437 C   0  0  0  0  0  0  0  0  0  0  0  0
   13.3769    1.5274    8.9767 C   0  0  0  0  0  0  0  0  0  0  0  0
   10.0651    0.1822    9.5418 O   0  0  0  0  0  0  0  0  0  0  0  0
    9.0299   -0.4556    8.8404 C   0  0  0  0  0  0  0  0  0  0  0  0
 14 15  1  0  0  0
 15 16  2  0  0  0
 15 20  1  0  0  0
 16 17  1  0  0  0
 17 18  2  0  0  0
 18 19  1  0  0  0
 18  1  1  0  0  0
 19 20  2  0  0  0
  1  2  1  0  0  0
  1 10  1  0  0  0
  1 11  1  0  0  0
  2  3  1  0  0  0
  2  8  1  0  0  0
  3  4  1  0  0  0
  4  5  1  0  0  0
  5  6  1  0  0  0
  6  7  1  0  0  0
  7  8  2  0  0  0
  8  9  1  0  0  0
  9 10  1  0  0  0
  9 21  1  0  0  0
 21 22  2  0  0  0
 21 26  1  0  0  0
 22 23  1  0  0  0
 22 27  1  0  0  0
 23 24  2  0  0  0
 24 25  1  0  0  0
 25 26  2  0  0  0
 27 28  1  0  0  0
  9 12  1  0  0  0
 11 13  1  0  0  0
M  CHG 1   9   1
M  END
> <minimizedAffinity>
-7.53080

$$$$
834


 28 31  0  0  0  0  0  0  0  0999 V2000
   11.4170    5.5679   11.6091 C   0  0  0  0  0  0  0  0  0  0  0  0
   11.8948    6.7728   12.2071 N   0  0  0  0  0  0  0  0  0  0  0  0
   12.7802    7.7446   11.6434 C   0  0  0  0  0  0  0  0  0  0  0  0
   13.8865    8.2348   12.4950 C   0  0  0  0  0  0  0  0  0  0  0  0
   13.9586    7.7133   13.8845 C   0  0  0  0  0  0  0  0  0  0  0  0
   12.8646    8.2977   14.7787 C   0  0  0  0  0  0  0  0  0  0  0  0
   11.6569    7.4346   14.5935 C   0  0  0  0  0  0  0  0  0  0  0  0
   11.2517    6.7938   13.5101 C   0  0  0  0  0  0  0  0  0  0  0  0
   10.0859    5.9806   13.4542 N   0  0  0  0  0  0  0  0  0  0  0  0
   10.5781    4.8746   12.6879 C   0  0  0  0  0  0  0  0  0  0  0  0
   10.6265    5.8124   10.4693 O   0  0  0  0  0  0  0  0  0  0  0  0
    9.8365    5.7098   14.4387 H   0  0  0  0  0  0  0  0  0  0  0  0
    9.8626    5.1858   10.5493 H   0  0  0  0  0  0  0  0  0  0  0  0
   15.2643    1.2544    9.4424 Br  0  0  0  0  0  0  0  0  0  0  0  0
   14.1050    2.5989   10.1548 C   0  0  0  0  0  0  0  0  0  0  0  0
   14.3686    3.1961   11.3691 C   0  0  0  0  0  0  0  0  0  0  0  0
   13.5121    4.1681   11.8708 C   0  0  0  0  0  0  0  0  0  0  0  0
   12.4017    4.5671   11.2043 C   0  0  0  0  0  0  0  0  0  0  0  0
   12.1266    3.9585    9.9614 C   0  0  0  0  0  0  0  0  0  0  0  0
   12.9793    3.0010    9.4760 C   0  0  0  0  0  0  0  0  0  0  0  0
    9.0573    6.6937   12.8180 C   0  0  0  0  0  0  0  0  0  0  0  0
    7.9077    6.0335   12.3470 C   0  0  0  0  0  0  0  0  0  0  0  0
    6.8898    6.6993   11.7192 C   0  0  0  0  0  0  0  0  0  0  0  0
    6.9511    8.0623   11.5224 C   0  0  0  0  0  0  0  0  0  0  0  0
    8.0613    8.7284   11.9731 C   0  0  0  0  0  0  0  0  0  0  0  0
    9.0874    8.0563   12.6051 C   0  0  0  0  0  0  0  0  0  0  0  0
    5.8987    8.7386   10.8762 O   0  0  0  0  0  0  0  0  0  0  0  0
    4.5936    8.2275   10.9378 C   0  0  0  0  0  0  0  0  0  0  0  0
 14 15  1  0  0  0
 15 16  2  0  0  0
 15 20  1  0  0  0
 16 17  1  0  0  0
 17 18  2  0  0  0
 18 19  1  0  0  0
 18  1  1  0  0  0
 19 20  2  0  0  0
  1  2  1  0  0  0
  1 10  1  0  0  0
  1 11  1  0  0  0
  2  3  1  0  0  0
  2  8  1  0  0  0
  3  4  1  0  0  0
  4  5  1  0  0  0
  5  6  1  0  0  0
  6  7  1  0  0  0
  7  8  2  0  0  0
  8  9  1  0  0  0
  9 10  1  0  0  0
  9 21  1  0  0  0
 21 22  2  0  0  0
 21 26  1  0  0  0
 22 23  1  0  0  0
 23 24  2  0  0  0
 24 25  1  0  0  0
 24 27  1  0  0  0
 25 26  2  0  0  0
 27 28  1  0  0  0
  9 12  1  0  0  0
 11 13  1  0  0  0
M  CHG 1   9   1
M  END
> <minimizedAffinity>
-7.37199

$$$$
835


 27 30  0  0  0  0  0  0  0  0999 V2000
   12.5368    3.1764   10.4507 C   0  0  0  0  0  0  0  0  0  0  0  0
   13.9656    3.0144   10.6126 N   0  0  0  0  0  0  0  0  0  0  0  0
   15.0451    2.3087    9.9549 C   0  0  0  0  0  0  0  0  0  0  0  0
   16.3434    3.0887    9.9888 C   0  0  0  0  0  0  0  0  0  0  0  0
   16.6919    3.3556   11.4146 C   0  0  0  0  0  0  0  0  0  0  0  0
   15.5579    3.9540   12.1504 C   0  0  0  0  0  0  0  0  0  0  0  0
   14.2889    3.7876   11.7664 C   0  0  0  0  0  0  0  0  0  0  0  0
   13.1251    4.2807   12.3914 N   0  0  0  0  0  0  0  0  0  0  0  0
   12.0790    3.3792   11.8664 C   0  0  0  0  0  0  0  0  0  0  0  0
   12.2035    4.3140    9.7229 O   0  0  0  0  0  0  0  0  0  0  0  0
   13.1210    4.0413   13.4370 H   0  0  0  0  0  0  0  0  0  0  0  0
   11.2674    4.5314    9.9505 H   0  0  0  0  0  0  0  0  0  0  0  0
    9.6672   -1.6598    7.8320 Br  0  0  0  0  0  0  0  0  0  0  0  0
   10.5761   -0.1678    8.6294 C   0  0  0  0  0  0  0  0  0  0  0  0
    9.8758    0.6839    9.4537 C   0  0  0  0  0  0  0  0  0  0  0  0
   10.5471    1.7605   10.0323 C   0  0  0  0  0  0  0  0  0  0  0  0
   11.8852    2.0071    9.8121 C   0  0  0  0  0  0  0  0  0  0  0  0
   12.5660    1.1372    8.9816 C   0  0  0  0  0  0  0  0  0  0  0  0
   11.9150    0.0652    8.4009 C   0  0  0  0  0  0  0  0  0  0  0  0
   12.7989    5.6139   12.1669 C   0  0  0  0  0  0  0  0  0  0  0  0
   11.5864    6.1666   12.4963 C   0  0  0  0  0  0  0  0  0  0  0  0
   11.3192    7.5102   12.2241 C   0  0  0  0  0  0  0  0  0  0  0  0
   12.2597    8.3069   11.6234 C   0  0  0  0  0  0  0  0  0  0  0  0
   13.4806    7.7615   11.2911 C   0  0  0  0  0  0  0  0  0  0  0  0
   13.7370    6.4408   11.5616 C   0  0  0  0  0  0  0  0  0  0  0  0
   10.5835    5.4390   13.1047 O   0  0  0  0  0  0  0  0  0  0  0  0
    9.4799    6.0642   13.6707 C   0  0  0  0  0  0  0  0  0  0  0  0
 13 14  1  0  0  0
 14 15  2  0  0  0
 14 19  1  0  0  0
 15 16  1  0  0  0
 16 17  2  0  0  0
 17 18  1  0  0  0
 17  1  1  0  0  0
 18 19  2  0  0  0
  1  2  1  0  0  0
  1  9  1  0  0  0
  1 10  1  0  0  0
  2  3  1  0  0  0
  2  7  1  0  0  0
  3  4  1  0  0  0
  4  5  1  0  0  0
  5  6  1  0  0  0
  6  7  2  0  0  0
  7  8  1  0  0  0
  8  9  1  0  0  0
  8 20  1  0  0  0
 20 21  2  0  0  0
 20 25  1  0  0  0
 21 22  1  0  0  0
 21 26  1  0  0  0
 22 23  2  0  0  0
 23 24  1  0  0  0
 24 25  2  0  0  0
 26 27  1  0  0  0
  8 11  1  0  0  0
 10 12  1  0  0  0
M  CHG 1   8   1
M  END
> <minimizedAffinity>
-8.86806

$$$$
836


 27 30  0  0  0  0  0  0  0  0999 V2000
   12.4955    3.6629   11.9510 C   0  0  0  0  0  0  0  0  0  0  0  0
   12.2694    5.0181   11.5134 N   0  0  0  0  0  0  0  0  0  0  0  0
   11.5370    5.6555   10.4275 C   0  0  0  0  0  0  0  0  0  0  0  0
   11.0189    7.0066   10.7335 C   0  0  0  0  0  0  0  0  0  0  0  0
   11.2170    7.4791   12.1521 C   0  0  0  0  0  0  0  0  0  0  0  0
   12.4736    7.0256   12.7410 C   0  0  0  0  0  0  0  0  0  0  0  0
   12.9726    5.8435   12.4296 C   0  0  0  0  0  0  0  0  0  0  0  0
   14.1492    5.1491   12.8315 N   0  0  0  0  0  0  0  0  0  0  0  0
   13.8222    3.7666   12.6674 C   0  0  0  0  0  0  0  0  0  0  0  0
   11.4604    3.3433   12.8537 O   0  0  0  0  0  0  0  0  0  0  0  0
   14.2987    5.3754   13.8520 H   0  0  0  0  0  0  0  0  0  0  0  0
   10.6565    3.8094   12.5166 H   0  0  0  0  0  0  0  0  0  0  0  0
   12.3526   -0.6153    7.4563 Br  0  0  0  0  0  0  0  0  0  0  0  0
   12.4052    0.7037    8.8342 C   0  0  0  0  0  0  0  0  0  0  0  0
   11.3111    0.9566    9.6399 C   0  0  0  0  0  0  0  0  0  0  0  0
   11.3678    1.9125   10.6330 C   0  0  0  0  0  0  0  0  0  0  0  0
   12.4959    2.6647   10.8840 C   0  0  0  0  0  0  0  0  0  0  0  0
   13.5902    2.4035   10.0682 C   0  0  0  0  0  0  0  0  0  0  0  0
   13.5414    1.4468    9.0708 C   0  0  0  0  0  0  0  0  0  0  0  0
   15.2244    5.6054   12.0811 C   0  0  0  0  0  0  0  0  0  0  0  0
   15.3639    6.9430   11.7936 C   0  0  0  0  0  0  0  0  0  0  0  0
   16.4521    7.4022   11.0336 C   0  0  0  0  0  0  0  0  0  0  0  0
   17.4048    6.5469   10.5554 C   0  0  0  0  0  0  0  0  0  0  0  0
   17.2593    5.1788   10.8516 C   0  0  0  0  0  0  0  0  0  0  0  0
   16.1792    4.7593   11.6004 C   0  0  0  0  0  0  0  0  0  0  0  0
   18.5083    6.9328    9.7968 O   0  0  0  0  0  0  0  0  0  0  0  0
   19.7888    6.3958    9.8689 C   0  0  0  0  0  0  0  0  0  0  0  0
 13 14  1  0  0  0
 14 15  2  0  0  0
 14 19  1  0  0  0
 15 16  1  0  0  0
 16 17  2  0  0  0
 17 18  1  0  0  0
 17  1  1  0  0  0
 18 19  2  0  0  0
  1  2  1  0  0  0
  1  9  1  0  0  0
  1 10  1  0  0  0
  2  3  1  0  0  0
  2  7  1  0  0  0
  3  4  1  0  0  0
  4  5  1  0  0  0
  5  6  1  0  0  0
  6  7  2  0  0  0
  7  8  1  0  0  0
  8  9  1  0  0  0
  8 20  1  0  0  0
 20 21  2  0  0  0
 20 25  1  0  0  0
 21 22  1  0  0  0
 22 23  2  0  0  0
 23 24  1  0  0  0
 23 26  1  0  0  0
 24 25  2  0  0  0
 26 27  1  0  0  0
  8 11  1  0  0  0
 10 12  1  0  0  0
M  CHG 1   8   1
M  END
> <minimizedAffinity>
-7.51067

$$$$
847


 31 34  0  0  0  0  0  0  0  0999 V2000
   12.1472    4.0756   11.9432 C   0  0  0  0  0  0  0  0  0  0  0  0
   13.4351    4.4463   11.8556 N   0  0  0  0  0  0  0  0  0  0  0  0
   14.1276    3.4220   11.3238 C   0  0  0  0  0  0  0  0  0  0  0  0
   13.2495    2.3941   11.0763 N   0  0  0  0  0  0  0  0  0  0  0  0
   12.0631    2.8285   11.4643 N   0  0  0  0  0  0  0  0  0  0  0  0
   15.5447    3.2481   10.9911 C   0  0  0  0  0  0  0  0  0  0  0  0
   16.5048    3.9578   11.9078 C   0  0  0  0  0  0  0  0  0  0  0  0
   16.3389    5.4423   11.9190 C   0  0  0  0  0  0  0  0  0  0  0  0
   15.2479    5.7600   12.9153 C   0  0  0  0  0  0  0  0  0  0  0  0
   13.8801    5.7332   12.2793 C   0  0  0  0  0  0  0  0  0  0  0  0
   10.9637    4.8346   12.4613 C   0  0  0  0  0  0  0  0  0  0  0  0
   10.3721    5.6966   11.4582 N   0  0  0  0  0  0  0  0  0  0  0  0
   10.8256    5.8290   10.5276 H   0  0  0  0  0  0  0  0  0  0  0  0
    5.1862    8.7608   12.3977 Br  0  0  0  0  0  0  0  0  0  0  0  0
    6.8036    7.8075   12.1021 C   0  0  0  0  0  0  0  0  0  0  0  0
    6.7841    6.4242   11.9547 C   0  0  0  0  0  0  0  0  0  0  0  0
    7.9495    5.7375   11.7430 C   0  0  0  0  0  0  0  0  0  0  0  0
    9.1492    6.4116   11.6754 C   0  0  0  0  0  0  0  0  0  0  0  0
    9.1506    7.7824   11.8236 C   0  0  0  0  0  0  0  0  0  0  0  0
    7.9981    8.5027   12.0375 C   0  0  0  0  0  0  0  0  0  0  0  0
   13.4988    1.1409   10.4832 C   0  0  0  0  0  0  0  0  0  0  0  0
   12.8645    0.8357    9.2280 C   0  0  0  0  0  0  0  0  0  0  0  0
   13.5689    1.2693    8.1817 O   0  0  0  0  0  0  0  0  0  0  0  0
   11.6496    0.1715    8.8490 C   0  0  0  0  0  0  0  0  0  0  0  0
   11.6558   -0.8078    7.8318 C   0  0  0  0  0  0  0  0  0  0  0  0
   10.5258   -1.4679    7.4269 C   0  0  0  0  0  0  0  0  0  0  0  0
    9.3102   -1.2008    8.0046 C   0  0  0  0  0  0  0  0  0  0  0  0
    9.2596   -0.2583    8.9946 C   0  0  0  0  0  0  0  0  0  0  0  0
   10.4286    0.4123    9.4003 C   0  0  0  0  0  0  0  0  0  0  0  0
    8.1615   -1.8735    7.5921 O   0  0  0  0  0  0  0  0  0  0  0  0
    7.8950   -2.1548    6.2401 C   0  0  0  0  0  0  0  0  0  0  0  0
 14 15  1  0  0  0
 15 16  2  0  0  0
 15 20  1  0  0  0
 16 17  1  0  0  0
 17 18  2  0  0  0
 18 19  1  0  0  0
 18 12  1  0  0  0
 19 20  2  0  0  0
 12 11  1  0  0  0
 11  1  1  0  0  0
  1  2  1  0  0  0
  1  5  2  0  0  0
  2  3  1  0  0  0
  2 10  1  0  0  0
  3  4  2  0  0  0
  3  6  1  0  0  0
  4  5  1  0  0  0
  4 21  1  0  0  0
 21 22  1  0  0  0
 22 23  2  0  0  0
 22 24  1  0  0  0
 24 25  2  0  0  0
 24 29  1  0  0  0
 25 26  1  0  0  0
 26 27  2  0  0  0
 27 28  1  0  0  0
 27 30  1  0  0  0
 28 29  2  0  0  0
 30 31  1  0  0  0
  6  7  1  0  0  0
  7  8  1  0  0  0
  8  9  1  0  0  0
  9 10  1  0  0  0
 12 13  1  0  0  0
M  END
> <minimizedAffinity>
-9.12905

$$$$
850


 29 32  0  0  0  0  0  0  0  0999 V2000
    9.9457    5.9237   12.7182 N   0  0  0  0  0  0  0  0  0  0  0  0
    9.2252    6.6162   11.6917 C   0  0  0  0  0  0  0  0  0  0  0  0
   10.2262    7.7262   11.3735 C   0  0  0  0  0  0  0  0  0  0  0  0
   10.7473    8.0886   12.7008 N   0  0  0  0  0  0  0  0  0  0  0  0
   11.3973    9.3330   12.9146 C   0  0  0  0  0  0  0  0  0  0  0  0
   11.8218    9.5906   14.3293 C   0  0  0  0  0  0  0  0  0  0  0  0
   10.6647    9.3254   15.2530 C   0  0  0  0  0  0  0  0  0  0  0  0
   10.9265    7.9260   15.8286 C   0  0  0  0  0  0  0  0  0  0  0  0
   10.4665    6.9220   14.8484 C   0  0  0  0  0  0  0  0  0  0  0  0
   10.4141    6.9818   13.5372 C   0  0  0  0  0  0  0  0  0  0  0  0
    8.7961    5.8928   10.6247 O   0  0  0  0  0  0  0  0  0  0  0  0
    9.2414    5.2961   13.2185 H   0  0  0  0  0  0  0  0  0  0  0  0
    8.4948    6.4403    9.8767 H   0  0  0  0  0  0  0  0  0  0  0  0
   14.3394    2.0195   10.9831 Br  0  0  0  0  0  0  0  0  0  0  0  0
   12.9793    3.2483   11.5435 C   0  0  0  0  0  0  0  0  0  0  0  0
   11.8047    2.8079   12.1109 C   0  0  0  0  0  0  0  0  0  0  0  0
   10.8230    3.7082   12.4983 C   0  0  0  0  0  0  0  0  0  0  0  0
   10.9707    5.0844   12.3362 C   0  0  0  0  0  0  0  0  0  0  0  0
   12.1509    5.4676   11.7713 C   0  0  0  0  0  0  0  0  0  0  0  0
   13.1532    4.5869   11.3731 C   0  0  0  0  0  0  0  0  0  0  0  0
    8.0263    7.3200   12.2311 C   0  0  0  0  0  0  0  0  0  0  0  0
    7.1786    6.8165   13.1719 C   0  0  0  0  0  0  0  0  0  0  0  0
    6.0635    7.5391   13.6458 C   0  0  0  0  0  0  0  0  0  0  0  0
    5.7858    8.7975   13.1692 C   0  0  0  0  0  0  0  0  0  0  0  0
    6.6332    9.3152   12.2197 C   0  0  0  0  0  0  0  0  0  0  0  0
    7.7195    8.6066   11.7593 C   0  0  0  0  0  0  0  0  0  0  0  0
    4.6806    9.5273   13.6375 O   0  0  0  0  0  0  0  0  0  0  0  0
    3.3811    8.9858   13.6255 C   0  0  0  0  0  0  0  0  0  0  0  0
    2.7433    8.9927   14.9790 C   0  0  0  0  0  0  0  0  0  0  0  0
 14 15  1  0  0  0
 15 16  2  0  0  0
 15 20  1  0  0  0
 16 17  1  0  0  0
 17 18  2  0  0  0
 18 19  1  0  0  0
 18  1  1  0  0  0
 19 20  2  0  0  0
  1  2  1  0  0  0
  1 10  1  0  0  0
  2  3  1  0  0  0
  2 11  1  0  0  0
  2 21  1  0  0  0
  3  4  1  0  0  0
  4  5  1  0  0  0
  4 10  1  0  0  0
  5  6  1  0  0  0
  6  7  1  0  0  0
  7  8  1  0  0  0
  8  9  1  0  0  0
  9 10  2  0  0  0
 21 22  2  0  0  0
 21 26  1  0  0  0
 22 23  1  0  0  0
 23 24  2  0  0  0
 24 25  1  0  0  0
 24 27  1  0  0  0
 25 26  2  0  0  0
 27 28  1  0  0  0
 28 29  1  0  0  0
  1 12  1  0  0  0
 11 13  1  0  0  0
M  CHG 1   1   1
M  END
> <minimizedAffinity>
-7.26246

$$$$
860


 29 32  0  0  0  0  0  0  0  0999 V2000
    8.3094    6.4077   14.6204 Br  0  0  0  0  0  0  0  0  0  0  0  0
    9.2712    5.8798   13.0504 C   0  0  0  0  0  0  0  0  0  0  0  0
   10.2941    4.9535   13.1058 C   0  0  0  0  0  0  0  0  0  0  0  0
   10.9826    4.5772   11.9744 C   0  0  0  0  0  0  0  0  0  0  0  0
   10.6026    5.1703   10.7886 C   0  0  0  0  0  0  0  0  0  0  0  0
    9.5811    6.0967   10.7268 C   0  0  0  0  0  0  0  0  0  0  0  0
    8.8944    6.4704   11.8621 C   0  0  0  0  0  0  0  0  0  0  0  0
    7.7926    7.4719   11.7840 C   0  0  0  0  0  0  0  0  0  0  0  0
   11.3141    4.7734    9.6579 O   0  0  0  0  0  0  0  0  0  0  0  0
   12.5250    4.0961    9.6975 C   0  0  0  0  0  0  0  0  0  0  0  0
   12.7064    3.1666   10.8496 C   0  0  0  0  0  0  0  0  0  0  0  0
   12.0554    3.5881   12.1194 C   0  0  0  0  0  0  0  0  0  0  0  0
   11.4940    2.4754   12.7921 O   0  0  0  0  0  0  0  0  0  0  0  0
   10.5242    2.5583   12.8996 H   0  0  0  0  0  0  0  0  0  0  0  0
   14.1504    3.1402   11.1062 N   0  0  0  0  0  0  0  0  0  0  0  0
   14.6499    4.3585   11.6444 C   0  0  0  0  0  0  0  0  0  0  0  0
   16.0495    4.0421   12.1940 C   0  0  0  0  0  0  0  0  0  0  0  0
   16.8240    3.6884   11.1024 O   0  0  0  0  0  0  0  0  0  0  0  0
   16.3515    2.5654   10.4334 C   0  0  0  0  0  0  0  0  0  0  0  0
   14.9111    2.7840    9.9478 C   0  0  0  0  0  0  0  0  0  0  0  0
   14.2886    2.3874   11.8179 H   0  0  0  0  0  0  0  0  0  0  0  0
   12.3055    1.7429   10.5216 C   0  0  0  0  0  0  0  0  0  0  0  0
   11.8769    1.5588    9.1691 N   0  0  0  0  0  0  0  0  0  0  0  0
   12.7582    0.6866    8.4144 C   0  0  0  0  0  0  0  0  0  0  0  0
   11.9791   -0.3221    7.5840 C   0  0  0  0  0  0  0  0  0  0  0  0
   11.2362   -1.1887    8.3684 O   0  0  0  0  0  0  0  0  0  0  0  0
   10.7502   -0.5518    9.5062 C   0  0  0  0  0  0  0  0  0  0  0  0
   10.5573    0.9063    9.1434 C   0  0  0  0  0  0  0  0  0  0  0  0
   11.7651    2.4231    8.6178 H   0  0  0  0  0  0  0  0  0  0  0  0
  1  2  1  0  0  0
  2  3  2  0  0  0
  2  7  1  0  0  0
  3  4  1  0  0  0
  4  5  2  0  0  0
  4 12  1  0  0  0
  5  6  1  0  0  0
  5  9  1  0  0  0
  6  7  2  0  0  0
  7  8  1  0  0  0
  9 10  1  0  0  0
 10 11  1  0  0  0
 11 12  1  0  0  0
 11 15  1  0  0  0
 11 22  1  0  0  0
 12 13  1  0  0  0
 15 16  1  0  0  0
 15 20  1  0  0  0
 16 17  1  0  0  0
 17 18  1  0  0  0
 18 19  1  0  0  0
 19 20  1  0  0  0
 22 23  1  0  0  0
 23 24  1  0  0  0
 23 28  1  0  0  0
 24 25  1  0  0  0
 25 26  1  0  0  0
 26 27  1  0  0  0
 27 28  1  0  0  0
 13 14  1  0  0  0
 15 21  1  0  0  0
 23 29  1  0  0  0
M  CHG 1  15   1
M  CHG 1  23   1
M  END
> <minimizedAffinity>
-7.63009

$$$$
861


 32 35  0  0  0  0  0  0  0  0999 V2000
    9.8189    7.0058   15.5558 Br  0  0  0  0  0  0  0  0  0  0  0  0
    9.6547    7.2480   13.6617 C   0  0  0  0  0  0  0  0  0  0  0  0
   10.4031    6.4755   12.8059 C   0  0  0  0  0  0  0  0  0  0  0  0
   10.3130    6.6210   11.4115 C   0  0  0  0  0  0  0  0  0  0  0  0
    9.4358    7.5777   10.9495 C   0  0  0  0  0  0  0  0  0  0  0  0
    8.6745    8.3659   11.7855 C   0  0  0  0  0  0  0  0  0  0  0  0
    8.7800    8.2042   13.1481 C   0  0  0  0  0  0  0  0  0  0  0  0
    8.0027    9.0037   14.1302 C   0  0  0  0  0  0  0  0  0  0  0  0
    7.4671    9.6831   11.1166 Br  0  0  0  0  0  0  0  0  0  0  0  0
   11.1224    5.7878   10.5467 C   0  0  0  0  0  0  0  0  0  0  0  0
   10.9748    5.8357    9.3210 O   0  0  0  0  0  0  0  0  0  0  0  0
   12.1226    4.8831   11.1408 C   0  0  0  0  0  0  0  0  0  0  0  0
   11.5703    4.4177   12.4702 C   0  0  0  0  0  0  0  0  0  0  0  0
   11.2782    5.5187   13.3109 O   0  0  0  0  0  0  0  0  0  0  0  0
   12.4885    3.7276   10.2594 C   0  0  0  0  0  0  0  0  0  0  0  0
   13.1604    2.6561   10.8874 N   0  0  0  0  0  0  0  0  0  0  0  0
   12.3256    1.4914   10.8949 C   0  0  0  0  0  0  0  0  0  0  0  0
   12.1271    0.8451    9.5709 C   0  0  0  0  0  0  0  0  0  0  0  0
   12.9697    1.3343    8.4574 C   0  0  0  0  0  0  0  0  0  0  0  0
   14.2359    2.0039    8.8257 C   0  0  0  0  0  0  0  0  0  0  0  0
   14.4091    2.2669   10.2926 C   0  0  0  0  0  0  0  0  0  0  0  0
   10.6619    1.0518    9.1695 C   0  0  0  0  0  0  0  0  0  0  0  0
   13.3638    2.8977   11.8903 H   0  0  0  0  0  0  0  0  0  0  0  0
   13.3454    5.7348   11.4130 C   0  0  0  0  0  0  0  0  0  0  0  0
   13.9449    5.5486   12.6901 N   0  0  0  0  0  0  0  0  0  0  0  0
   14.3121    6.8390   13.2703 C   0  0  0  0  0  0  0  0  0  0  0  0
   15.7748    7.1412   13.1252 C   0  0  0  0  0  0  0  0  0  0  0  0
   16.2417    6.7346   11.7458 C   0  0  0  0  0  0  0  0  0  0  0  0
   16.1602    5.2423   11.6571 C   0  0  0  0  0  0  0  0  0  0  0  0
   15.1534    4.7535   12.6689 C   0  0  0  0  0  0  0  0  0  0  0  0
   15.9266    8.6666   13.1990 C   0  0  0  0  0  0  0  0  0  0  0  0
   13.2836    5.1167   13.3410 H   0  0  0  0  0  0  0  0  0  0  0  0
  1  2  1  0  0  0
  2  3  2  0  0  0
  2  7  1  0  0  0
  3  4  1  0  0  0
  3 14  1  0  0  0
  4  5  2  0  0  0
  4 10  1  0  0  0
  5  6  1  0  0  0
  6  7  2  0  0  0
  6  9  1  0  0  0
  7  8  1  0  0  0
 10 11  2  0  0  0
 10 12  1  0  0  0
 12 13  1  0  0  0
 12 15  1  0  0  0
 12 24  1  0  0  0
 13 14  1  0  0  0
 15 16  1  0  0  0
 16 17  1  0  0  0
 16 21  1  0  0  0
 17 18  1  0  0  0
 18 19  1  0  0  0
 18 22  1  0  0  0
 19 20  1  0  0  0
 20 21  1  0  0  0
 24 25  1  0  0  0
 25 26  1  0  0  0
 25 30  1  0  0  0
 26 27  1  0  0  0
 27 28  1  0  0  0
 27 31  1  0  0  0
 28 29  1  0  0  0
 29 30  1  0  0  0
 16 23  1  0  0  0
 25 32  1  0  0  0
M  CHG 1  16   1
M  CHG 1  25   1
M  END
> <minimizedAffinity>
-7.57474

$$$$
862


 30 33  0  0  0  0  0  0  0  0999 V2000
    4.9384    8.2074   10.6612 Br  0  0  0  0  0  0  0  0  0  0  0  0
    5.5951    8.0586   12.4244 C   0  0  0  0  0  0  0  0  0  0  0  0
    6.7673    7.3694   12.6178 C   0  0  0  0  0  0  0  0  0  0  0  0
    7.3538    7.1932   13.8825 C   0  0  0  0  0  0  0  0  0  0  0  0
    6.7131    7.7446   14.9990 C   0  0  0  0  0  0  0  0  0  0  0  0
    5.5387    8.4325   14.7900 C   0  0  0  0  0  0  0  0  0  0  0  0
    4.9786    8.5944   13.5359 C   0  0  0  0  0  0  0  0  0  0  0  0
    3.6943    9.3501   13.3406 C   0  0  0  0  0  0  0  0  0  0  0  0
    4.6689    9.1841   16.3102 Br  0  0  0  0  0  0  0  0  0  0  0  0
    8.5902    6.4487   14.0269 C   0  0  0  0  0  0  0  0  0  0  0  0
    8.7368    5.8143   15.1013 O   0  0  0  0  0  0  0  0  0  0  0  0
    9.5492    6.5071   12.9075 C   0  0  0  0  0  0  0  0  0  0  0  0
    8.6101    5.9926   11.7255 C   0  0  0  0  0  0  0  0  0  0  0  0
    7.4838    6.7830   11.5906 O   0  0  0  0  0  0  0  0  0  0  0  0
   10.6660    5.5840   12.9437 C   0  0  0  0  0  0  0  0  0  0  0  0
   11.0030    4.5903   12.0385 N   0  0  0  0  0  0  0  0  0  0  0  0
   11.2957    3.2655   12.4238 C   0  0  0  0  0  0  0  0  0  0  0  0
   12.2459    2.5465   11.4751 C   0  0  0  0  0  0  0  0  0  0  0  0
   13.6082    3.1633   11.4782 C   0  0  0  0  0  0  0  0  0  0  0  0
   13.4553    4.6394   11.6809 C   0  0  0  0  0  0  0  0  0  0  0  0
   12.1136    5.0713   11.1868 C   0  0  0  0  0  0  0  0  0  0  0  0
   10.2288    4.4891   11.2570 H   0  0  0  0  0  0  0  0  0  0  0  0
    9.8924    7.9164   12.6082 C   0  0  0  0  0  0  0  0  0  0  0  0
   10.4176    8.7582   13.5997 N   0  0  0  0  0  0  0  0  0  0  0  0
   11.7604    9.1809   13.1794 C   0  0  0  0  0  0  0  0  0  0  0  0
   12.5260    9.8475   14.3035 C   0  0  0  0  0  0  0  0  0  0  0  0
   11.7594   11.1433   14.6126 C   0  0  0  0  0  0  0  0  0  0  0  0
   10.3921   10.6714   15.0510 C   0  0  0  0  0  0  0  0  0  0  0  0
    9.7189   10.0106   13.8361 C   0  0  0  0  0  0  0  0  0  0  0  0
   10.5747    8.3664   14.5507 H   0  0  0  0  0  0  0  0  0  0  0  0
  1  2  1  0  0  0
  2  3  2  0  0  0
  2  7  1  0  0  0
  3  4  1  0  0  0
  3 14  1  0  0  0
  4  5  2  0  0  0
  4 10  1  0  0  0
  5  6  1  0  0  0
  6  7  2  0  0  0
  6  9  1  0  0  0
  7  8  1  0  0  0
 10 11  2  0  0  0
 10 12  1  0  0  0
 12 13  1  0  0  0
 12 15  1  0  0  0
 12 23  1  0  0  0
 13 14  1  0  0  0
 15 16  1  0  0  0
 16 17  1  0  0  0
 16 21  1  0  0  0
 17 18  1  0  0  0
 18 19  1  0  0  0
 19 20  1  0  0  0
 20 21  1  0  0  0
 23 24  1  0  0  0
 24 25  1  0  0  0
 24 29  1  0  0  0
 25 26  1  0  0  0
 26 27  1  0  0  0
 27 28  1  0  0  0
 28 29  1  0  0  0
 16 22  1  0  0  0
 24 30  1  0  0  0
M  CHG 1  16   1
M  CHG 1  24   1
M  END
> <minimizedAffinity>
-7.50197

$$$$
865


 30 33  0  0  0  0  0  0  0  0999 V2000
   10.0434    7.0196   11.1624 C   0  0  0  0  0  0  0  0  0  0  0  0
    8.6988    7.1489   11.1900 N   0  0  0  0  0  0  0  0  0  0  0  0
    8.0189    7.5166   12.3042 C   0  0  0  0  0  0  0  0  0  0  0  0
    8.7489    7.7487   13.3969 N   0  0  0  0  0  0  0  0  0  0  0  0
   10.0881    7.6400   13.4432 C   0  0  0  0  0  0  0  0  0  0  0  0
   10.7039    7.2724   12.3057 N   0  0  0  0  0  0  0  0  0  0  0  0
   10.7994    7.9035   14.6451 N   0  0  0  0  0  0  0  0  0  0  0  0
   10.4067    7.2126   15.8584 C   0  0  0  0  0  0  0  0  0  0  0  0
   11.2708    7.6817   17.0072 C   0  0  0  0  0  0  0  0  0  0  0  0
   12.6112    7.6756   16.7449 O   0  0  0  0  0  0  0  0  0  0  0  0
   13.0003    8.1197   15.5099 C   0  0  0  0  0  0  0  0  0  0  0  0
   11.8950    8.8218   14.7394 C   0  0  0  0  0  0  0  0  0  0  0  0
    6.6014    7.6380   12.2770 N   0  0  0  0  0  0  0  0  0  0  0  0
    5.7546    7.0291   11.2778 C   0  0  0  0  0  0  0  0  0  0  0  0
    4.9366    8.1967   10.7289 C   0  0  0  0  0  0  0  0  0  0  0  0
    4.1039    8.6391   11.6892 O   0  0  0  0  0  0  0  0  0  0  0  0
    4.5544    8.8424   12.9336 C   0  0  0  0  0  0  0  0  0  0  0  0
    5.9204    8.4085   13.2911 C   0  0  0  0  0  0  0  0  0  0  0  0
   10.6874    6.6325    9.9648 N   0  0  0  0  0  0  0  0  0  0  0  0
   11.0302    7.3608    9.3168 H   0  0  0  0  0  0  0  0  0  0  0  0
   11.6278    4.4972   10.3108 C   0  0  0  0  0  0  0  0  0  0  0  0
   10.8600    5.2909    9.6538 N   0  0  0  0  0  0  0  0  0  0  0  0
   12.1799   -0.9112    8.8166 F   0  0  0  0  0  0  0  0  0  0  0  0
   12.0305    0.3931    9.1784 C   0  0  0  0  0  0  0  0  0  0  0  0
   10.7862    0.9520    9.3847 C   0  0  0  0  0  0  0  0  0  0  0  0
   10.6578    2.2759    9.7501 C   0  0  0  0  0  0  0  0  0  0  0  0
   11.7583    3.0983    9.9248 C   0  0  0  0  0  0  0  0  0  0  0  0
   12.9976    2.5309    9.7166 C   0  0  0  0  0  0  0  0  0  0  0  0
   13.1318    1.1994    9.3482 C   0  0  0  0  0  0  0  0  0  0  0  0
    9.2507   -0.1595    9.1508 Br  0  0  0  0  0  0  0  0  0  0  0  0
 23 24  1  0  0  0
 24 25  2  0  0  0
 24 29  1  0  0  0
 25 26  1  0  0  0
 25 30  1  0  0  0
 26 27  2  0  0  0
 27 28  1  0  0  0
 27 21  1  0  0  0
 28 29  2  0  0  0
 21 22  2  0  0  0
 22 19  1  0  0  0
 19  1  1  0  0  0
  1  2  2  0  0  0
  1  6  1  0  0  0
  2  3  1  0  0  0
  3  4  2  0  0  0
  3 13  1  0  0  0
  4  5  1  0  0  0
  5  6  2  0  0  0
  5  7  1  0  0  0
  7  8  1  0  0  0
  7 12  1  0  0  0
  8  9  1  0  0  0
  9 10  1  0  0  0
 10 11  1  0  0  0
 11 12  1  0  0  0
 13 14  1  0  0  0
 13 18  1  0  0  0
 14 15  1  0  0  0
 15 16  1  0  0  0
 16 17  1  0  0  0
 17 18  1  0  0  0
 19 20  1  0  0  0
M  END
> <minimizedAffinity>
-8.90121

$$$$
872


 32 35  0  0  0  0  0  0  0  0999 V2000
   11.9032    6.3455   11.4620 N   0  0  0  0  0  0  0  0  0  0  0  0
   11.7004    7.6186   11.1741 N   0  0  0  0  0  0  0  0  0  0  0  0
   12.8962    8.1811   11.1577 N   0  0  0  0  0  0  0  0  0  0  0  0
   13.8611    7.2800   11.4336 C   0  0  0  0  0  0  0  0  0  0  0  0
   13.2173    6.1168   11.6250 C   0  0  0  0  0  0  0  0  0  0  0  0
   14.2133    5.2107   11.9050 C   0  0  0  0  0  0  0  0  0  0  0  0
   14.0218    3.9894   12.1494 O   0  0  0  0  0  0  0  0  0  0  0  0
   15.4329    5.7857   11.8896 N   0  0  0  0  0  0  0  0  0  0  0  0
   15.2206    7.0788   11.5954 C   0  0  0  0  0  0  0  0  0  0  0  0
   16.1177    7.9553   11.4865 O   0  0  0  0  0  0  0  0  0  0  0  0
   10.7756    8.1039   10.9901 H   0  0  0  0  0  0  0  0  0  0  0  0
   13.0368    9.2052   10.9524 H   0  0  0  0  0  0  0  0  0  0  0  0
   16.6797    5.1142   12.1415 C   0  0  0  0  0  0  0  0  0  0  0  0
   17.1016    4.0810   11.3278 C   0  0  0  0  0  0  0  0  0  0  0  0
   18.2888    3.4087   11.5315 C   0  0  0  0  0  0  0  0  0  0  0  0
   19.0640    3.8096   12.6022 C   0  0  0  0  0  0  0  0  0  0  0  0
   18.6922    4.8388   13.4514 C   0  0  0  0  0  0  0  0  0  0  0  0
   17.4922    5.4692   13.1917 C   0  0  0  0  0  0  0  0  0  0  0  0
   20.7129    2.8593   12.8664 Br  0  0  0  0  0  0  0  0  0  0  0  0
   10.8355    5.3754   11.5702 C   0  0  0  0  0  0  0  0  0  0  0  0
   11.5161    3.0891   10.7904 N   0  0  0  0  0  0  0  0  0  0  0  0
   10.9955    4.3410   10.4743 C   0  0  0  0  0  0  0  0  0  0  0  0
   10.6474    4.6790    9.3385 O   0  0  0  0  0  0  0  0  0  0  0  0
   11.7742    2.9378   11.8252 H   0  0  0  0  0  0  0  0  0  0  0  0
    9.4506    1.4499   10.1965 F   0  0  0  0  0  0  0  0  0  0  0  0
   10.6369    1.1985    9.5768 C   0  0  0  0  0  0  0  0  0  0  0  0
   11.7182    2.0435    9.8762 C   0  0  0  0  0  0  0  0  0  0  0  0
   12.9049    1.7968    9.2592 C   0  0  0  0  0  0  0  0  0  0  0  0
   13.0897    0.7395    8.3428 C   0  0  0  0  0  0  0  0  0  0  0  0
   12.0061   -0.0653    8.0763 C   0  0  0  0  0  0  0  0  0  0  0  0
   10.7922    0.1654    8.6890 C   0  0  0  0  0  0  0  0  0  0  0  0
   12.1177   -1.0959    7.2066 F   0  0  0  0  0  0  0  0  0  0  0  0
 25 26  1  0  0  0
 26 27  2  0  0  0
 26 31  1  0  0  0
 27 28  1  0  0  0
 27 21  1  0  0  0
 28 29  2  0  0  0
 29 30  1  0  0  0
 30 31  2  0  0  0
 30 32  1  0  0  0
 21 22  1  0  0  0
 22 23  2  0  0  0
 22 20  1  0  0  0
 20  1  1  0  0  0
  1  2  1  0  0  0
  1  5  1  0  0  0
  2  3  1  0  0  0
  3  4  1  0  0  0
  4  5  2  0  0  0
  4  9  1  0  0  0
  5  6  1  0  0  0
  6  7  2  0  0  0
  6  8  1  0  0  0
  8  9  1  0  0  0
  8 13  1  0  0  0
  9 10  2  0  0  0
 13 14  2  0  0  0
 13 18  1  0  0  0
 14 15  1  0  0  0
 15 16  2  0  0  0
 16 17  1  0  0  0
 16 19  1  0  0  0
 17 18  2  0  0  0
 21 24  1  0  0  0
  2 11  1  0  0  0
  3 12  1  0  0  0
M  END
> <minimizedAffinity>
-9.30149

$$$$
873


 32 35  0  0  0  0  0  0  0  0999 V2000
   11.6481    5.6032   12.8586 C   0  0  0  0  0  0  0  0  0  0  0  0
   12.8822    6.2874   12.5064 N   0  0  0  0  0  0  0  0  0  0  0  0
   12.7595    6.3801   11.0714 C   0  0  0  0  0  0  0  0  0  0  0  0
   13.2012    7.2731   10.3010 O   0  0  0  0  0  0  0  0  0  0  0  0
   11.9883    5.2022   10.5829 C   0  0  0  0  0  0  0  0  0  0  0  0
   11.6374    4.8505    9.4580 O   0  0  0  0  0  0  0  0  0  0  0  0
   11.7062    4.4723   11.8537 C   0  0  0  0  0  0  0  0  0  0  0  0
   11.5496    3.1798   12.0031 C   0  0  0  0  0  0  0  0  0  0  0  0
   11.2760    2.6640   13.2861 O   0  0  0  0  0  0  0  0  0  0  0  0
   11.3250    8.4258   13.3615 F   0  0  0  0  0  0  0  0  0  0  0  0
   10.3127    7.7250   12.8743 C   0  0  0  0  0  0  0  0  0  0  0  0
   10.4217    6.3764   12.6036 C   0  0  0  0  0  0  0  0  0  0  0  0
    9.2869    5.7883   12.1027 C   0  0  0  0  0  0  0  0  0  0  0  0
    8.0952    6.4558   11.8665 C   0  0  0  0  0  0  0  0  0  0  0  0
    8.0263    7.7904   12.1469 C   0  0  0  0  0  0  0  0  0  0  0  0
    9.1205    8.4180   12.6456 C   0  0  0  0  0  0  0  0  0  0  0  0
   11.6530    2.2573   10.8821 C   0  0  0  0  0  0  0  0  0  0  0  0
   10.5025    1.8535   10.2407 C   0  0  0  0  0  0  0  0  0  0  0  0
   10.5258    0.9567    9.1855 C   0  0  0  0  0  0  0  0  0  0  0  0
   11.7279    0.4432    8.7491 C   0  0  0  0  0  0  0  0  0  0  0  0
   12.8773    0.8281    9.3687 C   0  0  0  0  0  0  0  0  0  0  0  0
   12.8409    1.7386   10.4392 C   0  0  0  0  0  0  0  0  0  0  0  0
   11.7911   -0.8067    7.2821 Br  0  0  0  0  0  0  0  0  0  0  0  0
   13.9748    6.7793   13.2298 C   0  0  0  0  0  0  0  0  0  0  0  0
   15.0861    5.8756   13.6277 C   0  0  0  0  0  0  0  0  0  0  0  0
   15.8906    5.4124   12.5328 N   0  0  0  0  0  0  0  0  0  0  0  0
   15.4779    4.0686   12.1839 C   0  0  0  0  0  0  0  0  0  0  0  0
   16.2205    3.5809   10.9530 C   0  0  0  0  0  0  0  0  0  0  0  0
   17.5782    3.5966   11.2099 O   0  0  0  0  0  0  0  0  0  0  0  0
   17.9901    4.8713   11.5874 C   0  0  0  0  0  0  0  0  0  0  0  0
   17.3132    5.2734   12.9053 C   0  0  0  0  0  0  0  0  0  0  0  0
   15.9222    6.0627   11.7209 H   0  0  0  0  0  0  0  0  0  0  0  0
 10 11  1  0  0  0
 11 12  2  0  0  0
 11 16  1  0  0  0
 12 13  1  0  0  0
 12  1  1  0  0  0
 13 14  2  0  0  0
 14 15  1  0  0  0
 15 16  2  0  0  0
  1  2  1  0  0  0
  1  7  1  0  0  0
  2  3  1  0  0  0
  2 24  1  0  0  0
  3  4  2  0  0  0
  3  5  1  0  0  0
  5  6  2  0  0  0
  5  7  1  0  0  0
  7  8  2  0  0  0
  8  9  1  0  0  0
  8 17  1  0  0  0
 17 18  2  0  0  0
 17 22  1  0  0  0
 18 19  1  0  0  0
 19 20  2  0  0  0
 20 21  1  0  0  0
 20 23  1  0  0  0
 21 22  2  0  0  0
 24 25  1  0  0  0
 25 26  1  0  0  0
 26 27  1  0  0  0
 26 31  1  0  0  0
 27 28  1  0  0  0
 28 29  1  0  0  0
 29 30  1  0  0  0
 30 31  1  0  0  0
 26 32  1  0  0  0
M  CHG 1   9  -1
M  CHG 1  26   1
M  END
> <minimizedAffinity>
-8.15507

$$$$
874


 31 34  0  0  0  0  0  0  0  0999 V2000
   11.3521    5.7056   11.4106 N   0  0  0  0  0  0  0  0  0  0  0  0
   11.0976    6.9659   11.1337 N   0  0  0  0  0  0  0  0  0  0  0  0
   12.2231    7.6637   11.0892 N   0  0  0  0  0  0  0  0  0  0  0  0
   13.2479    6.8223   11.3483 C   0  0  0  0  0  0  0  0  0  0  0  0
   12.7043    5.6381   11.5411 C   0  0  0  0  0  0  0  0  0  0  0  0
   13.7539    4.7732   11.8078 C   0  0  0  0  0  0  0  0  0  0  0  0
   13.6174    3.5532   12.0427 O   0  0  0  0  0  0  0  0  0  0  0  0
   14.9316    5.4224   11.7774 N   0  0  0  0  0  0  0  0  0  0  0  0
   14.6176    6.6992   11.4912 C   0  0  0  0  0  0  0  0  0  0  0  0
   15.4304    7.6417   11.3702 O   0  0  0  0  0  0  0  0  0  0  0  0
   10.1253    7.3365   10.9739 H   0  0  0  0  0  0  0  0  0  0  0  0
   12.3074    8.6898   10.8881 H   0  0  0  0  0  0  0  0  0  0  0  0
   16.2235    4.8582   12.0030 C   0  0  0  0  0  0  0  0  0  0  0  0
   17.0418    5.3261   13.0124 C   0  0  0  0  0  0  0  0  0  0  0  0
   18.2935    4.7913   13.2448 C   0  0  0  0  0  0  0  0  0  0  0  0
   18.7812    3.7599   12.4696 C   0  0  0  0  0  0  0  0  0  0  0  0
   17.9812    3.2772   11.4552 C   0  0  0  0  0  0  0  0  0  0  0  0
   16.7327    3.8257   11.2396 C   0  0  0  0  0  0  0  0  0  0  0  0
   20.5107    3.0000   12.7682 Br  0  0  0  0  0  0  0  0  0  0  0  0
   10.4220    4.6011   11.5550 C   0  0  0  0  0  0  0  0  0  0  0  0
   11.1171    2.3658   10.6418 N   0  0  0  0  0  0  0  0  0  0  0  0
   10.6062    3.6424   10.4292 C   0  0  0  0  0  0  0  0  0  0  0  0
   10.2784    4.0511    9.3034 O   0  0  0  0  0  0  0  0  0  0  0  0
   11.3630    2.1301   11.6597 H   0  0  0  0  0  0  0  0  0  0  0  0
    9.0704    0.7014    9.8726 F   0  0  0  0  0  0  0  0  0  0  0  0
   10.2919    0.5017    9.2982 C   0  0  0  0  0  0  0  0  0  0  0  0
   11.3495    1.3431    9.6786 C   0  0  0  0  0  0  0  0  0  0  0  0
   12.5569    1.1034    9.0741 C   0  0  0  0  0  0  0  0  0  0  0  0
   12.6982    0.0845    8.1462 C   0  0  0  0  0  0  0  0  0  0  0  0
   11.6674   -0.7301    7.7794 C   0  0  0  0  0  0  0  0  0  0  0  0
   10.4497   -0.5020    8.3769 C   0  0  0  0  0  0  0  0  0  0  0  0
 25 26  1  0  0  0
 26 27  2  0  0  0
 26 31  1  0  0  0
 27 28  1  0  0  0
 27 21  1  0  0  0
 28 29  2  0  0  0
 29 30  1  0  0  0
 30 31  2  0  0  0
 21 22  1  0  0  0
 22 23  2  0  0  0
 22 20  1  0  0  0
 20  1  1  0  0  0
  1  2  1  0  0  0
  1  5  1  0  0  0
  2  3  1  0  0  0
  3  4  1  0  0  0
  4  5  2  0  0  0
  4  9  1  0  0  0
  5  6  1  0  0  0
  6  7  2  0  0  0
  6  8  1  0  0  0
  8  9  1  0  0  0
  8 13  1  0  0  0
  9 10  2  0  0  0
 13 14  2  0  0  0
 13 18  1  0  0  0
 14 15  1  0  0  0
 15 16  2  0  0  0
 16 17  1  0  0  0
 16 19  1  0  0  0
 17 18  2  0  0  0
 21 24  1  0  0  0
  2 11  1  0  0  0
  3 12  1  0  0  0
M  END
> <minimizedAffinity>
-9.17521

$$$$
886


 31 34  0  0  0  0  0  0  0  0999 V2000
   11.6634    2.6927   10.2322 N   0  0  0  0  0  0  0  0  0  0  0  0
   11.0388    3.8806   10.1665 C   0  0  0  0  0  0  0  0  0  0  0  0
   10.1440    4.1077    9.3074 O   0  0  0  0  0  0  0  0  0  0  0  0
   11.4964    4.7652   11.1249 C   0  0  0  0  0  0  0  0  0  0  0  0
   12.4291    4.0911   11.7922 C   0  0  0  0  0  0  0  0  0  0  0  0
   12.9040    4.9137   12.7319 N   0  0  0  0  0  0  0  0  0  0  0  0
   12.2706    6.0678   12.6357 N   0  0  0  0  0  0  0  0  0  0  0  0
   11.3859    6.0128   11.6450 N   0  0  0  0  0  0  0  0  0  0  0  0
   12.5415    2.8250   11.2587 C   0  0  0  0  0  0  0  0  0  0  0  0
   13.3071    1.8810   11.6054 O   0  0  0  0  0  0  0  0  0  0  0  0
   13.6613    4.6449   13.4189 H   0  0  0  0  0  0  0  0  0  0  0  0
   12.4224    6.8967   13.2274 H   0  0  0  0  0  0  0  0  0  0  0  0
   10.7428   -1.8405    7.0716 F   0  0  0  0  0  0  0  0  0  0  0  0
   10.9723   -0.7360    7.8424 C   0  0  0  0  0  0  0  0  0  0  0  0
   12.1638   -0.0750    7.7455 C   0  0  0  0  0  0  0  0  0  0  0  0
   12.4079    1.0562    8.5281 C   0  0  0  0  0  0  0  0  0  0  0  0
   11.4720    1.5400    9.4141 C   0  0  0  0  0  0  0  0  0  0  0  0
   10.2741    0.8462    9.4884 C   0  0  0  0  0  0  0  0  0  0  0  0
   10.0227   -0.2694    8.7219 C   0  0  0  0  0  0  0  0  0  0  0  0
   10.4781    7.0219   11.1816 C   0  0  0  0  0  0  0  0  0  0  0  0
    9.2005    7.1026   11.8975 C   0  0  0  0  0  0  0  0  0  0  0  0
    8.9064    6.1618   12.6506 O   0  0  0  0  0  0  0  0  0  0  0  0
    8.3574    8.2049   11.7297 N   0  0  0  0  0  0  0  0  0  0  0  0
    8.6807    8.9908   11.0570 H   0  0  0  0  0  0  0  0  0  0  0  0
    7.1001    8.4665   12.3225 C   0  0  0  0  0  0  0  0  0  0  0  0
    6.9737    8.7953   13.6510 C   0  0  0  0  0  0  0  0  0  0  0  0
    5.7490    9.0591   14.2719 C   0  0  0  0  0  0  0  0  0  0  0  0
    4.6315    8.9763   13.4804 C   0  0  0  0  0  0  0  0  0  0  0  0
    4.7297    8.6502   12.1507 C   0  0  0  0  0  0  0  0  0  0  0  0
    5.9431    8.3958   11.5661 C   0  0  0  0  0  0  0  0  0  0  0  0
    2.9085    9.3291   14.2701 Br  0  0  0  0  0  0  0  0  0  0  0  0
 13 14  1  0  0  0
 14 15  2  0  0  0
 14 19  1  0  0  0
 15 16  1  0  0  0
 16 17  2  0  0  0
 17 18  1  0  0  0
 17  1  1  0  0  0
 18 19  2  0  0  0
  1  2  1  0  0  0
  1  9  1  0  0  0
  2  3  2  0  0  0
  2  4  1  0  0  0
  4  5  2  0  0  0
  4  8  1  0  0  0
  5  6  1  0  0  0
  5  9  1  0  0  0
  6  7  1  0  0  0
  7  8  1  0  0  0
  8 20  1  0  0  0
 20 21  1  0  0  0
 21 22  2  0  0  0
 21 23  1  0  0  0
 23 25  1  0  0  0
 25 26  2  0  0  0
 25 30  1  0  0  0
 26 27  1  0  0  0
 27 28  2  0  0  0
 28 29  1  0  0  0
 28 31  1  0  0  0
 29 30  2  0  0  0
  9 10  2  0  0  0
  6 11  1  0  0  0
  7 12  1  0  0  0
 23 24  1  0  0  0
M  END
> <minimizedAffinity>
-9.57535

$$$$
892


 27 30  0  0  0  0  0  0  0  0999 V2000
    4.6903    9.6747   14.4905 C   0  0  0  0  0  0  0  0  0  0  0  0
    4.8201    8.3462   13.9359 N   0  0  0  0  0  0  0  0  0  0  0  0
    6.1152    7.8559   13.5733 C   0  0  0  0  0  0  0  0  0  0  0  0
    6.7835    6.2579   13.4227 S   0  0  0  0  0  0  0  0  0  0  0  0
    8.3653    6.6620   12.9491 C   0  0  0  0  0  0  0  0  0  0  0  0
    8.3356    8.0130   12.9216 C   0  0  0  0  0  0  0  0  0  0  0  0
    7.1869    8.6326   13.2400 C   0  0  0  0  0  0  0  0  0  0  0  0
    6.8439   10.0822   13.2986 C   0  0  0  0  0  0  0  0  0  0  0  0
    7.6941   10.9611   13.0223 O   0  0  0  0  0  0  0  0  0  0  0  0
    5.5485   10.5086   13.6659 N   0  0  0  0  0  0  0  0  0  0  0  0
    9.6526    8.6644   12.5168 C   0  0  0  0  0  0  0  0  0  0  0  0
   10.4504    7.6652   11.7440 C   0  0  0  0  0  0  0  0  0  0  0  0
   10.7180    6.5629   12.6814 N   0  0  0  0  0  0  0  0  0  0  0  0
    9.5068    5.7710   12.6385 C   0  0  0  0  0  0  0  0  0  0  0  0
   11.8854    5.8105   12.2876 C   0  0  0  0  0  0  0  0  0  0  0  0
    4.0073    7.7102   13.7788 H   0  0  0  0  0  0  0  0  0  0  0  0
    5.1776   11.4407   13.3498 H   0  0  0  0  0  0  0  0  0  0  0  0
   10.8006    6.9544   13.6432 H   0  0  0  0  0  0  0  0  0  0  0  0
    4.4186    7.4469   19.5830 I   0  0  0  0  0  0  0  0  0  0  0  0
    5.2295    8.7512   18.1457 C   0  0  0  0  0  0  0  0  0  0  0  0
    4.7116    8.7691   16.8498 C   0  0  0  0  0  0  0  0  0  0  0  0
    5.2115    9.6058   15.8808 C   0  0  0  0  0  0  0  0  0  0  0  0
    6.2704   10.4367   16.2739 C   0  0  0  0  0  0  0  0  0  0  0  0
    6.7734   10.4119   17.5486 C   0  0  0  0  0  0  0  0  0  0  0  0
    6.2580    9.5669   18.5033 C   0  0  0  0  0  0  0  0  0  0  0  0
    8.2127   11.5552   18.0444 Br  0  0  0  0  0  0  0  0  0  0  0  0
    3.6714    7.9214   16.5396 O   0  0  0  0  0  0  0  0  0  0  0  0
 19 20  1  0  0  0
 20 21  2  0  0  0
 20 25  1  0  0  0
 21 22  1  0  0  0
 21 27  1  0  0  0
 22 23  2  0  0  0
 22  1  1  0  0  0
 23 24  1  0  0  0
 24 25  2  0  0  0
 24 26  1  0  0  0
  1  2  1  0  0  0
  1 10  1  0  0  0
  2  3  1  0  0  0
  3  4  1  0  0  0
  3  7  2  0  0  0
  4  5  1  0  0  0
  5  6  2  0  0  0
  5 14  1  0  0  0
  6  7  1  0  0  0
  6 11  1  0  0  0
  7  8  1  0  0  0
  8  9  2  0  0  0
  8 10  1  0  0  0
 11 12  1  0  0  0
 12 13  1  0  0  0
 13 14  1  0  0  0
 13 15  1  0  0  0
  2 16  1  0  0  0
 10 17  1  0  0  0
 13 18  1  0  0  0
M  CHG 1  13   1
M  CHG 1  27  -1
M  END
> <minimizedAffinity>
-7.20951

$$$$
895


 28 31  0  0  0  0  0  0  0  0999 V2000
   10.8020    5.6086   10.6116 C   0  0  0  0  0  0  0  0  0  0  0  0
   11.1697    6.2188   11.8895 N   0  0  0  0  0  0  0  0  0  0  0  0
   10.1712    6.8518   12.7283 C   0  0  0  0  0  0  0  0  0  0  0  0
   10.2815    7.9013   14.0850 S   0  0  0  0  0  0  0  0  0  0  0  0
    8.6277    8.1145   14.3932 C   0  0  0  0  0  0  0  0  0  0  0  0
    8.0224    7.3579   13.4261 C   0  0  0  0  0  0  0  0  0  0  0  0
    8.8313    6.7040   12.5645 C   0  0  0  0  0  0  0  0  0  0  0  0
    8.4239    5.8231   11.4323 C   0  0  0  0  0  0  0  0  0  0  0  0
    7.2030    5.6019   11.1700 O   0  0  0  0  0  0  0  0  0  0  0  0
    9.4181    5.2221   10.6357 N   0  0  0  0  0  0  0  0  0  0  0  0
    6.5023    7.4154   13.5306 C   0  0  0  0  0  0  0  0  0  0  0  0
    6.0907    7.1281   14.9502 C   0  0  0  0  0  0  0  0  0  0  0  0
    6.8696    7.8074   15.9308 N   0  0  0  0  0  0  0  0  0  0  0  0
    7.7200    8.8428   15.3535 C   0  0  0  0  0  0  0  0  0  0  0  0
    7.7959    6.8210   16.5084 C   0  0  0  0  0  0  0  0  0  0  0  0
   12.1470    6.2183   12.2344 H   0  0  0  0  0  0  0  0  0  0  0  0
    9.1452    4.4264   10.0016 H   0  0  0  0  0  0  0  0  0  0  0  0
    6.3002    8.2177   16.7167 H   0  0  0  0  0  0  0  0  0  0  0  0
   11.2383    0.2991    9.0316 I   0  0  0  0  0  0  0  0  0  0  0  0
   11.9607    2.0832    9.8943 C   0  0  0  0  0  0  0  0  0  0  0  0
   13.2448    2.1276   10.3984 C   0  0  0  0  0  0  0  0  0  0  0  0
   13.7356    3.2996   10.9718 C   0  0  0  0  0  0  0  0  0  0  0  0
   12.9050    4.3788   11.0097 C   0  0  0  0  0  0  0  0  0  0  0  0
   11.6093    4.3620   10.5096 C   0  0  0  0  0  0  0  0  0  0  0  0
   11.1459    3.2029    9.9511 C   0  0  0  0  0  0  0  0  0  0  0  0
   14.0573    1.0108   10.3416 O   0  0  0  0  0  0  0  0  0  0  0  0
   15.0341    3.2855   11.4628 O   0  0  0  0  0  0  0  0  0  0  0  0
   15.4678    4.3735   12.2573 C   0  0  0  0  0  0  0  0  0  0  0  0
 19 20  1  0  0  0
 20 21  2  0  0  0
 20 25  1  0  0  0
 21 22  1  0  0  0
 21 26  1  0  0  0
 22 23  2  0  0  0
 22 27  1  0  0  0
 23 24  1  0  0  0
 24 25  2  0  0  0
 24  1  1  0  0  0
  1  2  1  0  0  0
  1 10  1  0  0  0
  2  3  1  0  0  0
  3  4  1  0  0  0
  3  7  2  0  0  0
  4  5  1  0  0  0
  5  6  2  0  0  0
  5 14  1  0  0  0
  6  7  1  0  0  0
  6 11  1  0  0  0
  7  8  1  0  0  0
  8  9  2  0  0  0
  8 10  1  0  0  0
 11 12  1  0  0  0
 12 13  1  0  0  0
 13 14  1  0  0  0
 13 15  1  0  0  0
 27 28  1  0  0  0
  2 16  1  0  0  0
 10 17  1  0  0  0
 13 18  1  0  0  0
M  CHG 1  13   1
M  CHG 1  26  -1
M  END
> <minimizedAffinity>
-8.01272

$$$$
906


 27 30  0  0  0  0  0  0  0  0999 V2000
   11.9282    2.8821   10.5805 C   0  0  0  0  0  0  0  0  0  0  0  0
   10.8332    3.4677   10.1102 N   0  0  0  0  0  0  0  0  0  0  0  0
   10.4931    4.7552   10.2884 C   0  0  0  0  0  0  0  0  0  0  0  0
    9.4960    5.5812    9.9487 N   0  0  0  0  0  0  0  0  0  0  0  0
    9.7112    6.7734   10.4249 O   0  0  0  0  0  0  0  0  0  0  0  0
   10.8344    6.7822   11.0846 N   0  0  0  0  0  0  0  0  0  0  0  0
   11.3682    5.5524   11.0343 C   0  0  0  0  0  0  0  0  0  0  0  0
   12.4727    5.0224   11.5276 N   0  0  0  0  0  0  0  0  0  0  0  0
   12.7672    3.7359   11.3235 C   0  0  0  0  0  0  0  0  0  0  0  0
   13.9203    3.5127   11.9329 N   0  0  0  0  0  0  0  0  0  0  0  0
   14.3452    4.6486   12.5131 N   0  0  0  0  0  0  0  0  0  0  0  0
   13.4483    5.6159   12.2725 C   0  0  0  0  0  0  0  0  0  0  0  0
   12.2949    1.5327   10.4008 N   0  0  0  0  0  0  0  0  0  0  0  0
   13.0039    1.1142   11.1010 H   0  0  0  0  0  0  0  0  0  0  0  0
   14.6271    1.2234    8.2509 I   0  0  0  0  0  0  0  0  0  0  0  0
   12.7132    0.3345    8.3302 C   0  0  0  0  0  0  0  0  0  0  0  0
   11.8518    0.6345    9.4089 C   0  0  0  0  0  0  0  0  0  0  0  0
   10.6116    0.0671    9.4797 C   0  0  0  0  0  0  0  0  0  0  0  0
   10.2376   -0.8059    8.4549 C   0  0  0  0  0  0  0  0  0  0  0  0
   11.0498   -1.1153    7.4003 C   0  0  0  0  0  0  0  0  0  0  0  0
   12.3127   -0.5301    7.3420 C   0  0  0  0  0  0  0  0  0  0  0  0
   13.4630    7.0427   12.6917 C   0  0  0  0  0  0  0  0  0  0  0  0
   14.2776    7.9042   11.8020 C   0  0  0  0  0  0  0  0  0  0  0  0
   13.8879    8.2872   10.6793 O   0  0  0  0  0  0  0  0  0  0  0  0
   15.5167    8.2982   12.2254 O   0  0  0  0  0  0  0  0  0  0  0  0
   16.6819    8.2048   11.4868 C   0  0  0  0  0  0  0  0  0  0  0  0
   17.0604    6.8503   11.0231 C   0  0  0  0  0  0  0  0  0  0  0  0
 15 16  1  0  0  0
 16 17  2  0  0  0
 16 21  1  0  0  0
 17 18  1  0  0  0
 17 13  1  0  0  0
 18 19  2  0  0  0
 19 20  1  0  0  0
 20 21  2  0  0  0
 13  1  1  0  0  0
  1  2  2  0  0  0
  1  9  1  0  0  0
  2  3  1  0  0  0
  3  4  2  0  0  0
  3  7  1  0  0  0
  4  5  1  0  0  0
  5  6  1  0  0  0
  6  7  2  0  0  0
  7  8  1  0  0  0
  8  9  1  0  0  0
  8 12  1  0  0  0
  9 10  2  0  0  0
 10 11  1  0  0  0
 11 12  2  0  0  0
 12 22  1  0  0  0
 22 23  1  0  0  0
 23 24  2  0  0  0
 23 25  1  0  0  0
 25 26  1  0  0  0
 26 27  1  0  0  0
 13 14  1  0  0  0
M  END
> <minimizedAffinity>
-8.02703

$$$$
908


 25 28  0  0  0  0  0  0  0  0999 V2000
    7.7922    7.9235   12.6728 N   0  0  0  0  0  0  0  0  0  0  0  0
    8.3601    6.7564   12.3208 C   0  0  0  0  0  0  0  0  0  0  0  0
    7.7668    5.6366   12.2850 O   0  0  0  0  0  0  0  0  0  0  0  0
    9.6911    6.9209   11.9963 C   0  0  0  0  0  0  0  0  0  0  0  0
    9.9367    8.2115   12.1531 C   0  0  0  0  0  0  0  0  0  0  0  0
   11.2435    8.3578   11.8306 N   0  0  0  0  0  0  0  0  0  0  0  0
   11.7702    7.1958   11.4903 N   0  0  0  0  0  0  0  0  0  0  0  0
   10.8282    6.2933   11.5858 N   0  0  0  0  0  0  0  0  0  0  0  0
    8.7730    8.8386   12.5693 C   0  0  0  0  0  0  0  0  0  0  0  0
    8.6737   10.0856   12.8106 O   0  0  0  0  0  0  0  0  0  0  0  0
   11.7793    9.2511   11.8419 H   0  0  0  0  0  0  0  0  0  0  0  0
   12.7546    7.0258   11.2004 H   0  0  0  0  0  0  0  0  0  0  0  0
    7.4754    7.3030   15.7644 I   0  0  0  0  0  0  0  0  0  0  0  0
    6.0314    7.9878   14.3766 C   0  0  0  0  0  0  0  0  0  0  0  0
    6.4451    8.1776   13.0740 C   0  0  0  0  0  0  0  0  0  0  0  0
    5.4894    8.6250   12.1847 C   0  0  0  0  0  0  0  0  0  0  0  0
    4.1869    8.8665   12.5868 C   0  0  0  0  0  0  0  0  0  0  0  0
    3.7851    8.6736   13.8916 C   0  0  0  0  0  0  0  0  0  0  0  0
    4.7349    8.2265   14.7865 C   0  0  0  0  0  0  0  0  0  0  0  0
   10.9127    4.8991   11.3228 C   0  0  0  0  0  0  0  0  0  0  0  0
   10.4948    4.3524   10.1298 C   0  0  0  0  0  0  0  0  0  0  0  0
   10.5909    2.9889    9.9042 C   0  0  0  0  0  0  0  0  0  0  0  0
   11.1029    2.1275   10.8523 C   0  0  0  0  0  0  0  0  0  0  0  0
   11.5221    2.6733   12.0470 C   0  0  0  0  0  0  0  0  0  0  0  0
   11.4302    4.0238   12.2797 C   0  0  0  0  0  0  0  0  0  0  0  0
 13 14  1  0  0  0
 14 15  2  0  0  0
 14 19  1  0  0  0
 15 16  1  0  0  0
 15  1  1  0  0  0
 16 17  2  0  0  0
 17 18  1  0  0  0
 18 19  2  0  0  0
  1  2  1  0  0  0
  1  9  1  0  0  0
  2  3  2  0  0  0
  2  4  1  0  0  0
  4  5  2  0  0  0
  4  8  1  0  0  0
  5  6  1  0  0  0
  5  9  1  0  0  0
  6  7  1  0  0  0
  7  8  1  0  0  0
  8 20  1  0  0  0
 20 21  2  0  0  0
 20 25  1  0  0  0
 21 22  1  0  0  0
 22 23  2  0  0  0
 23 24  1  0  0  0
 24 25  2  0  0  0
  9 10  2  0  0  0
  6 11  1  0  0  0
  7 12  1  0  0  0
M  END
> <minimizedAffinity>
-7.54443

$$$$
910


 26 29  0  0  0  0  0  0  0  0999 V2000
    7.7995    8.3117   13.3770 C   0  0  0  0  0  0  0  0  0  0  0  0
    7.5297    7.3323   12.3933 C   0  0  0  0  0  0  0  0  0  0  0  0
    6.4017    6.9906   11.7813 N   0  0  0  0  0  0  0  0  0  0  0  0
    6.6627    6.0240   10.9549 O   0  0  0  0  0  0  0  0  0  0  0  0
    7.9092    5.7190   11.0009 N   0  0  0  0  0  0  0  0  0  0  0  0
    8.4972    6.5209   11.8982 C   0  0  0  0  0  0  0  0  0  0  0  0
    9.7907    6.6404   12.3555 C   0  0  0  0  0  0  0  0  0  0  0  0
   10.0858    7.5792   13.3101 C   0  0  0  0  0  0  0  0  0  0  0  0
    9.1103    8.4119   13.8227 C   0  0  0  0  0  0  0  0  0  0  0  0
   10.7607    5.7778   11.8236 N   0  0  0  0  0  0  0  0  0  0  0  0
   11.8364    6.2413   10.9461 C   0  0  0  0  0  0  0  0  0  0  0  0
   11.5940    5.5235    9.6340 C   0  0  0  0  0  0  0  0  0  0  0  0
   10.5119    4.6587    9.6641 O   0  0  0  0  0  0  0  0  0  0  0  0
   10.5275    3.7309   10.6839 C   0  0  0  0  0  0  0  0  0  0  0  0
   10.8661    4.3509   12.0282 C   0  0  0  0  0  0  0  0  0  0  0  0
    5.6876    9.8786   14.0396 C   0  0  0  0  0  0  0  0  0  0  0  0
    5.4558   11.0447   13.5176 O   0  0  0  0  0  0  0  0  0  0  0  0
    6.7252    9.1090   13.7141 N   0  0  0  0  0  0  0  0  0  0  0  0
    7.2645   10.1190   12.9775 H   0  0  0  0  0  0  0  0  0  0  0  0
    6.5525   10.2034   17.4486 I   0  0  0  0  0  0  0  0  0  0  0  0
    4.7840    9.6435   16.4053 C   0  0  0  0  0  0  0  0  0  0  0  0
    4.6336    9.5520   15.0385 C   0  0  0  0  0  0  0  0  0  0  0  0
    3.3739    9.1772   14.8019 N   0  0  0  0  0  0  0  0  0  0  0  0
    2.7556    9.0355   15.9680 N   0  0  0  0  0  0  0  0  0  0  0  0
    3.5804    9.3110   16.9760 C   0  0  0  0  0  0  0  0  0  0  0  0
    2.6994    8.9877   13.5041 C   0  0  0  0  0  0  0  0  0  0  0  0
 20 21  1  0  0  0
 21 22  2  0  0  0
 21 25  1  0  0  0
 22 23  1  0  0  0
 22 16  1  0  0  0
 23 24  1  0  0  0
 23 26  1  0  0  0
 24 25  2  0  0  0
 16 17  2  0  0  0
 16 18  1  0  0  0
 18  1  1  0  0  0
  1  2  1  0  0  0
  1  9  2  0  0  0
  2  3  2  0  0  0
  2  6  1  0  0  0
  3  4  1  0  0  0
  4  5  1  0  0  0
  5  6  2  0  0  0
  6  7  1  0  0  0
  7  8  2  0  0  0
  7 10  1  0  0  0
  8  9  1  0  0  0
 10 11  1  0  0  0
 10 15  1  0  0  0
 11 12  1  0  0  0
 12 13  1  0  0  0
 13 14  1  0  0  0
 14 15  1  0  0  0
 18 19  1  0  0  0
M  END
> <minimizedAffinity>
-8.12870

$$$$
920


 24 27  0  0  0  0  0  0  0  0999 V2000
   15.4350    3.1504   10.8806 N   0  0  0  0  0  0  0  0  0  0  0  0
   14.1579    2.9379   10.9534 C   0  0  0  0  0  0  0  0  0  0  0  0
   12.6969    3.5059   11.8377 S   0  0  0  0  0  0  0  0  0  0  0  0
   11.6011    2.3958   10.9844 C   0  0  0  0  0  0  0  0  0  0  0  0
   12.2997    1.6863   10.1263 C   0  0  0  0  0  0  0  0  0  0  0  0
   13.6899    1.9535   10.0804 N   0  0  0  0  0  0  0  0  0  0  0  0
   14.8770    1.4711    9.3291 C   0  0  0  0  0  0  0  0  0  0  0  0
   16.0042    2.2388    9.9267 C   0  0  0  0  0  0  0  0  0  0  0  0
   11.5729    0.6774    9.3005 C   0  0  0  0  0  0  0  0  0  0  0  0
   12.1936   -0.0474    8.3171 C   0  0  0  0  0  0  0  0  0  0  0  0
   11.5057   -1.0055    7.5466 C   0  0  0  0  0  0  0  0  0  0  0  0
   10.1684   -1.2403    7.7680 C   0  0  0  0  0  0  0  0  0  0  0  0
    9.5418   -0.5171    8.7517 C   0  0  0  0  0  0  0  0  0  0  0  0
   10.2286    0.4251    9.5066 C   0  0  0  0  0  0  0  0  0  0  0  0
   16.1576    4.0941   11.6479 C   0  0  0  0  0  0  0  0  0  0  0  0
   17.5228    4.4337   11.3454 C   0  0  0  0  0  0  0  0  0  0  0  0
   17.6223    5.4745   10.5619 O   0  0  0  0  0  0  0  0  0  0  0  0
   23.0171    1.7722   13.0643 I   0  0  0  0  0  0  0  0  0  0  0  0
   21.2388    2.6835   12.4803 C   0  0  0  0  0  0  0  0  0  0  0  0
   21.1664    3.8043   11.6760 C   0  0  0  0  0  0  0  0  0  0  0  0
   19.9792    4.3790   11.3091 C   0  0  0  0  0  0  0  0  0  0  0  0
   18.7883    3.8670   11.7255 C   0  0  0  0  0  0  0  0  0  0  0  0
   18.8409    2.7357   12.5381 C   0  0  0  0  0  0  0  0  0  0  0  0
   20.0144    2.1649   12.9028 C   0  0  0  0  0  0  0  0  0  0  0  0
 18 19  1  0  0  0
 19 20  2  0  0  0
 19 24  1  0  0  0
 20 21  1  0  0  0
 21 22  2  0  0  0
 22 23  1  0  0  0
 22 16  1  0  0  0
 23 24  2  0  0  0
 16 17  2  0  0  0
 16 15  1  0  0  0
 15  1  1  0  0  0
  1  2  2  0  0  0
  1  8  1  0  0  0
  2  3  1  0  0  0
  2  6  1  0  0  0
  3  4  1  0  0  0
  4  5  2  0  0  0
  5  6  1  0  0  0
  5  9  1  0  0  0
  6  7  1  0  0  0
  7  8  1  0  0  0
  9 10  2  0  0  0
  9 14  1  0  0  0
 10 11  1  0  0  0
 11 12  2  0  0  0
 12 13  1  0  0  0
 13 14  2  0  0  0
M  END
> <minimizedAffinity>
-8.40179

$$$$
924


 29 32  0  0  0  0  0  0  0  0999 V2000
   10.8591    4.4154   10.1593 C   0  0  0  0  0  0  0  0  0  0  0  0
   12.0442    4.6269   10.7566 N   0  0  0  0  0  0  0  0  0  0  0  0
   12.9624    3.6559   10.8401 C   0  0  0  0  0  0  0  0  0  0  0  0
   12.6387    2.4690   10.3012 N   0  0  0  0  0  0  0  0  0  0  0  0
   11.4607    2.2186    9.6951 C   0  0  0  0  0  0  0  0  0  0  0  0
   10.5654    3.2215    9.6310 N   0  0  0  0  0  0  0  0  0  0  0  0
   11.1977    0.9324    9.1515 N   0  0  0  0  0  0  0  0  0  0  0  0
   12.2758    0.1700    8.5658 C   0  0  0  0  0  0  0  0  0  0  0  0
   11.6445   -0.5897    7.3905 C   0  0  0  0  0  0  0  0  0  0  0  0
   10.7540   -1.4902    7.9141 O   0  0  0  0  0  0  0  0  0  0  0  0
    9.7041   -0.9692    8.6171 C   0  0  0  0  0  0  0  0  0  0  0  0
    9.8820    0.3940    9.1804 C   0  0  0  0  0  0  0  0  0  0  0  0
   14.2278    3.8573   11.4702 N   0  0  0  0  0  0  0  0  0  0  0  0
   14.4624    4.8679   12.4567 C   0  0  0  0  0  0  0  0  0  0  0  0
   15.9637    4.8868   12.7516 C   0  0  0  0  0  0  0  0  0  0  0  0
   16.7111    4.9318   11.5865 O   0  0  0  0  0  0  0  0  0  0  0  0
   16.5813    3.8076   10.8090 C   0  0  0  0  0  0  0  0  0  0  0  0
   15.3423    3.0001   11.1006 C   0  0  0  0  0  0  0  0  0  0  0  0
    9.8827    5.4811   10.0807 N   0  0  0  0  0  0  0  0  0  0  0  0
   10.1067    6.3525    9.5522 H   0  0  0  0  0  0  0  0  0  0  0  0
    8.3979    5.9241   11.7975 C   0  0  0  0  0  0  0  0  0  0  0  0
    8.6961    5.3426   10.7210 N   0  0  0  0  0  0  0  0  0  0  0  0
   11.6725   10.3204   15.0021 I   0  0  0  0  0  0  0  0  0  0  0  0
   10.6457    8.8059   13.9877 C   0  0  0  0  0  0  0  0  0  0  0  0
   10.9399    7.4862   14.1406 C   0  0  0  0  0  0  0  0  0  0  0  0
   10.2129    6.5196   13.4298 C   0  0  0  0  0  0  0  0  0  0  0  0
    9.2004    6.8313   12.5708 C   0  0  0  0  0  0  0  0  0  0  0  0
    8.9187    8.1987   12.4323 C   0  0  0  0  0  0  0  0  0  0  0  0
    9.6277    9.1493   13.1261 C   0  0  0  0  0  0  0  0  0  0  0  0
 23 24  1  0  0  0
 24 25  2  0  0  0
 24 29  1  0  0  0
 25 26  1  0  0  0
 26 27  2  0  0  0
 27 28  1  0  0  0
 27 21  1  0  0  0
 28 29  2  0  0  0
 21 22  2  0  0  0
 22 19  1  0  0  0
 19  1  1  0  0  0
  1  2  2  0  0  0
  1  6  1  0  0  0
  2  3  1  0  0  0
  3  4  2  0  0  0
  3 13  1  0  0  0
  4  5  1  0  0  0
  5  6  2  0  0  0
  5  7  1  0  0  0
  7  8  1  0  0  0
  7 12  1  0  0  0
  8  9  1  0  0  0
  9 10  1  0  0  0
 10 11  1  0  0  0
 11 12  1  0  0  0
 13 14  1  0  0  0
 13 18  1  0  0  0
 14 15  1  0  0  0
 15 16  1  0  0  0
 16 17  1  0  0  0
 17 18  1  0  0  0
 19 20  1  0  0  0
M  END
> <minimizedAffinity>
-7.82921

$$$$
935


 34 38  0  0  0  0  0  0  0  0999 V2000
   12.4607    4.5614   10.5881 N   0  0  0  0  0  0  0  0  0  0  0  0
   13.3980    4.7042   11.5412 C   0  0  0  0  0  0  0  0  0  0  0  0
   13.8739    5.9368   11.9317 C   0  0  0  0  0  0  0  0  0  0  0  0
   13.3280    7.0278   11.2841 C   0  0  0  0  0  0  0  0  0  0  0  0
   13.6581    8.2278   11.5272 O   0  0  0  0  0  0  0  0  0  0  0  0
   12.3728    6.8956   10.3120 N   0  0  0  0  0  0  0  0  0  0  0  0
   11.9645    5.6561    9.9894 C   0  0  0  0  0  0  0  0  0  0  0  0
   11.0898    5.4848    9.1028 O   0  0  0  0  0  0  0  0  0  0  0  0
   13.9130    3.5959   12.1625 O   0  0  0  0  0  0  0  0  0  0  0  0
   11.9663    7.7177    9.8280 H   0  0  0  0  0  0  0  0  0  0  0  0
   14.8930    6.1707   12.9382 C   0  0  0  0  0  0  0  0  0  0  0  0
   15.6328    5.0403   13.4018 N   0  0  0  0  0  0  0  0  0  0  0  0
   16.4461    4.4048   12.4015 C   0  0  0  0  0  0  0  0  0  0  0  0
   16.5488    5.2010   11.1176 C   0  0  0  0  0  0  0  0  0  0  0  0
   16.7888    6.6488   11.4734 C   0  0  0  0  0  0  0  0  0  0  0  0
   15.9371    7.1329   12.4338 C   0  0  0  0  0  0  0  0  0  0  0  0
   16.0569    8.4257   12.8842 C   0  0  0  0  0  0  0  0  0  0  0  0
   17.0635    9.2022   12.3281 C   0  0  0  0  0  0  0  0  0  0  0  0
   17.9273    8.7309   11.3611 C   0  0  0  0  0  0  0  0  0  0  0  0
   17.7706    7.4131   10.9335 C   0  0  0  0  0  0  0  0  0  0  0  0
   18.8051    9.7485   11.0222 O   0  0  0  0  0  0  0  0  0  0  0  0
   18.2780   10.9969   11.4999 C   0  0  0  0  0  0  0  0  0  0  0  0
   17.4562   10.5305   12.5537 O   0  0  0  0  0  0  0  0  0  0  0  0
   16.6002    5.5916   14.3866 C   0  0  0  0  0  0  0  0  0  0  0  0
   15.1199    4.3594   13.9860 H   0  0  0  0  0  0  0  0  0  0  0  0
   15.2053    8.8987   13.8418 O   0  0  0  0  0  0  0  0  0  0  0  0
   15.4885    9.1152   15.1874 C   0  0  0  0  0  0  0  0  0  0  0  0
   10.3520   -1.1532    8.8572 I   0  0  0  0  0  0  0  0  0  0  0  0
   11.0692    0.7368    9.4215 C   0  0  0  0  0  0  0  0  0  0  0  0
   10.2571    1.5998   10.1496 C   0  0  0  0  0  0  0  0  0  0  0  0
   10.7156    2.8301   10.5206 C   0  0  0  0  0  0  0  0  0  0  0  0
   11.9863    3.2811   10.2012 C   0  0  0  0  0  0  0  0  0  0  0  0
   12.8032    2.4228    9.4727 C   0  0  0  0  0  0  0  0  0  0  0  0
   12.3307    1.1813    9.1023 C   0  0  0  0  0  0  0  0  0  0  0  0
 28 29  1  0  0  0
 29 30  2  0  0  0
 29 34  1  0  0  0
 30 31  1  0  0  0
 31 32  2  0  0  0
 32 33  1  0  0  0
 32  1  1  0  0  0
 33 34  2  0  0  0
  1  2  1  0  0  0
  1  7  1  0  0  0
  2  3  2  0  0  0
  2  9  1  0  0  0
  3  4  1  0  0  0
  3 11  1  0  0  0
  4  5  2  0  0  0
  4  6  1  0  0  0
  6  7  1  0  0  0
  7  8  2  0  0  0
 11 12  1  0  0  0
 11 16  1  0  0  0
 12 13  1  0  0  0
 12 24  1  0  0  0
 13 14  1  0  0  0
 14 15  1  0  0  0
 15 16  2  0  0  0
 15 20  1  0  0  0
 16 17  1  0  0  0
 17 18  2  0  0  0
 17 26  1  0  0  0
 18 19  1  0  0  0
 18 23  1  0  0  0
 19 20  2  0  0  0
 19 21  1  0  0  0
 21 22  1  0  0  0
 22 23  1  0  0  0
 26 27  1  0  0  0
  6 10  1  0  0  0
 12 25  1  0  0  0
M  CHG 1   9  -1
M  CHG 1  12   1
M  END
> <minimizedAffinity>
-9.07767

$$$$
937


 26 29  0  0  0  0  0  0  0  0999 V2000
   10.4087    7.0218   11.3125 N   0  0  0  0  0  0  0  0  0  0  0  0
   10.7238    6.1850   10.2120 C   0  0  0  0  0  0  0  0  0  0  0  0
    9.9311    5.9510    9.2633 O   0  0  0  0  0  0  0  0  0  0  0  0
   12.1067    5.6541   10.3671 C   0  0  0  0  0  0  0  0  0  0  0  0
   12.7704    6.7670   11.1602 C   0  0  0  0  0  0  0  0  0  0  0  0
   11.6575    7.4373   11.8610 C   0  0  0  0  0  0  0  0  0  0  0  0
   11.7589    8.2656   12.8126 O   0  0  0  0  0  0  0  0  0  0  0  0
    4.6789    8.7922   13.4430 I   0  0  0  0  0  0  0  0  0  0  0  0
    6.5824    8.2136   12.7325 C   0  0  0  0  0  0  0  0  0  0  0  0
    7.4062    9.0841   12.0505 C   0  0  0  0  0  0  0  0  0  0  0  0
    8.6453    8.6788   11.5967 C   0  0  0  0  0  0  0  0  0  0  0  0
    9.1077    7.3961   11.8038 C   0  0  0  0  0  0  0  0  0  0  0  0
    8.2717    6.5441   12.4855 C   0  0  0  0  0  0  0  0  0  0  0  0
    7.0284    6.9278   12.9488 C   0  0  0  0  0  0  0  0  0  0  0  0
   12.0375    4.4316   11.0555 N   0  0  0  0  0  0  0  0  0  0  0  0
   10.8364    3.7330   11.1731 C   0  0  0  0  0  0  0  0  0  0  0  0
   11.1995    2.2370   11.3644 C   0  0  0  0  0  0  0  0  0  0  0  0
   12.1604    1.8739   10.3334 N   0  0  0  0  0  0  0  0  0  0  0  0
   13.4058    2.6004   10.3328 C   0  0  0  0  0  0  0  0  0  0  0  0
   13.2505    3.7649   11.3073 C   0  0  0  0  0  0  0  0  0  0  0  0
   11.8738    0.8687    9.3874 C   0  0  0  0  0  0  0  0  0  0  0  0
   10.6211    0.3466    9.2864 N   0  0  0  0  0  0  0  0  0  0  0  0
   10.2874   -0.5957    8.4075 C   0  0  0  0  0  0  0  0  0  0  0  0
   11.2384   -1.1000    7.5304 C   0  0  0  0  0  0  0  0  0  0  0  0
   12.5103   -0.5655    7.6379 C   0  0  0  0  0  0  0  0  0  0  0  0
   12.8025    0.3834    8.5376 N   0  0  0  0  0  0  0  0  0  0  0  0
  8  9  1  0  0  0
  9 10  2  0  0  0
  9 14  1  0  0  0
 10 11  1  0  0  0
 11 12  2  0  0  0
 12 13  1  0  0  0
 12  1  1  0  0  0
 13 14  2  0  0  0
  1  2  1  0  0  0
  1  6  1  0  0  0
  2  3  2  0  0  0
  2  4  1  0  0  0
  4  5  1  0  0  0
  4 15  1  0  0  0
  5  6  1  0  0  0
  6  7  2  0  0  0
 15 16  1  0  0  0
 15 20  1  0  0  0
 16 17  1  0  0  0
 17 18  1  0  0  0
 18 19  1  0  0  0
 18 21  1  0  0  0
 19 20  1  0  0  0
 21 22  2  0  0  0
 21 26  1  0  0  0
 22 23  1  0  0  0
 23 24  2  0  0  0
 24 25  1  0  0  0
 25 26  2  0  0  0
M  END
> <minimizedAffinity>
-8.66087

$$$$
950


 26 29  0  0  0  0  0  0  0  0999 V2000
    9.4781    5.9762   13.1294 C   0  0  0  0  0  0  0  0  0  0  0  0
    8.3496    6.0846   12.3109 C   0  0  0  0  0  0  0  0  0  0  0  0
    8.0318    5.4884   11.1486 N   0  0  0  0  0  0  0  0  0  0  0  0
    6.8635    5.9179   10.7717 O   0  0  0  0  0  0  0  0  0  0  0  0
    6.3976    6.7697   11.6316 N   0  0  0  0  0  0  0  0  0  0  0  0
    7.3000    6.9087   12.6219 C   0  0  0  0  0  0  0  0  0  0  0  0
    7.3389    7.6629   13.7747 C   0  0  0  0  0  0  0  0  0  0  0  0
    8.4505    7.5482   14.5710 C   0  0  0  0  0  0  0  0  0  0  0  0
    9.5289    6.7096   14.2612 C   0  0  0  0  0  0  0  0  0  0  0  0
    6.2432    8.5097   14.0792 N   0  0  0  0  0  0  0  0  0  0  0  0
    6.2674    9.9099   13.7090 C   0  0  0  0  0  0  0  0  0  0  0  0
    4.9647   10.5311   14.0747 C   0  0  0  0  0  0  0  0  0  0  0  0
    3.8579    9.8198   13.6545 O   0  0  0  0  0  0  0  0  0  0  0  0
    3.7978    8.5334   14.0882 C   0  0  0  0  0  0  0  0  0  0  0  0
    5.0539    8.0431   14.7638 C   0  0  0  0  0  0  0  0  0  0  0  0
   11.5918    5.3963   11.9057 C   0  0  0  0  0  0  0  0  0  0  0  0
   11.7450    6.5862   11.4605 O   0  0  0  0  0  0  0  0  0  0  0  0
   10.5007    5.0942   12.7088 N   0  0  0  0  0  0  0  0  0  0  0  0
   10.4412    4.0744   13.0227 H   0  0  0  0  0  0  0  0  0  0  0  0
   10.8971    2.2548   10.1107 I   0  0  0  0  0  0  0  0  0  0  0  0
   12.5750    3.2603   10.8304 C   0  0  0  0  0  0  0  0  0  0  0  0
   13.8828    2.7915   10.7048 C   0  0  0  0  0  0  0  0  0  0  0  0
   14.7021    3.6673   11.2887 N   0  0  0  0  0  0  0  0  0  0  0  0
   13.9680    4.6368   11.7600 N   0  0  0  0  0  0  0  0  0  0  0  0
   12.6322    4.4334   11.5002 C   0  0  0  0  0  0  0  0  0  0  0  0
   16.1629    3.5272   11.3653 C   0  0  0  0  0  0  0  0  0  0  0  0
 20 21  1  0  0  0
 21 22  2  0  0  0
 21 25  1  0  0  0
 22 23  1  0  0  0
 23 24  1  0  0  0
 23 26  1  0  0  0
 24 25  2  0  0  0
 25 16  1  0  0  0
 16 17  2  0  0  0
 16 18  1  0  0  0
 18  1  1  0  0  0
  1  2  1  0  0  0
  1  9  2  0  0  0
  2  3  2  0  0  0
  2  6  1  0  0  0
  3  4  1  0  0  0
  4  5  1  0  0  0
  5  6  2  0  0  0
  6  7  1  0  0  0
  7  8  2  0  0  0
  7 10  1  0  0  0
  8  9  1  0  0  0
 10 11  1  0  0  0
 10 15  1  0  0  0
 11 12  1  0  0  0
 12 13  1  0  0  0
 13 14  1  0  0  0
 14 15  1  0  0  0
 18 19  1  0  0  0
M  END
> <minimizedAffinity>
-8.20277

$$$$
956


 30 33  0  0  0  0  0  0  0  0999 V2000
   13.2517    7.9513   13.2830 I   0  0  0  0  0  0  0  0  0  0  0  0
   11.3238    7.4427   12.5983 C   0  0  0  0  0  0  0  0  0  0  0  0
   11.0224    6.5135   11.6469 C   0  0  0  0  0  0  0  0  0  0  0  0
    9.6306    6.5491   11.5526 C   0  0  0  0  0  0  0  0  0  0  0  0
    9.1008    7.4411   12.3905 N   0  0  0  0  0  0  0  0  0  0  0  0
   10.1296    7.9924   13.0337 C   0  0  0  0  0  0  0  0  0  0  0  0
    9.0453    5.7183   10.6736 N   0  0  0  0  0  0  0  0  0  0  0  0
    9.7747    4.8861    9.9143 C   0  0  0  0  0  0  0  0  0  0  0  0
   11.1075    4.8549   10.0072 N   0  0  0  0  0  0  0  0  0  0  0  0
   11.7854    5.6670   10.8764 C   0  0  0  0  0  0  0  0  0  0  0  0
    7.7228    7.7743   12.5937 C   0  0  0  0  0  0  0  0  0  0  0  0
    6.9078    7.4650   11.5115 O   0  0  0  0  0  0  0  0  0  0  0  0
    5.6821    7.9996   11.8981 C   0  0  0  0  0  0  0  0  0  0  0  0
    5.9705    9.3209   12.5719 C   0  0  0  0  0  0  0  0  0  0  0  0
    7.4984    9.2852   12.6971 C   0  0  0  0  0  0  0  0  0  0  0  0
    5.4749    9.3550   13.8760 O   0  0  0  0  0  0  0  0  0  0  0  0
    4.4801    9.4774   13.7784 H   0  0  0  0  0  0  0  0  0  0  0  0
    4.8400    8.3252   10.6565 C   0  0  0  0  0  0  0  0  0  0  0  0
    3.6686    7.5574   10.6927 O   0  0  0  0  0  0  0  0  0  0  0  0
    2.9107    8.0817   11.1040 H   0  0  0  0  0  0  0  0  0  0  0  0
   13.2060    5.5906   10.9330 N   0  0  0  0  0  0  0  0  0  0  0  0
   13.8032    4.5213   11.6609 C   0  0  0  0  0  0  0  0  0  0  0  0
   13.0297    3.6995   12.2155 O   0  0  0  0  0  0  0  0  0  0  0  0
   13.8574    6.2450   10.4909 H   0  0  0  0  0  0  0  0  0  0  0  0
   15.2202    4.3255   11.7989 C   0  0  0  0  0  0  0  0  0  0  0  0
   15.9660    5.1029   12.6413 C   0  0  0  0  0  0  0  0  0  0  0  0
   17.3430    4.9228   12.7894 C   0  0  0  0  0  0  0  0  0  0  0  0
   17.9708    3.9446   12.0760 C   0  0  0  0  0  0  0  0  0  0  0  0
   17.2489    3.1499   11.2236 C   0  0  0  0  0  0  0  0  0  0  0  0
   15.8697    3.3477   11.0906 C   0  0  0  0  0  0  0  0  0  0  0  0
  1  2  1  0  0  0
  2  3  1  0  0  0
  2  6  2  0  0  0
  3  4  2  0  0  0
  3 10  1  0  0  0
  4  5  1  0  0  0
  4  7  1  0  0  0
  5  6  1  0  0  0
  5 11  1  0  0  0
 11 12  1  0  0  0
 11 15  1  0  0  0
 12 13  1  0  0  0
 13 14  1  0  0  0
 13 18  1  0  0  0
 14 15  1  0  0  0
 14 16  1  0  0  0
 18 19  1  0  0  0
  7  8  2  0  0  0
  8  9  1  0  0  0
  9 10  2  0  0  0
 10 21  1  0  0  0
 21 22  1  0  0  0
 22 23  2  0  0  0
 22 25  1  0  0  0
 25 26  2  0  0  0
 25 30  1  0  0  0
 26 27  1  0  0  0
 27 28  2  0  0  0
 28 29  1  0  0  0
 29 30  2  0  0  0
 16 17  1  0  0  0
 19 20  1  0  0  0
 21 24  1  0  0  0
M  END
> <minimizedAffinity>
-8.54142

$$$$
961


 29 33  0  0  0  0  0  0  0  0999 V2000
   13.8919    4.5365   11.4786 C   0  0  0  0  0  0  0  0  0  0  0  0
   15.0836    4.9727   11.8091 N   0  0  0  0  0  0  0  0  0  0  0  0
   16.1953    4.2681   11.4388 C   0  0  0  0  0  0  0  0  0  0  0  0
   16.1548    3.1096   10.7256 C   0  0  0  0  0  0  0  0  0  0  0  0
   14.9199    2.6214   10.3574 C   0  0  0  0  0  0  0  0  0  0  0  0
   14.4920    1.5156    9.6555 N   0  0  0  0  0  0  0  0  0  0  0  0
   13.1714    1.5223    9.5884 C   0  0  0  0  0  0  0  0  0  0  0  0
   12.7689    2.6404   10.2518 N   0  0  0  0  0  0  0  0  0  0  0  0
   13.8133    3.3273   10.7303 C   0  0  0  0  0  0  0  0  0  0  0  0
   15.4465    0.5907    9.1137 C   0  0  0  0  0  0  0  0  0  0  0  0
   15.2832    6.2172   12.4913 C   0  0  0  0  0  0  0  0  0  0  0  0
   12.2682    0.5698    8.9318 C   0  0  0  0  0  0  0  0  0  0  0  0
   12.5518   -0.1280    7.8050 C   0  0  0  0  0  0  0  0  0  0  0  0
   11.5922   -0.9945    7.2485 C   0  0  0  0  0  0  0  0  0  0  0  0
   10.3600   -1.1395    7.8439 C   0  0  0  0  0  0  0  0  0  0  0  0
   10.0448   -0.4372    8.9993 C   0  0  0  0  0  0  0  0  0  0  0  0
   10.9977    0.3861    9.5016 C   0  0  0  0  0  0  0  0  0  0  0  0
   11.8131    5.9203   11.2916 C   0  0  0  0  0  0  0  0  0  0  0  0
   12.6158    5.1025   11.8755 C   0  0  0  0  0  0  0  0  0  0  0  0
   11.7904    8.7365   12.8732 Br  0  0  0  0  0  0  0  0  0  0  0  0
   10.3232    7.6675   12.2933 C   0  0  0  0  0  0  0  0  0  0  0  0
    9.0187    8.1463   12.5729 C   0  0  0  0  0  0  0  0  0  0  0  0
    7.9168    7.4110   12.2292 C   0  0  0  0  0  0  0  0  0  0  0  0
    8.1040    6.1961   11.6074 C   0  0  0  0  0  0  0  0  0  0  0  0
    9.3753    5.7404   11.3405 C   0  0  0  0  0  0  0  0  0  0  0  0
   10.5377    6.4772   11.6809 C   0  0  0  0  0  0  0  0  0  0  0  0
    6.8301    5.6543   11.3691 O   0  0  0  0  0  0  0  0  0  0  0  0
    5.9339    6.7464   11.3735 C   0  0  0  0  0  0  0  0  0  0  0  0
    6.5356    7.5874   12.3569 O   0  0  0  0  0  0  0  0  0  0  0  0
 20 21  1  0  0  0
 21 22  2  0  0  0
 21 26  1  0  0  0
 22 23  1  0  0  0
 23 24  2  0  0  0
 23 29  1  0  0  0
 24 25  1  0  0  0
 24 27  1  0  0  0
 25 26  2  0  0  0
 26 18  1  0  0  0
 18 19  2  0  0  0
 19  1  1  0  0  0
  1  2  2  0  0  0
  1  9  1  0  0  0
  2  3  1  0  0  0
  2 11  1  0  0  0
  3  4  2  0  0  0
  4  5  1  0  0  0
  5  6  1  0  0  0
  5  9  2  0  0  0
  6  7  1  0  0  0
  6 10  1  0  0  0
  7  8  2  0  0  0
  7 12  1  0  0  0
  8  9  1  0  0  0
 12 13  2  0  0  0
 12 17  1  0  0  0
 13 14  1  0  0  0
 14 15  2  0  0  0
 15 16  1  0  0  0
 16 17  2  0  0  0
 27 28  1  0  0  0
 28 29  1  0  0  0
M  END
> <minimizedAffinity>
-9.89694

$$$$
969


 31 34  0  0  0  0  0  0  0  0999 V2000
   12.3049   11.6530   16.9505 Br  0  0  0  0  0  0  0  0  0  0  0  0
   11.3776   10.5733   15.6905 C   0  0  0  0  0  0  0  0  0  0  0  0
   10.0394   10.2158   15.8289 C   0  0  0  0  0  0  0  0  0  0  0  0
    9.4089    9.4250   14.8824 C   0  0  0  0  0  0  0  0  0  0  0  0
   10.1070    8.9776   13.7792 C   0  0  0  0  0  0  0  0  0  0  0  0
   11.4214    9.3240   13.6357 C   0  0  0  0  0  0  0  0  0  0  0  0
   12.0396   10.1076   14.5771 C   0  0  0  0  0  0  0  0  0  0  0  0
   13.3934   10.4235   14.3597 O   0  0  0  0  0  0  0  0  0  0  0  0
   12.3331    8.6700   12.0775 Br  0  0  0  0  0  0  0  0  0  0  0  0
    8.0856    9.0567   14.9956 C   0  0  0  0  0  0  0  0  0  0  0  0
    7.3947    9.5088   16.1003 C   0  0  0  0  0  0  0  0  0  0  0  0
    8.1422   10.3400   17.0517 C   0  0  0  0  0  0  0  0  0  0  0  0
    7.4296   10.7887   18.1648 C   0  0  0  0  0  0  0  0  0  0  0  0
    6.1058   10.4542   18.3320 C   0  0  0  0  0  0  0  0  0  0  0  0
    5.5048   10.8821   19.3500 O   0  0  0  0  0  0  0  0  0  0  0  0
    5.4255    9.6637   17.4118 C   0  0  0  0  0  0  0  0  0  0  0  0
    6.0606    9.1913   16.3003 C   0  0  0  0  0  0  0  0  0  0  0  0
    3.5858    9.2478   17.7223 Br  0  0  0  0  0  0  0  0  0  0  0  0
    8.3457   11.8808   19.4536 Br  0  0  0  0  0  0  0  0  0  0  0  0
    9.4048   10.6557   16.8852 O   0  0  0  0  0  0  0  0  0  0  0  0
    7.4237    8.2144   13.9981 C   0  0  0  0  0  0  0  0  0  0  0  0
    7.4958    6.8358   14.0806 C   0  0  0  0  0  0  0  0  0  0  0  0
    6.8859    6.0209   13.1505 C   0  0  0  0  0  0  0  0  0  0  0  0
    6.1879    6.6086   12.1157 C   0  0  0  0  0  0  0  0  0  0  0  0
    6.0916    7.9612   11.9969 C   0  0  0  0  0  0  0  0  0  0  0  0
    6.7079    8.7599   12.9348 C   0  0  0  0  0  0  0  0  0  0  0  0
    5.1820    8.6246   10.6488 Cl  0  0  0  0  0  0  0  0  0  0  0  0
    8.3944    6.1070   15.4164 Cl  0  0  0  0  0  0  0  0  0  0  0  0
    6.6154   10.1949   12.8135 C   0  0  0  0  0  0  0  0  0  0  0  0
    7.4749   10.8763   12.1900 O   0  0  0  0  0  0  0  0  0  0  0  0
    5.5528   10.8840   13.3935 O   0  0  0  0  0  0  0  0  0  0  0  0
  1  2  1  0  0  0
  2  3  2  0  0  0
  2  7  1  0  0  0
  3  4  1  0  0  0
  3 20  1  0  0  0
  4  5  2  0  0  0
  4 10  1  0  0  0
  5  6  1  0  0  0
  6  7  2  0  0  0
  6  9  1  0  0  0
  7  8  1  0  0  0
 10 11  2  0  0  0
 10 21  1  0  0  0
 11 12  1  0  0  0
 11 17  1  0  0  0
 12 13  2  0  0  0
 12 20  1  0  0  0
 13 14  1  0  0  0
 13 19  1  0  0  0
 14 15  2  0  0  0
 14 16  1  0  0  0
 16 17  2  0  0  0
 16 18  1  0  0  0
 21 22  2  0  0  0
 21 26  1  0  0  0
 22 23  1  0  0  0
 22 28  1  0  0  0
 23 24  2  0  0  0
 24 25  1  0  0  0
 25 26  2  0  0  0
 25 27  1  0  0  0
 26 29  1  0  0  0
 29 30  2  0  0  0
 29 31  1  0  0  0
M  CHG 1   8  -1
M  END
> <minimizedAffinity>
-7.55817

$$$$
971


 29 33  0  0  0  0  0  0  0  0999 V2000
    2.7811    8.7565   15.9634 Br  0  0  0  0  0  0  0  0  0  0  0  0
    4.2577    8.4659   14.7918 C   0  0  0  0  0  0  0  0  0  0  0  0
    5.5236    8.0970   15.2838 C   0  0  0  0  0  0  0  0  0  0  0  0
    6.6036    7.8806   14.4801 C   0  0  0  0  0  0  0  0  0  0  0  0
    6.4252    8.0371   13.1038 C   0  0  0  0  0  0  0  0  0  0  0  0
    5.1990    8.3949   12.6273 C   0  0  0  0  0  0  0  0  0  0  0  0
    4.1021    8.6145   13.4352 C   0  0  0  0  0  0  0  0  0  0  0  0
    2.8674    8.9809   12.8735 O   0  0  0  0  0  0  0  0  0  0  0  0
    4.9465    8.6105   10.7485 Br  0  0  0  0  0  0  0  0  0  0  0  0
    7.9021    7.4988   15.0191 C   0  0  0  0  0  0  0  0  0  0  0  0
    8.1925    6.2019   14.5015 O   0  0  0  0  0  0  0  0  0  0  0  0
    9.3320    6.1930   13.7446 C   0  0  0  0  0  0  0  0  0  0  0  0
    9.8188    5.1916   13.1720 O   0  0  0  0  0  0  0  0  0  0  0  0
    9.8291    7.5551   13.7578 C   0  0  0  0  0  0  0  0  0  0  0  0
    9.0039    8.3629   14.5065 C   0  0  0  0  0  0  0  0  0  0  0  0
    9.3260    9.6749   14.6234 C   0  0  0  0  0  0  0  0  0  0  0  0
   10.4538   10.1661   13.9999 C   0  0  0  0  0  0  0  0  0  0  0  0
   11.2827    9.3605   13.2484 C   0  0  0  0  0  0  0  0  0  0  0  0
   10.9713    8.0325   13.1217 C   0  0  0  0  0  0  0  0  0  0  0  0
    7.9232    7.3773   16.4730 C   0  0  0  0  0  0  0  0  0  0  0  0
    6.8056    7.6076   17.2262 C   0  0  0  0  0  0  0  0  0  0  0  0
    6.8448    7.4852   18.6304 C   0  0  0  0  0  0  0  0  0  0  0  0
    8.0293    7.1287   19.2313 C   0  0  0  0  0  0  0  0  0  0  0  0
    9.1675    6.8930   18.4738 C   0  0  0  0  0  0  0  0  0  0  0  0
    9.1221    7.0142   17.1133 C   0  0  0  0  0  0  0  0  0  0  0  0
   10.8154    6.3984   19.2922 Br  0  0  0  0  0  0  0  0  0  0  0  0
    8.0539    7.0114   20.6127 O   0  0  0  0  0  0  0  0  0  0  0  0
    5.2601    7.8158   19.6499 Br  0  0  0  0  0  0  0  0  0  0  0  0
    5.5849    7.9690   16.6736 O   0  0  0  0  0  0  0  0  0  0  0  0
  1  2  1  0  0  0
  2  3  2  0  0  0
  2  7  1  0  0  0
  3  4  1  0  0  0
  3 29  1  0  0  0
  4  5  2  0  0  0
  4 10  1  0  0  0
  5  6  1  0  0  0
  6  7  2  0  0  0
  6  9  1  0  0  0
  7  8  1  0  0  0
 10 11  1  0  0  0
 10 15  1  0  0  0
 10 20  1  0  0  0
 11 12  1  0  0  0
 12 13  2  0  0  0
 12 14  1  0  0  0
 14 15  2  0  0  0
 14 19  1  0  0  0
 15 16  1  0  0  0
 16 17  2  0  0  0
 17 18  1  0  0  0
 18 19  2  0  0  0
 20 21  2  0  0  0
 20 25  1  0  0  0
 21 22  1  0  0  0
 21 29  1  0  0  0
 22 23  2  0  0  0
 22 28  1  0  0  0
 23 24  1  0  0  0
 23 27  1  0  0  0
 24 25  2  0  0  0
 24 26  1  0  0  0
M  CHG 1   8  -1
M  CHG 1  27  -1
M  END
> <minimizedAffinity>
-7.98133

$$$$
978


 33 37  0  0  0  0  0  0  0  0999 V2000
    2.7357    9.2502   15.3356 I   0  0  0  0  0  0  0  0  0  0  0  0
    4.2267    8.8189   16.7676 C   0  0  0  0  0  0  0  0  0  0  0  0
    5.4782    8.4453   16.2883 C   0  0  0  0  0  0  0  0  0  0  0  0
    6.4563    8.1622   17.1847 C   0  0  0  0  0  0  0  0  0  0  0  0
    6.1748    8.2545   18.5502 C   0  0  0  0  0  0  0  0  0  0  0  0
    4.9389    8.6236   19.0341 C   0  0  0  0  0  0  0  0  0  0  0  0
    3.9491    8.9105   18.1158 C   0  0  0  0  0  0  0  0  0  0  0  0
    2.6965    9.2838   18.5806 O   0  0  0  0  0  0  0  0  0  0  0  0
    4.5626    8.7485   21.1165 I   0  0  0  0  0  0  0  0  0  0  0  0
    7.7955    7.7630   16.7938 C   0  0  0  0  0  0  0  0  0  0  0  0
    8.1277    6.4670   17.3132 O   0  0  0  0  0  0  0  0  0  0  0  0
    9.2480    6.4974   18.1011 C   0  0  0  0  0  0  0  0  0  0  0  0
    9.8267    5.5569   18.7178 O   0  0  0  0  0  0  0  0  0  0  0  0
    9.6975    7.8819   18.1167 C   0  0  0  0  0  0  0  0  0  0  0  0
    8.8497    8.6251   17.3527 C   0  0  0  0  0  0  0  0  0  0  0  0
    9.0569    9.9959   17.1996 C   0  0  0  0  0  0  0  0  0  0  0  0
   10.1173   10.6280   17.8128 C   0  0  0  0  0  0  0  0  0  0  0  0
   10.9825    9.8660   18.5934 C   0  0  0  0  0  0  0  0  0  0  0  0
   10.7819    8.5176   18.7458 C   0  0  0  0  0  0  0  0  0  0  0  0
   11.8614    7.5887   19.7153 Cl  0  0  0  0  0  0  0  0  0  0  0  0
   12.3415   10.6038   19.3943 Cl  0  0  0  0  0  0  0  0  0  0  0  0
   10.3474   12.3479   17.5983 Cl  0  0  0  0  0  0  0  0  0  0  0  0
    7.9407   10.8804   16.2135 Cl  0  0  0  0  0  0  0  0  0  0  0  0
    7.9520    7.7069   15.3150 C   0  0  0  0  0  0  0  0  0  0  0  0
    6.9539    7.9961   14.4490 C   0  0  0  0  0  0  0  0  0  0  0  0
    7.2361    7.9031   13.0876 C   0  0  0  0  0  0  0  0  0  0  0  0
    8.4709    7.5347   12.6034 C   0  0  0  0  0  0  0  0  0  0  0  0
    9.4654    7.2471   13.5166 C   0  0  0  0  0  0  0  0  0  0  0  0
    9.2227    7.3271   14.8634 C   0  0  0  0  0  0  0  0  0  0  0  0
   11.3659    6.6800   12.8069 I   0  0  0  0  0  0  0  0  0  0  0  0
    8.7491    7.4436   11.2642 O   0  0  0  0  0  0  0  0  0  0  0  0
    5.6958    8.3497   11.7337 I   0  0  0  0  0  0  0  0  0  0  0  0
    5.7008    8.3699   14.8992 O   0  0  0  0  0  0  0  0  0  0  0  0
  1  2  1  0  0  0
  2  3  2  0  0  0
  2  7  1  0  0  0
  3  4  1  0  0  0
  3 33  1  0  0  0
  4  5  2  0  0  0
  4 10  1  0  0  0
  5  6  1  0  0  0
  6  7  2  0  0  0
  6  9  1  0  0  0
  7  8  1  0  0  0
 10 11  1  0  0  0
 10 15  1  0  0  0
 10 24  1  0  0  0
 11 12  1  0  0  0
 12 13  2  0  0  0
 12 14  1  0  0  0
 14 15  2  0  0  0
 14 19  1  0  0  0
 15 16  1  0  0  0
 16 17  2  0  0  0
 16 23  1  0  0  0
 17 18  1  0  0  0
 17 22  1  0  0  0
 18 19  2  0  0  0
 18 21  1  0  0  0
 19 20  1  0  0  0
 24 25  2  0  0  0
 24 29  1  0  0  0
 25 26  1  0  0  0
 25 33  1  0  0  0
 26 27  2  0  0  0
 26 32  1  0  0  0
 27 28  1  0  0  0
 27 31  1  0  0  0
 28 29  2  0  0  0
 28 30  1  0  0  0
M  CHG 1   8  -1
M  CHG 1  31  -1
M  END
> <minimizedAffinity>
-7.69052

$$$$
979


 29 33  0  0  0  0  0  0  0  0999 V2000
   12.7086    8.1494   17.7403 I   0  0  0  0  0  0  0  0  0  0  0  0
   11.9285    7.8913   15.7871 C   0  0  0  0  0  0  0  0  0  0  0  0
   10.5287    7.8256   15.6816 C   0  0  0  0  0  0  0  0  0  0  0  0
   10.0033    7.6606   14.4393 C   0  0  0  0  0  0  0  0  0  0  0  0
   10.8680    7.5640   13.3344 C   0  0  0  0  0  0  0  0  0  0  0  0
   12.2329    7.6289   13.4394 C   0  0  0  0  0  0  0  0  0  0  0  0
   12.7649    7.7969   14.6989 C   0  0  0  0  0  0  0  0  0  0  0  0
   14.1430    7.8662   14.8420 O   0  0  0  0  0  0  0  0  0  0  0  0
   13.4778    7.4773   11.7305 I   0  0  0  0  0  0  0  0  0  0  0  0
    8.5534    7.5798   14.2253 C   0  0  0  0  0  0  0  0  0  0  0  0
    8.1938    6.4234   13.4939 O   0  0  0  0  0  0  0  0  0  0  0  0
    7.5760    6.7249   12.3088 C   0  0  0  0  0  0  0  0  0  0  0  0
    7.1320    5.9423   11.4271 O   0  0  0  0  0  0  0  0  0  0  0  0
    7.5065    8.1768   12.2197 C   0  0  0  0  0  0  0  0  0  0  0  0
    8.0787    8.6878   13.3394 C   0  0  0  0  0  0  0  0  0  0  0  0
    8.1303   10.0794   13.4823 C   0  0  0  0  0  0  0  0  0  0  0  0
    7.6109   10.8961   12.5045 C   0  0  0  0  0  0  0  0  0  0  0  0
    7.0304   10.3793   11.3657 C   0  0  0  0  0  0  0  0  0  0  0  0
    6.9734    9.0148   11.2150 C   0  0  0  0  0  0  0  0  0  0  0  0
    7.7737    7.6955   15.4695 C   0  0  0  0  0  0  0  0  0  0  0  0
    8.3569    7.8596   16.6787 C   0  0  0  0  0  0  0  0  0  0  0  0
    7.5572    7.9603   17.8126 C   0  0  0  0  0  0  0  0  0  0  0  0
    6.1958    7.8966   17.7144 C   0  0  0  0  0  0  0  0  0  0  0  0
    5.5692    7.7315   16.5011 C   0  0  0  0  0  0  0  0  0  0  0  0
    6.3763    7.6338   15.4012 C   0  0  0  0  0  0  0  0  0  0  0  0
    3.4619    7.6338   16.3555 I   0  0  0  0  0  0  0  0  0  0  0  0
    5.4212    8.0014   18.8627 O   0  0  0  0  0  0  0  0  0  0  0  0
    8.4828    8.2179   19.7091 I   0  0  0  0  0  0  0  0  0  0  0  0
    9.7505    7.9303   16.8371 O   0  0  0  0  0  0  0  0  0  0  0  0
  1  2  1  0  0  0
  2  3  2  0  0  0
  2  7  1  0  0  0
  3  4  1  0  0  0
  3 29  1  0  0  0
  4  5  2  0  0  0
  4 10  1  0  0  0
  5  6  1  0  0  0
  6  7  2  0  0  0
  6  9  1  0  0  0
  7  8  1  0  0  0
 10 11  1  0  0  0
 10 15  1  0  0  0
 10 20  1  0  0  0
 11 12  1  0  0  0
 12 13  2  0  0  0
 12 14  1  0  0  0
 14 15  2  0  0  0
 14 19  1  0  0  0
 15 16  1  0  0  0
 16 17  2  0  0  0
 17 18  1  0  0  0
 18 19  2  0  0  0
 20 21  2  0  0  0
 20 25  1  0  0  0
 21 22  1  0  0  0
 21 29  1  0  0  0
 22 23  2  0  0  0
 22 28  1  0  0  0
 23 24  1  0  0  0
 23 27  1  0  0  0
 24 25  2  0  0  0
 24 26  1  0  0  0
M  CHG 1   8  -1
M  CHG 1  27  -1
M  END
> <minimizedAffinity>
-7.75575

$$$$
980


 27 30  0  0  0  0  0  0  0  0999 V2000
   10.8745    7.4580   11.8521 I   0  0  0  0  0  0  0  0  0  0  0  0
    8.9387    7.2864   12.6664 C   0  0  0  0  0  0  0  0  0  0  0  0
    8.5033    8.0679   13.7180 C   0  0  0  0  0  0  0  0  0  0  0  0
    7.2381    7.9587   14.2540 C   0  0  0  0  0  0  0  0  0  0  0  0
    6.3883    7.0200   13.6985 C   0  0  0  0  0  0  0  0  0  0  0  0
    6.8172    6.2304   12.6422 C   0  0  0  0  0  0  0  0  0  0  0  0
    8.0947    6.3468   12.1087 C   0  0  0  0  0  0  0  0  0  0  0  0
    8.4733    5.5286   11.0474 O   0  0  0  0  0  0  0  0  0  0  0  0
    6.7842    8.7311   15.3038 C   0  0  0  0  0  0  0  0  0  0  0  0
    7.6935    9.6539   15.8123 C   0  0  0  0  0  0  0  0  0  0  0  0
    9.0243    9.7392   15.2174 C   0  0  0  0  0  0  0  0  0  0  0  0
    9.8797   10.6728   15.7638 C   0  0  0  0  0  0  0  0  0  0  0  0
    9.5243   11.4926   16.8136 C   0  0  0  0  0  0  0  0  0  0  0  0
   10.3244   12.3442   17.3021 O   0  0  0  0  0  0  0  0  0  0  0  0
    8.2658   11.4124   17.3771 C   0  0  0  0  0  0  0  0  0  0  0  0
    7.3853   10.4875   16.8520 C   0  0  0  0  0  0  0  0  0  0  0  0
   11.8175   10.8698   14.9739 I   0  0  0  0  0  0  0  0  0  0  0  0
    9.3328    8.9467   14.2203 O   0  0  0  0  0  0  0  0  0  0  0  0
    5.4461    8.6182   15.8738 C   0  0  0  0  0  0  0  0  0  0  0  0
    4.4078    9.3205   15.2696 C   0  0  0  0  0  0  0  0  0  0  0  0
    3.1344    9.2449   15.7686 C   0  0  0  0  0  0  0  0  0  0  0  0
    2.8830    8.4681   16.8780 C   0  0  0  0  0  0  0  0  0  0  0  0
    3.8929    7.7627   17.4942 C   0  0  0  0  0  0  0  0  0  0  0  0
    5.1652    7.8530   16.9753 C   0  0  0  0  0  0  0  0  0  0  0  0
    4.6627   10.1470   14.0933 C   0  0  0  0  0  0  0  0  0  0  0  0
    5.0229   11.3426   14.1680 O   0  0  0  0  0  0  0  0  0  0  0  0
    4.5090    9.6238   12.8174 O   0  0  0  0  0  0  0  0  0  0  0  0
  1  2  1  0  0  0
  2  3  2  0  0  0
  2  7  1  0  0  0
  3  4  1  0  0  0
  3 18  1  0  0  0
  4  5  2  0  0  0
  4  9  1  0  0  0
  5  6  1  0  0  0
  6  7  2  0  0  0
  7  8  1  0  0  0
  9 10  2  0  0  0
  9 19  1  0  0  0
 10 11  1  0  0  0
 10 16  1  0  0  0
 11 12  2  0  0  0
 11 18  1  0  0  0
 12 13  1  0  0  0
 12 17  1  0  0  0
 13 14  2  0  0  0
 13 15  1  0  0  0
 15 16  2  0  0  0
 19 20  2  0  0  0
 19 24  1  0  0  0
 20 21  1  0  0  0
 20 25  1  0  0  0
 21 22  2  0  0  0
 22 23  1  0  0  0
 23 24  2  0  0  0
 25 26  2  0  0  0
 25 27  1  0  0  0
M  CHG 1   8  -1
M  END
> <minimizedAffinity>
-7.60555

$$$$
983


 34 37  0  0  0  0  0  0  0  0999 V2000
   11.6340    3.8927   11.2263 C   0  0  0  0  0  0  0  0  0  0  0  0
   11.6562    2.7077   10.4784 C   0  0  0  0  0  0  0  0  0  0  0  0
   12.9858    2.5047   10.1820 C   0  0  0  0  0  0  0  0  0  0  0  0
   13.7006    3.5033   10.7191 N   0  0  0  0  0  0  0  0  0  0  0  0
   12.8997    4.3927   11.3818 C   0  0  0  0  0  0  0  0  0  0  0  0
   13.3367    1.3846    9.4328 C   0  0  0  0  0  0  0  0  0  0  0  0
   12.3611    0.5217    9.0151 C   0  0  0  0  0  0  0  0  0  0  0  0
   11.0098    0.7235    9.3129 C   0  0  0  0  0  0  0  0  0  0  0  0
   10.6616    1.8494   10.0655 C   0  0  0  0  0  0  0  0  0  0  0  0
    9.7030   -0.5118    8.7031 Br  0  0  0  0  0  0  0  0  0  0  0  0
   15.1572    1.0796    9.0096 Br  0  0  0  0  0  0  0  0  0  0  0  0
   14.7524    3.6085   10.6510 H   0  0  0  0  0  0  0  0  0  0  0  0
   13.3673    5.5663   12.1102 C   0  0  0  0  0  0  0  0  0  0  0  0
   12.5879    6.2400   12.9997 N   0  0  0  0  0  0  0  0  0  0  0  0
   13.2513    7.2864   13.5160 C   0  0  0  0  0  0  0  0  0  0  0  0
   14.5137    7.3297   12.9661 C   0  0  0  0  0  0  0  0  0  0  0  0
   14.5486    6.2389   12.0900 C   0  0  0  0  0  0  0  0  0  0  0  0
   15.4323    8.3014   13.3070 C   0  0  0  0  0  0  0  0  0  0  0  0
   15.1063    9.2829   14.2299 C   0  0  0  0  0  0  0  0  0  0  0  0
   13.8403    9.2528   14.7925 C   0  0  0  0  0  0  0  0  0  0  0  0
   12.9357    8.2730   14.4394 C   0  0  0  0  0  0  0  0  0  0  0  0
   11.2108    8.2906   15.2516 Br  0  0  0  0  0  0  0  0  0  0  0  0
   16.3656   10.6432   14.7181 Br  0  0  0  0  0  0  0  0  0  0  0  0
   11.6072    6.0035   13.2676 H   0  0  0  0  0  0  0  0  0  0  0  0
   15.6630    5.9385   11.3279 O   0  0  0  0  0  0  0  0  0  0  0  0
   16.9120    4.9263   11.8965 S   0  0  0  0  0  0  0  0  0  0  0  0
   16.5285    3.4803   11.7741 O   0  0  0  0  0  0  0  0  0  0  0  0
   17.2243    5.1868   13.3427 O   0  0  0  0  0  0  0  0  0  0  0  0
   18.3386    5.2545   11.0371 O   0  0  0  0  0  0  0  0  0  0  0  0
   10.4581    4.4464   11.7202 O   0  0  0  0  0  0  0  0  0  0  0  0
    9.5933    5.6291   10.8340 S   0  0  0  0  0  0  0  0  0  0  0  0
   10.0133    6.9664   11.3787 O   0  0  0  0  0  0  0  0  0  0  0  0
    9.9412    5.5647    9.3672 O   0  0  0  0  0  0  0  0  0  0  0  0
    7.9360    5.4730   11.0695 O   0  0  0  0  0  0  0  0  0  0  0  0
 31 32  2  0  0  0
 31 33  2  0  0  0
 31 34  1  0  0  0
 31 30  1  0  0  0
 30  1  1  0  0  0
  1  2  1  0  0  0
  1  5  2  0  0  0
  2  3  2  0  0  0
  2  9  1  0  0  0
  3  4  1  0  0  0
  3  6  1  0  0  0
  4  5  1  0  0  0
  5 13  1  0  0  0
 13 14  1  0  0  0
 13 17  2  0  0  0
 14 15  1  0  0  0
 15 16  2  0  0  0
 15 21  1  0  0  0
 16 17  1  0  0  0
 16 18  1  0  0  0
 17 25  1  0  0  0
 25 26  1  0  0  0
 26 27  2  0  0  0
 26 28  2  0  0  0
 26 29  1  0  0  0
 18 19  2  0  0  0
 19 20  1  0  0  0
 19 23  1  0  0  0
 20 21  2  0  0  0
 21 22  1  0  0  0
  6  7  2  0  0  0
  6 11  1  0  0  0
  7  8  1  0  0  0
  8  9  2  0  0  0
  8 10  1  0  0  0
  4 12  1  0  0  0
 14 24  1  0  0  0
M  END
> <minimizedAffinity>
-8.53651

$$$$
985


 28 31  0  0  0  0  0  0  0  0999 V2000
    9.5654    7.1645   12.1220 N   0  0  0  0  0  0  0  0  0  0  0  0
    8.3332    7.6842   12.0713 C   0  0  0  0  0  0  0  0  0  0  0  0
    7.1640    7.2001   11.5698 N   0  0  0  0  0  0  0  0  0  0  0  0
    6.0179    7.8738   11.6117 C   0  0  0  0  0  0  0  0  0  0  0  0
    6.0120    9.0948   12.1765 N   0  0  0  0  0  0  0  0  0  0  0  0
    7.1351    9.6342   12.6935 C   0  0  0  0  0  0  0  0  0  0  0  0
    8.3248    8.9374   12.6512 C   0  0  0  0  0  0  0  0  0  0  0  0
    9.5835    9.1644   13.0548 N   0  0  0  0  0  0  0  0  0  0  0  0
   10.3337    8.0851   12.7311 C   0  0  0  0  0  0  0  0  0  0  0  0
   12.2062    7.8706   13.0747 Br  0  0  0  0  0  0  0  0  0  0  0  0
    7.1337   10.8966   13.2794 O   0  0  0  0  0  0  0  0  0  0  0  0
    4.8192    7.3241   11.0720 N   0  0  0  0  0  0  0  0  0  0  0  0
    6.3555   11.0904   13.9274 H   0  0  0  0  0  0  0  0  0  0  0  0
    4.5502    7.6415   10.1159 H   0  0  0  0  0  0  0  0  0  0  0  0
    4.2277    6.6345   11.5999 H   0  0  0  0  0  0  0  0  0  0  0  0
   11.2725    2.1685   10.0472 P   0  0  0  0  0  0  0  0  0  0  0  0
    9.8803    1.5835   10.1376 O   0  0  0  0  0  0  0  0  0  0  0  0
   11.2247    3.7759    9.4756 O   0  0  0  0  0  0  0  0  0  0  0  0
   11.5720    4.5846   10.5549 C   0  0  0  0  0  0  0  0  0  0  0  0
   10.8818    3.9693   11.7784 C   0  0  0  0  0  0  0  0  0  0  0  0
   10.5921    5.0851   12.5244 O   0  0  0  0  0  0  0  0  0  0  0  0
    9.9008    5.8639   11.5968 C   0  0  0  0  0  0  0  0  0  0  0  0
   10.9331    5.9549   10.4744 C   0  0  0  0  0  0  0  0  0  0  0  0
   10.3655    6.2208    9.2538 O   0  0  0  0  0  0  0  0  0  0  0  0
   11.8217    3.0099   12.4053 C   0  0  0  0  0  0  0  0  0  0  0  0
   12.1403    2.0258   11.4634 O   0  0  0  0  0  0  0  0  0  0  0  0
   12.0817    1.2727    8.8341 O   0  0  0  0  0  0  0  0  0  0  0  0
   10.9015    6.9283    8.7733 H   0  0  0  0  0  0  0  0  0  0  0  0
 16 17  2  0  0  0
 16 18  1  0  0  0
 16 26  1  0  0  0
 16 27  1  0  0  0
 18 19  1  0  0  0
 19 20  1  0  0  0
 19 23  1  0  0  0
 20 21  1  0  0  0
 20 25  1  0  0  0
 21 22  1  0  0  0
 22 23  1  0  0  0
 22  1  1  0  0  0
 23 24  1  0  0  0
  1  2  1  0  0  0
  1  9  1  0  0  0
  2  3  2  0  0  0
  2  7  1  0  0  0
  3  4  1  0  0  0
  4  5  2  0  0  0
  4 12  1  0  0  0
  5  6  1  0  0  0
  6  7  2  0  0  0
  6 11  1  0  0  0
  7  8  1  0  0  0
  8  9  2  0  0  0
  9 10  1  0  0  0
 25 26  1  0  0  0
 24 28  1  0  0  0
 11 13  1  0  0  0
 12 14  1  0  0  0
 12 15  1  0  0  0
M  END
> <minimizedAffinity>
-9.00993

$$$$
991


 34 39  0  0  0  0  0  0  0  0999 V2000
    9.0437    7.4473   12.4477 N   0  0  0  0  0  0  0  0  0  0  0  0
    9.7694    6.4468   11.8882 C   0  0  0  0  0  0  0  0  0  0  0  0
   11.1187    6.7123   11.9854 C   0  0  0  0  0  0  0  0  0  0  0  0
   11.1997    7.9010   12.6190 N   0  0  0  0  0  0  0  0  0  0  0  0
    9.9519    8.3343   12.8912 C   0  0  0  0  0  0  0  0  0  0  0  0
    9.4604    9.9573   13.7758 Br  0  0  0  0  0  0  0  0  0  0  0  0
   12.0287    5.8101   11.4717 C   0  0  0  0  0  0  0  0  0  0  0  0
   13.2552    6.0404   11.5548 O   0  0  0  0  0  0  0  0  0  0  0  0
   11.6436    4.6612   10.8705 N   0  0  0  0  0  0  0  0  0  0  0  0
   10.3223    4.4223   10.7863 C   0  0  0  0  0  0  0  0  0  0  0  0
   10.2047    3.2394   10.1573 N   0  0  0  0  0  0  0  0  0  0  0  0
   11.4048    2.7206    9.8406 C   0  0  0  0  0  0  0  0  0  0  0  0
   12.3307    3.6345   10.2982 C   0  0  0  0  0  0  0  0  0  0  0  0
    9.4081    5.3010   11.2870 N   0  0  0  0  0  0  0  0  0  0  0  0
    8.3829    5.1105   11.2196 H   0  0  0  0  0  0  0  0  0  0  0  0
    3.7569    9.0714   14.2369 P   0  0  0  0  0  0  0  0  0  0  0  0
    2.6965    9.2038   15.6060 S   0  0  0  0  0  0  0  0  0  0  0  0
    4.8303    7.7876   14.5300 O   0  0  0  0  0  0  0  0  0  0  0  0
    6.1040    8.2577   14.2240 C   0  0  0  0  0  0  0  0  0  0  0  0
    5.9625    9.0369   12.9142 C   0  0  0  0  0  0  0  0  0  0  0  0
    7.1608    8.8478   12.2830 O   0  0  0  0  0  0  0  0  0  0  0  0
    7.5902    7.5497   12.5510 C   0  0  0  0  0  0  0  0  0  0  0  0
    7.0752    7.1644   13.8945 C   0  0  0  0  0  0  0  0  0  0  0  0
    6.4234    5.9250   13.8525 O   0  0  0  0  0  0  0  0  0  0  0  0
    5.6921   10.4710   13.3021 C   0  0  0  0  0  0  0  0  0  0  0  0
    4.5754   10.5429   14.1037 O   0  0  0  0  0  0  0  0  0  0  0  0
    2.8880    8.8387   12.8064 O   0  0  0  0  0  0  0  0  0  0  0  0
    5.5887    5.9649   13.3428 H   0  0  0  0  0  0  0  0  0  0  0  0
   11.6784    1.4522    9.1523 C   0  0  0  0  0  0  0  0  0  0  0  0
   10.6902    0.5017    9.0300 C   0  0  0  0  0  0  0  0  0  0  0  0
   10.9184   -0.7070    8.3843 C   0  0  0  0  0  0  0  0  0  0  0  0
   12.1661   -0.9506    7.8574 C   0  0  0  0  0  0  0  0  0  0  0  0
   13.1887   -0.0202    7.9596 C   0  0  0  0  0  0  0  0  0  0  0  0
   12.9055    1.1612    8.6099 C   0  0  0  0  0  0  0  0  0  0  0  0
 16 17  2  0  0  0
 16 18  1  0  0  0
 16 26  1  0  0  0
 16 27  1  0  0  0
 18 19  1  0  0  0
 19 20  1  0  0  0
 19 23  1  0  0  0
 20 21  1  0  0  0
 20 25  1  0  0  0
 21 22  1  0  0  0
 22 23  1  0  0  0
 22  1  1  0  0  0
 23 24  1  0  0  0
  1  2  1  0  0  0
  1  5  1  0  0  0
  2  3  2  0  0  0
  2 14  1  0  0  0
  3  4  1  0  0  0
  3  7  1  0  0  0
  4  5  2  0  0  0
  5  6  1  0  0  0
  7  8  2  0  0  0
  7  9  1  0  0  0
  9 10  1  0  0  0
  9 13  1  0  0  0
 10 11  2  0  0  0
 10 14  1  0  0  0
 11 12  1  0  0  0
 12 13  2  0  0  0
 12 29  1  0  0  0
 29 30  2  0  0  0
 29 34  1  0  0  0
 30 31  1  0  0  0
 31 32  2  0  0  0
 32 33  1  0  0  0
 33 34  2  0  0  0
 25 26  1  0  0  0
 24 28  1  0  0  0
 14 15  1  0  0  0
M  END
> <minimizedAffinity>
-11.35546

$$$$
993


 26 29  0  0  0  0  0  0  0  0999 V2000
    4.2109    8.7842   15.3739 P   0  0  0  0  0  0  0  0  0  0  0  0
    5.0162    9.3015   16.8334 S   0  0  0  0  0  0  0  0  0  0  0  0
    5.1008    7.5238   14.6425 O   0  0  0  0  0  0  0  0  0  0  0  0
    6.2288    8.0941   14.1060 C   0  0  0  0  0  0  0  0  0  0  0  0
    5.8041    9.0973   13.0253 C   0  0  0  0  0  0  0  0  0  0  0  0
    7.0238    9.2913   12.3792 O   0  0  0  0  0  0  0  0  0  0  0  0
    7.5331    8.0340   12.1576 C   0  0  0  0  0  0  0  0  0  0  0  0
    7.0372    7.1301   13.2578 C   0  0  0  0  0  0  0  0  0  0  0  0
    6.1189    6.2443   12.6778 O   0  0  0  0  0  0  0  0  0  0  0  0
    5.2557   10.3508   13.6323 C   0  0  0  0  0  0  0  0  0  0  0  0
    4.0746   10.0413   14.2823 O   0  0  0  0  0  0  0  0  0  0  0  0
    2.7106    8.1839   15.7945 O   0  0  0  0  0  0  0  0  0  0  0  0
    6.3129    5.3089   12.8719 H   0  0  0  0  0  0  0  0  0  0  0  0
    8.9830    7.9984   12.1864 N   0  0  0  0  0  0  0  0  0  0  0  0
    9.7369    7.1310   11.4649 C   0  0  0  0  0  0  0  0  0  0  0  0
    9.4046    6.1428   10.5951 N   0  0  0  0  0  0  0  0  0  0  0  0
   10.3520    5.4001    9.9899 C   0  0  0  0  0  0  0  0  0  0  0  0
   11.6611    5.6381   10.2497 N   0  0  0  0  0  0  0  0  0  0  0  0
   12.0304    6.6077   11.1052 C   0  0  0  0  0  0  0  0  0  0  0  0
   11.0680    7.3775   11.7325 C   0  0  0  0  0  0  0  0  0  0  0  0
   11.1189    8.3925   12.6142 N   0  0  0  0  0  0  0  0  0  0  0  0
    9.8458    8.7592   12.8806 C   0  0  0  0  0  0  0  0  0  0  0  0
    9.2659   10.1539   14.0659 Br  0  0  0  0  0  0  0  0  0  0  0  0
   13.4168    6.8470   11.3686 N   0  0  0  0  0  0  0  0  0  0  0  0
   14.1264    6.5230   10.6556 H   0  0  0  0  0  0  0  0  0  0  0  0
   13.7477    7.3246   12.2298 H   0  0  0  0  0  0  0  0  0  0  0  0
  1  2  2  0  0  0
  1  3  1  0  0  0
  1 11  1  0  0  0
  1 12  1  0  0  0
  3  4  1  0  0  0
  4  5  1  0  0  0
  4  8  1  0  0  0
  5  6  1  0  0  0
  5 10  1  0  0  0
  6  7  1  0  0  0
  7  8  1  0  0  0
  7 14  1  0  0  0
  8  9  1  0  0  0
 14 15  1  0  0  0
 14 22  1  0  0  0
 15 16  2  0  0  0
 15 20  1  0  0  0
 16 17  1  0  0  0
 17 18  2  0  0  0
 18 19  1  0  0  0
 19 20  2  0  0  0
 19 24  1  0  0  0
 20 21  1  0  0  0
 21 22  2  0  0  0
 22 23  1  0  0  0
 10 11  1  0  0  0
  9 13  1  0  0  0
 24 25  1  0  0  0
 24 26  1  0  0  0
M  END
> <minimizedAffinity>
-7.63220

$$$$
999


 35 38  0  0  0  0  0  0  0  0999 V2000
    6.1578    7.9684   13.5287 N   0  0  0  0  0  0  0  0  0  0  0  0
    6.7862    7.7705   12.2745 C   0  0  0  0  0  0  0  0  0  0  0  0
    6.2247    8.2338   11.2462 O   0  0  0  0  0  0  0  0  0  0  0  0
    6.6449    7.5727   14.3721 H   0  0  0  0  0  0  0  0  0  0  0  0
    4.0340    7.2239   15.8715 S   0  0  0  0  0  0  0  0  0  0  0  0
    4.1747    8.6913   14.8540 C   0  0  0  0  0  0  0  0  0  0  0  0
    5.2434    9.4904   15.3639 N   0  0  0  0  0  0  0  0  0  0  0  0
    5.8680    9.4578   16.6503 C   0  0  0  0  0  0  0  0  0  0  0  0
    5.3027    8.8162   17.6239 C   0  0  0  0  0  0  0  0  0  0  0  0
    3.9699    8.0646   17.4958 C   0  0  0  0  0  0  0  0  0  0  0  0
    5.2256   10.0852   14.0779 C   0  0  0  0  0  0  0  0  0  0  0  0
    5.3586   11.1468   13.4584 O   0  0  0  0  0  0  0  0  0  0  0  0
    4.9216    8.6792   13.5873 C   0  0  0  0  0  0  0  0  0  0  0  0
    7.1592   10.1971   16.7631 C   0  0  0  0  0  0  0  0  0  0  0  0
    8.2731    9.7278   16.6721 O   0  0  0  0  0  0  0  0  0  0  0  0
    7.1205   11.5840   16.9996 O   0  0  0  0  0  0  0  0  0  0  0  0
    5.8128    8.6904   18.9653 C   0  0  0  0  0  0  0  0  0  0  0  0
    5.1768    9.1814   20.0559 O   0  0  0  0  0  0  0  0  0  0  0  0
    4.7229   10.5022   20.1543 C   0  0  0  0  0  0  0  0  0  0  0  0
    5.5605   11.4043   19.9681 O   0  0  0  0  0  0  0  0  0  0  0  0
    3.2920   10.7221   20.4717 C   0  0  0  0  0  0  0  0  0  0  0  0
    8.0565    7.0502   12.1443 C   0  0  0  0  0  0  0  0  0  0  0  0
    8.8367    6.9345   11.1156 O   0  0  0  0  0  0  0  0  0  0  0  0
    9.8835    6.2172   11.3671 C   0  0  0  0  0  0  0  0  0  0  0  0
    9.7959    5.8080   12.7027 C   0  0  0  0  0  0  0  0  0  0  0  0
    8.6303    6.3456   13.1786 C   0  0  0  0  0  0  0  0  0  0  0  0
   11.0157    5.8567   10.4375 C   0  0  0  0  0  0  0  0  0  0  0  0
   11.6897    4.7118   10.8920 O   0  0  0  0  0  0  0  0  0  0  0  0
   11.7051    3.4909   10.2806 C   0  0  0  0  0  0  0  0  0  0  0  0
   10.5829    2.6897   10.0888 C   0  0  0  0  0  0  0  0  0  0  0  0
   10.7128    1.4736    9.4563 C   0  0  0  0  0  0  0  0  0  0  0  0
   11.9117    0.9868    8.9902 C   0  0  0  0  0  0  0  0  0  0  0  0
   13.0329    1.7772    9.1764 C   0  0  0  0  0  0  0  0  0  0  0  0
   12.9091    3.0051    9.8131 C   0  0  0  0  0  0  0  0  0  0  0  0
   12.0304   -0.7067    8.1204 Br  0  0  0  0  0  0  0  0  0  0  0  0
  5  6  1  0  0  0
  5 10  1  0  0  0
  6  7  1  0  0  0
  6 13  1  0  0  0
  7  8  1  0  0  0
  7 11  1  0  0  0
  8  9  2  0  0  0
  8 14  1  0  0  0
  9 10  1  0  0  0
  9 17  1  0  0  0
 17 18  1  0  0  0
 18 19  1  0  0  0
 19 20  2  0  0  0
 19 21  1  0  0  0
 14 15  2  0  0  0
 14 16  1  0  0  0
 11 12  2  0  0  0
 11 13  1  0  0  0
 13  1  1  0  0  0
  1  2  1  0  0  0
  2  3  2  0  0  0
  2 22  1  0  0  0
 22 23  1  0  0  0
 22 26  2  0  0  0
 23 24  1  0  0  0
 24 25  2  0  0  0
 24 27  1  0  0  0
 25 26  1  0  0  0
 27 28  1  0  0  0
 28 29  1  0  0  0
 29 30  2  0  0  0
 29 34  1  0  0  0
 30 31  1  0  0  0
 31 32  2  0  0  0
 32 33  1  0  0  0
 32 35  1  0  0  0
 33 34  2  0  0  0
  1  4  1  0  0  0
M  END
> <minimizedAffinity>
-8.55038

$$$$
1001


 26 29  0  0  0  0  0  0  0  0999 V2000
    9.3958    7.0799   11.8132 P   0  0  0  0  0  0  0  0  0  0  0  0
    8.8966    8.3690   11.1577 O   0  0  0  0  0  0  0  0  0  0  0  0
   11.0707    7.0740   11.7043 O   0  0  0  0  0  0  0  0  0  0  0  0
   11.5506    5.8678   11.2636 C   0  0  0  0  0  0  0  0  0  0  0  0
   10.6111    4.7912   11.8239 C   0  0  0  0  0  0  0  0  0  0  0  0
   11.3603    3.6599   11.9524 O   0  0  0  0  0  0  0  0  0  0  0  0
   12.6804    3.9866   12.0954 C   0  0  0  0  0  0  0  0  0  0  0  0
   12.8521    5.4526   11.8963 C   0  0  0  0  0  0  0  0  0  0  0  0
   13.0635    6.1539   13.0668 O   0  0  0  0  0  0  0  0  0  0  0  0
    9.4689    4.6977   10.8641 C   0  0  0  0  0  0  0  0  0  0  0  0
    8.6680    5.8032   11.0224 O   0  0  0  0  0  0  0  0  0  0  0  0
    8.9132    7.1778   13.4514 O   0  0  0  0  0  0  0  0  0  0  0  0
   13.5394    6.9913   12.9446 H   0  0  0  0  0  0  0  0  0  0  0  0
   13.4402    3.1949   11.1368 N   0  0  0  0  0  0  0  0  0  0  0  0
   12.9202    2.3293   10.2351 C   0  0  0  0  0  0  0  0  0  0  0  0
   11.6477    1.9781    9.9834 N   0  0  0  0  0  0  0  0  0  0  0  0
   11.3899    1.0806    9.0183 C   0  0  0  0  0  0  0  0  0  0  0  0
   12.4042    0.5439    8.3154 N   0  0  0  0  0  0  0  0  0  0  0  0
   13.6964    0.8470    8.5108 C   0  0  0  0  0  0  0  0  0  0  0  0
   13.9577    1.7780    9.5131 C   0  0  0  0  0  0  0  0  0  0  0  0
   15.0940    2.2994    9.9675 N   0  0  0  0  0  0  0  0  0  0  0  0
   14.7694    3.1569   10.9518 C   0  0  0  0  0  0  0  0  0  0  0  0
   15.9870    4.2236   12.0001 Br  0  0  0  0  0  0  0  0  0  0  0  0
   14.7751    0.2876    7.7754 N   0  0  0  0  0  0  0  0  0  0  0  0
   15.1892   -0.6279    8.1223 H   0  0  0  0  0  0  0  0  0  0  0  0
   15.1813    0.7037    6.9322 H   0  0  0  0  0  0  0  0  0  0  0  0
  1  2  2  0  0  0
  1  3  1  0  0  0
  1 11  1  0  0  0
  1 12  1  0  0  0
  3  4  1  0  0  0
  4  5  1  0  0  0
  4  8  1  0  0  0
  5  6  1  0  0  0
  5 10  1  0  0  0
  6  7  1  0  0  0
  7  8  1  0  0  0
  7 14  1  0  0  0
  8  9  1  0  0  0
 14 15  1  0  0  0
 14 22  1  0  0  0
 15 16  2  0  0  0
 15 20  1  0  0  0
 16 17  1  0  0  0
 17 18  2  0  0  0
 18 19  1  0  0  0
 19 20  2  0  0  0
 19 24  1  0  0  0
 20 21  1  0  0  0
 21 22  2  0  0  0
 22 23  1  0  0  0
 10 11  1  0  0  0
  9 13  1  0  0  0
 24 25  1  0  0  0
 24 26  1  0  0  0
M  END
> <minimizedAffinity>
-8.31702

$$$$
1008


 29 32  0  0  0  0  0  0  0  0999 V2000
   10.5123    5.8349   10.4917 C   0  0  0  0  0  0  0  0  0  0  0  0
   10.5016    5.9996    9.2471 O   0  0  0  0  0  0  0  0  0  0  0  0
   10.5180    4.5163   11.0357 N   0  0  0  0  0  0  0  0  0  0  0  0
   10.5087    3.3603   10.1652 C   0  0  0  0  0  0  0  0  0  0  0  0
   11.3999    2.2561   10.6420 C   0  0  0  0  0  0  0  0  0  0  0  0
   12.3378    2.8639   11.6884 C   0  0  0  0  0  0  0  0  0  0  0  0
   11.4598    3.1975   12.8749 C   0  0  0  0  0  0  0  0  0  0  0  0
   10.5303    4.3088   12.4602 C   0  0  0  0  0  0  0  0  0  0  0  0
   12.1810    1.6109    9.5386 C   0  0  0  0  0  0  0  0  0  0  0  0
   11.8340    0.4919    8.8503 N   0  0  0  0  0  0  0  0  0  0  0  0
   12.7651    0.2034    7.9367 C   0  0  0  0  0  0  0  0  0  0  0  0
   13.7097    1.1816    8.0756 N   0  0  0  0  0  0  0  0  0  0  0  0
   13.3556    2.0175    9.0321 N   0  0  0  0  0  0  0  0  0  0  0  0
   12.4296   -1.0213    7.1528 C   0  0  0  0  0  0  0  0  0  0  0  0
   10.9889   -1.2275    7.5049 C   0  0  0  0  0  0  0  0  0  0  0  0
   10.7619   -0.4861    8.8052 C   0  0  0  0  0  0  0  0  0  0  0  0
    9.3327    8.7260   12.5613 C   0  0  0  0  0  0  0  0  0  0  0  0
    9.3393    7.6243   11.7372 C   0  0  0  0  0  0  0  0  0  0  0  0
   10.5214    6.9960   11.3589 C   0  0  0  0  0  0  0  0  0  0  0  0
   11.7035    7.5154   11.8387 C   0  0  0  0  0  0  0  0  0  0  0  0
   11.7051    8.6323   12.6740 C   0  0  0  0  0  0  0  0  0  0  0  0
   10.5251    9.2415   13.0379 C   0  0  0  0  0  0  0  0  0  0  0  0
   13.3554    6.7164   11.3677 Br  0  0  0  0  0  0  0  0  0  0  0  0
    7.8204    9.4653   12.9965 S   0  0  0  0  0  0  0  0  0  0  0  0
    6.8516    8.3811   13.4213 O   0  0  0  0  0  0  0  0  0  0  0  0
    7.2257   10.1992   11.8196 O   0  0  0  0  0  0  0  0  0  0  0  0
    8.0317   10.5086   14.3410 N   0  0  0  0  0  0  0  0  0  0  0  0
    7.9640   11.5179   14.0648 H   0  0  0  0  0  0  0  0  0  0  0  0
    8.9569   10.3234   14.8028 H   0  0  0  0  0  0  0  0  0  0  0  0
 24 25  2  0  0  0
 24 26  2  0  0  0
 24 27  1  0  0  0
 24 17  1  0  0  0
 17 18  2  0  0  0
 17 22  1  0  0  0
 18 19  1  0  0  0
 19 20  2  0  0  0
 19  1  1  0  0  0
 20 21  1  0  0  0
 20 23  1  0  0  0
 21 22  2  0  0  0
  1  2  2  0  0  0
  1  3  1  0  0  0
  3  4  1  0  0  0
  3  8  1  0  0  0
  4  5  1  0  0  0
  5  6  1  0  0  0
  5  9  1  0  0  0
  6  7  1  0  0  0
  7  8  1  0  0  0
  9 10  1  0  0  0
  9 13  2  0  0  0
 10 11  1  0  0  0
 10 16  1  0  0  0
 11 12  2  0  0  0
 11 14  1  0  0  0
 12 13  1  0  0  0
 14 15  1  0  0  0
 15 16  1  0  0  0
 27 28  1  0  0  0
 27 29  1  0  0  0
M  END
> <minimizedAffinity>
-8.90357

$$$$
1011


 29 32  0  0  0  0  0  0  0  0999 V2000
   10.9283    4.8959   11.1577 C   0  0  0  0  0  0  0  0  0  0  0  0
   10.8076    3.6899   10.4602 C   0  0  0  0  0  0  0  0  0  0  0  0
   11.8776    2.8274   10.3639 C   0  0  0  0  0  0  0  0  0  0  0  0
   13.1052    3.1015   10.9398 C   0  0  0  0  0  0  0  0  0  0  0  0
   13.2330    4.2776   11.6242 C   0  0  0  0  0  0  0  0  0  0  0  0
   12.1510    5.1583   11.7264 C   0  0  0  0  0  0  0  0  0  0  0  0
   12.3424    6.8111   12.6794 Br  0  0  0  0  0  0  0  0  0  0  0  0
   14.0466    1.9850   10.6455 C   0  0  0  0  0  0  0  0  0  0  0  0
   13.3681    1.3172    9.4305 C   0  0  0  0  0  0  0  0  0  0  0  0
   11.9594    1.5494    9.7067 N   0  0  0  0  0  0  0  0  0  0  0  0
   10.8374    0.7348    9.4279 C   0  0  0  0  0  0  0  0  0  0  0  0
    9.6686    1.0552    9.7448 O   0  0  0  0  0  0  0  0  0  0  0  0
   11.0514   -0.5557    8.7312 C   0  0  0  0  0  0  0  0  0  0  0  0
    9.8359   -1.3672    8.5390 C   0  0  0  0  0  0  0  0  0  0  0  0
   10.9257   -1.8365    9.4715 C   0  0  0  0  0  0  0  0  0  0  0  0
    9.5565    5.9658   11.2683 S   0  0  0  0  0  0  0  0  0  0  0  0
    9.7587    7.1636   10.3475 O   0  0  0  0  0  0  0  0  0  0  0  0
    8.2962    5.3088   10.8172 O   0  0  0  0  0  0  0  0  0  0  0  0
    9.4203    6.6167   12.8571 N   0  0  0  0  0  0  0  0  0  0  0  0
   10.3695    6.8983   13.1714 H   0  0  0  0  0  0  0  0  0  0  0  0
    8.8179    5.6885   13.7926 C   0  0  0  0  0  0  0  0  0  0  0  0
    7.3530    6.0844   13.9022 C   0  0  0  0  0  0  0  0  0  0  0  0
    7.1978    7.5818   13.8907 C   0  0  0  0  0  0  0  0  0  0  0  0
    6.0282    7.9165   13.1686 N   0  0  0  0  0  0  0  0  0  0  0  0
    5.3951    9.1384   13.5158 C   0  0  0  0  0  0  0  0  0  0  0  0
    3.9528    9.0831   13.0412 C   0  0  0  0  0  0  0  0  0  0  0  0
    3.8544    8.5295   11.7803 O   0  0  0  0  0  0  0  0  0  0  0  0
    5.0541    8.5290   11.0789 C   0  0  0  0  0  0  0  0  0  0  0  0
    5.9898    7.5543   11.7998 C   0  0  0  0  0  0  0  0  0  0  0  0
 16 17  2  0  0  0
 16 18  2  0  0  0
 16 19  1  0  0  0
 16  1  1  0  0  0
 19 21  1  0  0  0
 21 22  1  0  0  0
 22 23  1  0  0  0
 23 24  1  0  0  0
 24 25  1  0  0  0
 24 29  1  0  0  0
 25 26  1  0  0  0
 26 27  1  0  0  0
 27 28  1  0  0  0
 28 29  1  0  0  0
  1  2  2  0  0  0
  1  6  1  0  0  0
  2  3  1  0  0  0
  3  4  2  0  0  0
  3 10  1  0  0  0
  4  5  1  0  0  0
  4  8  1  0  0  0
  5  6  2  0  0  0
  6  7  1  0  0  0
  8  9  1  0  0  0
  9 10  1  0  0  0
 10 11  1  0  0  0
 11 12  2  0  0  0
 11 13  1  0  0  0
 13 14  1  0  0  0
 13 15  1  0  0  0
 14 15  1  0  0  0
 19 20  1  0  0  0
M  END
> <minimizedAffinity>
-8.71072

$$$$
1027


 32 35  0  0  0  0  0  0  0  0999 V2000
    9.0365    6.3064   13.0309 S   0  0  0  0  0  0  0  0  0  0  0  0
    9.4750    5.1831   13.9710 O   0  0  0  0  0  0  0  0  0  0  0  0
    8.0934    5.6309   12.0626 O   0  0  0  0  0  0  0  0  0  0  0  0
    8.1750    7.4571   14.0157 C   0  0  0  0  0  0  0  0  0  0  0  0
    6.8472    7.7531   13.6823 C   0  0  0  0  0  0  0  0  0  0  0  0
    6.0820    8.6899   14.3393 C   0  0  0  0  0  0  0  0  0  0  0  0
    6.6187    9.3988   15.3922 C   0  0  0  0  0  0  0  0  0  0  0  0
    7.9189    9.1209   15.7344 C   0  0  0  0  0  0  0  0  0  0  0  0
    8.6947    8.1629   15.0611 C   0  0  0  0  0  0  0  0  0  0  0  0
   10.4653    7.7907   15.6971 Br  0  0  0  0  0  0  0  0  0  0  0  0
    5.6191   10.3429   15.9486 C   0  0  0  0  0  0  0  0  0  0  0  0
    4.3136    9.7725   15.3923 C   0  0  0  0  0  0  0  0  0  0  0  0
    4.7351    9.1296   14.1523 N   0  0  0  0  0  0  0  0  0  0  0  0
    3.9328    9.0006   13.0050 C   0  0  0  0  0  0  0  0  0  0  0  0
    2.7319    9.4416   13.0465 O   0  0  0  0  0  0  0  0  0  0  0  0
    4.3496    8.3919   11.7189 C   0  0  0  0  0  0  0  0  0  0  0  0
   10.4027    6.8597   12.2330 N   0  0  0  0  0  0  0  0  0  0  0  0
   10.3947    7.1119   10.8640 C   0  0  0  0  0  0  0  0  0  0  0  0
   10.6825    5.9466    9.9982 C   0  0  0  0  0  0  0  0  0  0  0  0
   10.2379    5.8862    8.8266 O   0  0  0  0  0  0  0  0  0  0  0  0
   11.4826    4.9179   10.5703 N   0  0  0  0  0  0  0  0  0  0  0  0
   12.1488    5.2317   11.7822 C   0  0  0  0  0  0  0  0  0  0  0  0
   13.2126    4.6082   12.0557 O   0  0  0  0  0  0  0  0  0  0  0  0
   11.6352    6.2546   12.7170 C   0  0  0  0  0  0  0  0  0  0  0  0
   11.5952    3.6293    9.9210 C   0  0  0  0  0  0  0  0  0  0  0  0
   10.5507    2.6415   10.3114 C   0  0  0  0  0  0  0  0  0  0  0  0
   10.6349    1.3326    9.6666 C   0  0  0  0  0  0  0  0  0  0  0  0
    9.5527    0.5052    9.5512 C   0  0  0  0  0  0  0  0  0  0  0  0
    9.7004   -0.7083    8.9403 C   0  0  0  0  0  0  0  0  0  0  0  0
   10.9226   -1.1316    8.4296 C   0  0  0  0  0  0  0  0  0  0  0  0
   11.9902   -0.2860    8.5571 C   0  0  0  0  0  0  0  0  0  0  0  0
   11.8768    0.9406    9.1652 C   0  0  0  0  0  0  0  0  0  0  0  0
  1  2  2  0  0  0
  1  3  2  0  0  0
  1 17  1  0  0  0
  1  4  1  0  0  0
 17 18  1  0  0  0
 17 24  1  0  0  0
 18 19  1  0  0  0
 19 20  2  0  0  0
 19 21  1  0  0  0
 21 22  1  0  0  0
 21 25  1  0  0  0
 22 23  2  0  0  0
 22 24  1  0  0  0
 25 26  1  0  0  0
 26 27  1  0  0  0
 27 28  2  0  0  0
 27 32  1  0  0  0
 28 29  1  0  0  0
 29 30  2  0  0  0
 30 31  1  0  0  0
 31 32  2  0  0  0
  4  5  2  0  0  0
  4  9  1  0  0  0
  5  6  1  0  0  0
  6  7  2  0  0  0
  6 13  1  0  0  0
  7  8  1  0  0  0
  7 11  1  0  0  0
  8  9  2  0  0  0
  9 10  1  0  0  0
 11 12  1  0  0  0
 12 13  1  0  0  0
 13 14  1  0  0  0
 14 15  2  0  0  0
 14 16  1  0  0  0
M  END
> <minimizedAffinity>
-9.44139

$$$$
1028


 25 28  0  0  0  0  0  0  0  0999 V2000
   11.9917    3.8151    9.7125 N   0  0  0  0  0  0  0  0  0  0  0  0
   10.6459    3.8529   10.1614 C   0  0  0  0  0  0  0  0  0  0  0  0
   11.0177    4.7082   11.3091 C   0  0  0  0  0  0  0  0  0  0  0  0
   12.3616    4.7923   10.6740 C   0  0  0  0  0  0  0  0  0  0  0  0
   10.3575    5.9964   11.3969 N   0  0  0  0  0  0  0  0  0  0  0  0
    9.8253    6.7047   10.4353 N   0  0  0  0  0  0  0  0  0  0  0  0
    9.3122    7.8423   10.9234 N   0  0  0  0  0  0  0  0  0  0  0  0
    9.5197    7.8720   12.2514 C   0  0  0  0  0  0  0  0  0  0  0  0
   10.1871    6.6889   12.5352 C   0  0  0  0  0  0  0  0  0  0  0  0
    9.1213    8.9448   13.2233 C   0  0  0  0  0  0  0  0  0  0  0  0
    7.6721    9.0259   13.2241 N   0  0  0  0  0  0  0  0  0  0  0  0
    6.7751    7.9386   13.4770 C   0  0  0  0  0  0  0  0  0  0  0  0
    5.3928    8.5255   13.4473 C   0  0  0  0  0  0  0  0  0  0  0  0
    5.5120   10.0150   13.4288 C   0  0  0  0  0  0  0  0  0  0  0  0
    6.9306   10.2152   12.9702 C   0  0  0  0  0  0  0  0  0  0  0  0
    7.3411   11.2717   12.4568 O   0  0  0  0  0  0  0  0  0  0  0  0
   12.8542    2.3655    9.7824 S   0  0  0  0  0  0  0  0  0  0  0  0
   12.9995    1.9540   11.2194 O   0  0  0  0  0  0  0  0  0  0  0  0
   14.2548    2.5102    9.2362 O   0  0  0  0  0  0  0  0  0  0  0  0
   12.0616    1.0304    8.9491 C   0  0  0  0  0  0  0  0  0  0  0  0
   10.4557    0.4662    9.1542 S   0  0  0  0  0  0  0  0  0  0  0  0
   10.4666   -0.8112    8.0207 C   0  0  0  0  0  0  0  0  0  0  0  0
   11.7389   -0.7547    7.5136 C   0  0  0  0  0  0  0  0  0  0  0  0
   12.5498    0.1906    7.9926 C   0  0  0  0  0  0  0  0  0  0  0  0
    9.0617   -2.0419    7.5484 Br  0  0  0  0  0  0  0  0  0  0  0  0
 17 18  2  0  0  0
 17 19  2  0  0  0
 17  1  1  0  0  0
 17 20  1  0  0  0
  1  2  1  0  0  0
  1  4  1  0  0  0
  2  3  1  0  0  0
  3  4  1  0  0  0
  3  5  1  0  0  0
  5  6  1  0  0  0
  5  9  1  0  0  0
  6  7  2  0  0  0
  7  8  1  0  0  0
  8  9  2  0  0  0
  8 10  1  0  0  0
 10 11  1  0  0  0
 11 12  1  0  0  0
 11 15  1  0  0  0
 12 13  1  0  0  0
 13 14  1  0  0  0
 14 15  1  0  0  0
 15 16  2  0  0  0
 20 21  1  0  0  0
 20 24  2  0  0  0
 21 22  1  0  0  0
 22 23  2  0  0  0
 22 25  1  0  0  0
 23 24  1  0  0  0
M  END
> <minimizedAffinity>
-8.39212

$$$$
1037


 31 34  0  0  0  0  0  0  0  0999 V2000
   10.0405    6.8426   12.1569 N   0  0  0  0  0  0  0  0  0  0  0  0
   10.3015    5.8483   13.1410 C   0  0  0  0  0  0  0  0  0  0  0  0
   10.6649    4.5068   12.7022 C   0  0  0  0  0  0  0  0  0  0  0  0
   11.0554    4.3166   11.3189 N   0  0  0  0  0  0  0  0  0  0  0  0
   10.8276    5.3417   10.3474 C   0  0  0  0  0  0  0  0  0  0  0  0
   10.8163    6.7301   10.9753 C   0  0  0  0  0  0  0  0  0  0  0  0
   11.6799    3.1163   10.9755 C   0  0  0  0  0  0  0  0  0  0  0  0
   11.9116    2.3705   12.0768 O   0  0  0  0  0  0  0  0  0  0  0  0
    8.4147    7.2594   11.9244 S   0  0  0  0  0  0  0  0  0  0  0  0
    7.7056    6.1251   11.2371 O   0  0  0  0  0  0  0  0  0  0  0  0
    8.3013    8.4543   10.9931 O   0  0  0  0  0  0  0  0  0  0  0  0
    7.5285    7.5620   13.4042 C   0  0  0  0  0  0  0  0  0  0  0  0
    7.6372    8.7972   14.0417 C   0  0  0  0  0  0  0  0  0  0  0  0
    6.9761    9.0909   15.2146 C   0  0  0  0  0  0  0  0  0  0  0  0
    6.1637    8.1578   15.8185 C   0  0  0  0  0  0  0  0  0  0  0  0
    6.0517    6.9348   15.1941 C   0  0  0  0  0  0  0  0  0  0  0  0
    6.7157    6.6310   14.0112 C   0  0  0  0  0  0  0  0  0  0  0  0
    5.4859    8.4481   17.0193 O   0  0  0  0  0  0  0  0  0  0  0  0
    5.1745    9.8147   17.3434 C   0  0  0  0  0  0  0  0  0  0  0  0
    6.4143   10.5878   17.0739 C   0  0  0  0  0  0  0  0  0  0  0  0
    6.8691   11.4302   17.8810 O   0  0  0  0  0  0  0  0  0  0  0  0
    7.1127   10.3677   15.8614 N   0  0  0  0  0  0  0  0  0  0  0  0
    7.7217   11.0598   15.4018 H   0  0  0  0  0  0  0  0  0  0  0  0
   12.1112    2.5301    9.7398 C   0  0  0  0  0  0  0  0  0  0  0  0
   11.5165    1.2966    9.2305 C   0  0  0  0  0  0  0  0  0  0  0  0
   12.2446    0.4080    8.4781 C   0  0  0  0  0  0  0  0  0  0  0  0
   11.6668   -0.7690    8.0032 C   0  0  0  0  0  0  0  0  0  0  0  0
   10.3620   -1.0406    8.2926 C   0  0  0  0  0  0  0  0  0  0  0  0
    9.6173   -0.1428    9.0595 C   0  0  0  0  0  0  0  0  0  0  0  0
   10.1831    1.0034    9.5198 C   0  0  0  0  0  0  0  0  0  0  0  0
   14.0783    0.7717    8.0529 Br  0  0  0  0  0  0  0  0  0  0  0  0
  9 10  2  0  0  0
  9 11  2  0  0  0
  9  1  1  0  0  0
  9 12  1  0  0  0
  1  2  1  0  0  0
  1  6  1  0  0  0
  2  3  1  0  0  0
  3  4  1  0  0  0
  4  5  1  0  0  0
  4  7  1  0  0  0
  5  6  1  0  0  0
  7  8  2  0  0  0
  7 24  1  0  0  0
 24 25  1  0  0  0
 25 26  2  0  0  0
 25 30  1  0  0  0
 26 27  1  0  0  0
 26 31  1  0  0  0
 27 28  2  0  0  0
 28 29  1  0  0  0
 29 30  2  0  0  0
 12 13  2  0  0  0
 12 17  1  0  0  0
 13 14  1  0  0  0
 14 15  2  0  0  0
 14 22  1  0  0  0
 15 16  1  0  0  0
 15 18  1  0  0  0
 16 17  2  0  0  0
 18 19  1  0  0  0
 19 20  1  0  0  0
 20 21  2  0  0  0
 20 22  1  0  0  0
 22 23  1  0  0  0
M  END
> <minimizedAffinity>
-9.99318

$$$$
1040


 34 38  0  0  0  0  0  0  0  0999 V2000
    8.8259    7.7214   12.3038 S   0  0  0  0  0  0  0  0  0  0  0  0
    9.2869    8.2541   11.0022 O   0  0  0  0  0  0  0  0  0  0  0  0
    9.8920    8.1685   13.3106 O   0  0  0  0  0  0  0  0  0  0  0  0
    7.3348    8.3942   12.8845 C   0  0  0  0  0  0  0  0  0  0  0  0
    6.1569    8.3621   12.1253 C   0  0  0  0  0  0  0  0  0  0  0  0
    4.9754    8.9017   12.5926 C   0  0  0  0  0  0  0  0  0  0  0  0
    4.9064    9.4978   13.8353 C   0  0  0  0  0  0  0  0  0  0  0  0
    6.0521    9.5341   14.5811 C   0  0  0  0  0  0  0  0  0  0  0  0
    7.2358    8.9861   14.0978 C   0  0  0  0  0  0  0  0  0  0  0  0
    8.3862    9.1108   15.0086 C   0  0  0  0  0  0  0  0  0  0  0  0
    8.0186    8.6653   16.4072 C   0  0  0  0  0  0  0  0  0  0  0  0
    6.7514    9.1650   16.7848 N   0  0  0  0  0  0  0  0  0  0  0  0
    6.1393   10.1339   15.9322 C   0  0  0  0  0  0  0  0  0  0  0  0
    5.8637    8.2547   17.4183 C   0  0  0  0  0  0  0  0  0  0  0  0
    4.0192    8.7097   11.6196 O   0  0  0  0  0  0  0  0  0  0  0  0
    4.6306    8.1698   10.4821 C   0  0  0  0  0  0  0  0  0  0  0  0
    5.9558    7.8264   10.8568 O   0  0  0  0  0  0  0  0  0  0  0  0
    3.7031   10.0515   14.3193 O   0  0  0  0  0  0  0  0  0  0  0  0
    2.7062    9.1661   14.8491 C   0  0  0  0  0  0  0  0  0  0  0  0
    8.8428    6.0031   12.3949 N   0  0  0  0  0  0  0  0  0  0  0  0
    9.9423    5.4678   13.1211 C   0  0  0  0  0  0  0  0  0  0  0  0
   11.1897    5.2303   12.2799 C   0  0  0  0  0  0  0  0  0  0  0  0
   10.8319    4.4669   11.1319 N   0  0  0  0  0  0  0  0  0  0  0  0
    9.8151    5.1700   10.2849 C   0  0  0  0  0  0  0  0  0  0  0  0
    8.6122    5.3627   11.1448 C   0  0  0  0  0  0  0  0  0  0  0  0
   11.2496    3.2298   10.6838 C   0  0  0  0  0  0  0  0  0  0  0  0
   10.6879    2.8289    9.5606 O   0  0  0  0  0  0  0  0  0  0  0  0
   12.1920    2.2935   11.2234 C   0  0  0  0  0  0  0  0  0  0  0  0
   13.5710    2.4252   10.9226 N   0  0  0  0  0  0  0  0  0  0  0  0
   14.2909    1.7075   10.0620 N   0  0  0  0  0  0  0  0  0  0  0  0
   15.5551    2.1458   10.0143 C   0  0  0  0  0  0  0  0  0  0  0  0
   15.6243    3.1960   10.8965 C   0  0  0  0  0  0  0  0  0  0  0  0
   14.3940    3.3657   11.4570 C   0  0  0  0  0  0  0  0  0  0  0  0
   17.1878    4.2498   11.2794 Br  0  0  0  0  0  0  0  0  0  0  0  0
  1  2  2  0  0  0
  1  3  2  0  0  0
  1 20  1  0  0  0
  1  4  1  0  0  0
 20 21  1  0  0  0
 20 25  1  0  0  0
 21 22  1  0  0  0
 22 23  1  0  0  0
 23 24  1  0  0  0
 23 26  1  0  0  0
 24 25  1  0  0  0
 26 27  2  0  0  0
 26 28  1  0  0  0
 28 29  1  0  0  0
 29 30  1  0  0  0
 29 33  1  0  0  0
 30 31  2  0  0  0
 31 32  1  0  0  0
 32 33  2  0  0  0
 32 34  1  0  0  0
  4  5  2  0  0  0
  4  9  1  0  0  0
  5  6  1  0  0  0
  5 17  1  0  0  0
  6  7  2  0  0  0
  6 15  1  0  0  0
  7  8  1  0  0  0
  7 18  1  0  0  0
  8  9  2  0  0  0
  8 13  1  0  0  0
  9 10  1  0  0  0
 10 11  1  0  0  0
 11 12  1  0  0  0
 12 13  1  0  0  0
 12 14  1  0  0  0
 18 19  1  0  0  0
 15 16  1  0  0  0
 16 17  1  0  0  0
M  END
> <minimizedAffinity>
-9.54696

$$$$
1042


 31 34  0  0  0  0  0  0  0  0999 V2000
   12.1334    3.8096   10.6198 N   0  0  0  0  0  0  0  0  0  0  0  0
   11.9474    4.9251    9.8196 C   0  0  0  0  0  0  0  0  0  0  0  0
   11.7362    6.1536   10.7463 C   0  0  0  0  0  0  0  0  0  0  0  0
   10.7033    5.8647   11.7017 N   0  0  0  0  0  0  0  0  0  0  0  0
   10.9169    4.7275   12.5674 C   0  0  0  0  0  0  0  0  0  0  0  0
   12.1354    3.9988   12.0443 C   0  0  0  0  0  0  0  0  0  0  0  0
    9.5228    6.6212   11.8296 C   0  0  0  0  0  0  0  0  0  0  0  0
    9.3440    7.6052   11.0767 O   0  0  0  0  0  0  0  0  0  0  0  0
   12.6762    2.3480   10.0602 S   0  0  0  0  0  0  0  0  0  0  0  0
   13.5792    2.6049    8.8461 O   0  0  0  0  0  0  0  0  0  0  0  0
   13.6246    1.6688   11.0530 O   0  0  0  0  0  0  0  0  0  0  0  0
   11.5032    1.1862    9.5224 C   0  0  0  0  0  0  0  0  0  0  0  0
   11.6970    0.2131    8.5790 C   0  0  0  0  0  0  0  0  0  0  0  0
   10.6659   -0.6441    8.1781 C   0  0  0  0  0  0  0  0  0  0  0  0
    9.4166   -0.5550    8.7060 C   0  0  0  0  0  0  0  0  0  0  0  0
    9.1908    0.4064    9.6540 C   0  0  0  0  0  0  0  0  0  0  0  0
   10.2002    1.2509   10.0501 C   0  0  0  0  0  0  0  0  0  0  0  0
   13.4275   -0.0292    7.8399 Br  0  0  0  0  0  0  0  0  0  0  0  0
    8.5069    6.2750   12.8249 C   0  0  0  0  0  0  0  0  0  0  0  0
    7.3314    7.1291   12.6781 N   0  0  0  0  0  0  0  0  0  0  0  0
    6.2312    7.0084   11.8002 C   0  0  0  0  0  0  0  0  0  0  0  0
    6.0775    6.0774   10.9432 O   0  0  0  0  0  0  0  0  0  0  0  0
    5.3573    8.1004   12.0578 N   0  0  0  0  0  0  0  0  0  0  0  0
    5.6722    8.5907   13.3741 C   0  0  0  0  0  0  0  0  0  0  0  0
    4.8743    7.9512   14.4631 C   0  0  0  0  0  0  0  0  0  0  0  0
    5.1180    8.9144   15.6317 C   0  0  0  0  0  0  0  0  0  0  0  0
    5.1443   10.2704   14.9817 C   0  0  0  0  0  0  0  0  0  0  0  0
    5.3741   10.0648   13.5207 C   0  0  0  0  0  0  0  0  0  0  0  0
    7.1240    8.3104   13.4789 C   0  0  0  0  0  0  0  0  0  0  0  0
    7.9736    8.9639   14.1250 O   0  0  0  0  0  0  0  0  0  0  0  0
    4.6424    8.4233   11.3595 H   0  0  0  0  0  0  0  0  0  0  0  0
  9 10  2  0  0  0
  9 11  2  0  0  0
  9  1  1  0  0  0
  9 12  1  0  0  0
  1  2  1  0  0  0
  1  6  1  0  0  0
  2  3  1  0  0  0
  3  4  1  0  0  0
  4  5  1  0  0  0
  4  7  1  0  0  0
  5  6  1  0  0  0
  7  8  2  0  0  0
  7 19  1  0  0  0
 19 20  1  0  0  0
 20 21  1  0  0  0
 20 29  1  0  0  0
 21 22  2  0  0  0
 21 23  1  0  0  0
 23 24  1  0  0  0
 24 25  1  0  0  0
 24 28  1  0  0  0
 24 29  1  0  0  0
 25 26  1  0  0  0
 26 27  1  0  0  0
 27 28  1  0  0  0
 29 30  2  0  0  0
 12 13  2  0  0  0
 12 17  1  0  0  0
 13 14  1  0  0  0
 13 18  1  0  0  0
 14 15  2  0  0  0
 15 16  1  0  0  0
 16 17  2  0  0  0
 23 31  1  0  0  0
M  END
> <minimizedAffinity>
-10.12509

$$$$
1043


 31 34  0  0  0  0  0  0  0  0999 V2000
   11.9369    3.6177   10.5386 N   0  0  0  0  0  0  0  0  0  0  0  0
   12.2572    3.9990   11.8978 C   0  0  0  0  0  0  0  0  0  0  0  0
   12.4749    5.4873   12.0103 C   0  0  0  0  0  0  0  0  0  0  0  0
   11.2959    6.1397   11.4036 N   0  0  0  0  0  0  0  0  0  0  0  0
   11.0159    5.7642   10.0527 C   0  0  0  0  0  0  0  0  0  0  0  0
   12.0731    4.7120    9.6429 C   0  0  0  0  0  0  0  0  0  0  0  0
   10.5289    7.0542   12.1395 C   0  0  0  0  0  0  0  0  0  0  0  0
   10.9485    7.2517   13.3731 O   0  0  0  0  0  0  0  0  0  0  0  0
   12.7228    2.1873   10.0390 S   0  0  0  0  0  0  0  0  0  0  0  0
   13.4198    1.6143   11.2598 O   0  0  0  0  0  0  0  0  0  0  0  0
   13.8220    2.5369    9.0673 O   0  0  0  0  0  0  0  0  0  0  0  0
   11.6366    1.0173    9.3296 C   0  0  0  0  0  0  0  0  0  0  0  0
   10.2987    0.9586    9.6640 C   0  0  0  0  0  0  0  0  0  0  0  0
    9.4425    0.0235    9.0940 C   0  0  0  0  0  0  0  0  0  0  0  0
    9.9049   -0.8792    8.1718 C   0  0  0  0  0  0  0  0  0  0  0  0
   11.2394   -0.8313    7.8283 C   0  0  0  0  0  0  0  0  0  0  0  0
   12.0883    0.1045    8.4004 C   0  0  0  0  0  0  0  0  0  0  0  0
    8.7249   -2.1775    7.3768 Br  0  0  0  0  0  0  0  0  0  0  0  0
    9.3598    7.8326   11.8178 C   0  0  0  0  0  0  0  0  0  0  0  0
    8.0946    7.5149   12.4012 N   0  0  0  0  0  0  0  0  0  0  0  0
    7.1901    6.4464   12.0214 C   0  0  0  0  0  0  0  0  0  0  0  0
    7.4514    5.6301   11.0942 O   0  0  0  0  0  0  0  0  0  0  0  0
    6.0492    6.5262   12.8599 N   0  0  0  0  0  0  0  0  0  0  0  0
    6.0278    7.8327   13.4249 C   0  0  0  0  0  0  0  0  0  0  0  0
    5.1826    8.8105   12.6443 C   0  0  0  0  0  0  0  0  0  0  0  0
    5.0778    9.9653   13.6219 C   0  0  0  0  0  0  0  0  0  0  0  0
    5.1879    9.3573   14.9993 C   0  0  0  0  0  0  0  0  0  0  0  0
    5.3626    7.8720   14.7898 C   0  0  0  0  0  0  0  0  0  0  0  0
    7.4390    8.2102   13.4822 C   0  0  0  0  0  0  0  0  0  0  0  0
    8.0084    8.9833   14.2942 O   0  0  0  0  0  0  0  0  0  0  0  0
    5.3823    5.7160   12.9885 H   0  0  0  0  0  0  0  0  0  0  0  0
  9 10  2  0  0  0
  9 11  2  0  0  0
  9  1  1  0  0  0
  9 12  1  0  0  0
  1  2  1  0  0  0
  1  6  1  0  0  0
  2  3  1  0  0  0
  3  4  1  0  0  0
  4  5  1  0  0  0
  4  7  1  0  0  0
  5  6  1  0  0  0
  7  8  2  0  0  0
  7 19  1  0  0  0
 19 20  1  0  0  0
 20 21  1  0  0  0
 20 29  1  0  0  0
 21 22  2  0  0  0
 21 23  1  0  0  0
 23 24  1  0  0  0
 24 25  1  0  0  0
 24 28  1  0  0  0
 24 29  1  0  0  0
 25 26  1  0  0  0
 26 27  1  0  0  0
 27 28  1  0  0  0
 29 30  2  0  0  0
 12 13  2  0  0  0
 12 17  1  0  0  0
 13 14  1  0  0  0
 14 15  2  0  0  0
 15 16  1  0  0  0
 15 18  1  0  0  0
 16 17  2  0  0  0
 23 31  1  0  0  0
M  END
> <minimizedAffinity>
-10.03318

$$$$
1044


 30 33  0  0  0  0  0  0  0  0999 V2000
   10.3425    6.6498   11.2755 S   0  0  0  0  0  0  0  0  0  0  0  0
   11.3202    7.7511   11.4086 O   0  0  0  0  0  0  0  0  0  0  0  0
    9.9327    6.5958    9.8088 O   0  0  0  0  0  0  0  0  0  0  0  0
    8.8623    6.9892   12.1649 C   0  0  0  0  0  0  0  0  0  0  0  0
    8.3902    8.2772   12.3124 C   0  0  0  0  0  0  0  0  0  0  0  0
    7.2333    8.5757   13.0029 C   0  0  0  0  0  0  0  0  0  0  0  0
    6.4903    7.5694   13.5852 C   0  0  0  0  0  0  0  0  0  0  0  0
    6.9614    6.2737   13.4384 C   0  0  0  0  0  0  0  0  0  0  0  0
    8.1185    5.9826   12.7466 C   0  0  0  0  0  0  0  0  0  0  0  0
    5.3181    7.8392   14.2891 O   0  0  0  0  0  0  0  0  0  0  0  0
    4.9136    9.1340   14.6913 C   0  0  0  0  0  0  0  0  0  0  0  0
    5.5497   10.1976   13.8737 C   0  0  0  0  0  0  0  0  0  0  0  0
    4.9897   11.3230   13.8571 O   0  0  0  0  0  0  0  0  0  0  0  0
    6.7441    9.9015   13.1587 N   0  0  0  0  0  0  0  0  0  0  0  0
    7.2938   10.6730   12.7248 H   0  0  0  0  0  0  0  0  0  0  0  0
   10.9407    5.1249   11.6951 N   0  0  0  0  0  0  0  0  0  0  0  0
   12.2663    5.0436   12.1245 C   0  0  0  0  0  0  0  0  0  0  0  0
   12.9543    3.7369   11.9454 C   0  0  0  0  0  0  0  0  0  0  0  0
   12.4433    2.9327   10.8808 N   0  0  0  0  0  0  0  0  0  0  0  0
   11.3458    3.4372   10.0843 C   0  0  0  0  0  0  0  0  0  0  0  0
   10.3423    4.0099   11.0829 C   0  0  0  0  0  0  0  0  0  0  0  0
   12.9705    1.6554   10.5735 C   0  0  0  0  0  0  0  0  0  0  0  0
   13.9360    1.1707   11.2463 O   0  0  0  0  0  0  0  0  0  0  0  0
   12.4615    0.8217    9.4922 C   0  0  0  0  0  0  0  0  0  0  0  0
   13.1370    0.6684    8.2957 C   0  0  0  0  0  0  0  0  0  0  0  0
   12.6666   -0.1163    7.2683 C   0  0  0  0  0  0  0  0  0  0  0  0
   11.4618   -0.7765    7.4536 C   0  0  0  0  0  0  0  0  0  0  0  0
   10.7471   -0.6616    8.6227 C   0  0  0  0  0  0  0  0  0  0  0  0
   11.2607    0.1369    9.6207 C   0  0  0  0  0  0  0  0  0  0  0  0
   14.7898    1.6074    8.1114 Br  0  0  0  0  0  0  0  0  0  0  0  0
  1  2  2  0  0  0
  1  3  2  0  0  0
  1 16  1  0  0  0
  1  4  1  0  0  0
 16 17  1  0  0  0
 16 21  1  0  0  0
 17 18  1  0  0  0
 18 19  1  0  0  0
 19 20  1  0  0  0
 19 22  1  0  0  0
 20 21  1  0  0  0
 22 23  2  0  0  0
 22 24  1  0  0  0
 24 25  2  0  0  0
 24 29  1  0  0  0
 25 26  1  0  0  0
 25 30  1  0  0  0
 26 27  2  0  0  0
 27 28  1  0  0  0
 28 29  2  0  0  0
  4  5  2  0  0  0
  4  9  1  0  0  0
  5  6  1  0  0  0
  6  7  2  0  0  0
  6 14  1  0  0  0
  7  8  1  0  0  0
  7 10  1  0  0  0
  8  9  2  0  0  0
 10 11  1  0  0  0
 11 12  1  0  0  0
 12 13  2  0  0  0
 12 14  1  0  0  0
 14 15  1  0  0  0
M  END
> <minimizedAffinity>
-10.31649

$$$$
1051


 27 30  0  0  0  0  0  0  0  0999 V2000
   10.8091    7.2885   12.1893 N   0  0  0  0  0  0  0  0  0  0  0  0
   10.5496    6.7368   10.9109 C   0  0  0  0  0  0  0  0  0  0  0  0
   11.2277    5.4494   10.5880 C   0  0  0  0  0  0  0  0  0  0  0  0
   12.5389    5.3168   11.1645 N   0  0  0  0  0  0  0  0  0  0  0  0
   13.0188    6.4382   11.9407 C   0  0  0  0  0  0  0  0  0  0  0  0
   11.9013    6.7390   12.9182 C   0  0  0  0  0  0  0  0  0  0  0  0
   13.3628    4.1855   11.0171 C   0  0  0  0  0  0  0  0  0  0  0  0
   14.4908    4.1616   11.5566 O   0  0  0  0  0  0  0  0  0  0  0  0
   12.9124    3.0365   10.2386 C   0  0  0  0  0  0  0  0  0  0  0  0
   11.7247    2.4477   10.3354 N   0  0  0  0  0  0  0  0  0  0  0  0
   11.6409    1.4265    9.4798 N   0  0  0  0  0  0  0  0  0  0  0  0
   12.7995    1.3238    8.7892 C   0  0  0  0  0  0  0  0  0  0  0  0
   13.6120    2.3540    9.2763 C   0  0  0  0  0  0  0  0  0  0  0  0
   12.9916    0.3662    7.8477 N   0  0  0  0  0  0  0  0  0  0  0  0
   11.9905   -0.5226    7.5840 C   0  0  0  0  0  0  0  0  0  0  0  0
   10.7980   -0.4431    8.2700 C   0  0  0  0  0  0  0  0  0  0  0  0
   10.6522    0.5462    9.2166 C   0  0  0  0  0  0  0  0  0  0  0  0
    9.3885   -1.6975    7.8962 Br  0  0  0  0  0  0  0  0  0  0  0  0
    9.4326    7.3425   13.2225 S   0  0  0  0  0  0  0  0  0  0  0  0
    9.3849    8.6472   13.9501 O   0  0  0  0  0  0  0  0  0  0  0  0
    9.6184    6.2305   14.2461 O   0  0  0  0  0  0  0  0  0  0  0  0
    7.9425    7.1273   12.3387 C   0  0  0  0  0  0  0  0  0  0  0  0
    7.0154    8.0922   12.0171 C   0  0  0  0  0  0  0  0  0  0  0  0
    6.0101    7.5407   11.3362 N   0  0  0  0  0  0  0  0  0  0  0  0
    6.2525    6.2510   11.2039 N   0  0  0  0  0  0  0  0  0  0  0  0
    7.4309    5.9449   11.8041 C   0  0  0  0  0  0  0  0  0  0  0  0
    4.8425    8.2010   10.8156 C   0  0  0  0  0  0  0  0  0  0  0  0
 19 20  2  0  0  0
 19 21  2  0  0  0
 19  1  1  0  0  0
 19 22  1  0  0  0
  1  2  1  0  0  0
  1  6  1  0  0  0
  2  3  1  0  0  0
  3  4  1  0  0  0
  4  5  1  0  0  0
  4  7  1  0  0  0
  5  6  1  0  0  0
  7  8  2  0  0  0
  7  9  1  0  0  0
  9 10  2  0  0  0
  9 13  1  0  0  0
 10 11  1  0  0  0
 11 12  1  0  0  0
 11 17  1  0  0  0
 12 13  2  0  0  0
 12 14  1  0  0  0
 14 15  2  0  0  0
 15 16  1  0  0  0
 16 17  2  0  0  0
 16 18  1  0  0  0
 22 23  2  0  0  0
 22 26  1  0  0  0
 23 24  1  0  0  0
 24 25  1  0  0  0
 24 27  1  0  0  0
 25 26  2  0  0  0
M  END
> <minimizedAffinity>
-8.87057

$$$$
1056


 30 33  0  0  0  0  0  0  0  0999 V2000
   11.2240    4.2001   10.2322 N   0  0  0  0  0  0  0  0  0  0  0  0
   11.7088    5.4919    9.9275 C   0  0  0  0  0  0  0  0  0  0  0  0
   11.5485    6.5342   10.9555 C   0  0  0  0  0  0  0  0  0  0  0  0
   10.2906    6.4345   11.6336 N   0  0  0  0  0  0  0  0  0  0  0  0
    9.3458    5.4371   11.2202 C   0  0  0  0  0  0  0  0  0  0  0  0
    9.9715    4.1177   10.8917 C   0  0  0  0  0  0  0  0  0  0  0  0
    9.9741    7.3027   12.6976 C   0  0  0  0  0  0  0  0  0  0  0  0
   10.8114    8.1661   13.0450 O   0  0  0  0  0  0  0  0  0  0  0  0
    8.7156    7.2585   13.4310 C   0  0  0  0  0  0  0  0  0  0  0  0
    8.6148    6.4948   14.5795 C   0  0  0  0  0  0  0  0  0  0  0  0
    7.4569    6.4536   15.2566 N   0  0  0  0  0  0  0  0  0  0  0  0
    6.3616    7.1382   14.8617 C   0  0  0  0  0  0  0  0  0  0  0  0
    6.4255    7.8903   13.7496 N   0  0  0  0  0  0  0  0  0  0  0  0
    5.3227    8.5827   13.3472 C   0  0  0  0  0  0  0  0  0  0  0  0
    4.1356    8.5347   14.0489 C   0  0  0  0  0  0  0  0  0  0  0  0
    4.0465    7.7660   15.1978 C   0  0  0  0  0  0  0  0  0  0  0  0
    5.1742    7.0767   15.5831 C   0  0  0  0  0  0  0  0  0  0  0  0
    2.9145    9.2738   13.6426 C   0  0  0  0  0  0  0  0  0  0  0  0
    7.5858    7.9503   13.0439 C   0  0  0  0  0  0  0  0  0  0  0  0
    7.6435    8.6452   12.0181 O   0  0  0  0  0  0  0  0  0  0  0  0
   12.3793    3.0435   10.6672 S   0  0  0  0  0  0  0  0  0  0  0  0
   13.7315    3.6614   10.7480 O   0  0  0  0  0  0  0  0  0  0  0  0
   12.0209    2.4978   12.0277 O   0  0  0  0  0  0  0  0  0  0  0  0
   12.3633    1.7226    9.5298 C   0  0  0  0  0  0  0  0  0  0  0  0
   11.2588    0.9021    9.4351 C   0  0  0  0  0  0  0  0  0  0  0  0
   11.3131   -0.1321    8.5064 C   0  0  0  0  0  0  0  0  0  0  0  0
   12.4086   -0.3428    7.7104 C   0  0  0  0  0  0  0  0  0  0  0  0
   13.5143    0.4888    7.8139 C   0  0  0  0  0  0  0  0  0  0  0  0
   13.4803    1.5354    8.7417 C   0  0  0  0  0  0  0  0  0  0  0  0
    9.8220   -1.2986    8.3281 Br  0  0  0  0  0  0  0  0  0  0  0  0
 21 22  2  0  0  0
 21 23  2  0  0  0
 21  1  1  0  0  0
 21 24  1  0  0  0
  1  2  1  0  0  0
  1  6  1  0  0  0
  2  3  1  0  0  0
  3  4  1  0  0  0
  4  5  1  0  0  0
  4  7  1  0  0  0
  5  6  1  0  0  0
  7  8  2  0  0  0
  7  9  1  0  0  0
  9 10  2  0  0  0
  9 19  1  0  0  0
 10 11  1  0  0  0
 11 12  2  0  0  0
 12 13  1  0  0  0
 12 17  1  0  0  0
 13 14  1  0  0  0
 13 19  1  0  0  0
 14 15  2  0  0  0
 15 16  1  0  0  0
 15 18  1  0  0  0
 16 17  2  0  0  0
 19 20  2  0  0  0
 24 25  2  0  0  0
 24 29  1  0  0  0
 25 26  1  0  0  0
 26 27  2  0  0  0
 26 30  1  0  0  0
 27 28  1  0  0  0
 28 29  2  0  0  0
M  END
> <minimizedAffinity>
-9.70921

$$$$
1061


 30 34  0  0  0  0  0  0  0  0999 V2000
    4.7984    8.5400   13.6647 N   0  0  0  0  0  0  0  0  0  0  0  0
    5.0247    8.7549   12.2598 C   0  0  0  0  0  0  0  0  0  0  0  0
    6.3317    8.1466   11.8058 C   0  0  0  0  0  0  0  0  0  0  0  0
    7.4465    8.6557   12.6435 N   0  0  0  0  0  0  0  0  0  0  0  0
    7.2211    8.1860   14.0030 C   0  0  0  0  0  0  0  0  0  0  0  0
    5.8025    7.6971   14.2380 C   0  0  0  0  0  0  0  0  0  0  0  0
    4.2837    9.8652   14.5584 S   0  0  0  0  0  0  0  0  0  0  0  0
    4.9874   11.1006   14.0113 O   0  0  0  0  0  0  0  0  0  0  0  0
    2.8115   10.1066   14.2222 O   0  0  0  0  0  0  0  0  0  0  0  0
    4.4058    9.7628   16.2683 C   0  0  0  0  0  0  0  0  0  0  0  0
    3.3801    9.2392   17.0171 C   0  0  0  0  0  0  0  0  0  0  0  0
    3.5182    9.1631   18.3915 C   0  0  0  0  0  0  0  0  0  0  0  0
    4.6549    9.5967   19.0491 C   0  0  0  0  0  0  0  0  0  0  0  0
    5.6822   10.1213   18.2932 C   0  0  0  0  0  0  0  0  0  0  0  0
    5.5425   10.1973   16.9119 C   0  0  0  0  0  0  0  0  0  0  0  0
    4.8461    9.4946   20.9433 Br  0  0  0  0  0  0  0  0  0  0  0  0
    8.6147    8.0020   12.0937 C   0  0  0  0  0  0  0  0  0  0  0  0
    8.4544    6.6438   11.5569 C   0  0  0  0  0  0  0  0  0  0  0  0
    9.5977    5.8166   11.3693 N   0  0  0  0  0  0  0  0  0  0  0  0
   10.2863    5.4381   10.1829 C   0  0  0  0  0  0  0  0  0  0  0  0
    9.7883    5.3923    9.0487 O   0  0  0  0  0  0  0  0  0  0  0  0
   11.6900    5.1092   10.5293 C   0  0  0  0  0  0  0  0  0  0  0  0
   11.5069    4.5997   11.9773 C   0  0  0  0  0  0  0  0  0  0  0  0
   11.4820    3.1209   11.8789 C   0  0  0  0  0  0  0  0  0  0  0  0
   11.0401    2.9004   10.4224 C   0  0  0  0  0  0  0  0  0  0  0  0
   12.1065    3.8525    9.8528 C   0  0  0  0  0  0  0  0  0  0  0  0
   13.3029    3.3365   10.5987 C   0  0  0  0  0  0  0  0  0  0  0  0
   12.9203    2.6833   11.6960 C   0  0  0  0  0  0  0  0  0  0  0  0
   10.3018    5.2360   12.4896 C   0  0  0  0  0  0  0  0  0  0  0  0
    9.9640    5.2570   13.6996 O   0  0  0  0  0  0  0  0  0  0  0  0
  7  8  2  0  0  0
  7  9  2  0  0  0
  7  1  1  0  0  0
  7 10  1  0  0  0
  1  2  1  0  0  0
  1  6  1  0  0  0
  2  3  1  0  0  0
  3  4  1  0  0  0
  4  5  1  0  0  0
  4 17  1  0  0  0
  5  6  1  0  0  0
 17 18  1  0  0  0
 18 19  1  0  0  0
 19 20  1  0  0  0
 19 29  1  0  0  0
 20 21  2  0  0  0
 20 22  1  0  0  0
 22 23  1  0  0  0
 22 26  1  0  0  0
 23 24  1  0  0  0
 23 29  1  0  0  0
 24 25  1  0  0  0
 24 28  1  0  0  0
 25 26  1  0  0  0
 26 27  1  0  0  0
 27 28  2  0  0  0
 29 30  2  0  0  0
 10 11  2  0  0  0
 10 15  1  0  0  0
 11 12  1  0  0  0
 12 13  2  0  0  0
 13 14  1  0  0  0
 13 16  1  0  0  0
 14 15  2  0  0  0
M  END
> <minimizedAffinity>
-9.16937

$$$$
1073


 28 31  0  0  0  0  0  0  0  0999 V2000
    8.0686    7.3216   11.8802 N   0  0  0  0  0  0  0  0  0  0  0  0
    8.1493    6.0923   12.5587 C   0  0  0  0  0  0  0  0  0  0  0  0
    9.5597    5.6092   12.7550 C   0  0  0  0  0  0  0  0  0  0  0  0
   10.5056    6.1855   11.8680 N   0  0  0  0  0  0  0  0  0  0  0  0
   10.5004    7.6020   11.9566 C   0  0  0  0  0  0  0  0  0  0  0  0
    9.1526    8.2206   11.9946 C   0  0  0  0  0  0  0  0  0  0  0  0
    6.5714    7.9567   11.5413 S   0  0  0  0  0  0  0  0  0  0  0  0
    6.6323    9.1075   10.5945 O   0  0  0  0  0  0  0  0  0  0  0  0
    5.6725    6.9090   10.9677 O   0  0  0  0  0  0  0  0  0  0  0  0
    5.8383    8.5530   13.0452 C   0  0  0  0  0  0  0  0  0  0  0  0
    5.7753    7.8111   14.5786 S   0  0  0  0  0  0  0  0  0  0  0  0
    4.9217    9.0154   15.4286 C   0  0  0  0  0  0  0  0  0  0  0  0
    4.7041    9.9800   14.4758 C   0  0  0  0  0  0  0  0  0  0  0  0
    5.1812    9.7335   13.2457 C   0  0  0  0  0  0  0  0  0  0  0  0
    4.3816    9.0440   17.2663 Br  0  0  0  0  0  0  0  0  0  0  0  0
   10.4582    5.5993   10.5808 C   0  0  0  0  0  0  0  0  0  0  0  0
   11.2330    4.4230   10.3750 N   0  0  0  0  0  0  0  0  0  0  0  0
   10.6732    3.3176    9.9281 N   0  0  0  0  0  0  0  0  0  0  0  0
   11.3288    2.1666    9.7128 C   0  0  0  0  0  0  0  0  0  0  0  0
   12.6768    2.1626    9.9833 C   0  0  0  0  0  0  0  0  0  0  0  0
   13.3215    3.2868   10.4535 C   0  0  0  0  0  0  0  0  0  0  0  0
   12.5488    4.4253   10.6410 C   0  0  0  0  0  0  0  0  0  0  0  0
   13.1510    5.4678   11.0766 O   0  0  0  0  0  0  0  0  0  0  0  0
   10.6911    0.9800    9.2260 N   0  0  0  0  0  0  0  0  0  0  0  0
    9.4693    0.5147    9.5053 C   0  0  0  0  0  0  0  0  0  0  0  0
    9.2819   -0.6326    8.8271 N   0  0  0  0  0  0  0  0  0  0  0  0
   10.3854   -0.9080    8.1093 C   0  0  0  0  0  0  0  0  0  0  0  0
   11.2664    0.1195    8.3715 C   0  0  0  0  0  0  0  0  0  0  0  0
  7  8  2  0  0  0
  7  9  2  0  0  0
  7  1  1  0  0  0
  7 10  1  0  0  0
  1  2  1  0  0  0
  1  6  1  0  0  0
  2  3  1  0  0  0
  3  4  1  0  0  0
  4  5  1  0  0  0
  4 16  1  0  0  0
  5  6  1  0  0  0
 16 17  1  0  0  0
 17 18  1  0  0  0
 17 22  1  0  0  0
 18 19  2  0  0  0
 19 20  1  0  0  0
 19 24  1  0  0  0
 20 21  2  0  0  0
 21 22  1  0  0  0
 22 23  2  0  0  0
 24 25  1  0  0  0
 24 28  1  0  0  0
 25 26  2  0  0  0
 26 27  1  0  0  0
 27 28  2  0  0  0
 10 11  1  0  0  0
 10 14  2  0  0  0
 11 12  1  0  0  0
 12 13  2  0  0  0
 12 15  1  0  0  0
 13 14  1  0  0  0
M  END
> <minimizedAffinity>
-8.49044

$$$$
1076


 29 32  0  0  0  0  0  0  0  0999 V2000
   12.4222    6.4081   12.3900 N   0  0  0  0  0  0  0  0  0  0  0  0
   11.2448    6.8368   13.0767 C   0  0  0  0  0  0  0  0  0  0  0  0
   10.3995    5.5696   13.2923 C   0  0  0  0  0  0  0  0  0  0  0  0
   10.5886    4.6407   12.2646 N   0  0  0  0  0  0  0  0  0  0  0  0
   10.8826    5.1805   10.9651 C   0  0  0  0  0  0  0  0  0  0  0  0
   12.0006    6.1982   10.9932 C   0  0  0  0  0  0  0  0  0  0  0  0
   13.6731    7.5756   12.3548 S   0  0  0  0  0  0  0  0  0  0  0  0
   13.8782    8.2256   13.6978 O   0  0  0  0  0  0  0  0  0  0  0  0
   13.2337    8.6739   11.4145 O   0  0  0  0  0  0  0  0  0  0  0  0
   15.1808    6.9659   11.7900 C   0  0  0  0  0  0  0  0  0  0  0  0
   15.6096    5.6745   11.8773 C   0  0  0  0  0  0  0  0  0  0  0  0
   16.8484    5.2859   11.3882 C   0  0  0  0  0  0  0  0  0  0  0  0
   17.6913    6.1800   10.7979 C   0  0  0  0  0  0  0  0  0  0  0  0
   17.2826    7.5006   10.6945 C   0  0  0  0  0  0  0  0  0  0  0  0
   16.0556    7.8731   11.1826 C   0  0  0  0  0  0  0  0  0  0  0  0
   17.4316    3.4599   11.5229 Br  0  0  0  0  0  0  0  0  0  0  0  0
   11.1134    3.3660   12.5231 C   0  0  0  0  0  0  0  0  0  0  0  0
   11.7477    2.6602   11.4568 N   0  0  0  0  0  0  0  0  0  0  0  0
   13.1600    2.6450   11.3275 N   0  0  0  0  0  0  0  0  0  0  0  0
   13.4333    1.8462   10.1795 C   0  0  0  0  0  0  0  0  0  0  0  0
   14.6639    1.6043    9.7444 C   0  0  0  0  0  0  0  0  0  0  0  0
   15.2262    0.8323    8.6133 C   0  0  0  0  0  0  0  0  0  0  0  0
   14.2439    0.7572    7.4690 C   0  0  0  0  0  0  0  0  0  0  0  0
   13.1472   -0.1926    7.9168 C   0  0  0  0  0  0  0  0  0  0  0  0
   11.9582    0.5438    8.4534 C   0  0  0  0  0  0  0  0  0  0  0  0
   12.2345    1.3652    9.5923 N   0  0  0  0  0  0  0  0  0  0  0  0
   11.1880    1.8865   10.4058 C   0  0  0  0  0  0  0  0  0  0  0  0
    9.9699    1.6692   10.1895 O   0  0  0  0  0  0  0  0  0  0  0  0
   13.8575    3.1223   11.9462 H   0  0  0  0  0  0  0  0  0  0  0  0
  7  8  2  0  0  0
  7  9  2  0  0  0
  7  1  1  0  0  0
  7 10  1  0  0  0
  1  2  1  0  0  0
  1  6  1  0  0  0
  2  3  1  0  0  0
  3  4  1  0  0  0
  4  5  1  0  0  0
  4 17  1  0  0  0
  5  6  1  0  0  0
 17 18  1  0  0  0
 18 19  1  0  0  0
 18 27  1  0  0  0
 19 20  1  0  0  0
 20 21  2  0  0  0
 20 26  1  0  0  0
 21 22  1  0  0  0
 22 23  1  0  0  0
 23 24  1  0  0  0
 24 25  1  0  0  0
 25 26  1  0  0  0
 26 27  1  0  0  0
 27 28  2  0  0  0
 10 11  2  0  0  0
 10 15  1  0  0  0
 11 12  1  0  0  0
 12 13  2  0  0  0
 12 16  1  0  0  0
 13 14  1  0  0  0
 14 15  2  0  0  0
 19 29  1  0  0  0
M  END
> <minimizedAffinity>
-8.80723

$$$$
1081


 27 30  0  0  0  0  0  0  0  0999 V2000
    8.8287    6.4350   13.2417 N   0  0  0  0  0  0  0  0  0  0  0  0
    7.8173    5.6873   13.8849 C   0  0  0  0  0  0  0  0  0  0  0  0
    6.5888    6.4254   14.3006 C   0  0  0  0  0  0  0  0  0  0  0  0
    6.5968    7.8307   13.9784 N   0  0  0  0  0  0  0  0  0  0  0  0
    7.8260    8.5540   14.0293 C   0  0  0  0  0  0  0  0  0  0  0  0
    9.0347    7.7739   13.6458 C   0  0  0  0  0  0  0  0  0  0  0  0
    5.3427    8.4337   13.6283 C   0  0  0  0  0  0  0  0  0  0  0  0
    4.4666    8.9821   14.4873 N   0  0  0  0  0  0  0  0  0  0  0  0
    3.4453    9.4004   13.7307 N   0  0  0  0  0  0  0  0  0  0  0  0
    3.6838    9.1220   12.4680 N   0  0  0  0  0  0  0  0  0  0  0  0
    4.8510    8.5222   12.3634 N   0  0  0  0  0  0  0  0  0  0  0  0
    4.6096    9.0986   15.8958 C   0  0  0  0  0  0  0  0  0  0  0  0
    5.4100   10.0678   16.4559 C   0  0  0  0  0  0  0  0  0  0  0  0
    5.5290   10.1567   17.8421 C   0  0  0  0  0  0  0  0  0  0  0  0
    4.8577    9.2891   18.6757 C   0  0  0  0  0  0  0  0  0  0  0  0
    4.0431    8.3025   18.1056 C   0  0  0  0  0  0  0  0  0  0  0  0
    3.9362    8.2286   16.7158 C   0  0  0  0  0  0  0  0  0  0  0  0
    9.0849    6.1267   11.5888 S   0  0  0  0  0  0  0  0  0  0  0  0
    9.4256    7.3132   10.7780 O   0  0  0  0  0  0  0  0  0  0  0  0
    7.7866    5.5724   11.0147 O   0  0  0  0  0  0  0  0  0  0  0  0
   10.2934    4.8866   11.3984 C   0  0  0  0  0  0  0  0  0  0  0  0
   10.9621    4.3262   12.4574 C   0  0  0  0  0  0  0  0  0  0  0  0
   11.9257    3.3318   12.2910 C   0  0  0  0  0  0  0  0  0  0  0  0
   12.2092    2.9005   10.9911 C   0  0  0  0  0  0  0  0  0  0  0  0
   11.5446    3.4562    9.9206 C   0  0  0  0  0  0  0  0  0  0  0  0
   10.6066    4.4289   10.1261 C   0  0  0  0  0  0  0  0  0  0  0  0
   13.5180    1.5375   10.6887 Br  0  0  0  0  0  0  0  0  0  0  0  0
 18 19  2  0  0  0
 18 20  2  0  0  0
 18  1  1  0  0  0
 18 21  1  0  0  0
  1  2  1  0  0  0
  1  6  1  0  0  0
  2  3  1  0  0  0
  3  4  1  0  0  0
  4  5  1  0  0  0
  4  7  1  0  0  0
  5  6  1  0  0  0
  7  8  1  0  0  0
  7 11  2  0  0  0
  8  9  1  0  0  0
  8 12  1  0  0  0
  9 10  2  0  0  0
 10 11  1  0  0  0
 12 13  2  0  0  0
 12 17  1  0  0  0
 13 14  1  0  0  0
 14 15  2  0  0  0
 15 16  1  0  0  0
 16 17  2  0  0  0
 21 22  2  0  0  0
 21 26  1  0  0  0
 22 23  1  0  0  0
 23 24  2  0  0  0
 24 25  1  0  0  0
 24 27  1  0  0  0
 25 26  2  0  0  0
M  END
> <minimizedAffinity>
-8.64164

$$$$
1084


 29 32  0  0  0  0  0  0  0  0999 V2000
   10.4349    5.6969   11.1490 N   0  0  0  0  0  0  0  0  0  0  0  0
   10.4699    7.1031   10.9244 C   0  0  0  0  0  0  0  0  0  0  0  0
    9.9353    7.9125   12.0861 C   0  0  0  0  0  0  0  0  0  0  0  0
    9.0020    7.0866   12.7953 N   0  0  0  0  0  0  0  0  0  0  0  0
    9.4786    5.8817   13.4077 C   0  0  0  0  0  0  0  0  0  0  0  0
   10.5686    5.3132   12.5344 C   0  0  0  0  0  0  0  0  0  0  0  0
    7.6509    7.4623   12.8818 C   0  0  0  0  0  0  0  0  0  0  0  0
    7.0107    7.6033   14.0542 N   0  0  0  0  0  0  0  0  0  0  0  0
    5.7449    7.9522   14.2008 C   0  0  0  0  0  0  0  0  0  0  0  0
    5.0104    8.1971   13.0528 C   0  0  0  0  0  0  0  0  0  0  0  0
    5.6228    8.0667   11.8267 C   0  0  0  0  0  0  0  0  0  0  0  0
    6.9175    7.7061   11.7686 N   0  0  0  0  0  0  0  0  0  0  0  0
    4.8680    8.3203   10.5698 C   0  0  0  0  0  0  0  0  0  0  0  0
    5.1860    8.0653   15.4967 N   0  0  0  0  0  0  0  0  0  0  0  0
    5.7181    8.9350   16.5255 C   0  0  0  0  0  0  0  0  0  0  0  0
    4.5649    9.2106   17.4894 C   0  0  0  0  0  0  0  0  0  0  0  0
    3.4273    9.4322   16.7104 O   0  0  0  0  0  0  0  0  0  0  0  0
    2.9105    8.2806   16.1618 C   0  0  0  0  0  0  0  0  0  0  0  0
    4.0204    7.2779   15.8271 C   0  0  0  0  0  0  0  0  0  0  0  0
   11.7579    4.9822   10.2946 S   0  0  0  0  0  0  0  0  0  0  0  0
   11.8790    5.6876    8.9537 O   0  0  0  0  0  0  0  0  0  0  0  0
   13.0255    5.2255   11.0613 O   0  0  0  0  0  0  0  0  0  0  0  0
   11.4922    3.2863   10.0082 C   0  0  0  0  0  0  0  0  0  0  0  0
   12.5842    2.4825    9.7104 C   0  0  0  0  0  0  0  0  0  0  0  0
   12.4500    1.1327    9.4720 C   0  0  0  0  0  0  0  0  0  0  0  0
   11.2060    0.5528    9.5257 C   0  0  0  0  0  0  0  0  0  0  0  0
   10.0938    1.3193    9.8187 C   0  0  0  0  0  0  0  0  0  0  0  0
   10.2633    2.6808   10.0553 C   0  0  0  0  0  0  0  0  0  0  0  0
   11.0380   -1.3162    9.1936 Br  0  0  0  0  0  0  0  0  0  0  0  0
 20 21  2  0  0  0
 20 22  2  0  0  0
 20  1  1  0  0  0
 20 23  1  0  0  0
  1  2  1  0  0  0
  1  6  1  0  0  0
  2  3  1  0  0  0
  3  4  1  0  0  0
  4  5  1  0  0  0
  4  7  1  0  0  0
  5  6  1  0  0  0
  7  8  2  0  0  0
  7 12  1  0  0  0
  8  9  1  0  0  0
  9 10  2  0  0  0
  9 14  1  0  0  0
 10 11  1  0  0  0
 11 12  2  0  0  0
 11 13  1  0  0  0
 14 15  1  0  0  0
 14 19  1  0  0  0
 15 16  1  0  0  0
 16 17  1  0  0  0
 17 18  1  0  0  0
 18 19  1  0  0  0
 23 24  2  0  0  0
 23 28  1  0  0  0
 24 25  1  0  0  0
 25 26  2  0  0  0
 26 27  1  0  0  0
 26 29  1  0  0  0
 27 28  2  0  0  0
M  END
> <minimizedAffinity>
-9.17755

$$$$
1089


 25 28  0  0  0  0  0  0  0  0999 V2000
   10.0569    6.9055   12.9915 N   0  0  0  0  0  0  0  0  0  0  0  0
    9.4987    6.4903   14.2196 C   0  0  0  0  0  0  0  0  0  0  0  0
    8.3122    7.2828   14.7093 C   0  0  0  0  0  0  0  0  0  0  0  0
    8.0002    8.3967   13.8701 N   0  0  0  0  0  0  0  0  0  0  0  0
    8.9908    9.0956   13.0705 C   0  0  0  0  0  0  0  0  0  0  0  0
   10.2550    8.3002   12.9239 C   0  0  0  0  0  0  0  0  0  0  0  0
    6.6624    8.8687   13.7860 C   0  0  0  0  0  0  0  0  0  0  0  0
    6.1659    9.6646   14.7792 N   0  0  0  0  0  0  0  0  0  0  0  0
    4.9163   10.1253   14.7162 C   0  0  0  0  0  0  0  0  0  0  0  0
    4.1055    9.8377   13.6992 N   0  0  0  0  0  0  0  0  0  0  0  0
    4.5699    9.0636   12.7208 C   0  0  0  0  0  0  0  0  0  0  0  0
    3.9965    8.6146   11.6007 N   0  0  0  0  0  0  0  0  0  0  0  0
    4.9012    7.8463   10.9316 C   0  0  0  0  0  0  0  0  0  0  0  0
    6.0444    7.8045   11.6165 N   0  0  0  0  0  0  0  0  0  0  0  0
    5.8660    8.5450   12.7199 C   0  0  0  0  0  0  0  0  0  0  0  0
    6.8949    7.2865   11.3284 H   0  0  0  0  0  0  0  0  0  0  0  0
    9.6745    6.0721   11.5945 S   0  0  0  0  0  0  0  0  0  0  0  0
   10.0649    6.9290   10.3954 O   0  0  0  0  0  0  0  0  0  0  0  0
    8.2242    5.7865   11.4497 O   0  0  0  0  0  0  0  0  0  0  0  0
   10.5456    4.5515   11.3756 C   0  0  0  0  0  0  0  0  0  0  0  0
   10.7247    3.6002    9.9730 S   0  0  0  0  0  0  0  0  0  0  0  0
   11.6810    2.3426   10.6065 C   0  0  0  0  0  0  0  0  0  0  0  0
   11.8379    2.7079   11.9219 C   0  0  0  0  0  0  0  0  0  0  0  0
   11.2508    3.8454   12.3101 C   0  0  0  0  0  0  0  0  0  0  0  0
   12.3774    0.7966    9.7285 Br  0  0  0  0  0  0  0  0  0  0  0  0
 17 18  2  0  0  0
 17 19  2  0  0  0
 17  1  1  0  0  0
 17 20  1  0  0  0
  1  2  1  0  0  0
  1  6  1  0  0  0
  2  3  1  0  0  0
  3  4  1  0  0  0
  4  5  1  0  0  0
  4  7  1  0  0  0
  5  6  1  0  0  0
  7  8  2  0  0  0
  7 15  1  0  0  0
  8  9  1  0  0  0
  9 10  2  0  0  0
 10 11  1  0  0  0
 11 12  1  0  0  0
 11 15  2  0  0  0
 12 13  2  0  0  0
 13 14  1  0  0  0
 14 15  1  0  0  0
 20 21  1  0  0  0
 20 24  2  0  0  0
 21 22  1  0  0  0
 22 23  2  0  0  0
 22 25  1  0  0  0
 23 24  1  0  0  0
 14 16  1  0  0  0
M  END
> <minimizedAffinity>
-8.02597

$$$$
1100


 26 29  0  0  0  0  0  0  0  0999 V2000
    9.6796    5.0250   11.2521 N   0  0  0  0  0  0  0  0  0  0  0  0
   10.2991    5.3895   10.0223 C   0  0  0  0  0  0  0  0  0  0  0  0
   11.7044    4.8430    9.8843 C   0  0  0  0  0  0  0  0  0  0  0  0
   11.7282    3.5560   10.5313 N   0  0  0  0  0  0  0  0  0  0  0  0
   11.5449    3.5669   11.9604 C   0  0  0  0  0  0  0  0  0  0  0  0
   10.5415    4.6078   12.3063 C   0  0  0  0  0  0  0  0  0  0  0  0
   11.9174    2.3392    9.8365 C   0  0  0  0  0  0  0  0  0  0  0  0
   10.9103    1.5050    9.5765 C   0  0  0  0  0  0  0  0  0  0  0  0
   11.0634    0.2485    8.8660 C   0  0  0  0  0  0  0  0  0  0  0  0
   10.0272   -0.5410    8.6365 C   0  0  0  0  0  0  0  0  0  0  0  0
   12.3498   -0.1234    8.4186 N   0  0  0  0  0  0  0  0  0  0  0  0
   13.4094    0.7985    8.7151 C   0  0  0  0  0  0  0  0  0  0  0  0
   13.2154    1.9499    9.3766 N   0  0  0  0  0  0  0  0  0  0  0  0
   14.3835    2.5860    9.4971 N   0  0  0  0  0  0  0  0  0  0  0  0
   15.3475    1.8518    8.9146 C   0  0  0  0  0  0  0  0  0  0  0  0
   14.7363    0.7542    8.4378 N   0  0  0  0  0  0  0  0  0  0  0  0
   12.5634   -0.9907    7.9074 H   0  0  0  0  0  0  0  0  0  0  0  0
    8.5783    6.2235   11.7365 S   0  0  0  0  0  0  0  0  0  0  0  0
    7.1801    5.9705   11.2352 O   0  0  0  0  0  0  0  0  0  0  0  0
    9.0177    7.5383   11.1089 O   0  0  0  0  0  0  0  0  0  0  0  0
    8.5858    6.4856   13.4795 C   0  0  0  0  0  0  0  0  0  0  0  0
    9.6397    7.4944   14.3489 S   0  0  0  0  0  0  0  0  0  0  0  0
    9.0461    7.2278   15.9215 C   0  0  0  0  0  0  0  0  0  0  0  0
    8.0211    6.3417   15.7243 C   0  0  0  0  0  0  0  0  0  0  0  0
    7.7826    5.9561   14.4480 C   0  0  0  0  0  0  0  0  0  0  0  0
    9.6410    7.9714   17.6012 Br  0  0  0  0  0  0  0  0  0  0  0  0
 18 19  2  0  0  0
 18 20  2  0  0  0
 18  1  1  0  0  0
 18 21  1  0  0  0
  1  2  1  0  0  0
  1  6  1  0  0  0
  2  3  1  0  0  0
  3  4  1  0  0  0
  4  5  1  0  0  0
  4  7  1  0  0  0
  5  6  1  0  0  0
  7  8  2  0  0  0
  7 13  1  0  0  0
  8  9  1  0  0  0
  9 10  2  0  0  0
  9 11  1  0  0  0
 11 12  1  0  0  0
 12 13  1  0  0  0
 12 16  2  0  0  0
 13 14  1  0  0  0
 14 15  2  0  0  0
 15 16  1  0  0  0
 21 22  1  0  0  0
 21 25  2  0  0  0
 22 23  1  0  0  0
 23 24  2  0  0  0
 23 26  1  0  0  0
 24 25  1  0  0  0
 11 17  1  0  0  0
M  END
> <minimizedAffinity>
-8.31167

$$$$
1101


 26 29  0  0  0  0  0  0  0  0999 V2000
   11.2283    5.5478   11.6054 N   0  0  0  0  0  0  0  0  0  0  0  0
   11.5039    6.9264   11.7564 C   0  0  0  0  0  0  0  0  0  0  0  0
   10.3382    7.7996   12.0607 C   0  0  0  0  0  0  0  0  0  0  0  0
    9.4378    7.1734   13.0418 N   0  0  0  0  0  0  0  0  0  0  0  0
    9.9613    5.9738   13.6598 C   0  0  0  0  0  0  0  0  0  0  0  0
   10.2712    5.0087   12.5315 C   0  0  0  0  0  0  0  0  0  0  0  0
    8.1717    7.7347   13.3267 C   0  0  0  0  0  0  0  0  0  0  0  0
    8.0020    9.1064   13.1837 C   0  0  0  0  0  0  0  0  0  0  0  0
    6.7500    9.6481   13.4677 C   0  0  0  0  0  0  0  0  0  0  0  0
    5.7366    8.8892   13.8636 N   0  0  0  0  0  0  0  0  0  0  0  0
    4.6789    9.6943   14.0545 C   0  0  0  0  0  0  0  0  0  0  0  0
    5.0713   10.9505   13.7675 N   0  0  0  0  0  0  0  0  0  0  0  0
    6.3426   10.9277   13.4064 N   0  0  0  0  0  0  0  0  0  0  0  0
    3.3108    9.2796   14.5042 C   0  0  0  0  0  0  0  0  0  0  0  0
    5.8817    7.6011   14.0016 N   0  0  0  0  0  0  0  0  0  0  0  0
    7.0822    7.0219   13.7380 C   0  0  0  0  0  0  0  0  0  0  0  0
   10.9951    5.0128   10.0068 S   0  0  0  0  0  0  0  0  0  0  0  0
   12.0918    5.6386    9.1537 O   0  0  0  0  0  0  0  0  0  0  0  0
    9.6977    5.5256    9.4566 O   0  0  0  0  0  0  0  0  0  0  0  0
   11.1538    3.2867    9.8239 C   0  0  0  0  0  0  0  0  0  0  0  0
   12.3824    2.6872    9.5822 C   0  0  0  0  0  0  0  0  0  0  0  0
   12.5063    1.3232    9.4375 C   0  0  0  0  0  0  0  0  0  0  0  0
   11.3695    0.5374    9.5373 C   0  0  0  0  0  0  0  0  0  0  0  0
   10.1248    1.0863    9.7778 C   0  0  0  0  0  0  0  0  0  0  0  0
   10.0451    2.4526    9.9158 C   0  0  0  0  0  0  0  0  0  0  0  0
   11.5598   -1.3581    9.3336 Br  0  0  0  0  0  0  0  0  0  0  0  0
 17 18  2  0  0  0
 17 19  2  0  0  0
 17  1  1  0  0  0
 17 20  1  0  0  0
  1  2  1  0  0  0
  1  6  1  0  0  0
  2  3  1  0  0  0
  3  4  1  0  0  0
  4  5  1  0  0  0
  4  7  1  0  0  0
  5  6  1  0  0  0
  7  8  2  0  0  0
  7 16  1  0  0  0
  8  9  1  0  0  0
  9 10  1  0  0  0
  9 13  2  0  0  0
 10 11  1  0  0  0
 10 15  1  0  0  0
 11 12  2  0  0  0
 11 14  1  0  0  0
 12 13  1  0  0  0
 15 16  2  0  0  0
 20 21  2  0  0  0
 20 25  1  0  0  0
 21 22  1  0  0  0
 22 23  2  0  0  0
 23 24  1  0  0  0
 23 26  1  0  0  0
 24 25  2  0  0  0
M  END
> <minimizedAffinity>
-8.71794

$$$$
1105


 33 36  0  0  0  0  0  0  0  0999 V2000
    7.6499    8.3820   12.4027 N   0  0  0  0  0  0  0  0  0  0  0  0
    6.5369    9.1939   12.0414 C   0  0  0  0  0  0  0  0  0  0  0  0
    5.1856    8.5695   12.3054 C   0  0  0  0  0  0  0  0  0  0  0  0
    5.1476    7.9572   13.6357 N   0  0  0  0  0  0  0  0  0  0  0  0
    6.3067    7.1393   13.9153 C   0  0  0  0  0  0  0  0  0  0  0  0
    6.4754    6.5763   14.9997 O   0  0  0  0  0  0  0  0  0  0  0  0
    7.2482    7.0684   12.7488 C   0  0  0  0  0  0  0  0  0  0  0  0
    4.3998    8.0719   14.3191 H   0  0  0  0  0  0  0  0  0  0  0  0
    8.6168    9.1923   13.5411 S   0  0  0  0  0  0  0  0  0  0  0  0
    8.1440    9.0593   14.9538 O   0  0  0  0  0  0  0  0  0  0  0  0
    8.6551   10.6873   13.2481 O   0  0  0  0  0  0  0  0  0  0  0  0
   10.2865    8.6571   13.4712 C   0  0  0  0  0  0  0  0  0  0  0  0
   10.9700    8.5010   12.2716 C   0  0  0  0  0  0  0  0  0  0  0  0
   12.2681    8.0820   12.1926 C   0  0  0  0  0  0  0  0  0  0  0  0
   12.9675    7.7920   13.3350 C   0  0  0  0  0  0  0  0  0  0  0  0
   12.3116    7.9384   14.5633 C   0  0  0  0  0  0  0  0  0  0  0  0
   11.0050    8.3612   14.6054 C   0  0  0  0  0  0  0  0  0  0  0  0
   14.7770    7.2058   13.2901 Br  0  0  0  0  0  0  0  0  0  0  0  0
    8.3032    6.0490   12.9220 C   0  0  0  0  0  0  0  0  0  0  0  0
    8.6818    5.4963   11.5995 C   0  0  0  0  0  0  0  0  0  0  0  0
    7.8452    5.6390   10.6684 O   0  0  0  0  0  0  0  0  0  0  0  0
    9.9296    4.8346   11.3862 N   0  0  0  0  0  0  0  0  0  0  0  0
   10.8756    4.6778   12.4571 C   0  0  0  0  0  0  0  0  0  0  0  0
   11.7329    3.4558   12.3438 C   0  0  0  0  0  0  0  0  0  0  0  0
   12.0100    3.0543   10.9755 N   0  0  0  0  0  0  0  0  0  0  0  0
   10.8292    2.9333   10.1339 C   0  0  0  0  0  0  0  0  0  0  0  0
   10.2313    4.3229   10.0750 C   0  0  0  0  0  0  0  0  0  0  0  0
   13.2790    2.7751   10.4507 C   0  0  0  0  0  0  0  0  0  0  0  0
   13.3834    2.0897    9.2607 C   0  0  0  0  0  0  0  0  0  0  0  0
   14.6404    1.8027    8.7511 C   0  0  0  0  0  0  0  0  0  0  0  0
   15.8007    2.1731    9.3845 C   0  0  0  0  0  0  0  0  0  0  0  0
   15.6912    2.8579   10.5727 C   0  0  0  0  0  0  0  0  0  0  0  0
   14.4367    3.1484   11.0889 C   0  0  0  0  0  0  0  0  0  0  0  0
  9 10  2  0  0  0
  9 11  2  0  0  0
  9  1  1  0  0  0
  9 12  1  0  0  0
  1  2  1  0  0  0
  1  7  1  0  0  0
  2  3  1  0  0  0
  3  4  1  0  0  0
  4  5  1  0  0  0
  5  6  2  0  0  0
  5  7  1  0  0  0
  7 19  1  0  0  0
 19 20  1  0  0  0
 20 21  2  0  0  0
 20 22  1  0  0  0
 22 23  1  0  0  0
 22 27  1  0  0  0
 23 24  1  0  0  0
 24 25  1  0  0  0
 25 26  1  0  0  0
 25 28  1  0  0  0
 26 27  1  0  0  0
 28 29  2  0  0  0
 28 33  1  0  0  0
 29 30  1  0  0  0
 30 31  2  0  0  0
 31 32  1  0  0  0
 32 33  2  0  0  0
 12 13  2  0  0  0
 12 17  1  0  0  0
 13 14  1  0  0  0
 14 15  2  0  0  0
 15 16  1  0  0  0
 15 18  1  0  0  0
 16 17  2  0  0  0
  4  8  1  0  0  0
M  END
> <minimizedAffinity>
-8.83034

$$$$
1112


 32 35  0  0  0  0  0  0  0  0999 V2000
   12.9310    6.4493   11.0123 C   0  0  0  0  0  0  0  0  0  0  0  0
    8.7301    6.8403   11.8215 C   0  0  0  0  0  0  0  0  0  0  0  0
    9.5756    7.8886   12.0432 C   0  0  0  0  0  0  0  0  0  0  0  0
   10.9403    7.7894   11.7887 C   0  0  0  0  0  0  0  0  0  0  0  0
   11.4898    6.6392   11.3063 C   0  0  0  0  0  0  0  0  0  0  0  0
   10.6392    5.5717   11.0782 C   0  0  0  0  0  0  0  0  0  0  0  0
    9.2834    5.6723   11.3312 C   0  0  0  0  0  0  0  0  0  0  0  0
    7.0026    6.9299   12.1313 S   0  0  0  0  0  0  0  0  0  0  0  0
    6.2202    6.2366   11.0695 O   0  0  0  0  0  0  0  0  0  0  0  0
    6.7646    6.1787   13.4256 O   0  0  0  0  0  0  0  0  0  0  0  0
    6.4665    8.5347   12.3655 N   0  0  0  0  0  0  0  0  0  0  0  0
    6.2585    8.8680   13.7501 C   0  0  0  0  0  0  0  0  0  0  0  0
    5.3511   10.1015   13.7701 C   0  0  0  0  0  0  0  0  0  0  0  0
    4.0557    9.7530   13.4543 O   0  0  0  0  0  0  0  0  0  0  0  0
    4.0749    8.5800   12.6789 C   0  0  0  0  0  0  0  0  0  0  0  0
    5.2067    8.7391   11.6748 C   0  0  0  0  0  0  0  0  0  0  0  0
   13.3792    5.1567   11.3547 O   0  0  0  0  0  0  0  0  0  0  0  0
   14.6951    4.7918   11.5027 C   0  0  0  0  0  0  0  0  0  0  0  0
   15.5716    5.6772   11.5478 O   0  0  0  0  0  0  0  0  0  0  0  0
   15.0784    3.3862   11.6061 C   0  0  0  0  0  0  0  0  0  0  0  0
   14.3713    2.5272   10.7025 N   0  0  0  0  0  0  0  0  0  0  0  0
   13.0732    1.9906   10.9879 C   0  0  0  0  0  0  0  0  0  0  0  0
   12.4023    2.1978   12.0391 O   0  0  0  0  0  0  0  0  0  0  0  0
   12.6428    1.1629    9.8672 C   0  0  0  0  0  0  0  0  0  0  0  0
   13.6257    1.1726    8.9124 C   0  0  0  0  0  0  0  0  0  0  0  0
   13.4703    0.4613    7.7379 C   0  0  0  0  0  0  0  0  0  0  0  0
   12.3249   -0.2740    7.4987 C   0  0  0  0  0  0  0  0  0  0  0  0
   11.3278   -0.2932    8.4512 C   0  0  0  0  0  0  0  0  0  0  0  0
   11.5091    0.4251    9.6149 C   0  0  0  0  0  0  0  0  0  0  0  0
    9.7301   -1.2937    8.1674 Br  0  0  0  0  0  0  0  0  0  0  0  0
   14.7144    2.0241    9.4225 C   0  0  0  0  0  0  0  0  0  0  0  0
   15.7902    2.2833    8.8392 O   0  0  0  0  0  0  0  0  0  0  0  0
  8  9  2  0  0  0
  8 10  2  0  0  0
  8 11  1  0  0  0
  8  2  1  0  0  0
 11 12  1  0  0  0
 11 16  1  0  0  0
 12 13  1  0  0  0
 13 14  1  0  0  0
 14 15  1  0  0  0
 15 16  1  0  0  0
  2  3  2  0  0  0
  2  7  1  0  0  0
  3  4  1  0  0  0
  4  5  2  0  0  0
  5  6  1  0  0  0
  5  1  1  0  0  0
  6  7  2  0  0  0
  1 17  1  0  0  0
 17 18  1  0  0  0
 18 19  2  0  0  0
 18 20  1  0  0  0
 20 21  1  0  0  0
 21 22  1  0  0  0
 21 31  1  0  0  0
 22 23  2  0  0  0
 22 24  1  0  0  0
 24 25  2  0  0  0
 24 29  1  0  0  0
 25 26  1  0  0  0
 25 31  1  0  0  0
 26 27  2  0  0  0
 27 28  1  0  0  0
 28 29  2  0  0  0
 28 30  1  0  0  0
 31 32  2  0  0  0
M  END
> <minimizedAffinity>
-9.82250

$$$$
1113


 28 31  0  0  0  0  0  0  0  0999 V2000
    8.7287    6.7299   11.9256 C   0  0  0  0  0  0  0  0  0  0  0  0
    9.4233    7.7001   11.3079 N   0  0  0  0  0  0  0  0  0  0  0  0
   10.7361    7.3558   11.2885 C   0  0  0  0  0  0  0  0  0  0  0  0
   10.8903    6.1650   11.8925 N   0  0  0  0  0  0  0  0  0  0  0  0
    9.6858    5.7742   12.2820 C   0  0  0  0  0  0  0  0  0  0  0  0
    7.0074    6.6626   12.2250 S   0  0  0  0  0  0  0  0  0  0  0  0
    6.3475    6.0424   11.0000 O   0  0  0  0  0  0  0  0  0  0  0  0
    6.7308    5.6908   13.3548 O   0  0  0  0  0  0  0  0  0  0  0  0
    6.2930    8.1506   12.5123 N   0  0  0  0  0  0  0  0  0  0  0  0
    5.0413    8.4157   11.9364 C   0  0  0  0  0  0  0  0  0  0  0  0
    4.1138    9.0517   12.9292 C   0  0  0  0  0  0  0  0  0  0  0  0
    4.7252   10.2019   13.3968 O   0  0  0  0  0  0  0  0  0  0  0  0
    5.8575    9.9339   14.1556 C   0  0  0  0  0  0  0  0  0  0  0  0
    6.7855    8.9577   13.5426 C   0  0  0  0  0  0  0  0  0  0  0  0
   12.1556    5.4794   12.0584 C   0  0  0  0  0  0  0  0  0  0  0  0
   12.3636    4.4542   11.0084 C   0  0  0  0  0  0  0  0  0  0  0  0
   12.0140    4.5910    9.7023 N   0  0  0  0  0  0  0  0  0  0  0  0
   12.3462    3.5010    9.0798 O   0  0  0  0  0  0  0  0  0  0  0  0
   12.8994    2.6365    9.8923 C   0  0  0  0  0  0  0  0  0  0  0  0
   12.9090    3.2405   11.1080 N   0  0  0  0  0  0  0  0  0  0  0  0
   13.4191    1.2707    9.5802 C   0  0  0  0  0  0  0  0  0  0  0  0
   12.2673    0.4804    9.0632 C   0  0  0  0  0  0  0  0  0  0  0  0
   12.4571   -0.2976    7.9318 C   0  0  0  0  0  0  0  0  0  0  0  0
   11.4550   -1.0564    7.3869 C   0  0  0  0  0  0  0  0  0  0  0  0
   10.2274   -1.0374    7.9913 C   0  0  0  0  0  0  0  0  0  0  0  0
    9.9903   -0.2899    9.1029 C   0  0  0  0  0  0  0  0  0  0  0  0
   11.0271    0.4716    9.6351 C   0  0  0  0  0  0  0  0  0  0  0  0
    8.8071   -2.0810    7.2612 Br  0  0  0  0  0  0  0  0  0  0  0  0
  6  7  2  0  0  0
  6  8  2  0  0  0
  6  9  1  0  0  0
  6  1  1  0  0  0
  9 10  1  0  0  0
  9 14  1  0  0  0
 10 11  1  0  0  0
 11 12  1  0  0  0
 12 13  1  0  0  0
 13 14  1  0  0  0
  1  2  1  0  0  0
  1  5  2  0  0  0
  2  3  2  0  0  0
  3  4  1  0  0  0
  4  5  1  0  0  0
  4 15  1  0  0  0
 15 16  1  0  0  0
 16 17  2  0  0  0
 16 20  1  0  0  0
 17 18  1  0  0  0
 18 19  1  0  0  0
 19 20  2  0  0  0
 19 21  1  0  0  0
 21 22  1  0  0  0
 22 23  2  0  0  0
 22 27  1  0  0  0
 23 24  1  0  0  0
 24 25  2  0  0  0
 25 26  1  0  0  0
 25 28  1  0  0  0
 26 27  2  0  0  0
M  END
> <minimizedAffinity>
-9.40108

$$$$
1114


 27 30  0  0  0  0  0  0  0  0999 V2000
    7.0803    7.3532   12.2497 C   0  0  0  0  0  0  0  0  0  0  0  0
    6.7755    6.4806   13.2262 N   0  0  0  0  0  0  0  0  0  0  0  0
    7.9022    5.8464   13.6000 C   0  0  0  0  0  0  0  0  0  0  0  0
    8.9464    6.2869   12.8830 N   0  0  0  0  0  0  0  0  0  0  0  0
    8.4434    7.2138   12.0519 C   0  0  0  0  0  0  0  0  0  0  0  0
    5.9755    8.4434   11.4030 S   0  0  0  0  0  0  0  0  0  0  0  0
    6.8165    9.3462   10.5406 O   0  0  0  0  0  0  0  0  0  0  0  0
    5.0638    7.6807   10.4969 O   0  0  0  0  0  0  0  0  0  0  0  0
    5.0976    9.4106   12.5067 N   0  0  0  0  0  0  0  0  0  0  0  0
    5.8845   10.0073   13.5208 C   0  0  0  0  0  0  0  0  0  0  0  0
    5.2582   10.1307   14.8706 C   0  0  0  0  0  0  0  0  0  0  0  0
    3.8818   10.3857   14.6698 O   0  0  0  0  0  0  0  0  0  0  0  0
    3.3606    9.1572   14.2528 C   0  0  0  0  0  0  0  0  0  0  0  0
    3.8353    8.8789   12.8711 C   0  0  0  0  0  0  0  0  0  0  0  0
   10.3225    5.8481   12.9930 C   0  0  0  0  0  0  0  0  0  0  0  0
   10.7879    5.1191   11.7909 C   0  0  0  0  0  0  0  0  0  0  0  0
   11.1498    5.7030   10.6330 N   0  0  0  0  0  0  0  0  0  0  0  0
   11.5012    4.7760    9.7941 O   0  0  0  0  0  0  0  0  0  0  0  0
   11.3927    3.5929   10.3340 C   0  0  0  0  0  0  0  0  0  0  0  0
   10.9470    3.8034   11.5831 N   0  0  0  0  0  0  0  0  0  0  0  0
   11.7071    2.3262    9.6712 C   0  0  0  0  0  0  0  0  0  0  0  0
   10.7446    1.3676    9.4326 C   0  0  0  0  0  0  0  0  0  0  0  0
   11.0592    0.1669    8.8003 C   0  0  0  0  0  0  0  0  0  0  0  0
   12.3455   -0.1034    8.3903 C   0  0  0  0  0  0  0  0  0  0  0  0
   13.3094    0.8525    8.6270 C   0  0  0  0  0  0  0  0  0  0  0  0
   12.9913    2.0557    9.2620 C   0  0  0  0  0  0  0  0  0  0  0  0
    9.7093   -1.1489    8.4796 Br  0  0  0  0  0  0  0  0  0  0  0  0
  6  7  2  0  0  0
  6  8  2  0  0  0
  6  9  1  0  0  0
  6  1  1  0  0  0
  9 10  1  0  0  0
  9 14  1  0  0  0
 10 11  1  0  0  0
 11 12  1  0  0  0
 12 13  1  0  0  0
 13 14  1  0  0  0
  1  2  1  0  0  0
  1  5  2  0  0  0
  2  3  2  0  0  0
  3  4  1  0  0  0
  4  5  1  0  0  0
  4 15  1  0  0  0
 15 16  1  0  0  0
 16 17  2  0  0  0
 16 20  1  0  0  0
 17 18  1  0  0  0
 18 19  1  0  0  0
 19 20  2  0  0  0
 19 21  1  0  0  0
 21 22  2  0  0  0
 21 26  1  0  0  0
 22 23  1  0  0  0
 23 24  2  0  0  0
 23 27  1  0  0  0
 24 25  1  0  0  0
 25 26  2  0  0  0
M  END
> <minimizedAffinity>
-9.16603

$$$$
1130


 29 32  0  0  0  0  0  0  0  0999 V2000
   12.2514    4.8082   11.2355 C   0  0  0  0  0  0  0  0  0  0  0  0
   10.9982    4.3227   11.2546 N   0  0  0  0  0  0  0  0  0  0  0  0
   10.6325    3.2066   10.6450 N   0  0  0  0  0  0  0  0  0  0  0  0
   11.5255    2.4719    9.9481 C   0  0  0  0  0  0  0  0  0  0  0  0
   12.8192    2.9512    9.9138 C   0  0  0  0  0  0  0  0  0  0  0  0
   13.5154    2.0654    9.1736 N   0  0  0  0  0  0  0  0  0  0  0  0
   12.7279    1.0647    8.7474 C   0  0  0  0  0  0  0  0  0  0  0  0
   11.4547    1.2947    9.2225 C   0  0  0  0  0  0  0  0  0  0  0  0
   10.3921    0.4425    8.9624 C   0  0  0  0  0  0  0  0  0  0  0  0
   10.6603   -0.6730    8.1887 C   0  0  0  0  0  0  0  0  0  0  0  0
   11.9254   -0.9261    7.6992 C   0  0  0  0  0  0  0  0  0  0  0  0
   12.9640   -0.0684    7.9701 C   0  0  0  0  0  0  0  0  0  0  0  0
    9.1944   -1.8482    7.8290 Br  0  0  0  0  0  0  0  0  0  0  0  0
   14.9309    2.2084    8.8949 C   0  0  0  0  0  0  0  0  0  0  0  0
   13.1714    4.1070   10.5515 N   0  0  0  0  0  0  0  0  0  0  0  0
   12.6750    6.3394   12.0923 S   0  0  0  0  0  0  0  0  0  0  0  0
   11.3376    6.7213   13.2551 C   0  0  0  0  0  0  0  0  0  0  0  0
   10.0857    6.9468   12.4767 C   0  0  0  0  0  0  0  0  0  0  0  0
   10.0660    7.7497   11.4901 O   0  0  0  0  0  0  0  0  0  0  0  0
    8.8839    6.2845   12.8020 N   0  0  0  0  0  0  0  0  0  0  0  0
    8.8843    5.6239   13.6085 H   0  0  0  0  0  0  0  0  0  0  0  0
    7.6965    6.4988   12.0612 C   0  0  0  0  0  0  0  0  0  0  0  0
    7.1814    5.7371   11.0820 N   0  0  0  0  0  0  0  0  0  0  0  0
    6.0715    6.2579   10.6362 O   0  0  0  0  0  0  0  0  0  0  0  0
    5.8535    7.3402   11.3027 N   0  0  0  0  0  0  0  0  0  0  0  0
    6.8150    7.5642   12.2074 C   0  0  0  0  0  0  0  0  0  0  0  0
    6.8894    8.6537   13.1019 N   0  0  0  0  0  0  0  0  0  0  0  0
    7.3228    8.5176   14.0342 H   0  0  0  0  0  0  0  0  0  0  0  0
    6.5256    9.5995   12.8667 H   0  0  0  0  0  0  0  0  0  0  0  0
 16 17  1  0  0  0
 16  1  1  0  0  0
 17 18  1  0  0  0
 18 19  2  0  0  0
 18 20  1  0  0  0
 20 22  1  0  0  0
 22 23  2  0  0  0
 22 26  1  0  0  0
 23 24  1  0  0  0
 24 25  1  0  0  0
 25 26  2  0  0  0
 26 27  1  0  0  0
  1  2  2  0  0  0
  1 15  1  0  0  0
  2  3  1  0  0  0
  3  4  2  0  0  0
  4  5  1  0  0  0
  4  8  1  0  0  0
  5  6  1  0  0  0
  5 15  2  0  0  0
  6  7  1  0  0  0
  6 14  1  0  0  0
  7  8  2  0  0  0
  7 12  1  0  0  0
  8  9  1  0  0  0
  9 10  2  0  0  0
 10 11  1  0  0  0
 10 13  1  0  0  0
 11 12  2  0  0  0
 20 21  1  0  0  0
 27 28  1  0  0  0
 27 29  1  0  0  0
M  END
> <minimizedAffinity>
-9.38245

$$$$
1133


 35 38  0  0  0  0  0  0  0  0999 V2000
   10.4679    6.0254   11.2869 C   0  0  0  0  0  0  0  0  0  0  0  0
    9.6087    6.8247   11.9191 N   0  0  0  0  0  0  0  0  0  0  0  0
   10.3341    7.8572   12.4246 C   0  0  0  0  0  0  0  0  0  0  0  0
   10.1178    8.9325   13.1979 N   0  0  0  0  0  0  0  0  0  0  0  0
   11.0499    9.7910   13.6248 C   0  0  0  0  0  0  0  0  0  0  0  0
   12.3623    9.5668   13.2314 N   0  0  0  0  0  0  0  0  0  0  0  0
   12.6689    8.5409   12.4770 C   0  0  0  0  0  0  0  0  0  0  0  0
   11.6925    7.6618   12.0541 C   0  0  0  0  0  0  0  0  0  0  0  0
   11.7091    6.5267   11.3663 N   0  0  0  0  0  0  0  0  0  0  0  0
   13.9472    8.2787   12.0524 O   0  0  0  0  0  0  0  0  0  0  0  0
   10.8061   10.9085   14.4926 N   0  0  0  0  0  0  0  0  0  0  0  0
   14.2457    8.3490   11.0863 H   0  0  0  0  0  0  0  0  0  0  0  0
   10.8352   11.8951   14.2445 H   0  0  0  0  0  0  0  0  0  0  0  0
   10.6073   10.6809   15.5285 H   0  0  0  0  0  0  0  0  0  0  0  0
    8.1911    6.7411   12.0627 C   0  0  0  0  0  0  0  0  0  0  0  0
    7.4807    7.7191   11.3323 O   0  0  0  0  0  0  0  0  0  0  0  0
    6.1821    7.4697   11.8329 C   0  0  0  0  0  0  0  0  0  0  0  0
    6.4862    7.7265   13.3320 C   0  0  0  0  0  0  0  0  0  0  0  0
    7.6573    6.7434   13.4588 C   0  0  0  0  0  0  0  0  0  0  0  0
    7.0934    5.4865   13.7974 O   0  0  0  0  0  0  0  0  0  0  0  0
    5.4304    7.4115   14.1437 O   0  0  0  0  0  0  0  0  0  0  0  0
    6.9398    5.5465   14.7666 H   0  0  0  0  0  0  0  0  0  0  0  0
    5.3317    8.0901   14.8538 H   0  0  0  0  0  0  0  0  0  0  0  0
    5.1767    8.4139   11.2926 C   0  0  0  0  0  0  0  0  0  0  0  0
    5.1147    8.3258    9.8965 O   0  0  0  0  0  0  0  0  0  0  0  0
    5.8784    7.7392    9.6048 H   0  0  0  0  0  0  0  0  0  0  0  0
   10.0762    4.4491   10.5157 S   0  0  0  0  0  0  0  0  0  0  0  0
   10.9345    3.0719   11.3960 C   0  0  0  0  0  0  0  0  0  0  0  0
   11.3803    2.0580   10.4133 C   0  0  0  0  0  0  0  0  0  0  0  0
   12.6847    1.8794   10.0227 C   0  0  0  0  0  0  0  0  0  0  0  0
   13.0314    1.0364    9.0247 C   0  0  0  0  0  0  0  0  0  0  0  0
   12.0791    0.2916    8.3385 C   0  0  0  0  0  0  0  0  0  0  0  0
   10.7367    0.4519    8.7096 C   0  0  0  0  0  0  0  0  0  0  0  0
   10.3959    1.3195    9.7291 C   0  0  0  0  0  0  0  0  0  0  0  0
   13.9986    2.7941   11.0692 Br  0  0  0  0  0  0  0  0  0  0  0  0
 27 28  1  0  0  0
 27  1  1  0  0  0
 28 29  1  0  0  0
 29 30  2  0  0  0
 29 34  1  0  0  0
 30 31  1  0  0  0
 30 35  1  0  0  0
 31 32  2  0  0  0
 32 33  1  0  0  0
 33 34  2  0  0  0
  1  2  1  0  0  0
  1  9  2  0  0  0
  2  3  1  0  0  0
  2 15  1  0  0  0
  3  4  2  0  0  0
  3  8  1  0  0  0
  4  5  1  0  0  0
  5  6  2  0  0  0
  5 11  1  0  0  0
  6  7  1  0  0  0
  7  8  2  0  0  0
  7 10  1  0  0  0
  8  9  1  0  0  0
 15 16  1  0  0  0
 15 19  1  0  0  0
 16 17  1  0  0  0
 17 18  1  0  0  0
 17 24  1  0  0  0
 18 19  1  0  0  0
 18 21  1  0  0  0
 19 20  1  0  0  0
 24 25  1  0  0  0
 10 12  1  0  0  0
 11 13  1  0  0  0
 11 14  1  0  0  0
 20 22  1  0  0  0
 21 23  1  0  0  0
 25 26  1  0  0  0
M  END
> <minimizedAffinity>
-9.23491

$$$$
1143


 33 37  0  0  0  0  0  0  0  0999 V2000
    7.1999    8.7690   13.5616 C   0  0  0  0  0  0  0  0  0  0  0  0
    6.3848    8.6770   12.3581 N   0  0  0  0  0  0  0  0  0  0  0  0
    6.2241    7.2863   11.9699 C   0  0  0  0  0  0  0  0  0  0  0  0
    7.1626    6.3387   12.6705 C   0  0  0  0  0  0  0  0  0  0  0  0
    8.5243    6.9813   12.7182 C   0  0  0  0  0  0  0  0  0  0  0  0
    8.5282    8.3172   13.1859 C   0  0  0  0  0  0  0  0  0  0  0  0
    9.7103    9.0016   13.2456 C   0  0  0  0  0  0  0  0  0  0  0  0
   10.8665    8.3384   12.8408 C   0  0  0  0  0  0  0  0  0  0  0  0
   10.8374    7.0392   12.3918 C   0  0  0  0  0  0  0  0  0  0  0  0
    9.6500    6.3344   12.3239 C   0  0  0  0  0  0  0  0  0  0  0  0
   12.1241    6.6614   12.0678 O   0  0  0  0  0  0  0  0  0  0  0  0
   12.9365    7.8090   12.0365 C   0  0  0  0  0  0  0  0  0  0  0  0
   12.1704    8.7502   12.7881 O   0  0  0  0  0  0  0  0  0  0  0  0
    6.8838    9.4024   11.2409 C   0  0  0  0  0  0  0  0  0  0  0  0
    5.4420    9.0420   12.6080 H   0  0  0  0  0  0  0  0  0  0  0  0
    3.8034    7.3330   16.4476 S   0  0  0  0  0  0  0  0  0  0  0  0
    4.9099    8.5694   15.7859 C   0  0  0  0  0  0  0  0  0  0  0  0
    4.6240    9.2651   14.7461 N   0  0  0  0  0  0  0  0  0  0  0  0
    5.4498   10.2611   14.1662 C   0  0  0  0  0  0  0  0  0  0  0  0
    5.0261   11.2635   13.5846 O   0  0  0  0  0  0  0  0  0  0  0  0
    6.9616    9.9879   14.3233 C   0  0  0  0  0  0  0  0  0  0  0  0
    7.0437    9.8401   15.8082 C   0  0  0  0  0  0  0  0  0  0  0  0
    7.7665   10.4897   16.5661 O   0  0  0  0  0  0  0  0  0  0  0  0
    6.1980    8.8527   16.3792 N   0  0  0  0  0  0  0  0  0  0  0  0
    6.6209    8.1631   17.5195 C   0  0  0  0  0  0  0  0  0  0  0  0
    7.6141    7.1896   17.3561 C   0  0  0  0  0  0  0  0  0  0  0  0
    8.0824    6.4692   18.4336 C   0  0  0  0  0  0  0  0  0  0  0  0
    7.5570    6.7162   19.6981 C   0  0  0  0  0  0  0  0  0  0  0  0
    6.5642    7.6925   19.8515 C   0  0  0  0  0  0  0  0  0  0  0  0
    6.1096    8.4013   18.7651 C   0  0  0  0  0  0  0  0  0  0  0  0
    8.1707    5.7519   21.1997 Br  0  0  0  0  0  0  0  0  0  0  0  0
    9.7712   10.3158   13.6877 O   0  0  0  0  0  0  0  0  0  0  0  0
   10.6172   10.6311   14.7882 C   0  0  0  0  0  0  0  0  0  0  0  0
 16 17  1  0  0  0
 17 18  2  0  0  0
 17 24  1  0  0  0
 18 19  1  0  0  0
 19 20  2  0  0  0
 19 21  1  0  0  0
 21 22  1  0  0  0
 21  1  1  0  0  0
 22 23  2  0  0  0
 22 24  1  0  0  0
 24 25  1  0  0  0
 25 26  2  0  0  0
 25 30  1  0  0  0
 26 27  1  0  0  0
 27 28  2  0  0  0
 28 29  1  0  0  0
 28 31  1  0  0  0
 29 30  2  0  0  0
  1  2  1  0  0  0
  1  6  1  0  0  0
  2  3  1  0  0  0
  2 14  1  0  0  0
  3  4  1  0  0  0
  4  5  1  0  0  0
  5  6  2  0  0  0
  5 10  1  0  0  0
  6  7  1  0  0  0
  7  8  2  0  0  0
  7 32  1  0  0  0
  8  9  1  0  0  0
  8 13  1  0  0  0
  9 10  2  0  0  0
  9 11  1  0  0  0
 11 12  1  0  0  0
 12 13  1  0  0  0
 32 33  1  0  0  0
  2 15  1  0  0  0
M  CHG 1   2   1
M  END
> <minimizedAffinity>
-7.29668

$$$$
1151


 24 27  0  0  0  0  0  0  0  0999 V2000
    4.0095    9.2744   13.7240 S   0  0  0  0  0  0  0  0  0  0  0  0
    3.6363   10.5822   14.3593 O   0  0  0  0  0  0  0  0  0  0  0  0
    3.0853    8.9198   12.5926 O   0  0  0  0  0  0  0  0  0  0  0  0
    5.6944    9.2892   13.1505 C   0  0  0  0  0  0  0  0  0  0  0  0
    6.1462    7.8433   13.1532 C   0  0  0  0  0  0  0  0  0  0  0  0
    6.2780    7.3992   14.5262 N   0  0  0  0  0  0  0  0  0  0  0  0
    5.3432    7.8456   15.5379 C   0  0  0  0  0  0  0  0  0  0  0  0
    3.9402    7.9472   14.9359 C   0  0  0  0  0  0  0  0  0  0  0  0
    7.4159    6.5469   14.5333 C   0  0  0  0  0  0  0  0  0  0  0  0
    7.7481    5.7460   15.4718 O   0  0  0  0  0  0  0  0  0  0  0  0
    8.1621    6.6943   13.3325 N   0  0  0  0  0  0  0  0  0  0  0  0
    7.4739    7.6643   12.5571 C   0  0  0  0  0  0  0  0  0  0  0  0
    7.9083    8.2743   11.5359 O   0  0  0  0  0  0  0  0  0  0  0  0
    9.3856    6.0075   12.9467 C   0  0  0  0  0  0  0  0  0  0  0  0
    9.3466    5.5939   11.4858 C   0  0  0  0  0  0  0  0  0  0  0  0
   10.6344    4.8048   11.2397 C   0  0  0  0  0  0  0  0  0  0  0  0
   11.6946    5.7349   11.3691 O   0  0  0  0  0  0  0  0  0  0  0  0
   11.6504    6.7318   12.3373 C   0  0  0  0  0  0  0  0  0  0  0  0
   10.5471    6.8988   13.1249 C   0  0  0  0  0  0  0  0  0  0  0  0
   10.5030    7.8791   14.0769 C   0  0  0  0  0  0  0  0  0  0  0  0
   11.5944    8.7003   14.2287 C   0  0  0  0  0  0  0  0  0  0  0  0
   12.6957    8.5204   13.4306 C   0  0  0  0  0  0  0  0  0  0  0  0
   12.7712    7.5391   12.4587 C   0  0  0  0  0  0  0  0  0  0  0  0
   14.3033    7.3007   11.3592 Br  0  0  0  0  0  0  0  0  0  0  0  0
  1  2  2  0  0  0
  1  3  2  0  0  0
  1  4  1  0  0  0
  1  8  1  0  0  0
  4  5  1  0  0  0
  5  6  1  0  0  0
  5 12  1  0  0  0
  6  7  1  0  0  0
  6  9  1  0  0  0
  7  8  1  0  0  0
  9 10  2  0  0  0
  9 11  1  0  0  0
 11 12  1  0  0  0
 11 14  1  0  0  0
 12 13  2  0  0  0
 14 15  1  0  0  0
 14 19  1  0  0  0
 15 16  1  0  0  0
 16 17  1  0  0  0
 17 18  1  0  0  0
 18 19  2  0  0  0
 18 23  1  0  0  0
 19 20  1  0  0  0
 20 21  2  0  0  0
 21 22  1  0  0  0
 22 23  2  0  0  0
 23 24  1  0  0  0
M  END
> <minimizedAffinity>
-7.65333

$$$$
1157


 24 27  0  0  0  0  0  0  0  0999 V2000
   12.0437    3.9274   12.2072 C   0  0  0  0  0  0  0  0  0  0  0  0
   11.4563    2.5942   11.8203 C   0  0  0  0  0  0  0  0  0  0  0  0
   11.4106    2.7026   10.3698 N   0  0  0  0  0  0  0  0  0  0  0  0
   10.8474    4.0050   10.1045 C   0  0  0  0  0  0  0  0  0  0  0  0
   11.3002    4.8588   11.2739 C   0  0  0  0  0  0  0  0  0  0  0  0
   11.8482    1.6923    9.4471 C   0  0  0  0  0  0  0  0  0  0  0  0
   10.9896    0.7769    8.9598 N   0  0  0  0  0  0  0  0  0  0  0  0
   11.4289   -0.1573    8.0986 C   0  0  0  0  0  0  0  0  0  0  0  0
   12.7369   -0.2152    7.6911 C   0  0  0  0  0  0  0  0  0  0  0  0
   13.6067    0.6916    8.1676 N   0  0  0  0  0  0  0  0  0  0  0  0
   13.1558    1.6230    9.0306 C   0  0  0  0  0  0  0  0  0  0  0  0
   14.2357    2.3726    9.3251 N   0  0  0  0  0  0  0  0  0  0  0  0
   15.3063    1.9370    8.6833 N   0  0  0  0  0  0  0  0  0  0  0  0
   14.9305    0.8772    7.9479 C   0  0  0  0  0  0  0  0  0  0  0  0
   14.2567    5.1058   12.2756 C   0  0  0  0  0  0  0  0  0  0  0  0
   13.8136    6.0656   12.9535 O   0  0  0  0  0  0  0  0  0  0  0  0
   13.4562    4.0153   11.8671 N   0  0  0  0  0  0  0  0  0  0  0  0
   13.9081    3.2604   11.3050 H   0  0  0  0  0  0  0  0  0  0  0  0
   16.5978    6.4944   11.3229 S   0  0  0  0  0  0  0  0  0  0  0  0
   15.6921    5.1780   11.9196 C   0  0  0  0  0  0  0  0  0  0  0  0
   16.6261    4.1776   11.9955 C   0  0  0  0  0  0  0  0  0  0  0  0
   17.8743    4.4649   11.6202 C   0  0  0  0  0  0  0  0  0  0  0  0
   18.1210    5.7425   11.1875 C   0  0  0  0  0  0  0  0  0  0  0  0
   19.3322    3.1857   11.6554 Br  0  0  0  0  0  0  0  0  0  0  0  0
 19 20  1  0  0  0
 19 23  1  0  0  0
 20 21  2  0  0  0
 20 15  1  0  0  0
 21 22  1  0  0  0
 22 23  2  0  0  0
 22 24  1  0  0  0
 15 16  2  0  0  0
 15 17  1  0  0  0
 17  1  1  0  0  0
  1  2  1  0  0  0
  1  5  1  0  0  0
  2  3  1  0  0  0
  3  4  1  0  0  0
  3  6  1  0  0  0
  4  5  1  0  0  0
  6  7  2  0  0  0
  6 11  1  0  0  0
  7  8  1  0  0  0
  8  9  2  0  0  0
  9 10  1  0  0  0
 10 11  1  0  0  0
 10 14  1  0  0  0
 11 12  2  0  0  0
 12 13  1  0  0  0
 13 14  2  0  0  0
 17 18  1  0  0  0
M  END
> <minimizedAffinity>
-7.31190

$$$$
1160


 25 28  0  0  0  0  0  0  0  0999 V2000
    9.2800    5.4440   11.4933 C   0  0  0  0  0  0  0  0  0  0  0  0
    9.0883    6.6053   12.1450 N   0  0  0  0  0  0  0  0  0  0  0  0
    7.8254    7.0317   11.9716 C   0  0  0  0  0  0  0  0  0  0  0  0
    7.2477    6.0997   11.1952 N   0  0  0  0  0  0  0  0  0  0  0  0
    8.1314    5.1659   10.9236 O   0  0  0  0  0  0  0  0  0  0  0  0
    7.1913    8.2401   12.4990 C   0  0  0  0  0  0  0  0  0  0  0  0
    6.0058    8.3039   13.1283 N   0  0  0  0  0  0  0  0  0  0  0  0
    5.7372    9.5678   13.4733 N   0  0  0  0  0  0  0  0  0  0  0  0
    6.7664   10.3419   13.0618 C   0  0  0  0  0  0  0  0  0  0  0  0
    7.6460    9.5035   12.4654 N   0  0  0  0  0  0  0  0  0  0  0  0
    4.5509   10.0370   14.1694 C   0  0  0  0  0  0  0  0  0  0  0  0
    3.4984    9.0049   14.0557 C   0  0  0  0  0  0  0  0  0  0  0  0
    3.0625    8.4753   15.1012 O   0  0  0  0  0  0  0  0  0  0  0  0
    3.0033    8.6350   12.7835 N   0  0  0  0  0  0  0  0  0  0  0  0
    1.9699    8.4983   12.6074 H   0  0  0  0  0  0  0  0  0  0  0  0
    3.6108    8.4751   11.9436 H   0  0  0  0  0  0  0  0  0  0  0  0
   11.0009    4.3366    9.9891 C   0  0  0  0  0  0  0  0  0  0  0  0
   10.5427    4.6271   11.4249 C   0  0  0  0  0  0  0  0  0  0  0  0
   11.7688    5.2327   10.8562 C   0  0  0  0  0  0  0  0  0  0  0  0
   12.9063    0.9519    9.6592 S   0  0  0  0  0  0  0  0  0  0  0  0
   11.2550    0.6545    9.3923 C   0  0  0  0  0  0  0  0  0  0  0  0
   10.6813    1.8911    9.5310 C   0  0  0  0  0  0  0  0  0  0  0  0
   11.5136    2.9184    9.8171 C   0  0  0  0  0  0  0  0  0  0  0  0
   12.8431    2.6286    9.9398 C   0  0  0  0  0  0  0  0  0  0  0  0
   10.3587   -1.0071    8.9880 Br  0  0  0  0  0  0  0  0  0  0  0  0
 20 21  1  0  0  0
 20 24  1  0  0  0
 21 22  2  0  0  0
 21 25  1  0  0  0
 22 23  1  0  0  0
 23 24  2  0  0  0
 23 17  1  0  0  0
 17 18  1  0  0  0
 17 19  1  0  0  0
 18 19  1  0  0  0
 18  1  1  0  0  0
  1  2  2  0  0  0
  1  5  1  0  0  0
  2  3  1  0  0  0
  3  4  2  0  0  0
  3  6  1  0  0  0
  4  5  1  0  0  0
  6  7  2  0  0  0
  6 10  1  0  0  0
  7  8  1  0  0  0
  8  9  1  0  0  0
  8 11  1  0  0  0
  9 10  2  0  0  0
 11 12  1  0  0  0
 12 13  2  0  0  0
 12 14  1  0  0  0
 14 15  1  0  0  0
 14 16  1  0  0  0
M  END
> <minimizedAffinity>
-7.98362

$$$$
1161


 29 32  0  0  0  0  0  0  0  0999 V2000
    8.5251    6.7061   12.3769 N   0  0  0  0  0  0  0  0  0  0  0  0
    8.9335    7.8965   12.8776 C   0  0  0  0  0  0  0  0  0  0  0  0
    7.8991    8.7823   12.8604 C   0  0  0  0  0  0  0  0  0  0  0  0
    8.0727   10.0726   13.3270 C   0  0  0  0  0  0  0  0  0  0  0  0
    9.3055   10.4488   13.8089 C   0  0  0  0  0  0  0  0  0  0  0  0
   10.3627    9.5757   13.8377 C   0  0  0  0  0  0  0  0  0  0  0  0
   10.1565    8.2985   13.3656 C   0  0  0  0  0  0  0  0  0  0  0  0
    6.8499    8.1348   12.3442 N   0  0  0  0  0  0  0  0  0  0  0  0
    7.2397    6.8617   12.0488 C   0  0  0  0  0  0  0  0  0  0  0  0
    6.4098    6.0368   11.5273 N   0  0  0  0  0  0  0  0  0  0  0  0
    6.5585    5.0695   11.2460 H   0  0  0  0  0  0  0  0  0  0  0  0
    9.3676    5.5433   12.2511 C   0  0  0  0  0  0  0  0  0  0  0  0
   10.0108    5.4665   10.9166 C   0  0  0  0  0  0  0  0  0  0  0  0
    9.8254    6.3617   10.0559 O   0  0  0  0  0  0  0  0  0  0  0  0
   12.5919    4.2216   10.6006 S   0  0  0  0  0  0  0  0  0  0  0  0
   12.7803    2.6473    9.9883 C   0  0  0  0  0  0  0  0  0  0  0  0
   11.4908    2.2592    9.7504 C   0  0  0  0  0  0  0  0  0  0  0  0
   10.5189    3.1293   10.0326 C   0  0  0  0  0  0  0  0  0  0  0  0
   10.8855    4.3502   10.5406 C   0  0  0  0  0  0  0  0  0  0  0  0
   14.4051    1.6863    9.7152 Br  0  0  0  0  0  0  0  0  0  0  0  0
    5.5273    8.7153   12.1586 C   0  0  0  0  0  0  0  0  0  0  0  0
    4.7378    8.5340   13.4640 C   0  0  0  0  0  0  0  0  0  0  0  0
    3.9184    9.6739   13.7586 N   0  0  0  0  0  0  0  0  0  0  0  0
    2.6967    9.3549   14.4696 C   0  0  0  0  0  0  0  0  0  0  0  0
    2.9588    8.5244   15.6940 C   0  0  0  0  0  0  0  0  0  0  0  0
    4.0592    9.0590   16.5475 C   0  0  0  0  0  0  0  0  0  0  0  0
    5.0983    9.8576   15.8455 C   0  0  0  0  0  0  0  0  0  0  0  0
    4.6655   10.5660   14.6115 C   0  0  0  0  0  0  0  0  0  0  0  0
    3.6198   10.1461   12.8778 H   0  0  0  0  0  0  0  0  0  0  0  0
 15 16  1  0  0  0
 15 19  1  0  0  0
 16 17  2  0  0  0
 16 20  1  0  0  0
 17 18  1  0  0  0
 18 19  2  0  0  0
 19 13  1  0  0  0
 13 14  2  0  0  0
 13 12  1  0  0  0
 12  1  1  0  0  0
  1  2  1  0  0  0
  1  9  1  0  0  0
  2  3  1  0  0  0
  2  7  2  0  0  0
  3  4  2  0  0  0
  3  8  1  0  0  0
  4  5  1  0  0  0
  5  6  2  0  0  0
  6  7  1  0  0  0
  8  9  1  0  0  0
  8 21  1  0  0  0
  9 10  2  0  0  0
 21 22  1  0  0  0
 22 23  1  0  0  0
 23 24  1  0  0  0
 23 28  1  0  0  0
 24 25  1  0  0  0
 25 26  1  0  0  0
 26 27  1  0  0  0
 27 28  1  0  0  0
 10 11  1  0  0  0
 23 29  1  0  0  0
M  CHG 1  23   1
M  END
> <minimizedAffinity>
-7.93232

$$$$
1177


 33 36  0  0  0  0  0  0  0  0999 V2000
   11.3757    7.4660   13.1608 C   0  0  0  0  0  0  0  0  0  0  0  0
   11.2566    6.9594   11.9485 C   0  0  0  0  0  0  0  0  0  0  0  0
   12.3434    6.5511   10.9978 C   0  0  0  0  0  0  0  0  0  0  0  0
   11.7742    5.4523   10.2819 N   0  0  0  0  0  0  0  0  0  0  0  0
   10.3628    5.7881   10.1726 C   0  0  0  0  0  0  0  0  0  0  0  0
    9.6092    5.2961    9.2895 O   0  0  0  0  0  0  0  0  0  0  0  0
   10.0177    6.7393   11.2138 C   0  0  0  0  0  0  0  0  0  0  0  0
    8.8789    7.2697   11.4367 O   0  0  0  0  0  0  0  0  0  0  0  0
   12.6702    7.6829   13.6861 O   0  0  0  0  0  0  0  0  0  0  0  0
    9.0971    6.7031   14.6708 S   0  0  0  0  0  0  0  0  0  0  0  0
    8.0074    7.8264   15.3491 C   0  0  0  0  0  0  0  0  0  0  0  0
    8.5395    8.9806   14.9943 N   0  0  0  0  0  0  0  0  0  0  0  0
    9.6360    9.0059   14.2957 C   0  0  0  0  0  0  0  0  0  0  0  0
   10.1978    7.8028   13.9572 C   0  0  0  0  0  0  0  0  0  0  0  0
   10.2220   10.3405   13.8529 C   0  0  0  0  0  0  0  0  0  0  0  0
    6.7523    7.5697   16.1505 C   0  0  0  0  0  0  0  0  0  0  0  0
   13.6089    6.3225   11.6827 C   0  0  0  0  0  0  0  0  0  0  0  0
   14.6345    7.2623   11.4945 C   0  0  0  0  0  0  0  0  0  0  0  0
   15.8599    7.1703   12.1036 C   0  0  0  0  0  0  0  0  0  0  0  0
   16.1207    6.1163   12.9441 C   0  0  0  0  0  0  0  0  0  0  0  0
   15.1319    5.1680   13.1560 C   0  0  0  0  0  0  0  0  0  0  0  0
   13.9118    5.2935   12.5263 C   0  0  0  0  0  0  0  0  0  0  0  0
   17.2378    8.4644   11.8292 Br  0  0  0  0  0  0  0  0  0  0  0  0
   12.3670    4.2854    9.6985 C   0  0  0  0  0  0  0  0  0  0  0  0
   12.1297    2.9940   10.4118 C   0  0  0  0  0  0  0  0  0  0  0  0
   11.6408    1.9143    9.4342 C   0  0  0  0  0  0  0  0  0  0  0  0
   12.2981    0.6921    9.7534 N   0  0  0  0  0  0  0  0  0  0  0  0
   11.9662   -0.4362    8.9435 C   0  0  0  0  0  0  0  0  0  0  0  0
   12.6011   -0.4012    7.5736 C   0  0  0  0  0  0  0  0  0  0  0  0
   13.3109    0.8174    7.4848 O   0  0  0  0  0  0  0  0  0  0  0  0
   14.3643    0.6865    8.4118 C   0  0  0  0  0  0  0  0  0  0  0  0
   13.7422    0.8337    9.7849 C   0  0  0  0  0  0  0  0  0  0  0  0
   12.0189    0.4418   10.7498 H   0  0  0  0  0  0  0  0  0  0  0  0
 10 11  1  0  0  0
 10 14  1  0  0  0
 11 12  2  0  0  0
 11 16  1  0  0  0
 12 13  1  0  0  0
 13 14  2  0  0  0
 13 15  1  0  0  0
 14  1  1  0  0  0
  1  2  2  0  0  0
  1  9  1  0  0  0
  2  3  1  0  0  0
  2  7  1  0  0  0
  3  4  1  0  0  0
  3 17  1  0  0  0
  4  5  1  0  0  0
  4 24  1  0  0  0
  5  6  2  0  0  0
  5  7  1  0  0  0
  7  8  2  0  0  0
 24 25  1  0  0  0
 25 26  1  0  0  0
 26 27  1  0  0  0
 27 28  1  0  0  0
 27 32  1  0  0  0
 28 29  1  0  0  0
 29 30  1  0  0  0
 30 31  1  0  0  0
 31 32  1  0  0  0
 17 18  2  0  0  0
 17 22  1  0  0  0
 18 19  1  0  0  0
 19 20  2  0  0  0
 19 23  1  0  0  0
 20 21  1  0  0  0
 21 22  2  0  0  0
 27 33  1  0  0  0
M  CHG 1   9  -1
M  CHG 1  27   1
M  END
> <minimizedAffinity>
-7.81996

$$$$
1178


 33 36  0  0  0  0  0  0  0  0999 V2000
    8.2821    7.3435   12.2494 C   0  0  0  0  0  0  0  0  0  0  0  0
    9.3509    8.0552   12.4533 C   0  0  0  0  0  0  0  0  0  0  0  0
   10.7085    7.7528   11.9010 C   0  0  0  0  0  0  0  0  0  0  0  0
   11.5826    8.2262   12.9412 N   0  0  0  0  0  0  0  0  0  0  0  0
   10.9339    9.3843   13.4840 C   0  0  0  0  0  0  0  0  0  0  0  0
   11.4869   10.3097   14.1053 O   0  0  0  0  0  0  0  0  0  0  0  0
    9.5107    9.3042   13.1866 C   0  0  0  0  0  0  0  0  0  0  0  0
    8.5633   10.0911   13.4584 O   0  0  0  0  0  0  0  0  0  0  0  0
    8.3637    6.1938   11.4455 O   0  0  0  0  0  0  0  0  0  0  0  0
    5.6917    8.6155   12.1657 S   0  0  0  0  0  0  0  0  0  0  0  0
    4.6087    8.5514   13.4791 C   0  0  0  0  0  0  0  0  0  0  0  0
    5.2864    7.8608   14.3733 N   0  0  0  0  0  0  0  0  0  0  0  0
    6.4805    7.4348   14.0947 C   0  0  0  0  0  0  0  0  0  0  0  0
    6.9886    7.7324   12.8533 C   0  0  0  0  0  0  0  0  0  0  0  0
    7.2774    6.5947   15.0891 C   0  0  0  0  0  0  0  0  0  0  0  0
    3.2238    9.1226   13.6234 C   0  0  0  0  0  0  0  0  0  0  0  0
   10.8332    6.3280   11.5600 C   0  0  0  0  0  0  0  0  0  0  0  0
   10.8204    5.2760   12.4344 C   0  0  0  0  0  0  0  0  0  0  0  0
   10.9445    3.9536   12.0732 C   0  0  0  0  0  0  0  0  0  0  0  0
   11.0931    3.6485   10.7440 C   0  0  0  0  0  0  0  0  0  0  0  0
   11.1146    4.6586    9.8186 C   0  0  0  0  0  0  0  0  0  0  0  0
   10.9874    5.9701   10.2137 C   0  0  0  0  0  0  0  0  0  0  0  0
   11.2641    1.8057   10.2445 Br  0  0  0  0  0  0  0  0  0  0  0  0
   12.8387    7.6391   13.3008 C   0  0  0  0  0  0  0  0  0  0  0  0
   13.8880    7.7022   12.2708 C   0  0  0  0  0  0  0  0  0  0  0  0
   14.4473    6.4685   11.7822 C   0  0  0  0  0  0  0  0  0  0  0  0
   14.5617    5.2383   12.4084 N   0  0  0  0  0  0  0  0  0  0  0  0
   15.7266    5.2362   13.3694 C   0  0  0  0  0  0  0  0  0  0  0  0
   16.9918    5.0353   12.6029 C   0  0  0  0  0  0  0  0  0  0  0  0
   16.9743    3.7355   12.1095 O   0  0  0  0  0  0  0  0  0  0  0  0
   15.9880    3.7345   11.0975 C   0  0  0  0  0  0  0  0  0  0  0  0
   14.6304    4.0221   11.6760 C   0  0  0  0  0  0  0  0  0  0  0  0
   13.7712    5.1094   13.0854 H   0  0  0  0  0  0  0  0  0  0  0  0
 10 11  1  0  0  0
 10 14  1  0  0  0
 11 12  2  0  0  0
 11 16  1  0  0  0
 12 13  1  0  0  0
 13 14  2  0  0  0
 13 15  1  0  0  0
 14  1  1  0  0  0
  1  2  2  0  0  0
  1  9  1  0  0  0
  2  3  1  0  0  0
  2  7  1  0  0  0
  3  4  1  0  0  0
  3 17  1  0  0  0
  4  5  1  0  0  0
  4 24  1  0  0  0
  5  6  2  0  0  0
  5  7  1  0  0  0
  7  8  2  0  0  0
 24 25  1  0  0  0
 25 26  1  0  0  0
 26 27  1  0  0  0
 27 28  1  0  0  0
 27 32  1  0  0  0
 28 29  1  0  0  0
 29 30  1  0  0  0
 30 31  1  0  0  0
 31 32  1  0  0  0
 17 18  2  0  0  0
 17 22  1  0  0  0
 18 19  1  0  0  0
 19 20  2  0  0  0
 20 21  1  0  0  0
 20 23  1  0  0  0
 21 22  2  0  0  0
 27 33  1  0  0  0
M  CHG 1   9  -1
M  CHG 1  27   1
M  END
> <minimizedAffinity>
-7.54875

$$$$
1180


 32 35  0  0  0  0  0  0  0  0999 V2000
    7.2630    7.3575   12.4700 C   0  0  0  0  0  0  0  0  0  0  0  0
    8.3210    8.1292   12.6043 C   0  0  0  0  0  0  0  0  0  0  0  0
    9.7600    7.8144   12.3506 C   0  0  0  0  0  0  0  0  0  0  0  0
   10.3609    8.3610   13.5049 N   0  0  0  0  0  0  0  0  0  0  0  0
    9.7283    9.6986   13.5769 C   0  0  0  0  0  0  0  0  0  0  0  0
   10.2328   10.7522   14.0491 O   0  0  0  0  0  0  0  0  0  0  0  0
    8.4023    9.5375   12.9901 C   0  0  0  0  0  0  0  0  0  0  0  0
    7.4734   10.3859   12.8177 O   0  0  0  0  0  0  0  0  0  0  0  0
    7.4077    6.0536   12.0309 O   0  0  0  0  0  0  0  0  0  0  0  0
    5.2933    8.2865   14.3590 S   0  0  0  0  0  0  0  0  0  0  0  0
    3.8270    8.9958   13.8681 C   0  0  0  0  0  0  0  0  0  0  0  0
    3.9146    8.9435   12.5539 N   0  0  0  0  0  0  0  0  0  0  0  0
    4.9627    8.4296   11.9895 C   0  0  0  0  0  0  0  0  0  0  0  0
    5.9593    7.9498   12.8060 C   0  0  0  0  0  0  0  0  0  0  0  0
    5.1026    8.4003   10.4744 C   0  0  0  0  0  0  0  0  0  0  0  0
    2.7089    9.5431   14.7137 C   0  0  0  0  0  0  0  0  0  0  0  0
   10.0672    6.5516   11.7739 C   0  0  0  0  0  0  0  0  0  0  0  0
   10.3005    5.4603   12.6158 C   0  0  0  0  0  0  0  0  0  0  0  0
   10.6193    4.2141   12.1430 C   0  0  0  0  0  0  0  0  0  0  0  0
   10.7094    4.0433   10.7777 C   0  0  0  0  0  0  0  0  0  0  0  0
   10.4832    5.1076    9.9297 C   0  0  0  0  0  0  0  0  0  0  0  0
   10.1649    6.3499   10.4280 C   0  0  0  0  0  0  0  0  0  0  0  0
   11.1491    2.3366   10.0342 Br  0  0  0  0  0  0  0  0  0  0  0  0
   11.3559    8.0678   14.4795 C   0  0  0  0  0  0  0  0  0  0  0  0
   12.7763    8.0606   14.1084 C   0  0  0  0  0  0  0  0  0  0  0  0
   13.4154    6.9147   13.6028 N   0  0  0  0  0  0  0  0  0  0  0  0
   13.6287    6.9219   12.1710 C   0  0  0  0  0  0  0  0  0  0  0  0
   14.1957    5.5508   11.8175 C   0  0  0  0  0  0  0  0  0  0  0  0
   14.6675    4.8975   12.9560 O   0  0  0  0  0  0  0  0  0  0  0  0
   15.5493    5.8069   13.5743 C   0  0  0  0  0  0  0  0  0  0  0  0
   14.8122    6.9847   14.1443 C   0  0  0  0  0  0  0  0  0  0  0  0
   13.0158    6.0495   13.9806 H   0  0  0  0  0  0  0  0  0  0  0  0
 10 11  1  0  0  0
 10 14  1  0  0  0
 11 12  2  0  0  0
 11 16  1  0  0  0
 12 13  1  0  0  0
 13 14  2  0  0  0
 13 15  1  0  0  0
 14  1  1  0  0  0
  1  2  2  0  0  0
  1  9  1  0  0  0
  2  3  1  0  0  0
  2  7  1  0  0  0
  3  4  1  0  0  0
  3 17  1  0  0  0
  4  5  1  0  0  0
  4 24  1  0  0  0
  5  6  2  0  0  0
  5  7  1  0  0  0
  7  8  2  0  0  0
 24 25  1  0  0  0
 25 26  1  0  0  0
 26 27  1  0  0  0
 26 31  1  0  0  0
 27 28  1  0  0  0
 28 29  1  0  0  0
 29 30  1  0  0  0
 30 31  1  0  0  0
 17 18  2  0  0  0
 17 22  1  0  0  0
 18 19  1  0  0  0
 19 20  2  0  0  0
 20 21  1  0  0  0
 20 23  1  0  0  0
 21 22  2  0  0  0
 26 32  1  0  0  0
M  CHG 1   9  -1
M  CHG 1  26   1
M  END
> <minimizedAffinity>
-7.98534

$$$$
1192


 27 30  0  0  0  0  0  0  0  0999 V2000
    7.2293    8.8893   12.0821 S   0  0  0  0  0  0  0  0  0  0  0  0
    6.2883    8.0439   13.2442 C   0  0  0  0  0  0  0  0  0  0  0  0
    7.1249    7.0282   13.6207 C   0  0  0  0  0  0  0  0  0  0  0  0
    8.3332    6.9725   13.0390 C   0  0  0  0  0  0  0  0  0  0  0  0
    8.6345    7.9365   12.1151 C   0  0  0  0  0  0  0  0  0  0  0  0
    9.9905    7.8567   11.4769 C   0  0  0  0  0  0  0  0  0  0  0  0
   10.9873    7.8257   12.5450 N   0  0  0  0  0  0  0  0  0  0  0  0
   10.7546    6.7933   13.5069 C   0  0  0  0  0  0  0  0  0  0  0  0
    9.4863    5.9969   13.2210 C   0  0  0  0  0  0  0  0  0  0  0  0
   10.8630    9.1086   13.2374 C   0  0  0  0  0  0  0  0  0  0  0  0
    6.5520    6.1107   14.6445 C   0  0  0  0  0  0  0  0  0  0  0  0
    7.2227    5.1287   15.0802 O   0  0  0  0  0  0  0  0  0  0  0  0
    5.2397    6.3573   15.1240 N   0  0  0  0  0  0  0  0  0  0  0  0
    4.5748    7.6259   15.0617 C   0  0  0  0  0  0  0  0  0  0  0  0
    4.9590    8.2207   13.7913 N   0  0  0  0  0  0  0  0  0  0  0  0
   11.9451    7.8168   12.1401 H   0  0  0  0  0  0  0  0  0  0  0  0
    4.7300    5.5341   15.5548 H   0  0  0  0  0  0  0  0  0  0  0  0
    4.3017    8.7949   13.2253 H   0  0  0  0  0  0  0  0  0  0  0  0
    4.9633    8.5327   16.1693 C   0  0  0  0  0  0  0  0  0  0  0  0
    6.1121    9.2953   16.1185 C   0  0  0  0  0  0  0  0  0  0  0  0
    6.4877   10.1429   17.1360 C   0  0  0  0  0  0  0  0  0  0  0  0
    5.7003   10.2506   18.2640 C   0  0  0  0  0  0  0  0  0  0  0  0
    4.5511    9.5005   18.3373 C   0  0  0  0  0  0  0  0  0  0  0  0
    4.1807    8.6525   17.3113 C   0  0  0  0  0  0  0  0  0  0  0  0
    3.4849    9.6822   19.9253 Br  0  0  0  0  0  0  0  0  0  0  0  0
    6.0732   11.1030   19.2935 O   0  0  0  0  0  0  0  0  0  0  0  0
    8.0683   11.1860   17.0540 Br  0  0  0  0  0  0  0  0  0  0  0  0
  1  2  1  0  0  0
  1  5  1  0  0  0
  2  3  2  0  0  0
  2 15  1  0  0  0
  3  4  1  0  0  0
  3 11  1  0  0  0
  4  5  2  0  0  0
  4  9  1  0  0  0
  5  6  1  0  0  0
  6  7  1  0  0  0
  7  8  1  0  0  0
  7 10  1  0  0  0
  8  9  1  0  0  0
 11 12  2  0  0  0
 11 13  1  0  0  0
 13 14  1  0  0  0
 14 15  1  0  0  0
 14 19  1  0  0  0
 19 20  2  0  0  0
 19 24  1  0  0  0
 20 21  1  0  0  0
 21 22  2  0  0  0
 21 27  1  0  0  0
 22 23  1  0  0  0
 22 26  1  0  0  0
 23 24  2  0  0  0
 23 25  1  0  0  0
  7 16  1  0  0  0
 13 17  1  0  0  0
 15 18  1  0  0  0
M  CHG 1   7   1
M  CHG 1  26  -1
M  END
> <minimizedAffinity>
-7.72462

$$$$
1193


 29 32  0  0  0  0  0  0  0  0999 V2000
    6.8218    6.1446   13.3720 S   0  0  0  0  0  0  0  0  0  0  0  0
    6.0944    7.6866   13.4528 C   0  0  0  0  0  0  0  0  0  0  0  0
    7.1481    8.5346   13.2536 C   0  0  0  0  0  0  0  0  0  0  0  0
    8.3671    7.9694   13.0640 C   0  0  0  0  0  0  0  0  0  0  0  0
    8.4298    6.5984   13.0908 C   0  0  0  0  0  0  0  0  0  0  0  0
    9.7112    5.8578   12.8980 C   0  0  0  0  0  0  0  0  0  0  0  0
   10.6365    6.5089   12.0357 N   0  0  0  0  0  0  0  0  0  0  0  0
   10.3731    7.8750   11.7360 C   0  0  0  0  0  0  0  0  0  0  0  0
    9.7104    8.6670   12.8189 C   0  0  0  0  0  0  0  0  0  0  0  0
   12.0070    6.3108   12.4919 C   0  0  0  0  0  0  0  0  0  0  0  0
    6.7650    9.9799   13.2708 C   0  0  0  0  0  0  0  0  0  0  0  0
    7.6606   10.8692   13.0976 O   0  0  0  0  0  0  0  0  0  0  0  0
    5.4156   10.3474   13.4797 N   0  0  0  0  0  0  0  0  0  0  0  0
    4.5240    9.4918   14.2312 C   0  0  0  0  0  0  0  0  0  0  0  0
    4.7373    8.1582   13.6704 N   0  0  0  0  0  0  0  0  0  0  0  0
   10.5964    5.9872   11.1051 H   0  0  0  0  0  0  0  0  0  0  0  0
    5.0541   11.2456   13.0887 H   0  0  0  0  0  0  0  0  0  0  0  0
    3.9814    7.5039   13.4087 H   0  0  0  0  0  0  0  0  0  0  0  0
    4.9718    9.5225   15.6481 C   0  0  0  0  0  0  0  0  0  0  0  0
    4.5072    8.5933   16.5539 C   0  0  0  0  0  0  0  0  0  0  0  0
    4.9101    8.6047   17.8718 C   0  0  0  0  0  0  0  0  0  0  0  0
    5.8054    9.5745   18.3038 C   0  0  0  0  0  0  0  0  0  0  0  0
    6.2863   10.5162   17.4200 C   0  0  0  0  0  0  0  0  0  0  0  0
    5.8699   10.4785   16.1263 C   0  0  0  0  0  0  0  0  0  0  0  0
    6.2264    9.6058   19.6309 O   0  0  0  0  0  0  0  0  0  0  0  0
    4.2764    7.3258   19.1349 Br  0  0  0  0  0  0  0  0  0  0  0  0
    7.1757   11.4600   17.8993 O   0  0  0  0  0  0  0  0  0  0  0  0
    8.4380   11.7341   17.3787 C   0  0  0  0  0  0  0  0  0  0  0  0
    9.3333   10.5150   17.4225 C   0  0  0  0  0  0  0  0  0  0  0  0
  1  2  1  0  0  0
  1  5  1  0  0  0
  2  3  2  0  0  0
  2 15  1  0  0  0
  3  4  1  0  0  0
  3 11  1  0  0  0
  4  5  2  0  0  0
  4  9  1  0  0  0
  5  6  1  0  0  0
  6  7  1  0  0  0
  7  8  1  0  0  0
  7 10  1  0  0  0
  8  9  1  0  0  0
 11 12  2  0  0  0
 11 13  1  0  0  0
 13 14  1  0  0  0
 14 15  1  0  0  0
 14 19  1  0  0  0
 19 20  2  0  0  0
 19 24  1  0  0  0
 20 21  1  0  0  0
 21 22  2  0  0  0
 21 26  1  0  0  0
 22 23  1  0  0  0
 22 25  1  0  0  0
 23 24  2  0  0  0
 23 27  1  0  0  0
 27 28  1  0  0  0
 28 29  1  0  0  0
  7 16  1  0  0  0
 13 17  1  0  0  0
 15 18  1  0  0  0
M  CHG 1   7   1
M  CHG 1  25  -1
M  END
> <minimizedAffinity>
-7.05357

$$$$
1206


 25 28  0  0  0  0  0  0  0  0999 V2000
   13.5000    5.1216   12.1648 S   0  0  0  0  0  0  0  0  0  0  0  0
   13.3534    6.8829   12.5628 C   0  0  0  0  0  0  0  0  0  0  0  0
   11.8747    6.9489   12.8322 C   0  0  0  0  0  0  0  0  0  0  0  0
   11.1350    6.0369   12.0134 N   0  0  0  0  0  0  0  0  0  0  0  0
   11.8315    4.9950   11.5308 C   0  0  0  0  0  0  0  0  0  0  0  0
   11.0300    4.2435   10.7672 N   0  0  0  0  0  0  0  0  0  0  0  0
    9.7994    4.8028   10.7549 C   0  0  0  0  0  0  0  0  0  0  0  0
    9.8478    5.9325   11.5363 C   0  0  0  0  0  0  0  0  0  0  0  0
   13.6429    7.7452   11.3580 C   0  0  0  0  0  0  0  0  0  0  0  0
   11.3881    3.0529   10.0754 C   0  0  0  0  0  0  0  0  0  0  0  0
   12.6736    2.8169    9.6470 C   0  0  0  0  0  0  0  0  0  0  0  0
   13.0469    1.6719    8.9752 C   0  0  0  0  0  0  0  0  0  0  0  0
   12.1035    0.7047    8.7075 C   0  0  0  0  0  0  0  0  0  0  0  0
   10.7993    0.9075    9.1229 C   0  0  0  0  0  0  0  0  0  0  0  0
   10.4524    2.0622    9.7944 C   0  0  0  0  0  0  0  0  0  0  0  0
   12.5840   -0.8966    7.7770 Br  0  0  0  0  0  0  0  0  0  0  0  0
    8.7274    6.8137   11.7654 C   0  0  0  0  0  0  0  0  0  0  0  0
    7.4744    6.2289   12.0186 C   0  0  0  0  0  0  0  0  0  0  0  0
    6.3765    7.0060   12.2841 C   0  0  0  0  0  0  0  0  0  0  0  0
    6.4231    8.3769   12.3206 C   0  0  0  0  0  0  0  0  0  0  0  0
    7.6379    8.9738   12.0766 C   0  0  0  0  0  0  0  0  0  0  0  0
    8.7603    8.1818   11.8061 C   0  0  0  0  0  0  0  0  0  0  0  0
    5.2447    9.1073   12.6011 N   0  0  0  0  0  0  0  0  0  0  0  0
    5.2703   10.0830   13.3597 O   0  0  0  0  0  0  0  0  0  0  0  0
    4.0711    8.7267   12.0258 O   0  0  0  0  0  0  0  0  0  0  0  0
  1  2  1  0  0  0
  1  5  1  0  0  0
  2  3  1  0  0  0
  2  9  1  0  0  0
  3  4  1  0  0  0
  4  5  1  0  0  0
  4  8  1  0  0  0
  5  6  2  0  0  0
  6  7  1  0  0  0
  6 10  1  0  0  0
  7  8  2  0  0  0
  8 17  1  0  0  0
 17 18  2  0  0  0
 17 22  1  0  0  0
 18 19  1  0  0  0
 19 20  2  0  0  0
 20 21  1  0  0  0
 20 23  1  0  0  0
 21 22  2  0  0  0
 23 24  2  0  0  0
 23 25  1  0  0  0
 10 11  2  0  0  0
 10 15  1  0  0  0
 11 12  1  0  0  0
 12 13  2  0  0  0
 13 14  1  0  0  0
 13 16  1  0  0  0
 14 15  2  0  0  0
M  CHG 1  25  -1
M  END
> <minimizedAffinity>
-8.72572

$$$$
1209


 24 27  0  0  0  0  0  0  0  0999 V2000
   15.3012    5.5712   11.9373 S   0  0  0  0  0  0  0  0  0  0  0  0
   16.8146    5.2324   12.8803 C   0  0  0  0  0  0  0  0  0  0  0  0
   17.3164    3.8666   12.4478 C   0  0  0  0  0  0  0  0  0  0  0  0
   17.2537    3.7408   10.9397 C   0  0  0  0  0  0  0  0  0  0  0  0
   15.9041    3.3105   10.6130 N   0  0  0  0  0  0  0  0  0  0  0  0
   14.9015    4.0886   11.0286 C   0  0  0  0  0  0  0  0  0  0  0  0
   13.7089    3.5229   10.6291 N   0  0  0  0  0  0  0  0  0  0  0  0
   13.9659    2.4043    9.9716 C   0  0  0  0  0  0  0  0  0  0  0  0
   15.3537    2.2866    9.9717 C   0  0  0  0  0  0  0  0  0  0  0  0
   12.4522    4.1270   10.9266 C   0  0  0  0  0  0  0  0  0  0  0  0
   11.7923    4.8935    9.9820 C   0  0  0  0  0  0  0  0  0  0  0  0
   10.5610    5.4669   10.2285 C   0  0  0  0  0  0  0  0  0  0  0  0
    9.9842    5.2584   11.4656 C   0  0  0  0  0  0  0  0  0  0  0  0
   10.6492    4.4940   12.4007 C   0  0  0  0  0  0  0  0  0  0  0  0
   11.8779    3.9124   12.1760 C   0  0  0  0  0  0  0  0  0  0  0  0
    8.2734    6.0169   11.9011 Br  0  0  0  0  0  0  0  0  0  0  0  0
   13.0759    1.4384    9.3472 C   0  0  0  0  0  0  0  0  0  0  0  0
   13.4738    0.8075    8.1596 C   0  0  0  0  0  0  0  0  0  0  0  0
   12.6798   -0.1085    7.5269 C   0  0  0  0  0  0  0  0  0  0  0  0
   11.4423   -0.4787    8.0019 C   0  0  0  0  0  0  0  0  0  0  0  0
   11.0439    0.1329    9.1624 C   0  0  0  0  0  0  0  0  0  0  0  0
   11.8416    1.0752    9.8277 C   0  0  0  0  0  0  0  0  0  0  0  0
   10.6651   -1.4130    7.3315 O   0  0  0  0  0  0  0  0  0  0  0  0
    9.3883   -1.7689    7.8285 C   0  0  0  0  0  0  0  0  0  0  0  0
  1  2  1  0  0  0
  1  6  1  0  0  0
  2  3  1  0  0  0
  3  4  1  0  0  0
  4  5  1  0  0  0
  5  6  2  0  0  0
  5  9  1  0  0  0
  6  7  1  0  0  0
  7  8  1  0  0  0
  7 10  1  0  0  0
  8  9  2  0  0  0
  8 17  1  0  0  0
 17 18  2  0  0  0
 17 22  1  0  0  0
 18 19  1  0  0  0
 19 20  2  0  0  0
 20 21  1  0  0  0
 20 23  1  0  0  0
 21 22  2  0  0  0
 23 24  1  0  0  0
 10 11  2  0  0  0
 10 15  1  0  0  0
 11 12  1  0  0  0
 12 13  2  0  0  0
 13 14  1  0  0  0
 13 16  1  0  0  0
 14 15  2  0  0  0
M  END
> <minimizedAffinity>
-8.17571

$$$$
1211


 26 29  0  0  0  0  0  0  0  0999 V2000
   11.1625    7.1651   14.5238 S   0  0  0  0  0  0  0  0  0  0  0  0
   12.5975    8.2748   14.2445 C   0  0  0  0  0  0  0  0  0  0  0  0
   12.2078    9.0954   13.0130 C   0  0  0  0  0  0  0  0  0  0  0  0
   12.1543    8.1445   11.8215 C   0  0  0  0  0  0  0  0  0  0  0  0
   10.8533    7.5227   11.8285 N   0  0  0  0  0  0  0  0  0  0  0  0
   10.3359    7.0690   12.9406 C   0  0  0  0  0  0  0  0  0  0  0  0
    9.0280    6.5272   12.6168 N   0  0  0  0  0  0  0  0  0  0  0  0
    9.2728    5.9531   11.3114 C   0  0  0  0  0  0  0  0  0  0  0  0
    9.8907    7.2865   10.7479 C   0  0  0  0  0  0  0  0  0  0  0  0
    8.1720    5.5756   10.6102 O   0  0  0  0  0  0  0  0  0  0  0  0
    8.4626    4.9585    9.8702 H   0  0  0  0  0  0  0  0  0  0  0  0
    7.8490    6.6396   13.3815 C   0  0  0  0  0  0  0  0  0  0  0  0
    7.0530    7.7964   13.1961 C   0  0  0  0  0  0  0  0  0  0  0  0
    5.9071    8.0201   13.9394 C   0  0  0  0  0  0  0  0  0  0  0  0
    5.4968    7.1268   14.8906 C   0  0  0  0  0  0  0  0  0  0  0  0
    6.2514    5.9904   15.0952 C   0  0  0  0  0  0  0  0  0  0  0  0
    7.4148    5.7686   14.3332 C   0  0  0  0  0  0  0  0  0  0  0  0
    3.9349    7.4020   15.9547 Br  0  0  0  0  0  0  0  0  0  0  0  0
   10.3470    4.9577   11.4031 C   0  0  0  0  0  0  0  0  0  0  0  0
   10.5433    4.1589   12.5165 C   0  0  0  0  0  0  0  0  0  0  0  0
   11.6143    3.2525   12.5424 C   0  0  0  0  0  0  0  0  0  0  0  0
   12.4743    3.1230   11.5182 C   0  0  0  0  0  0  0  0  0  0  0  0
   12.3015    3.9194   10.3671 C   0  0  0  0  0  0  0  0  0  0  0  0
   11.2341    4.8003   10.3807 C   0  0  0  0  0  0  0  0  0  0  0  0
   13.5699    2.2208   11.5065 O   0  0  0  0  0  0  0  0  0  0  0  0
   13.7758    1.3635   10.4037 C   0  0  0  0  0  0  0  0  0  0  0  0
  1  2  1  0  0  0
  1  6  1  0  0  0
  2  3  1  0  0  0
  3  4  1  0  0  0
  4  5  1  0  0  0
  5  6  2  0  0  0
  5  9  1  0  0  0
  6  7  1  0  0  0
  7  8  1  0  0  0
  7 12  1  0  0  0
  8  9  1  0  0  0
  8 10  1  0  0  0
  8 19  1  0  0  0
 19 20  2  0  0  0
 19 24  1  0  0  0
 20 21  1  0  0  0
 21 22  2  0  0  0
 22 23  1  0  0  0
 22 25  1  0  0  0
 23 24  2  0  0  0
 25 26  1  0  0  0
 12 13  2  0  0  0
 12 17  1  0  0  0
 13 14  1  0  0  0
 14 15  2  0  0  0
 15 16  1  0  0  0
 15 18  1  0  0  0
 16 17  2  0  0  0
 10 11  1  0  0  0
M  END
> <minimizedAffinity>
-6.55946

$$$$
1217


 28 31  0  0  0  0  0  0  0  0999 V2000
    5.1578    8.6111   12.7886 S   0  0  0  0  0  0  0  0  0  0  0  0
    3.5102    9.0632   13.2729 C   0  0  0  0  0  0  0  0  0  0  0  0
    3.4700    9.3134   14.7671 C   0  0  0  0  0  0  0  0  0  0  0  0
    3.8711    8.0448   15.4989 C   0  0  0  0  0  0  0  0  0  0  0  0
    5.2994    7.8480   15.3975 N   0  0  0  0  0  0  0  0  0  0  0  0
    6.3111    7.6789   16.3893 C   0  0  0  0  0  0  0  0  0  0  0  0
    7.2426    6.7356   15.6443 C   0  0  0  0  0  0  0  0  0  0  0  0
    7.1522    7.2005   14.2785 N   0  0  0  0  0  0  0  0  0  0  0  0
    6.0137    7.7878   14.1501 C   0  0  0  0  0  0  0  0  0  0  0  0
    5.7813    7.0671   17.5206 O   0  0  0  0  0  0  0  0  0  0  0  0
    4.9052    6.6693   17.3136 H   0  0  0  0  0  0  0  0  0  0  0  0
    7.0841    8.8899   16.7277 C   0  0  0  0  0  0  0  0  0  0  0  0
    6.6413   10.1731   16.6601 C   0  0  0  0  0  0  0  0  0  0  0  0
    7.4739   11.2504   16.9705 C   0  0  0  0  0  0  0  0  0  0  0  0
    8.7830   11.0534   17.3573 C   0  0  0  0  0  0  0  0  0  0  0  0
    9.2365    9.7723   17.4282 C   0  0  0  0  0  0  0  0  0  0  0  0
    8.4213    8.7179   17.1243 C   0  0  0  0  0  0  0  0  0  0  0  0
    9.9163   12.5433   17.7742 Br  0  0  0  0  0  0  0  0  0  0  0  0
    8.1347    7.0837   13.2597 C   0  0  0  0  0  0  0  0  0  0  0  0
    8.9722    8.1736   13.0620 C   0  0  0  0  0  0  0  0  0  0  0  0
    9.9479    8.1442   12.0604 C   0  0  0  0  0  0  0  0  0  0  0  0
   10.0756    7.0218   11.2611 C   0  0  0  0  0  0  0  0  0  0  0  0
    9.2640    5.9254   11.4296 C   0  0  0  0  0  0  0  0  0  0  0  0
    8.3027    6.0181   12.4550 C   0  0  0  0  0  0  0  0  0  0  0  0
    9.3418    4.7745   10.6645 O   0  0  0  0  0  0  0  0  0  0  0  0
   10.5175    4.1669   10.2108 C   0  0  0  0  0  0  0  0  0  0  0  0
    8.8396    9.2906   13.8585 O   0  0  0  0  0  0  0  0  0  0  0  0
    8.4332   10.5627   13.4116 C   0  0  0  0  0  0  0  0  0  0  0  0
  1  2  1  0  0  0
  1  9  1  0  0  0
  2  3  1  0  0  0
  3  4  1  0  0  0
  4  5  1  0  0  0
  5  6  1  0  0  0
  5  9  1  0  0  0
  6  7  1  0  0  0
  6 10  1  0  0  0
  6 12  1  0  0  0
  7  8  1  0  0  0
  8  9  2  0  0  0
  8 19  1  0  0  0
 19 20  2  0  0  0
 19 24  1  0  0  0
 20 21  1  0  0  0
 20 27  1  0  0  0
 21 22  2  0  0  0
 22 23  1  0  0  0
 23 24  2  0  0  0
 23 25  1  0  0  0
 25 26  1  0  0  0
 27 28  1  0  0  0
 12 13  2  0  0  0
 12 17  1  0  0  0
 13 14  1  0  0  0
 14 15  2  0  0  0
 15 16  1  0  0  0
 15 18  1  0  0  0
 16 17  2  0  0  0
 10 11  1  0  0  0
M  END
> <minimizedAffinity>
-6.47675

$$$$
1219


 27 30  0  0  0  0  0  0  0  0999 V2000
   12.7657    7.4293   12.2211 S   0  0  0  0  0  0  0  0  0  0  0  0
   13.9067    8.0206   13.5389 C   0  0  0  0  0  0  0  0  0  0  0  0
   13.1430    8.1161   14.8483 C   0  0  0  0  0  0  0  0  0  0  0  0
   11.8080    8.7859   14.6501 C   0  0  0  0  0  0  0  0  0  0  0  0
   10.8612    7.8426   14.1463 N   0  0  0  0  0  0  0  0  0  0  0  0
    9.4723    7.5023   14.3936 C   0  0  0  0  0  0  0  0  0  0  0  0
    9.4114    6.0289   14.0316 C   0  0  0  0  0  0  0  0  0  0  0  0
   10.4919    5.9308   13.0299 N   0  0  0  0  0  0  0  0  0  0  0  0
   11.2758    6.9306   13.1168 C   0  0  0  0  0  0  0  0  0  0  0  0
    9.0971    7.7361   15.7018 O   0  0  0  0  0  0  0  0  0  0  0  0
    8.9739    6.9525   16.2560 H   0  0  0  0  0  0  0  0  0  0  0  0
   10.6347    4.8499   12.1126 C   0  0  0  0  0  0  0  0  0  0  0  0
   10.2195    4.8346   10.8136 C   0  0  0  0  0  0  0  0  0  0  0  0
   10.4084    3.7503    9.9677 C   0  0  0  0  0  0  0  0  0  0  0  0
   11.0439    2.6198   10.4393 C   0  0  0  0  0  0  0  0  0  0  0  0
   11.4805    2.5993   11.7589 C   0  0  0  0  0  0  0  0  0  0  0  0
   11.2799    3.6969   12.5867 C   0  0  0  0  0  0  0  0  0  0  0  0
   11.3459    1.0734    9.3535 Br  0  0  0  0  0  0  0  0  0  0  0  0
    8.5587    8.2314   13.4821 C   0  0  0  0  0  0  0  0  0  0  0  0
    7.6791    7.5261   12.6845 C   0  0  0  0  0  0  0  0  0  0  0  0
    6.8375    8.2529   11.8424 C   0  0  0  0  0  0  0  0  0  0  0  0
    6.8797    9.6138   11.8056 C   0  0  0  0  0  0  0  0  0  0  0  0
    7.7545   10.3331   12.5994 C   0  0  0  0  0  0  0  0  0  0  0  0
    8.5958    9.5968   13.4420 C   0  0  0  0  0  0  0  0  0  0  0  0
    5.9304    7.5377   11.0200 N   0  0  0  0  0  0  0  0  0  0  0  0
    5.9463    6.2937   10.9513 O   0  0  0  0  0  0  0  0  0  0  0  0
    4.9957    8.1873   10.2647 O   0  0  0  0  0  0  0  0  0  0  0  0
  1  2  1  0  0  0
  1  9  1  0  0  0
  2  3  1  0  0  0
  3  4  1  0  0  0
  4  5  1  0  0  0
  5  6  1  0  0  0
  5  9  1  0  0  0
  6  7  1  0  0  0
  6 10  1  0  0  0
  6 19  1  0  0  0
  7  8  1  0  0  0
  8  9  2  0  0  0
  8 12  1  0  0  0
 12 13  2  0  0  0
 12 17  1  0  0  0
 13 14  1  0  0  0
 14 15  2  0  0  0
 15 16  1  0  0  0
 15 18  1  0  0  0
 16 17  2  0  0  0
 19 20  2  0  0  0
 19 24  1  0  0  0
 20 21  1  0  0  0
 21 22  2  0  0  0
 21 25  1  0  0  0
 22 23  1  0  0  0
 23 24  2  0  0  0
 25 26  2  0  0  0
 25 27  1  0  0  0
 10 11  1  0  0  0
M  CHG 1  27  -1
M  END
> <minimizedAffinity>
-8.06578

$$$$
1220


 27 30  0  0  0  0  0  0  0  0999 V2000
   12.9969    7.3328   12.7791 S   0  0  0  0  0  0  0  0  0  0  0  0
   12.8469    7.9830   14.4919 C   0  0  0  0  0  0  0  0  0  0  0  0
   11.5395    8.5939   14.7754 C   0  0  0  0  0  0  0  0  0  0  0  0
   10.6041    8.8583   13.6677 C   0  0  0  0  0  0  0  0  0  0  0  0
   10.3435    7.8253   12.7512 N   0  0  0  0  0  0  0  0  0  0  0  0
    9.2243    7.4779   11.9295 C   0  0  0  0  0  0  0  0  0  0  0  0
    9.3280    5.9686   11.9386 C   0  0  0  0  0  0  0  0  0  0  0  0
   10.7617    5.7724   11.9693 N   0  0  0  0  0  0  0  0  0  0  0  0
   11.3129    6.7956   12.4266 C   0  0  0  0  0  0  0  0  0  0  0  0
    9.4761    7.8819   10.6158 O   0  0  0  0  0  0  0  0  0  0  0  0
    9.1572    7.1954   10.0076 H   0  0  0  0  0  0  0  0  0  0  0  0
   11.4377    4.5904   11.5245 C   0  0  0  0  0  0  0  0  0  0  0  0
   11.8963    4.5436   10.2155 C   0  0  0  0  0  0  0  0  0  0  0  0
   12.5435    3.4195    9.7073 C   0  0  0  0  0  0  0  0  0  0  0  0
   12.7470    2.3103   10.4978 C   0  0  0  0  0  0  0  0  0  0  0  0
   12.2987    2.3417   11.7961 C   0  0  0  0  0  0  0  0  0  0  0  0
   11.6499    3.4850   12.2791 C   0  0  0  0  0  0  0  0  0  0  0  0
   13.6261    0.7549    9.7843 Br  0  0  0  0  0  0  0  0  0  0  0  0
    7.9034    7.9398   12.3965 C   0  0  0  0  0  0  0  0  0  0  0  0
    7.3549    9.0487   11.7591 C   0  0  0  0  0  0  0  0  0  0  0  0
    6.1258    9.5527   12.1215 C   0  0  0  0  0  0  0  0  0  0  0  0
    5.3757    8.9826   13.1349 C   0  0  0  0  0  0  0  0  0  0  0  0
    5.9144    7.8799   13.7696 C   0  0  0  0  0  0  0  0  0  0  0  0
    7.1636    7.3705   13.3998 C   0  0  0  0  0  0  0  0  0  0  0  0
    4.1136    9.5180   13.4868 N   0  0  0  0  0  0  0  0  0  0  0  0
    3.9575   10.3907   14.3484 O   0  0  0  0  0  0  0  0  0  0  0  0
    2.9938    9.0576   12.8424 O   0  0  0  0  0  0  0  0  0  0  0  0
  1  2  1  0  0  0
  1  9  1  0  0  0
  2  3  1  0  0  0
  3  4  1  0  0  0
  4  5  1  0  0  0
  5  6  1  0  0  0
  5  9  1  0  0  0
  6  7  1  0  0  0
  6 10  1  0  0  0
  6 19  1  0  0  0
  7  8  1  0  0  0
  8  9  2  0  0  0
  8 12  1  0  0  0
 12 13  2  0  0  0
 12 17  1  0  0  0
 13 14  1  0  0  0
 14 15  2  0  0  0
 15 16  1  0  0  0
 15 18  1  0  0  0
 16 17  2  0  0  0
 19 20  2  0  0  0
 19 24  1  0  0  0
 20 21  1  0  0  0
 21 22  2  0  0  0
 22 23  1  0  0  0
 22 25  1  0  0  0
 23 24  2  0  0  0
 25 26  2  0  0  0
 25 27  1  0  0  0
 10 11  1  0  0  0
M  CHG 1  27  -1
M  END
> <minimizedAffinity>
-8.34483

$$$$
1222


 24 27  0  0  0  0  0  0  0  0999 V2000
   10.1435    5.4645   13.1495 S   0  0  0  0  0  0  0  0  0  0  0  0
    8.8538    6.7764   12.9660 C   0  0  0  0  0  0  0  0  0  0  0  0
    9.4560    8.0201   12.3654 C   0  0  0  0  0  0  0  0  0  0  0  0
   10.9266    8.1984   12.6749 C   0  0  0  0  0  0  0  0  0  0  0  0
   11.7753    7.2996   11.9956 N   0  0  0  0  0  0  0  0  0  0  0  0
   13.0946    7.2498   11.3415 C   0  0  0  0  0  0  0  0  0  0  0  0
   12.7296    6.3124   10.2152 C   0  0  0  0  0  0  0  0  0  0  0  0
   11.9117    5.3307   10.9121 N   0  0  0  0  0  0  0  0  0  0  0  0
   11.3297    5.9233   11.8437 C   0  0  0  0  0  0  0  0  0  0  0  0
   13.4972    8.4548   10.8529 O   0  0  0  0  0  0  0  0  0  0  0  0
   13.4495    9.2179   11.4810 H   0  0  0  0  0  0  0  0  0  0  0  0
   11.8548    3.9208   10.6059 C   0  0  0  0  0  0  0  0  0  0  0  0
   12.8610    3.0313   10.8153 C   0  0  0  0  0  0  0  0  0  0  0  0
   12.7816    1.6898   10.4627 C   0  0  0  0  0  0  0  0  0  0  0  0
   11.6414    1.2135    9.8713 C   0  0  0  0  0  0  0  0  0  0  0  0
   10.6157    2.1140    9.6575 C   0  0  0  0  0  0  0  0  0  0  0  0
   10.6963    3.4339   10.0051 C   0  0  0  0  0  0  0  0  0  0  0  0
   11.4425   -0.6223    9.3463 Br  0  0  0  0  0  0  0  0  0  0  0  0
   14.1031    6.5895   12.2352 C   0  0  0  0  0  0  0  0  0  0  0  0
   14.9592    5.5980   11.7958 C   0  0  0  0  0  0  0  0  0  0  0  0
   15.8686    5.0438   12.6873 C   0  0  0  0  0  0  0  0  0  0  0  0
   15.9600    5.4452   14.0138 C   0  0  0  0  0  0  0  0  0  0  0  0
   15.1158    6.4272   14.4559 C   0  0  0  0  0  0  0  0  0  0  0  0
   14.1996    6.9835   13.5642 C   0  0  0  0  0  0  0  0  0  0  0  0
  1  2  1  0  0  0
  1  9  1  0  0  0
  2  3  1  0  0  0
  3  4  1  0  0  0
  4  5  1  0  0  0
  5  6  1  0  0  0
  5  9  1  0  0  0
  6  7  1  0  0  0
  6 10  1  0  0  0
  6 19  1  0  0  0
  7  8  1  0  0  0
  8  9  2  0  0  0
  8 12  1  0  0  0
 12 13  2  0  0  0
 12 17  1  0  0  0
 13 14  1  0  0  0
 14 15  2  0  0  0
 15 16  1  0  0  0
 15 18  1  0  0  0
 16 17  2  0  0  0
 19 20  2  0  0  0
 19 24  1  0  0  0
 20 21  1  0  0  0
 21 22  2  0  0  0
 22 23  1  0  0  0
 23 24  2  0  0  0
 10 11  1  0  0  0
M  END
> <minimizedAffinity>
-7.07501

$$$$
1224


 26 29  0  0  0  0  0  0  0  0999 V2000
   10.0301    5.3103   13.1306 S   0  0  0  0  0  0  0  0  0  0  0  0
    8.8435    6.7095   13.2646 C   0  0  0  0  0  0  0  0  0  0  0  0
    9.6943    7.9226   13.6112 C   0  0  0  0  0  0  0  0  0  0  0  0
   10.5603    8.3455   12.4665 C   0  0  0  0  0  0  0  0  0  0  0  0
   11.5495    7.3889   12.0757 N   0  0  0  0  0  0  0  0  0  0  0  0
   12.9544    7.4427   11.6607 C   0  0  0  0  0  0  0  0  0  0  0  0
   12.8510    6.4063   10.5259 C   0  0  0  0  0  0  0  0  0  0  0  0
   12.0226    5.3866   11.1430 N   0  0  0  0  0  0  0  0  0  0  0  0
   11.2876    5.9608   12.0065 C   0  0  0  0  0  0  0  0  0  0  0  0
   13.2493    8.6926   11.1693 O   0  0  0  0  0  0  0  0  0  0  0  0
   13.1416    8.7580   10.1908 H   0  0  0  0  0  0  0  0  0  0  0  0
   13.8773    6.9547   12.7007 C   0  0  0  0  0  0  0  0  0  0  0  0
   14.8059    5.9499   12.5423 C   0  0  0  0  0  0  0  0  0  0  0  0
   15.6358    5.5712   13.5845 C   0  0  0  0  0  0  0  0  0  0  0  0
   15.5465    6.1934   14.7962 C   0  0  0  0  0  0  0  0  0  0  0  0
   14.6226    7.2002   14.9719 C   0  0  0  0  0  0  0  0  0  0  0  0
   13.8068    7.5660   13.9317 C   0  0  0  0  0  0  0  0  0  0  0  0
   16.6668    5.7144   16.2824 Br  0  0  0  0  0  0  0  0  0  0  0  0
   12.0968    3.9917   10.7706 C   0  0  0  0  0  0  0  0  0  0  0  0
   11.0715    3.4199   10.0231 C   0  0  0  0  0  0  0  0  0  0  0  0
   11.1117    2.0928    9.6554 C   0  0  0  0  0  0  0  0  0  0  0  0
   12.1544    1.2597   10.0000 C   0  0  0  0  0  0  0  0  0  0  0  0
   13.1705    1.8162   10.7391 C   0  0  0  0  0  0  0  0  0  0  0  0
   13.1259    3.1690   11.1122 C   0  0  0  0  0  0  0  0  0  0  0  0
   12.1615   -0.0747    9.6089 O   0  0  0  0  0  0  0  0  0  0  0  0
   11.0399   -0.8126    9.2149 C   0  0  0  0  0  0  0  0  0  0  0  0
  1  2  1  0  0  0
  1  9  1  0  0  0
  2  3  1  0  0  0
  3  4  1  0  0  0
  4  5  1  0  0  0
  5  6  1  0  0  0
  5  9  1  0  0  0
  6  7  1  0  0  0
  6 10  1  0  0  0
  6 12  1  0  0  0
  7  8  1  0  0  0
  8  9  2  0  0  0
  8 19  1  0  0  0
 19 20  2  0  0  0
 19 24  1  0  0  0
 20 21  1  0  0  0
 21 22  2  0  0  0
 22 23  1  0  0  0
 22 25  1  0  0  0
 23 24  2  0  0  0
 25 26  1  0  0  0
 12 13  2  0  0  0
 12 17  1  0  0  0
 13 14  1  0  0  0
 14 15  2  0  0  0
 15 16  1  0  0  0
 15 18  1  0  0  0
 16 17  2  0  0  0
 10 11  1  0  0  0
M  END
> <minimizedAffinity>
-6.86081

$$$$
1226


 24 27  0  0  0  0  0  0  0  0999 V2000
   13.7031    5.0483   11.9186 S   0  0  0  0  0  0  0  0  0  0  0  0
   14.5434    6.6447   12.1149 C   0  0  0  0  0  0  0  0  0  0  0  0
   13.7006    7.6670   11.3460 C   0  0  0  0  0  0  0  0  0  0  0  0
   12.3409    7.7833   12.0531 C   0  0  0  0  0  0  0  0  0  0  0  0
   11.4869    6.6965   11.5586 N   0  0  0  0  0  0  0  0  0  0  0  0
   10.1364    6.6299   11.1732 C   0  0  0  0  0  0  0  0  0  0  0  0
   10.0083    5.3017   10.4347 C   0  0  0  0  0  0  0  0  0  0  0  0
   11.2462    4.6332   10.6949 N   0  0  0  0  0  0  0  0  0  0  0  0
   12.0274    5.4014   11.3377 C   0  0  0  0  0  0  0  0  0  0  0  0
    9.8782    7.6244   10.2035 O   0  0  0  0  0  0  0  0  0  0  0  0
    9.9399    8.4941   10.6781 H   0  0  0  0  0  0  0  0  0  0  0  0
    9.0977    6.7021   12.1987 C   0  0  0  0  0  0  0  0  0  0  0  0
    8.1175    7.6764   12.0169 C   0  0  0  0  0  0  0  0  0  0  0  0
    7.0478    7.8573   12.8740 C   0  0  0  0  0  0  0  0  0  0  0  0
    6.9145    7.0548   13.9735 C   0  0  0  0  0  0  0  0  0  0  0  0
    7.8776    6.0818   14.1720 C   0  0  0  0  0  0  0  0  0  0  0  0
    8.9486    5.9094   13.2999 C   0  0  0  0  0  0  0  0  0  0  0  0
    5.4395    7.2461   15.2022 Br  0  0  0  0  0  0  0  0  0  0  0  0
   11.5121    3.3034   10.2202 C   0  0  0  0  0  0  0  0  0  0  0  0
   10.5463    2.3564   10.3337 C   0  0  0  0  0  0  0  0  0  0  0  0
   10.8185    1.0850    9.8387 C   0  0  0  0  0  0  0  0  0  0  0  0
   12.0158    0.7548    9.2447 C   0  0  0  0  0  0  0  0  0  0  0  0
   12.9671    1.7503    9.1544 C   0  0  0  0  0  0  0  0  0  0  0  0
   12.7321    3.0164    9.6324 C   0  0  0  0  0  0  0  0  0  0  0  0
  1  2  1  0  0  0
  1  9  1  0  0  0
  2  3  1  0  0  0
  3  4  1  0  0  0
  4  5  1  0  0  0
  5  6  1  0  0  0
  5  9  1  0  0  0
  6  7  1  0  0  0
  6 10  1  0  0  0
  6 12  1  0  0  0
  7  8  1  0  0  0
  8  9  2  0  0  0
  8 19  1  0  0  0
 19 20  2  0  0  0
 19 24  1  0  0  0
 20 21  1  0  0  0
 21 22  2  0  0  0
 22 23  1  0  0  0
 23 24  2  0  0  0
 12 13  2  0  0  0
 12 17  1  0  0  0
 13 14  1  0  0  0
 14 15  2  0  0  0
 15 16  1  0  0  0
 15 18  1  0  0  0
 16 17  2  0  0  0
 10 11  1  0  0  0
M  END
> <minimizedAffinity>
-7.94490

$$$$
1231


 37 40  0  0  0  0  0  0  0  0999 V2000
    7.7701    8.1490   12.5529 C   0  0  0  0  0  0  0  0  0  0  0  0
    6.4568    8.4056   12.6007 N   0  0  0  0  0  0  0  0  0  0  0  0
    5.8749    7.4429   11.8636 N   0  0  0  0  0  0  0  0  0  0  0  0
    6.7475    6.6329   11.3825 N   0  0  0  0  0  0  0  0  0  0  0  0
    8.0168    7.0106   11.7781 C   0  0  0  0  0  0  0  0  0  0  0  0
    5.7004    9.4109   13.2706 C   0  0  0  0  0  0  0  0  0  0  0  0
    5.9185   10.7417   13.3025 N   0  0  0  0  0  0  0  0  0  0  0  0
    5.0271   11.3611   13.9814 O   0  0  0  0  0  0  0  0  0  0  0  0
    4.1835   10.4849   14.4283 N   0  0  0  0  0  0  0  0  0  0  0  0
    4.5524    9.2361   14.0139 C   0  0  0  0  0  0  0  0  0  0  0  0
    3.8729    8.0263   14.2821 N   0  0  0  0  0  0  0  0  0  0  0  0
    2.9421    8.2659   14.7146 H   0  0  0  0  0  0  0  0  0  0  0  0
    4.3898    7.3654   14.8882 H   0  0  0  0  0  0  0  0  0  0  0  0
    3.6527    7.5497   13.3654 H   0  0  0  0  0  0  0  0  0  0  0  0
    9.2157    6.2995   11.4179 C   0  0  0  0  0  0  0  0  0  0  0  0
    9.8230    6.6951   10.3459 O   0  0  0  0  0  0  0  0  0  0  0  0
    9.8203    5.2307   12.0725 N   0  0  0  0  0  0  0  0  0  0  0  0
    9.5172    4.7443   12.9332 H   0  0  0  0  0  0  0  0  0  0  0  0
   11.0302    4.6609   11.5429 N   0  0  0  0  0  0  0  0  0  0  0  0
   11.0671    3.4779   11.0714 C   0  0  0  0  0  0  0  0  0  0  0  0
   12.2702    2.8645   10.5259 C   0  0  0  0  0  0  0  0  0  0  0  0
   13.5278    3.2585   10.9235 C   0  0  0  0  0  0  0  0  0  0  0  0
   14.6763    2.6828   10.4213 C   0  0  0  0  0  0  0  0  0  0  0  0
   14.6101    1.6792    9.4895 C   0  0  0  0  0  0  0  0  0  0  0  0
   13.3438    1.2518    9.0609 C   0  0  0  0  0  0  0  0  0  0  0  0
   12.2151    1.8472    9.5820 C   0  0  0  0  0  0  0  0  0  0  0  0
   15.7774    1.1149    8.9976 O   0  0  0  0  0  0  0  0  0  0  0  0
   16.4010    3.2642   11.0049 Br  0  0  0  0  0  0  0  0  0  0  0  0
   13.3496    0.2431    8.1260 O   0  0  0  0  0  0  0  0  0  0  0  0
   12.2165   -0.2958    7.4914 C   0  0  0  0  0  0  0  0  0  0  0  0
    8.8455    8.8979   13.2217 C   0  0  0  0  0  0  0  0  0  0  0  0
    9.1658    8.5125   14.9300 S   0  0  0  0  0  0  0  0  0  0  0  0
    6.7729    8.0179   16.8988 S   0  0  0  0  0  0  0  0  0  0  0  0
    5.7025    9.3320   17.5592 C   0  0  0  0  0  0  0  0  0  0  0  0
    6.5380   10.5276   17.2309 C   0  0  0  0  0  0  0  0  0  0  0  0
    7.5664   10.2649   16.3590 N   0  0  0  0  0  0  0  0  0  0  0  0
    7.8891    9.1168   16.0266 C   0  0  0  0  0  0  0  0  0  0  0  0
 33 34  1  0  0  0
 33 37  1  0  0  0
 34 35  1  0  0  0
 35 36  1  0  0  0
 36 37  2  0  0  0
 37 32  1  0  0  0
 32 31  1  0  0  0
 31  1  1  0  0  0
  1  2  1  0  0  0
  1  5  2  0  0  0
  2  3  1  0  0  0
  2  6  1  0  0  0
  3  4  2  0  0  0
  4  5  1  0  0  0
  5 15  1  0  0  0
 15 16  2  0  0  0
 15 17  1  0  0  0
 17 19  1  0  0  0
 19 20  2  0  0  0
 20 21  1  0  0  0
 21 22  2  0  0  0
 21 26  1  0  0  0
 22 23  1  0  0  0
 23 24  2  0  0  0
 23 28  1  0  0  0
 24 25  1  0  0  0
 24 27  1  0  0  0
 25 26  2  0  0  0
 25 29  1  0  0  0
 29 30  1  0  0  0
  6  7  2  0  0  0
  6 10  1  0  0  0
  7  8  1  0  0  0
  8  9  1  0  0  0
  9 10  2  0  0  0
 10 11  1  0  0  0
 17 18  1  0  0  0
 11 12  1  0  0  0
 11 13  1  0  0  0
 11 14  1  0  0  0
M  CHG 1  11   1
M  CHG 1  27  -1
M  END
> <minimizedAffinity>
-9.03414

$$$$
1236


 30 34  0  0  0  0  0  0  0  0999 V2000
    7.9974    9.1360   14.7959 C   0  0  0  0  0  0  0  0  0  0  0  0
    3.0879    9.6968   14.9489 S   0  0  0  0  0  0  0  0  0  0  0  0
    2.7471    8.1145   15.8579 C   0  0  0  0  0  0  0  0  0  0  0  0
    4.1331    7.5326   15.7465 C   0  0  0  0  0  0  0  0  0  0  0  0
    5.1206    8.5483   15.9785 N   0  0  0  0  0  0  0  0  0  0  0  0
    4.7509    9.8460   15.5685 C   0  0  0  0  0  0  0  0  0  0  0  0
    5.5418   10.8245   15.6979 N   0  0  0  0  0  0  0  0  0  0  0  0
    6.8701   10.6862   16.2394 C   0  0  0  0  0  0  0  0  0  0  0  0
    7.5059   11.6430   16.7464 O   0  0  0  0  0  0  0  0  0  0  0  0
    7.4898    9.3340   16.1810 C   0  0  0  0  0  0  0  0  0  0  0  0
    6.4379    8.3626   16.5591 C   0  0  0  0  0  0  0  0  0  0  0  0
    6.6004    7.3955   17.3418 O   0  0  0  0  0  0  0  0  0  0  0  0
    7.6122    7.8102   14.1876 C   0  0  0  0  0  0  0  0  0  0  0  0
    8.6593    6.7790   14.2673 C   0  0  0  0  0  0  0  0  0  0  0  0
    8.8784    6.1768   15.3763 O   0  0  0  0  0  0  0  0  0  0  0  0
    9.4452    6.4433   13.0964 N   0  0  0  0  0  0  0  0  0  0  0  0
   10.6400    5.6460   13.0665 C   0  0  0  0  0  0  0  0  0  0  0  0
   11.5513    6.0911   11.9499 C   0  0  0  0  0  0  0  0  0  0  0  0
   10.2344    6.3295   10.6671 S   0  0  0  0  0  0  0  0  0  0  0  0
    9.0082    6.9100   11.8370 C   0  0  0  0  0  0  0  0  0  0  0  0
    7.9517    7.6106   11.6856 N   0  0  0  0  0  0  0  0  0  0  0  0
    7.1215    7.9821   12.7973 C   0  0  0  0  0  0  0  0  0  0  0  0
    5.9819    8.4496   12.5487 O   0  0  0  0  0  0  0  0  0  0  0  0
    9.4612    9.3536   14.7823 C   0  0  0  0  0  0  0  0  0  0  0  0
   10.2289    9.1051   15.9132 C   0  0  0  0  0  0  0  0  0  0  0  0
   11.5941    9.3010   15.9108 C   0  0  0  0  0  0  0  0  0  0  0  0
   12.2312    9.7506   14.7757 C   0  0  0  0  0  0  0  0  0  0  0  0
   11.4765    9.9938   13.6685 C   0  0  0  0  0  0  0  0  0  0  0  0
   10.1100    9.8030   13.6553 C   0  0  0  0  0  0  0  0  0  0  0  0
   12.6567    8.9620   17.4594 Br  0  0  0  0  0  0  0  0  0  0  0  0
  2  3  1  0  0  0
  2  6  1  0  0  0
  3  4  1  0  0  0
  4  5  1  0  0  0
  5  6  1  0  0  0
  5 11  1  0  0  0
  6  7  2  0  0  0
  7  8  1  0  0  0
  8  9  2  0  0  0
  8 10  1  0  0  0
 10 11  1  0  0  0
 10  1  1  0  0  0
 11 12  2  0  0  0
  1 13  1  0  0  0
  1 24  1  0  0  0
 13 14  1  0  0  0
 13 22  1  0  0  0
 14 15  2  0  0  0
 14 16  1  0  0  0
 16 17  1  0  0  0
 16 20  1  0  0  0
 17 18  1  0  0  0
 18 19  1  0  0  0
 19 20  1  0  0  0
 20 21  2  0  0  0
 21 22  1  0  0  0
 22 23  2  0  0  0
 24 25  2  0  0  0
 24 29  1  0  0  0
 25 26  1  0  0  0
 26 27  2  0  0  0
 26 30  1  0  0  0
 27 28  1  0  0  0
 28 29  2  0  0  0
M  END
> <minimizedAffinity>
-6.97725

$$$$
1237


 30 34  0  0  0  0  0  0  0  0999 V2000
    9.3680    7.4008   12.2912 C   0  0  0  0  0  0  0  0  0  0  0  0
   13.1681    3.6821   12.1309 S   0  0  0  0  0  0  0  0  0  0  0  0
   11.7064    2.6800   11.6140 C   0  0  0  0  0  0  0  0  0  0  0  0
   11.1551    3.5984   10.5694 C   0  0  0  0  0  0  0  0  0  0  0  0
   11.2974    4.9567   10.9368 N   0  0  0  0  0  0  0  0  0  0  0  0
   12.3819    5.2764   11.7801 C   0  0  0  0  0  0  0  0  0  0  0  0
   12.6569    6.4732   12.1908 N   0  0  0  0  0  0  0  0  0  0  0  0
   11.8581    7.6070   11.7530 C   0  0  0  0  0  0  0  0  0  0  0  0
   12.4897    8.6915   11.7791 O   0  0  0  0  0  0  0  0  0  0  0  0
   10.5036    7.3395   11.3588 C   0  0  0  0  0  0  0  0  0  0  0  0
   10.4694    6.0726   10.5362 C   0  0  0  0  0  0  0  0  0  0  0  0
    9.7456    5.9789    9.5285 O   0  0  0  0  0  0  0  0  0  0  0  0
    7.9905    7.6081   11.8259 C   0  0  0  0  0  0  0  0  0  0  0  0
    7.0773    6.7702   12.7206 C   0  0  0  0  0  0  0  0  0  0  0  0
    6.9802    5.5365   12.5305 O   0  0  0  0  0  0  0  0  0  0  0  0
    6.3279    7.4010   13.7849 N   0  0  0  0  0  0  0  0  0  0  0  0
    5.7071    6.7693   14.8973 C   0  0  0  0  0  0  0  0  0  0  0  0
    5.6597    7.6859   16.0946 C   0  0  0  0  0  0  0  0  0  0  0  0
    5.2453    9.2433   15.1758 S   0  0  0  0  0  0  0  0  0  0  0  0
    6.1697    8.8063   13.7139 C   0  0  0  0  0  0  0  0  0  0  0  0
    6.6396    9.5318   12.7778 N   0  0  0  0  0  0  0  0  0  0  0  0
    7.3923    8.9096   11.6935 C   0  0  0  0  0  0  0  0  0  0  0  0
    7.4696    9.5867   10.6526 O   0  0  0  0  0  0  0  0  0  0  0  0
    9.6992    8.1662   13.5543 C   0  0  0  0  0  0  0  0  0  0  0  0
    9.8509    7.5164   14.7556 C   0  0  0  0  0  0  0  0  0  0  0  0
   10.1457    8.2450   15.8800 C   0  0  0  0  0  0  0  0  0  0  0  0
   10.2983    9.5956   15.8673 C   0  0  0  0  0  0  0  0  0  0  0  0
   10.1524   10.2733   14.6823 C   0  0  0  0  0  0  0  0  0  0  0  0
    9.8522    9.5323   13.5388 C   0  0  0  0  0  0  0  0  0  0  0  0
   10.7107   10.6062   17.4453 Br  0  0  0  0  0  0  0  0  0  0  0  0
  2  3  1  0  0  0
  2  6  1  0  0  0
  3  4  1  0  0  0
  4  5  1  0  0  0
  5  6  1  0  0  0
  5 11  1  0  0  0
  6  7  2  0  0  0
  7  8  1  0  0  0
  8  9  2  0  0  0
  8 10  1  0  0  0
 10 11  1  0  0  0
 10  1  1  0  0  0
 11 12  2  0  0  0
  1 13  1  0  0  0
  1 24  1  0  0  0
 13 14  1  0  0  0
 13 22  1  0  0  0
 14 15  2  0  0  0
 14 16  1  0  0  0
 16 17  1  0  0  0
 16 20  1  0  0  0
 17 18  1  0  0  0
 18 19  1  0  0  0
 19 20  1  0  0  0
 20 21  2  0  0  0
 21 22  1  0  0  0
 22 23  2  0  0  0
 24 25  2  0  0  0
 24 29  1  0  0  0
 25 26  1  0  0  0
 26 27  2  0  0  0
 27 28  1  0  0  0
 27 30  1  0  0  0
 28 29  2  0  0  0
M  END
> <minimizedAffinity>
-7.92567

$$$$
1248


 21 24  0  0  0  0  0  0  0  0999 V2000
   11.2328    5.7594   11.4196 S   0  0  0  0  0  0  0  0  0  0  0  0
   12.1238    4.4599   10.7361 C   0  0  0  0  0  0  0  0  0  0  0  0
   11.1452    3.6137   10.4186 N   0  0  0  0  0  0  0  0  0  0  0  0
   11.8005    2.5404    9.8600 C   0  0  0  0  0  0  0  0  0  0  0  0
   13.1125    2.7712    9.8610 N   0  0  0  0  0  0  0  0  0  0  0  0
   13.3514    3.9511   10.3958 N   0  0  0  0  0  0  0  0  0  0  0  0
    9.9415    3.9376   10.6692 N   0  0  0  0  0  0  0  0  0  0  0  0
    9.6527    5.0926   11.2358 C   0  0  0  0  0  0  0  0  0  0  0  0
    8.3557    5.6650   11.6110 C   0  0  0  0  0  0  0  0  0  0  0  0
    7.2523    5.7111   10.8547 N   0  0  0  0  0  0  0  0  0  0  0  0
    6.2690    6.3112   11.5450 N   0  0  0  0  0  0  0  0  0  0  0  0
    6.7406    6.6561   12.7596 C   0  0  0  0  0  0  0  0  0  0  0  0
    8.0745    6.2421   12.7998 C   0  0  0  0  0  0  0  0  0  0  0  0
    9.2053    6.4874   14.2890 Br  0  0  0  0  0  0  0  0  0  0  0  0
    5.3024    6.4745   11.1817 H   0  0  0  0  0  0  0  0  0  0  0  0
   11.1676    1.3132    9.3351 C   0  0  0  0  0  0  0  0  0  0  0  0
    9.8593    1.0663    9.5319 N   0  0  0  0  0  0  0  0  0  0  0  0
    9.2920   -0.0606    9.0469 C   0  0  0  0  0  0  0  0  0  0  0  0
   10.0412   -0.9662    8.3476 C   0  0  0  0  0  0  0  0  0  0  0  0
   11.3361   -0.7073    8.1593 N   0  0  0  0  0  0  0  0  0  0  0  0
   11.9288    0.4103    8.6336 C   0  0  0  0  0  0  0  0  0  0  0  0
  1  2  1  0  0  0
  1  8  1  0  0  0
  2  3  1  0  0  0
  2  6  2  0  0  0
  3  4  1  0  0  0
  3  7  1  0  0  0
  4  5  2  0  0  0
  4 16  1  0  0  0
  5  6  1  0  0  0
 16 17  2  0  0  0
 16 21  1  0  0  0
 17 18  1  0  0  0
 18 19  2  0  0  0
 19 20  1  0  0  0
 20 21  2  0  0  0
  7  8  2  0  0  0
  8  9  1  0  0  0
  9 10  2  0  0  0
  9 13  1  0  0  0
 10 11  1  0  0  0
 11 12  1  0  0  0
 12 13  2  0  0  0
 13 14  1  0  0  0
 11 15  1  0  0  0
M  END
> <minimizedAffinity>
-7.39746

$$$$
1255


 34 38  0  0  0  0  0  0  0  0999 V2000
    9.6420    7.2705   12.4122 C   0  0  0  0  0  0  0  0  0  0  0  0
   10.6659    7.3289   17.0094 S   0  0  0  0  0  0  0  0  0  0  0  0
   10.9074    7.8875   15.3311 C   0  0  0  0  0  0  0  0  0  0  0  0
   11.8294    7.6083   14.4683 N   0  0  0  0  0  0  0  0  0  0  0  0
   11.7848    8.2102   13.1541 C   0  0  0  0  0  0  0  0  0  0  0  0
   12.7594    8.4624   12.4474 O   0  0  0  0  0  0  0  0  0  0  0  0
   10.3963    8.5536   12.6172 C   0  0  0  0  0  0  0  0  0  0  0  0
    9.8362    9.3743   13.7369 C   0  0  0  0  0  0  0  0  0  0  0  0
    9.3726   10.5398   13.5769 O   0  0  0  0  0  0  0  0  0  0  0  0
    9.8421    8.7751   15.0652 N   0  0  0  0  0  0  0  0  0  0  0  0
    8.9525    8.9744   16.0861 N   0  0  0  0  0  0  0  0  0  0  0  0
    9.1809    8.2805   17.2940 C   0  0  0  0  0  0  0  0  0  0  0  0
    8.4692    8.3045   18.4170 C   0  0  0  0  0  0  0  0  0  0  0  0
    8.0990    9.6345   16.0192 H   0  0  0  0  0  0  0  0  0  0  0  0
    8.3439    7.3467   11.7133 C   0  0  0  0  0  0  0  0  0  0  0  0
    7.4882    8.4920   11.9848 C   0  0  0  0  0  0  0  0  0  0  0  0
    7.4236    9.4548   11.1471 O   0  0  0  0  0  0  0  0  0  0  0  0
    6.6908    8.5762   13.1946 N   0  0  0  0  0  0  0  0  0  0  0  0
    6.2130    9.6906   13.8060 N   0  0  0  0  0  0  0  0  0  0  0  0
    5.4453    9.5088   14.9833 C   0  0  0  0  0  0  0  0  0  0  0  0
    4.8685   10.4035   15.7556 C   0  0  0  0  0  0  0  0  0  0  0  0
    5.4091    7.7357   15.2321 S   0  0  0  0  0  0  0  0  0  0  0  0
    6.3787    7.3372   13.7897 C   0  0  0  0  0  0  0  0  0  0  0  0
    6.7555    6.2002   13.3229 N   0  0  0  0  0  0  0  0  0  0  0  0
    7.5465    6.1214   12.1255 C   0  0  0  0  0  0  0  0  0  0  0  0
    7.6242    5.1182   11.4017 O   0  0  0  0  0  0  0  0  0  0  0  0
    6.3697   10.7012   13.4639 H   0  0  0  0  0  0  0  0  0  0  0  0
   10.5021    6.2285   11.7822 C   0  0  0  0  0  0  0  0  0  0  0  0
   10.8862    6.3215   10.4644 C   0  0  0  0  0  0  0  0  0  0  0  0
   11.6792    5.3624    9.8776 C   0  0  0  0  0  0  0  0  0  0  0  0
   12.1007    4.2829   10.6207 C   0  0  0  0  0  0  0  0  0  0  0  0
   11.7335    4.1498   11.9615 C   0  0  0  0  0  0  0  0  0  0  0  0
   10.9377    5.1329   12.5128 C   0  0  0  0  0  0  0  0  0  0  0  0
   13.2042    2.9333    9.8343 Br  0  0  0  0  0  0  0  0  0  0  0  0
  2  3  1  0  0  0
  2 12  1  0  0  0
  3  4  2  0  0  0
  3 10  1  0  0  0
  4  5  1  0  0  0
  5  6  2  0  0  0
  5  7  1  0  0  0
  7  8  1  0  0  0
  7  1  1  0  0  0
  8  9  2  0  0  0
  8 10  1  0  0  0
 10 11  1  0  0  0
 11 12  1  0  0  0
 12 13  2  0  0  0
  1 15  1  0  0  0
  1 28  1  0  0  0
 15 16  1  0  0  0
 15 25  1  0  0  0
 16 17  2  0  0  0
 16 18  1  0  0  0
 18 19  1  0  0  0
 18 23  1  0  0  0
 19 20  1  0  0  0
 20 21  2  0  0  0
 20 22  1  0  0  0
 22 23  1  0  0  0
 23 24  2  0  0  0
 24 25  1  0  0  0
 25 26  2  0  0  0
 28 29  2  0  0  0
 28 33  1  0  0  0
 29 30  1  0  0  0
 30 31  2  0  0  0
 31 32  1  0  0  0
 31 34  1  0  0  0
 32 33  2  0  0  0
 11 14  1  0  0  0
 19 27  1  0  0  0
M  END
> <minimizedAffinity>
-7.94674

$$$$
1256


 30 33  0  0  0  0  0  0  0  0999 V2000
    9.8720    9.2015   13.2125 S   0  0  0  0  0  0  0  0  0  0  0  0
   11.1510    8.4221   12.3819 C   0  0  0  0  0  0  0  0  0  0  0  0
   12.4934    8.6611   12.2535 N   0  0  0  0  0  0  0  0  0  0  0  0
   13.2804    7.8368   11.5428 C   0  0  0  0  0  0  0  0  0  0  0  0
   14.5065    7.9733   11.3732 O   0  0  0  0  0  0  0  0  0  0  0  0
   12.6372    6.7639   10.9720 C   0  0  0  0  0  0  0  0  0  0  0  0
   11.3012    6.5191   11.0945 C   0  0  0  0  0  0  0  0  0  0  0  0
   10.5234    7.3797   11.8290 N   0  0  0  0  0  0  0  0  0  0  0  0
    9.2716    7.2550   12.0459 N   0  0  0  0  0  0  0  0  0  0  0  0
    8.6095    8.1055   12.7779 C   0  0  0  0  0  0  0  0  0  0  0  0
    7.2121    8.1269   13.1531 N   0  0  0  0  0  0  0  0  0  0  0  0
    6.2524    8.7364   12.3149 C   0  0  0  0  0  0  0  0  0  0  0  0
    4.8913    8.7093   12.9698 C   0  0  0  0  0  0  0  0  0  0  0  0
    5.0236    8.9711   14.3360 O   0  0  0  0  0  0  0  0  0  0  0  0
    5.5895    7.8678   14.9864 C   0  0  0  0  0  0  0  0  0  0  0  0
    6.9168    7.5016   14.3976 C   0  0  0  0  0  0  0  0  0  0  0  0
   10.7637    5.3285   10.4385 C   0  0  0  0  0  0  0  0  0  0  0  0
   10.0522    5.4635    9.3764 O   0  0  0  0  0  0  0  0  0  0  0  0
   10.9594    4.0064   10.8874 N   0  0  0  0  0  0  0  0  0  0  0  0
   11.5017    3.8015   11.7480 H   0  0  0  0  0  0  0  0  0  0  0  0
   10.3831    2.8952   10.1394 C   0  0  0  0  0  0  0  0  0  0  0  0
   11.4501    2.0607    9.5341 C   0  0  0  0  0  0  0  0  0  0  0  0
   11.1080    0.8598    8.9323 C   0  0  0  0  0  0  0  0  0  0  0  0
   12.0922    0.0608    8.4062 C   0  0  0  0  0  0  0  0  0  0  0  0
   13.4171    0.4073    8.4539 C   0  0  0  0  0  0  0  0  0  0  0  0
   13.7669    1.6036    9.0517 C   0  0  0  0  0  0  0  0  0  0  0  0
   12.7708    2.4081    9.5807 C   0  0  0  0  0  0  0  0  0  0  0  0
   15.5888    2.1637    9.1547 Br  0  0  0  0  0  0  0  0  0  0  0  0
    9.7738    0.5213    8.8912 O   0  0  0  0  0  0  0  0  0  0  0  0
    9.4300   -0.8433    8.6512 C   0  0  0  0  0  0  0  0  0  0  0  0
  1  2  1  0  0  0
  1 10  1  0  0  0
  2  3  2  0  0  0
  2  8  1  0  0  0
  3  4  1  0  0  0
  4  5  2  0  0  0
  4  6  1  0  0  0
  6  7  2  0  0  0
  7  8  1  0  0  0
  7 17  1  0  0  0
  8  9  1  0  0  0
  9 10  2  0  0  0
 10 11  1  0  0  0
 11 12  1  0  0  0
 11 16  1  0  0  0
 12 13  1  0  0  0
 13 14  1  0  0  0
 14 15  1  0  0  0
 15 16  1  0  0  0
 17 18  2  0  0  0
 17 19  1  0  0  0
 19 21  1  0  0  0
 21 22  1  0  0  0
 22 23  2  0  0  0
 22 27  1  0  0  0
 23 24  1  0  0  0
 23 29  1  0  0  0
 24 25  2  0  0  0
 25 26  1  0  0  0
 26 27  2  0  0  0
 26 28  1  0  0  0
 29 30  1  0  0  0
 19 20  1  0  0  0
M  END
> <minimizedAffinity>
-9.09867

$$$$
1265


 24 27  0  0  0  0  0  0  0  0999 V2000
   10.2730    6.8450   14.3574 S   0  0  0  0  0  0  0  0  0  0  0  0
    9.7275    6.0731   12.8397 C   0  0  0  0  0  0  0  0  0  0  0  0
   10.1303    5.3084   11.8777 N   0  0  0  0  0  0  0  0  0  0  0  0
    9.1061    5.0780   10.9294 C   0  0  0  0  0  0  0  0  0  0  0  0
    7.9314    5.8397   11.4498 C   0  0  0  0  0  0  0  0  0  0  0  0
    8.3853    6.4732   12.7106 N   0  0  0  0  0  0  0  0  0  0  0  0
    7.8823    7.2979   13.7237 C   0  0  0  0  0  0  0  0  0  0  0  0
    8.7017    7.6251   14.6974 C   0  0  0  0  0  0  0  0  0  0  0  0
    6.4761    7.8162   13.7753 C   0  0  0  0  0  0  0  0  0  0  0  0
    5.6676    7.5946   14.8675 C   0  0  0  0  0  0  0  0  0  0  0  0
    4.3682    8.0445   14.9651 C   0  0  0  0  0  0  0  0  0  0  0  0
    3.8086    8.7606   13.9321 C   0  0  0  0  0  0  0  0  0  0  0  0
    4.5907    8.9930   12.8361 C   0  0  0  0  0  0  0  0  0  0  0  0
    5.9165    8.5289   12.7466 C   0  0  0  0  0  0  0  0  0  0  0  0
   11.5017    4.7694   11.8484 C   0  0  0  0  0  0  0  0  0  0  0  0
   11.3977    3.3159   12.0870 C   0  0  0  0  0  0  0  0  0  0  0  0
   11.1096    2.8615   13.2126 O   0  0  0  0  0  0  0  0  0  0  0  0
   11.6338    2.3790   10.9981 C   0  0  0  0  0  0  0  0  0  0  0  0
   10.5847    1.9365   10.1902 C   0  0  0  0  0  0  0  0  0  0  0  0
   10.7794    1.0412    9.1550 C   0  0  0  0  0  0  0  0  0  0  0  0
   12.0541    0.5902    8.9368 C   0  0  0  0  0  0  0  0  0  0  0  0
   13.1266    0.9986    9.7082 C   0  0  0  0  0  0  0  0  0  0  0  0
   12.9041    1.9039   10.7479 C   0  0  0  0  0  0  0  0  0  0  0  0
   12.3137   -0.6508    7.4975 Br  0  0  0  0  0  0  0  0  0  0  0  0
  1  2  1  0  0  0
  1  8  1  0  0  0
  2  3  2  0  0  0
  2  6  1  0  0  0
  3  4  1  0  0  0
  3 15  1  0  0  0
  4  5  1  0  0  0
  5  6  1  0  0  0
  6  7  1  0  0  0
  7  8  2  0  0  0
  7  9  1  0  0  0
  9 10  2  0  0  0
  9 14  1  0  0  0
 10 11  1  0  0  0
 11 12  2  0  0  0
 12 13  1  0  0  0
 13 14  2  0  0  0
 15 16  1  0  0  0
 16 17  2  0  0  0
 16 18  1  0  0  0
 18 19  2  0  0  0
 18 23  1  0  0  0
 19 20  1  0  0  0
 20 21  2  0  0  0
 21 22  1  0  0  0
 21 24  1  0  0  0
 22 23  2  0  0  0
M  END
> <minimizedAffinity>
-8.10979

$$$$
1266


 28 31  0  0  0  0  0  0  0  0999 V2000
   13.0249    2.4709    9.9436 C   0  0  0  0  0  0  0  0  0  0  0  0
   13.2518    2.0731   11.3276 N   0  0  0  0  0  0  0  0  0  0  0  0
   13.0196    2.9865   12.3452 C   0  0  0  0  0  0  0  0  0  0  0  0
   12.0293    4.1102   12.1230 C   0  0  0  0  0  0  0  0  0  0  0  0
   11.8929    4.4822   10.7826 N   0  0  0  0  0  0  0  0  0  0  0  0
   12.7812    3.9038    9.8202 C   0  0  0  0  0  0  0  0  0  0  0  0
   10.9411    5.3934   10.2568 C   0  0  0  0  0  0  0  0  0  0  0  0
   11.1616    5.6531    8.9887 O   0  0  0  0  0  0  0  0  0  0  0  0
   12.8381    1.1361   11.5080 H   0  0  0  0  0  0  0  0  0  0  0  0
    9.8193    6.0592   10.8129 C   0  0  0  0  0  0  0  0  0  0  0  0
    8.6250    5.3107   10.9507 C   0  0  0  0  0  0  0  0  0  0  0  0
    7.5651    5.8132   11.5832 N   0  0  0  0  0  0  0  0  0  0  0  0
    7.5765    7.0376   12.1134 C   0  0  0  0  0  0  0  0  0  0  0  0
    8.7026    7.8086   12.0122 C   0  0  0  0  0  0  0  0  0  0  0  0
    9.8318    7.3206   11.3581 C   0  0  0  0  0  0  0  0  0  0  0  0
    8.7388    9.1093   12.6068 N   0  0  0  0  0  0  0  0  0  0  0  0
    7.5799    9.5736   13.3010 C   0  0  0  0  0  0  0  0  0  0  0  0
    7.5964   10.4417   14.1974 O   0  0  0  0  0  0  0  0  0  0  0  0
    6.2684    8.9672   12.9156 C   0  0  0  0  0  0  0  0  0  0  0  0
    6.4523    7.5498   12.7709 O   0  0  0  0  0  0  0  0  0  0  0  0
    9.5757    9.7092   12.5519 H   0  0  0  0  0  0  0  0  0  0  0  0
   13.7873    0.5729    7.8529 Cl  0  0  0  0  0  0  0  0  0  0  0  0
   12.1500    0.6112    8.5397 C   0  0  0  0  0  0  0  0  0  0  0  0
   11.8774    1.6087    9.4894 C   0  0  0  0  0  0  0  0  0  0  0  0
   10.6180    1.6376   10.0131 C   0  0  0  0  0  0  0  0  0  0  0  0
    9.6694    0.7146    9.6095 C   0  0  0  0  0  0  0  0  0  0  0  0
    9.9355   -0.2695    8.6731 C   0  0  0  0  0  0  0  0  0  0  0  0
   11.2149   -0.3143    8.1291 C   0  0  0  0  0  0  0  0  0  0  0  0
 22 23  1  0  0  0
 23 24  2  0  0  0
 23 28  1  0  0  0
 24 25  1  0  0  0
 24  1  1  0  0  0
 25 26  2  0  0  0
 26 27  1  0  0  0
 27 28  2  0  0  0
  1  2  1  0  0  0
  1  6  1  0  0  0
  2  3  1  0  0  0
  3  4  1  0  0  0
  4  5  1  0  0  0
  5  6  1  0  0  0
  5  7  1  0  0  0
  7  8  2  0  0  0
  7 10  1  0  0  0
 10 11  2  0  0  0
 10 15  1  0  0  0
 11 12  1  0  0  0
 12 13  2  0  0  0
 13 14  1  0  0  0
 13 20  1  0  0  0
 14 15  2  0  0  0
 14 16  1  0  0  0
 16 17  1  0  0  0
 17 18  2  0  0  0
 17 19  1  0  0  0
 19 20  1  0  0  0
  2  9  1  0  0  0
 16 21  1  0  0  0
M  END
> <minimizedAffinity>
-9.44202

$$$$
1271


 35 38  0  0  0  0  0  0  0  0999 V2000
    8.6010    6.2627   11.7265 C   0  0  0  0  0  0  0  0  0  0  0  0
    7.6625    5.6602   10.9845 N   0  0  0  0  0  0  0  0  0  0  0  0
    6.5273    6.2433   11.2728 N   0  0  0  0  0  0  0  0  0  0  0  0
    6.7119    7.2009   12.1780 N   0  0  0  0  0  0  0  0  0  0  0  0
    7.9938    7.2619   12.5031 C   0  0  0  0  0  0  0  0  0  0  0  0
    5.6643    7.9911   12.7072 C   0  0  0  0  0  0  0  0  0  0  0  0
    5.5889    8.3376   14.0227 N   0  0  0  0  0  0  0  0  0  0  0  0
    4.5193    9.0519   14.1778 O   0  0  0  0  0  0  0  0  0  0  0  0
    3.8865    9.1987   13.0699 N   0  0  0  0  0  0  0  0  0  0  0  0
    4.5689    8.5491   12.1173 C   0  0  0  0  0  0  0  0  0  0  0  0
    4.2440    8.4434   10.7566 N   0  0  0  0  0  0  0  0  0  0  0  0
    3.3548    8.0627   10.3649 H   0  0  0  0  0  0  0  0  0  0  0  0
    4.9400    8.7678   10.0507 H   0  0  0  0  0  0  0  0  0  0  0  0
   10.6498    5.2222   12.7468 N   0  0  0  0  0  0  0  0  0  0  0  0
   10.0105    5.9186   11.6943 C   0  0  0  0  0  0  0  0  0  0  0  0
   10.6820    6.2522   10.6914 O   0  0  0  0  0  0  0  0  0  0  0  0
   10.1360    4.9205   13.6173 H   0  0  0  0  0  0  0  0  0  0  0  0
   12.0040    4.8906   12.7016 N   0  0  0  0  0  0  0  0  0  0  0  0
   12.7836    5.5184   12.9609 H   0  0  0  0  0  0  0  0  0  0  0  0
   12.3629    3.5635   12.2608 C   0  0  0  0  0  0  0  0  0  0  0  0
   11.5101    2.5887   12.4524 C   0  0  0  0  0  0  0  0  0  0  0  0
   15.2242    1.0409    8.5516 Br  0  0  0  0  0  0  0  0  0  0  0  0
   15.0175    2.2771    9.9825 C   0  0  0  0  0  0  0  0  0  0  0  0
   13.7998    2.4610   10.5902 C   0  0  0  0  0  0  0  0  0  0  0  0
   13.6580    3.3678   11.6396 C   0  0  0  0  0  0  0  0  0  0  0  0
   14.7764    4.0500   12.0206 C   0  0  0  0  0  0  0  0  0  0  0  0
   16.0158    3.8661   11.4072 C   0  0  0  0  0  0  0  0  0  0  0  0
   16.1418    2.9779   10.3837 C   0  0  0  0  0  0  0  0  0  0  0  0
    8.7348    8.0688   13.4454 C   0  0  0  0  0  0  0  0  0  0  0  0
    9.3090    9.2961   12.9291 N   0  0  0  0  0  0  0  0  0  0  0  0
    8.5904   10.4589   13.4416 C   0  0  0  0  0  0  0  0  0  0  0  0
    8.3782   10.3771   14.9371 C   0  0  0  0  0  0  0  0  0  0  0  0
    9.7148   10.2303   15.6419 C   0  0  0  0  0  0  0  0  0  0  0  0
   10.8468   10.2390   14.6542 C   0  0  0  0  0  0  0  0  0  0  0  0
   10.6743    9.4383   13.4263 C   0  0  0  0  0  0  0  0  0  0  0  0
 22 23  1  0  0  0
 23 24  2  0  0  0
 23 28  1  0  0  0
 24 25  1  0  0  0
 25 26  2  0  0  0
 25 20  1  0  0  0
 26 27  1  0  0  0
 27 28  2  0  0  0
 20 21  2  0  0  0
 20 18  1  0  0  0
 18 14  1  0  0  0
 14 15  1  0  0  0
 15 16  2  0  0  0
 15  1  1  0  0  0
  1  2  1  0  0  0
  1  5  2  0  0  0
  2  3  2  0  0  0
  3  4  1  0  0  0
  4  5  1  0  0  0
  4  6  1  0  0  0
  5 29  1  0  0  0
 29 30  1  0  0  0
 30 31  1  0  0  0
 30 35  1  0  0  0
 31 32  1  0  0  0
 32 33  1  0  0  0
 33 34  1  0  0  0
 34 35  1  0  0  0
  6  7  2  0  0  0
  6 10  1  0  0  0
  7  8  1  0  0  0
  8  9  1  0  0  0
  9 10  2  0  0  0
 10 11  1  0  0  0
 18 19  1  0  0  0
 14 17  1  0  0  0
 11 12  1  0  0  0
 11 13  1  0  0  0
M  END
> <minimizedAffinity>
-9.37675

$$$$
1280


 35 38  0  0  0  0  0  0  0  0999 V2000
   11.0564    5.4139   12.7298 C   0  0  0  0  0  0  0  0  0  0  0  0
    9.9685    6.1855   12.1629 N   0  0  0  0  0  0  0  0  0  0  0  0
   10.1735    6.2196   10.7610 C   0  0  0  0  0  0  0  0  0  0  0  0
    9.7657    7.1023    9.9991 O   0  0  0  0  0  0  0  0  0  0  0  0
   10.9516    5.0150   10.4238 C   0  0  0  0  0  0  0  0  0  0  0  0
   11.3450    4.6488    9.2899 O   0  0  0  0  0  0  0  0  0  0  0  0
   11.1648    4.3327   11.6941 C   0  0  0  0  0  0  0  0  0  0  0  0
   11.3668    3.0313   11.8440 C   0  0  0  0  0  0  0  0  0  0  0  0
   11.5011    2.5874   13.1807 O   0  0  0  0  0  0  0  0  0  0  0  0
   16.3208    5.8414   11.8240 Br  0  0  0  0  0  0  0  0  0  0  0  0
   14.6490    6.5368   12.4673 C   0  0  0  0  0  0  0  0  0  0  0  0
   13.4853    5.7628   12.3900 C   0  0  0  0  0  0  0  0  0  0  0  0
   12.2658    6.2417   12.8469 C   0  0  0  0  0  0  0  0  0  0  0  0
   12.2578    7.5035   13.3747 C   0  0  0  0  0  0  0  0  0  0  0  0
   13.4021    8.2862   13.4591 C   0  0  0  0  0  0  0  0  0  0  0  0
   14.6032    7.7979   13.0032 C   0  0  0  0  0  0  0  0  0  0  0  0
   11.4525    2.0847   10.7375 C   0  0  0  0  0  0  0  0  0  0  0  0
   12.6147    1.7039   10.1354 C   0  0  0  0  0  0  0  0  0  0  0  0
   12.6022    0.8223    9.0393 C   0  0  0  0  0  0  0  0  0  0  0  0
   11.4448    0.3043    8.5243 C   0  0  0  0  0  0  0  0  0  0  0  0
   10.2683    0.6867    9.1325 C   0  0  0  0  0  0  0  0  0  0  0  0
   10.2685    1.5448   10.2008 C   0  0  0  0  0  0  0  0  0  0  0  0
   13.9193    2.1753   10.6561 C   0  0  0  0  0  0  0  0  0  0  0  0
   11.4268   -0.5713    7.4385 O   0  0  0  0  0  0  0  0  0  0  0  0
   10.3894   -1.5060    7.2899 C   0  0  0  0  0  0  0  0  0  0  0  0
    8.9050    6.7893   12.9381 C   0  0  0  0  0  0  0  0  0  0  0  0
    7.5531    6.2146   12.6532 C   0  0  0  0  0  0  0  0  0  0  0  0
    6.5987    7.1133   11.9639 C   0  0  0  0  0  0  0  0  0  0  0  0
    6.5331    8.4405   12.4631 N   0  0  0  0  0  0  0  0  0  0  0  0
    7.0807    9.4469   11.5385 C   0  0  0  0  0  0  0  0  0  0  0  0
    7.4508   10.6424   12.4189 C   0  0  0  0  0  0  0  0  0  0  0  0
    6.9219   10.5335   13.6924 O   0  0  0  0  0  0  0  0  0  0  0  0
    5.5561   10.2530   13.6439 C   0  0  0  0  0  0  0  0  0  0  0  0
    5.2785    8.9311   12.9048 C   0  0  0  0  0  0  0  0  0  0  0  0
    7.1859    8.4827   13.3043 H   0  0  0  0  0  0  0  0  0  0  0  0
 10 11  1  0  0  0
 11 12  2  0  0  0
 11 16  1  0  0  0
 12 13  1  0  0  0
 13 14  2  0  0  0
 13  1  1  0  0  0
 14 15  1  0  0  0
 15 16  2  0  0  0
  1  2  1  0  0  0
  1  7  1  0  0  0
  2  3  1  0  0  0
  2 26  1  0  0  0
  3  4  2  0  0  0
  3  5  1  0  0  0
  5  6  2  0  0  0
  5  7  1  0  0  0
  7  8  2  0  0  0
  8  9  1  0  0  0
  8 17  1  0  0  0
 17 18  2  0  0  0
 17 22  1  0  0  0
 18 19  1  0  0  0
 18 23  1  0  0  0
 19 20  2  0  0  0
 20 21  1  0  0  0
 20 24  1  0  0  0
 21 22  2  0  0  0
 24 25  1  0  0  0
 26 27  1  0  0  0
 27 28  1  0  0  0
 28 29  1  0  0  0
 29 30  1  0  0  0
 29 34  1  0  0  0
 30 31  1  0  0  0
 31 32  1  0  0  0
 32 33  1  0  0  0
 33 34  1  0  0  0
 29 35  1  0  0  0
M  CHG 1   9  -1
M  CHG 1  29   1
M  END
> <minimizedAffinity>
-9.17417

$$$$
1282


 30 33  0  0  0  0  0  0  0  0999 V2000
    9.2665    6.0085   13.0628 C   0  0  0  0  0  0  0  0  0  0  0  0
   10.7684    6.2122   13.1148 C   0  0  0  0  0  0  0  0  0  0  0  0
   11.2531    5.3076   12.0906 N   0  0  0  0  0  0  0  0  0  0  0  0
   10.1554    4.7591   11.3205 C   0  0  0  0  0  0  0  0  0  0  0  0
    9.0413    5.7781   11.5953 C   0  0  0  0  0  0  0  0  0  0  0  0
   10.5384    4.7419    9.9097 C   0  0  0  0  0  0  0  0  0  0  0  0
    9.8249    5.2586    9.0375 O   0  0  0  0  0  0  0  0  0  0  0  0
   11.7606    4.1108    9.5623 N   0  0  0  0  0  0  0  0  0  0  0  0
   12.8260    4.0382   10.5365 C   0  0  0  0  0  0  0  0  0  0  0  0
   12.5741    4.8814   11.7267 C   0  0  0  0  0  0  0  0  0  0  0  0
   13.5390    5.2431   12.4503 O   0  0  0  0  0  0  0  0  0  0  0  0
   11.9287    3.6913    8.6201 H   0  0  0  0  0  0  0  0  0  0  0  0
    7.3689    6.9407   14.2927 C   0  0  0  0  0  0  0  0  0  0  0  0
    6.9656    5.7344   14.4812 O   0  0  0  0  0  0  0  0  0  0  0  0
    8.5546    7.1697   13.5658 N   0  0  0  0  0  0  0  0  0  0  0  0
    8.8799    8.1331   13.4069 H   0  0  0  0  0  0  0  0  0  0  0  0
    2.6989    9.4784   14.3858 Br  0  0  0  0  0  0  0  0  0  0  0  0
    4.5091    9.2314   14.9548 C   0  0  0  0  0  0  0  0  0  0  0  0
    5.2606    8.2137   14.4361 C   0  0  0  0  0  0  0  0  0  0  0  0
    6.5760    8.0270   14.8432 C   0  0  0  0  0  0  0  0  0  0  0  0
    7.0871    8.8818   15.7690 C   0  0  0  0  0  0  0  0  0  0  0  0
    6.3168    9.9101   16.2890 C   0  0  0  0  0  0  0  0  0  0  0  0
    5.0176   10.0932   15.8841 C   0  0  0  0  0  0  0  0  0  0  0  0
   13.1734    2.6134   10.9120 C   0  0  0  0  0  0  0  0  0  0  0  0
   13.0384    1.6679    9.7917 C   0  0  0  0  0  0  0  0  0  0  0  0
   14.0147    1.6170    8.8132 C   0  0  0  0  0  0  0  0  0  0  0  0
   13.8959    0.7361    7.7630 C   0  0  0  0  0  0  0  0  0  0  0  0
   12.8228   -0.1244    7.6292 C   0  0  0  0  0  0  0  0  0  0  0  0
   11.8479   -0.0760    8.6027 C   0  0  0  0  0  0  0  0  0  0  0  0
   11.9505    0.8019    9.6643 C   0  0  0  0  0  0  0  0  0  0  0  0
 17 18  1  0  0  0
 18 19  2  0  0  0
 18 23  1  0  0  0
 19 20  1  0  0  0
 20 21  2  0  0  0
 20 13  1  0  0  0
 21 22  1  0  0  0
 22 23  2  0  0  0
 13 14  2  0  0  0
 13 15  1  0  0  0
 15  1  1  0  0  0
  1  2  1  0  0  0
  1  5  1  0  0  0
  2  3  1  0  0  0
  3  4  1  0  0  0
  3 10  1  0  0  0
  4  5  1  0  0  0
  4  6  1  0  0  0
  6  7  2  0  0  0
  6  8  1  0  0  0
  8  9  1  0  0  0
  9 10  1  0  0  0
  9 24  1  0  0  0
 10 11  2  0  0  0
 24 25  1  0  0  0
 25 26  2  0  0  0
 25 30  1  0  0  0
 26 27  1  0  0  0
 27 28  2  0  0  0
 28 29  1  0  0  0
 29 30  2  0  0  0
 15 16  1  0  0  0
  8 12  1  0  0  0
M  END
> <minimizedAffinity>
-9.33330

$$$$
1284


 35 38  0  0  0  0  0  0  0  0999 V2000
    8.7914    6.5109   13.9889 C   0  0  0  0  0  0  0  0  0  0  0  0
    7.4121    6.3060   13.7483 N   0  0  0  0  0  0  0  0  0  0  0  0
    7.2190    5.8716   12.4122 C   0  0  0  0  0  0  0  0  0  0  0  0
    6.0887    5.6919   11.8609 O   0  0  0  0  0  0  0  0  0  0  0  0
    8.5154    5.6666   11.8032 C   0  0  0  0  0  0  0  0  0  0  0  0
    8.6325    5.2806   10.6088 O   0  0  0  0  0  0  0  0  0  0  0  0
    9.5170    5.9893   12.8012 C   0  0  0  0  0  0  0  0  0  0  0  0
   10.8133    5.8768   12.6205 C   0  0  0  0  0  0  0  0  0  0  0  0
   11.6668    6.2790   13.6219 O   0  0  0  0  0  0  0  0  0  0  0  0
   10.4389   10.0355   17.6224 Br  0  0  0  0  0  0  0  0  0  0  0  0
    9.8398    9.5715   15.8700 C   0  0  0  0  0  0  0  0  0  0  0  0
    9.5144    8.3054   15.4897 C   0  0  0  0  0  0  0  0  0  0  0  0
    9.0778    7.9287   14.2313 C   0  0  0  0  0  0  0  0  0  0  0  0
    8.9606    8.9308   13.2718 C   0  0  0  0  0  0  0  0  0  0  0  0
    9.2816   10.2276   13.6240 C   0  0  0  0  0  0  0  0  0  0  0  0
    9.7165   10.5718   14.8921 C   0  0  0  0  0  0  0  0  0  0  0  0
   11.3540    5.3344   11.3990 C   0  0  0  0  0  0  0  0  0  0  0  0
   11.6850    3.9795   11.2206 C   0  0  0  0  0  0  0  0  0  0  0  0
   12.1239    3.7970    9.9692 N   0  0  0  0  0  0  0  0  0  0  0  0
   12.0799    4.9719    9.3685 N   0  0  0  0  0  0  0  0  0  0  0  0
   11.6203    5.9236   10.1944 C   0  0  0  0  0  0  0  0  0  0  0  0
   11.5490    2.9442   12.2860 C   0  0  0  0  0  0  0  0  0  0  0  0
   12.5469    2.5780    9.3750 C   0  0  0  0  0  0  0  0  0  0  0  0
   13.8828    2.4336    9.0250 C   0  0  0  0  0  0  0  0  0  0  0  0
   14.3655    1.2731    8.4536 C   0  0  0  0  0  0  0  0  0  0  0  0
   13.5212    0.1903    8.2042 C   0  0  0  0  0  0  0  0  0  0  0  0
   12.1902    0.3342    8.5529 C   0  0  0  0  0  0  0  0  0  0  0  0
   11.7354    1.4972    9.1189 C   0  0  0  0  0  0  0  0  0  0  0  0
    6.2990    6.4805   14.7233 C   0  0  0  0  0  0  0  0  0  0  0  0
    5.6640    7.8332   14.5289 C   0  0  0  0  0  0  0  0  0  0  0  0
    4.2382    7.8932   14.9777 C   0  0  0  0  0  0  0  0  0  0  0  0
    3.3338    8.5798   14.1159 N   0  0  0  0  0  0  0  0  0  0  0  0
    2.6966    9.7358   14.6554 C   0  0  0  0  0  0  0  0  0  0  0  0
    4.0220    8.9873   12.8804 C   0  0  0  0  0  0  0  0  0  0  0  0
    2.5796    7.9060   13.7824 H   0  0  0  0  0  0  0  0  0  0  0  0
 10 11  1  0  0  0
 11 12  2  0  0  0
 11 16  1  0  0  0
 12 13  1  0  0  0
 13 14  2  0  0  0
 13  1  1  0  0  0
 14 15  1  0  0  0
 15 16  2  0  0  0
  1  2  1  0  0  0
  1  7  1  0  0  0
  2  3  1  0  0  0
  2 29  1  0  0  0
  3  4  2  0  0  0
  3  5  1  0  0  0
  5  6  2  0  0  0
  5  7  1  0  0  0
  7  8  2  0  0  0
  8  9  1  0  0  0
  8 17  1  0  0  0
 17 18  2  0  0  0
 17 21  1  0  0  0
 18 19  1  0  0  0
 18 22  1  0  0  0
 19 20  1  0  0  0
 19 23  1  0  0  0
 20 21  2  0  0  0
 23 24  2  0  0  0
 23 28  1  0  0  0
 24 25  1  0  0  0
 25 26  2  0  0  0
 26 27  1  0  0  0
 27 28  2  0  0  0
 29 30  1  0  0  0
 30 31  1  0  0  0
 31 32  1  0  0  0
 32 33  1  0  0  0
 32 34  1  0  0  0
 32 35  1  0  0  0
M  CHG 1   9  -1
M  CHG 1  32   1
M  END
> <minimizedAffinity>
-8.48281

$$$$
1285


 34 37  0  0  0  0  0  0  0  0999 V2000
   10.5854    5.2476   12.4503 C   0  0  0  0  0  0  0  0  0  0  0  0
    9.6148    5.9131   11.6034 N   0  0  0  0  0  0  0  0  0  0  0  0
   10.1488    5.9522   10.2620 C   0  0  0  0  0  0  0  0  0  0  0  0
    9.8672    6.7453    9.3560 O   0  0  0  0  0  0  0  0  0  0  0  0
   11.0987    4.8449   10.2111 C   0  0  0  0  0  0  0  0  0  0  0  0
   11.8262    4.4740    9.2422 O   0  0  0  0  0  0  0  0  0  0  0  0
   11.0970    4.1882   11.5079 C   0  0  0  0  0  0  0  0  0  0  0  0
   11.4946    2.9636   11.8131 C   0  0  0  0  0  0  0  0  0  0  0  0
   11.4483    2.5785   13.1832 O   0  0  0  0  0  0  0  0  0  0  0  0
   11.9504    2.0389   10.8052 C   0  0  0  0  0  0  0  0  0  0  0  0
   11.2162    1.2046   10.0392 N   0  0  0  0  0  0  0  0  0  0  0  0
   12.0525    0.5429    9.2022 C   0  0  0  0  0  0  0  0  0  0  0  0
   13.3316    0.9518    9.4284 N   0  0  0  0  0  0  0  0  0  0  0  0
   13.2556    1.8726   10.4182 C   0  0  0  0  0  0  0  0  0  0  0  0
   14.4336    2.5851   10.9854 C   0  0  0  0  0  0  0  0  0  0  0  0
   11.6546   -0.3977    8.2879 C   0  0  0  0  0  0  0  0  0  0  0  0
   10.3107   -0.6911    8.2175 C   0  0  0  0  0  0  0  0  0  0  0  0
    9.4554   -0.0217    9.0690 C   0  0  0  0  0  0  0  0  0  0  0  0
    9.9071    0.9108    9.9635 C   0  0  0  0  0  0  0  0  0  0  0  0
   12.6198   -1.0941    7.3888 C   0  0  0  0  0  0  0  0  0  0  0  0
   11.9176    9.3691   15.4811 Br  0  0  0  0  0  0  0  0  0  0  0  0
   12.3574    7.9632   14.2647 C   0  0  0  0  0  0  0  0  0  0  0  0
   11.3818    7.1370   13.8002 C   0  0  0  0  0  0  0  0  0  0  0  0
   11.6874    6.1035   12.9097 C   0  0  0  0  0  0  0  0  0  0  0  0
   13.0017    5.9524   12.5237 C   0  0  0  0  0  0  0  0  0  0  0  0
   13.9981    6.7962   12.9984 C   0  0  0  0  0  0  0  0  0  0  0  0
   13.6646    7.8038   13.8729 C   0  0  0  0  0  0  0  0  0  0  0  0
    8.3314    6.4572   12.0133 C   0  0  0  0  0  0  0  0  0  0  0  0
    8.3610    7.9069   12.3567 C   0  0  0  0  0  0  0  0  0  0  0  0
    7.3071    8.7411   11.6726 C   0  0  0  0  0  0  0  0  0  0  0  0
    5.9966    8.3406   12.1276 N   0  0  0  0  0  0  0  0  0  0  0  0
    5.4279    9.3553   12.9954 C   0  0  0  0  0  0  0  0  0  0  0  0
    5.1217    8.2442   10.9757 C   0  0  0  0  0  0  0  0  0  0  0  0
    5.9978    7.3974   12.5729 H   0  0  0  0  0  0  0  0  0  0  0  0
 21 22  1  0  0  0
 22 23  2  0  0  0
 22 27  1  0  0  0
 23 24  1  0  0  0
 24 25  2  0  0  0
 24  1  1  0  0  0
 25 26  1  0  0  0
 26 27  2  0  0  0
  1  2  1  0  0  0
  1  7  1  0  0  0
  2  3  1  0  0  0
  2 28  1  0  0  0
  3  4  2  0  0  0
  3  5  1  0  0  0
  5  6  2  0  0  0
  5  7  1  0  0  0
  7  8  2  0  0  0
  8  9  1  0  0  0
  8 10  1  0  0  0
 10 11  1  0  0  0
 10 14  2  0  0  0
 11 12  1  0  0  0
 11 19  1  0  0  0
 12 13  2  0  0  0
 12 16  1  0  0  0
 13 14  1  0  0  0
 14 15  1  0  0  0
 16 17  2  0  0  0
 16 20  1  0  0  0
 17 18  1  0  0  0
 18 19  2  0  0  0
 28 29  1  0  0  0
 29 30  1  0  0  0
 30 31  1  0  0  0
 31 32  1  0  0  0
 31 33  1  0  0  0
 31 34  1  0  0  0
M  CHG 1   9  -1
M  CHG 1  31   1
M  END
> <minimizedAffinity>
-8.66291

$$$$
1295


 26 29  0  0  0  0  0  0  0  0999 V2000
   13.1725    3.1460   11.3390 C   0  0  0  0  0  0  0  0  0  0  0  0
   12.8921    2.1703   10.3089 C   0  0  0  0  0  0  0  0  0  0  0  0
   13.8719    1.7310    9.4636 C   0  0  0  0  0  0  0  0  0  0  0  0
   15.2262    2.1887    9.5630 N   0  0  0  0  0  0  0  0  0  0  0  0
   15.4889    3.1282   10.5975 C   0  0  0  0  0  0  0  0  0  0  0  0
   14.5728    3.5604   11.4184 C   0  0  0  0  0  0  0  0  0  0  0  0
   15.2061    4.5029   12.3914 C   0  0  0  0  0  0  0  0  0  0  0  0
   14.5557    5.0824   13.3123 O   0  0  0  0  0  0  0  0  0  0  0  0
   16.5189    4.5606   12.0554 O   0  0  0  0  0  0  0  0  0  0  0  0
   16.8125    3.7875   10.9418 C   0  0  0  0  0  0  0  0  0  0  0  0
   13.5631    0.8130    8.4917 N   0  0  0  0  0  0  0  0  0  0  0  0
   12.3157    0.3471    8.3667 C   0  0  0  0  0  0  0  0  0  0  0  0
   12.0538   -0.4981    7.4645 O   0  0  0  0  0  0  0  0  0  0  0  0
   11.3594    0.7845    9.2027 N   0  0  0  0  0  0  0  0  0  0  0  0
   11.5757    1.6724   10.1703 C   0  0  0  0  0  0  0  0  0  0  0  0
   10.6883    2.0867   10.9567 O   0  0  0  0  0  0  0  0  0  0  0  0
   10.0094    0.2465    9.0274 C   0  0  0  0  0  0  0  0  0  0  0  0
   14.6499    0.3857    7.6230 C   0  0  0  0  0  0  0  0  0  0  0  0
   15.9387    1.8323    8.9013 H   0  0  0  0  0  0  0  0  0  0  0  0
    9.1880    7.8228   11.8722 Br  0  0  0  0  0  0  0  0  0  0  0  0
   10.4397    6.3763   11.6719 C   0  0  0  0  0  0  0  0  0  0  0  0
   11.2162    6.2643   10.5475 C   0  0  0  0  0  0  0  0  0  0  0  0
   12.1204    5.1937   10.4342 C   0  0  0  0  0  0  0  0  0  0  0  0
   12.2392    4.2653   11.4245 C   0  0  0  0  0  0  0  0  0  0  0  0
   11.4574    4.3870   12.5459 C   0  0  0  0  0  0  0  0  0  0  0  0
   10.5489    5.4527   12.6704 C   0  0  0  0  0  0  0  0  0  0  0  0
 20 21  1  0  0  0
 21 22  2  0  0  0
 21 26  1  0  0  0
 22 23  1  0  0  0
 23 24  2  0  0  0
 24 25  1  0  0  0
 24  1  1  0  0  0
 25 26  2  0  0  0
  1  2  1  0  0  0
  1  6  1  0  0  0
  2  3  2  0  0  0
  2 15  1  0  0  0
  3  4  1  0  0  0
  3 11  1  0  0  0
  4  5  1  0  0  0
  5  6  2  0  0  0
  5 10  1  0  0  0
  6  7  1  0  0  0
  7  8  2  0  0  0
  7  9  1  0  0  0
  9 10  1  0  0  0
 11 12  1  0  0  0
 11 18  1  0  0  0
 12 13  2  0  0  0
 12 14  1  0  0  0
 14 15  1  0  0  0
 14 17  1  0  0  0
 15 16  2  0  0  0
  4 19  1  0  0  0
M  END
> <minimizedAffinity>
-8.81862

$$$$
1299


 36 39  0  0  0  0  0  0  0  0999 V2000
    7.5123    8.8977   13.7535 C   0  0  0  0  0  0  0  0  0  0  0  0
    6.3487    9.3566   13.1909 N   0  0  0  0  0  0  0  0  0  0  0  0
    5.9420   10.3369   13.9701 N   0  0  0  0  0  0  0  0  0  0  0  0
    6.7467   10.5287   14.9630 N   0  0  0  0  0  0  0  0  0  0  0  0
    7.7725    9.6351   14.8772 C   0  0  0  0  0  0  0  0  0  0  0  0
    5.7201    8.8753   12.0209 C   0  0  0  0  0  0  0  0  0  0  0  0
    6.2381    8.6591   10.7864 N   0  0  0  0  0  0  0  0  0  0  0  0
    5.3110    8.2154   10.0158 O   0  0  0  0  0  0  0  0  0  0  0  0
    4.1742    8.1040   10.6260 N   0  0  0  0  0  0  0  0  0  0  0  0
    4.3904    8.5145   11.9047 C   0  0  0  0  0  0  0  0  0  0  0  0
    3.3934    8.5483   12.9120 N   0  0  0  0  0  0  0  0  0  0  0  0
    3.6869    8.3902   13.8938 H   0  0  0  0  0  0  0  0  0  0  0  0
    2.3886    8.7226   12.7264 H   0  0  0  0  0  0  0  0  0  0  0  0
    9.1830    7.8838   12.0888 N   0  0  0  0  0  0  0  0  0  0  0  0
    8.2452    7.7963   13.1418 C   0  0  0  0  0  0  0  0  0  0  0  0
    8.0541    6.5945   13.5694 O   0  0  0  0  0  0  0  0  0  0  0  0
    9.4810    8.7585   11.6030 H   0  0  0  0  0  0  0  0  0  0  0  0
   11.0161    6.4073   11.8265 C   0  0  0  0  0  0  0  0  0  0  0  0
    9.7751    6.6500   11.6558 N   0  0  0  0  0  0  0  0  0  0  0  0
   15.4450    3.4825   11.1953 Br  0  0  0  0  0  0  0  0  0  0  0  0
   13.5608    3.7598   11.0641 C   0  0  0  0  0  0  0  0  0  0  0  0
   12.7853    2.7440   10.5429 C   0  0  0  0  0  0  0  0  0  0  0  0
   11.4318    2.9511   10.4522 C   0  0  0  0  0  0  0  0  0  0  0  0
   10.8612    4.1398   10.8692 C   0  0  0  0  0  0  0  0  0  0  0  0
   11.6218    5.1429   11.3829 C   0  0  0  0  0  0  0  0  0  0  0  0
   12.9817    4.9427   11.4776 C   0  0  0  0  0  0  0  0  0  0  0  0
   10.3455    1.5401    9.7270 Br  0  0  0  0  0  0  0  0  0  0  0  0
   13.3216    1.5385   10.1136 O   0  0  0  0  0  0  0  0  0  0  0  0
   14.3024    1.3249   10.1531 H   0  0  0  0  0  0  0  0  0  0  0  0
    8.9086    9.4711   15.7830 C   0  0  0  0  0  0  0  0  0  0  0  0
    9.8609   10.5705   15.7468 N   0  0  0  0  0  0  0  0  0  0  0  0
   10.7296   10.5213   16.9161 C   0  0  0  0  0  0  0  0  0  0  0  0
   11.9788    9.7295   16.6514 C   0  0  0  0  0  0  0  0  0  0  0  0
   11.8641    8.8234   15.6134 O   0  0  0  0  0  0  0  0  0  0  0  0
   11.5216    9.3860   14.3932 C   0  0  0  0  0  0  0  0  0  0  0  0
   10.6482   10.6024   14.5389 C   0  0  0  0  0  0  0  0  0  0  0  0
 20 21  1  0  0  0
 21 22  2  0  0  0
 21 26  1  0  0  0
 22 23  1  0  0  0
 22 28  1  0  0  0
 23 24  2  0  0  0
 23 27  1  0  0  0
 24 25  1  0  0  0
 25 26  2  0  0  0
 25 18  1  0  0  0
 18 19  2  0  0  0
 19 14  1  0  0  0
 14 15  1  0  0  0
 15 16  2  0  0  0
 15  1  1  0  0  0
  1  2  1  0  0  0
  1  5  2  0  0  0
  2  3  1  0  0  0
  2  6  1  0  0  0
  3  4  2  0  0  0
  4  5  1  0  0  0
  5 30  1  0  0  0
 30 31  1  0  0  0
 31 32  1  0  0  0
 31 36  1  0  0  0
 32 33  1  0  0  0
 33 34  1  0  0  0
 34 35  1  0  0  0
 35 36  1  0  0  0
  6  7  2  0  0  0
  6 10  1  0  0  0
  7  8  1  0  0  0
  8  9  1  0  0  0
  9 10  2  0  0  0
 10 11  1  0  0  0
 14 17  1  0  0  0
 11 12  1  0  0  0
 11 13  1  0  0  0
 28 29  1  0  0  0
M  END
> <minimizedAffinity>
-8.81106

$$$$
1300


 22 25  0  0  0  0  0  0  0  0999 V2000
    8.5703    6.6856   12.7934 N   0  0  0  0  0  0  0  0  0  0  0  0
    9.8028    6.4193   13.4368 C   0  0  0  0  0  0  0  0  0  0  0  0
   10.1105    6.7196   14.6087 O   0  0  0  0  0  0  0  0  0  0  0  0
   10.7224    5.7139   12.5189 C   0  0  0  0  0  0  0  0  0  0  0  0
   11.6033    6.7709   11.8888 C   0  0  0  0  0  0  0  0  0  0  0  0
   10.6734    7.3570   10.9891 O   0  0  0  0  0  0  0  0  0  0  0  0
   10.4170    6.1761   10.2425 C   0  0  0  0  0  0  0  0  0  0  0  0
    9.8611    5.2967   11.3303 C   0  0  0  0  0  0  0  0  0  0  0  0
    8.5107    5.7922   11.6786 C   0  0  0  0  0  0  0  0  0  0  0  0
    7.4370    5.4730   11.0724 O   0  0  0  0  0  0  0  0  0  0  0  0
   11.8004    5.8088    9.8739 C   0  0  0  0  0  0  0  0  0  0  0  0
   12.5446    6.1546   10.9211 C   0  0  0  0  0  0  0  0  0  0  0  0
    6.6662    5.6166   14.8845 Br  0  0  0  0  0  0  0  0  0  0  0  0
    6.5644    7.3269   14.0279 C   0  0  0  0  0  0  0  0  0  0  0  0
    7.5423    7.6141   13.1035 C   0  0  0  0  0  0  0  0  0  0  0  0
    7.4631    8.8631   12.4855 C   0  0  0  0  0  0  0  0  0  0  0  0
    6.4527    9.7414   12.7997 C   0  0  0  0  0  0  0  0  0  0  0  0
    5.4689    9.4513   13.7305 C   0  0  0  0  0  0  0  0  0  0  0  0
    5.5416    8.2172   14.3461 C   0  0  0  0  0  0  0  0  0  0  0  0
    4.4349   10.3798   14.0327 N   0  0  0  0  0  0  0  0  0  0  0  0
    4.7528   11.5594   14.2647 O   0  0  0  0  0  0  0  0  0  0  0  0
    3.1053   10.0625   14.0855 O   0  0  0  0  0  0  0  0  0  0  0  0
 13 14  1  0  0  0
 14 15  2  0  0  0
 14 19  1  0  0  0
 15 16  1  0  0  0
 15  1  1  0  0  0
 16 17  2  0  0  0
 17 18  1  0  0  0
 18 19  2  0  0  0
 18 20  1  0  0  0
 20 21  2  0  0  0
 20 22  1  0  0  0
  1  2  1  0  0  0
  1  9  1  0  0  0
  2  3  2  0  0  0
  2  4  1  0  0  0
  4  5  1  0  0  0
  4  8  1  0  0  0
  5  6  1  0  0  0
  5 12  1  0  0  0
  6  7  1  0  0  0
  7  8  1  0  0  0
  7 11  1  0  0  0
  8  9  1  0  0  0
  9 10  2  0  0  0
 11 12  2  0  0  0
M  CHG 1  22  -1
M  END
> <minimizedAffinity>
-7.30632

$$$$
1301


 24 27  0  0  0  0  0  0  0  0999 V2000
    8.2999    8.4351   12.4577 N   0  0  0  0  0  0  0  0  0  0  0  0
    7.4550    9.2568   11.6606 C   0  0  0  0  0  0  0  0  0  0  0  0
    7.6631    9.6569   10.4947 O   0  0  0  0  0  0  0  0  0  0  0  0
    6.2226    9.5986   12.4337 C   0  0  0  0  0  0  0  0  0  0  0  0
    5.1578    8.5645   12.2797 C   0  0  0  0  0  0  0  0  0  0  0  0
    5.5877    7.5312   13.1494 O   0  0  0  0  0  0  0  0  0  0  0  0
    5.6566    8.3325   14.3172 C   0  0  0  0  0  0  0  0  0  0  0  0
    6.6418    9.3680   13.8836 C   0  0  0  0  0  0  0  0  0  0  0  0
    8.0028    8.7869   13.8026 C   0  0  0  0  0  0  0  0  0  0  0  0
    8.7715    8.6304   14.7742 O   0  0  0  0  0  0  0  0  0  0  0  0
    4.2690    8.8862   14.3075 C   0  0  0  0  0  0  0  0  0  0  0  0
    3.9456    9.0224   13.0094 C   0  0  0  0  0  0  0  0  0  0  0  0
    6.0071    7.5707   15.5234 C   0  0  0  0  0  0  0  0  0  0  0  0
   13.3354    7.2565   11.2932 Br  0  0  0  0  0  0  0  0  0  0  0  0
   11.4863    6.8167   11.3820 C   0  0  0  0  0  0  0  0  0  0  0  0
   11.0855    5.5718   10.9561 C   0  0  0  0  0  0  0  0  0  0  0  0
    9.7431    5.2807   11.0318 C   0  0  0  0  0  0  0  0  0  0  0  0
    8.8344    6.2232   11.5256 C   0  0  0  0  0  0  0  0  0  0  0  0
    9.2211    7.4760   11.9568 C   0  0  0  0  0  0  0  0  0  0  0  0
   10.5743    7.7542   11.8735 C   0  0  0  0  0  0  0  0  0  0  0  0
   12.0518    4.5630   10.4315 C   0  0  0  0  0  0  0  0  0  0  0  0
    4.9052    8.1013   10.9038 C   0  0  0  0  0  0  0  0  0  0  0  0
    3.6549    7.5011   10.7750 O   0  0  0  0  0  0  0  0  0  0  0  0
    3.6892    6.5073   10.8569 H   0  0  0  0  0  0  0  0  0  0  0  0
 14 15  1  0  0  0
 15 16  2  0  0  0
 15 20  1  0  0  0
 16 17  1  0  0  0
 16 21  1  0  0  0
 17 18  2  0  0  0
 18 19  1  0  0  0
 19 20  2  0  0  0
 19  1  1  0  0  0
  1  2  1  0  0  0
  1  9  1  0  0  0
  2  3  2  0  0  0
  2  4  1  0  0  0
  4  5  1  0  0  0
  4  8  1  0  0  0
  5  6  1  0  0  0
  5 12  1  0  0  0
  5 22  1  0  0  0
  6  7  1  0  0  0
  7  8  1  0  0  0
  7 11  1  0  0  0
  7 13  1  0  0  0
  8  9  1  0  0  0
  9 10  2  0  0  0
 11 12  2  0  0  0
 22 23  1  0  0  0
 23 24  1  0  0  0
M  END
> <minimizedAffinity>
-8.10761

$$$$
1310


 32 35  0  0  0  0  0  0  0  0999 V2000
   11.6238    5.2627   12.4717 C   0  0  0  0  0  0  0  0  0  0  0  0
   10.4891    6.0983   12.1439 N   0  0  0  0  0  0  0  0  0  0  0  0
   10.3068    6.0116   10.7417 C   0  0  0  0  0  0  0  0  0  0  0  0
    9.7884    6.8613    9.9753 O   0  0  0  0  0  0  0  0  0  0  0  0
   10.8500    4.7125   10.3436 C   0  0  0  0  0  0  0  0  0  0  0  0
   10.9113    4.1990    9.2032 O   0  0  0  0  0  0  0  0  0  0  0  0
   11.3353    4.0907   11.5859 C   0  0  0  0  0  0  0  0  0  0  0  0
   11.4846    2.8008   11.7832 C   0  0  0  0  0  0  0  0  0  0  0  0
   12.0056    2.4035   13.0212 O   0  0  0  0  0  0  0  0  0  0  0  0
   11.1203    1.7940   10.7664 C   0  0  0  0  0  0  0  0  0  0  0  0
    9.9484    1.3112   10.4782 O   0  0  0  0  0  0  0  0  0  0  0  0
   10.0133    0.4296    9.5060 C   0  0  0  0  0  0  0  0  0  0  0  0
   11.3326    0.3042    9.1022 C   0  0  0  0  0  0  0  0  0  0  0  0
   12.0221    1.1819    9.9163 C   0  0  0  0  0  0  0  0  0  0  0  0
   11.6725   -0.5644    8.0878 C   0  0  0  0  0  0  0  0  0  0  0  0
   10.7346   -1.3348    7.4387 C   0  0  0  0  0  0  0  0  0  0  0  0
    9.4182   -1.2218    7.8287 C   0  0  0  0  0  0  0  0  0  0  0  0
    9.0699   -0.3447    8.8543 C   0  0  0  0  0  0  0  0  0  0  0  0
   16.9798    4.8598   11.8840 Br  0  0  0  0  0  0  0  0  0  0  0  0
   15.3388    5.8633   11.9233 C   0  0  0  0  0  0  0  0  0  0  0  0
   14.1254    5.2205   12.1765 C   0  0  0  0  0  0  0  0  0  0  0  0
   12.9263    5.8853   12.2174 C   0  0  0  0  0  0  0  0  0  0  0  0
   12.9826    7.2705   11.9885 C   0  0  0  0  0  0  0  0  0  0  0  0
   14.1708    7.9163   11.7370 C   0  0  0  0  0  0  0  0  0  0  0  0
   15.3605    7.2231   11.7022 C   0  0  0  0  0  0  0  0  0  0  0  0
    9.6225    6.8904   13.0141 C   0  0  0  0  0  0  0  0  0  0  0  0
    8.4741    6.0449   13.5310 C   0  0  0  0  0  0  0  0  0  0  0  0
    7.2424    6.1480   12.6707 C   0  0  0  0  0  0  0  0  0  0  0  0
    6.1860    6.7565   13.4138 N   0  0  0  0  0  0  0  0  0  0  0  0
    6.3031    6.5594   14.8431 C   0  0  0  0  0  0  0  0  0  0  0  0
    5.9993    8.1565   13.1800 C   0  0  0  0  0  0  0  0  0  0  0  0
    5.2827    6.2725   13.1285 H   0  0  0  0  0  0  0  0  0  0  0  0
 19 20  1  0  0  0
 20 21  2  0  0  0
 20 25  1  0  0  0
 21 22  1  0  0  0
 22 23  2  0  0  0
 22  1  1  0  0  0
 23 24  1  0  0  0
 24 25  2  0  0  0
  1  2  1  0  0  0
  1  7  1  0  0  0
  2  3  1  0  0  0
  2 26  1  0  0  0
  3  4  2  0  0  0
  3  5  1  0  0  0
  5  6  2  0  0  0
  5  7  1  0  0  0
  7  8  2  0  0  0
  8  9  1  0  0  0
  8 10  1  0  0  0
 10 11  1  0  0  0
 10 14  2  0  0  0
 11 12  1  0  0  0
 12 13  2  0  0  0
 12 18  1  0  0  0
 13 14  1  0  0  0
 13 15  1  0  0  0
 15 16  2  0  0  0
 16 17  1  0  0  0
 17 18  2  0  0  0
 26 27  1  0  0  0
 27 28  1  0  0  0
 28 29  1  0  0  0
 29 30  1  0  0  0
 29 31  1  0  0  0
 29 32  1  0  0  0
M  CHG 1   9  -1
M  CHG 1  29   1
M  END
> <minimizedAffinity>
-8.69364

$$$$
1314


 32 35  0  0  0  0  0  0  0  0999 V2000
    9.3365    5.5375   10.9696 C   0  0  0  0  0  0  0  0  0  0  0  0
    8.0411    5.5681   11.0475 N   0  0  0  0  0  0  0  0  0  0  0  0
    7.6669    6.6791   11.5821 N   0  0  0  0  0  0  0  0  0  0  0  0
    8.7436    7.4933   11.9072 N   0  0  0  0  0  0  0  0  0  0  0  0
    9.8044    6.8125   11.5340 C   0  0  0  0  0  0  0  0  0  0  0  0
    8.4597    8.6989   12.5468 C   0  0  0  0  0  0  0  0  0  0  0  0
    9.4302    9.3815   13.2799 N   0  0  0  0  0  0  0  0  0  0  0  0
    8.8774   10.3797   13.8454 O   0  0  0  0  0  0  0  0  0  0  0  0
    7.6364   10.4520   13.5713 N   0  0  0  0  0  0  0  0  0  0  0  0
    7.3452    9.4012   12.7536 C   0  0  0  0  0  0  0  0  0  0  0  0
    6.0069    9.1973   12.2844 N   0  0  0  0  0  0  0  0  0  0  0  0
    5.6788    9.8083   11.5231 H   0  0  0  0  0  0  0  0  0  0  0  0
    5.3937    8.5201   12.7333 H   0  0  0  0  0  0  0  0  0  0  0  0
   10.9167    3.6919   11.8406 N   0  0  0  0  0  0  0  0  0  0  0  0
   10.2293    4.4839   10.7053 C   0  0  0  0  0  0  0  0  0  0  0  0
   10.5597    4.0992    9.5893 O   0  0  0  0  0  0  0  0  0  0  0  0
   10.6337    3.9712   12.7761 H   0  0  0  0  0  0  0  0  0  0  0  0
   12.8100    2.3894   10.8946 C   0  0  0  0  0  0  0  0  0  0  0  0
   11.7221    2.8957   11.2200 N   0  0  0  0  0  0  0  0  0  0  0  0
   15.2761    1.8080    9.2381 Br  0  0  0  0  0  0  0  0  0  0  0  0
   13.5722    1.0500    8.9457 C   0  0  0  0  0  0  0  0  0  0  0  0
   12.5587    1.2782    9.8452 C   0  0  0  0  0  0  0  0  0  0  0  0
   11.3279    0.7952    9.6718 C   0  0  0  0  0  0  0  0  0  0  0  0
   11.0168    0.0134    8.5162 C   0  0  0  0  0  0  0  0  0  0  0  0
   11.9878   -0.2059    7.5982 C   0  0  0  0  0  0  0  0  0  0  0  0
   13.2732    0.3063    7.7997 C   0  0  0  0  0  0  0  0  0  0  0  0
   11.2359    7.0622   11.3900 C   0  0  0  0  0  0  0  0  0  0  0  0
   12.2674    6.7791   12.1928 N   0  0  0  0  0  0  0  0  0  0  0  0
   13.4004    6.3086   11.4086 C   0  0  0  0  0  0  0  0  0  0  0  0
   14.6113    7.0372   11.9096 C   0  0  0  0  0  0  0  0  0  0  0  0
   14.1032    7.9927   12.9846 C   0  0  0  0  0  0  0  0  0  0  0  0
   12.7550    7.3227   13.3478 C   0  0  0  0  0  0  0  0  0  0  0  0
 20 21  1  0  0  0
 21 22  2  0  0  0
 21 26  1  0  0  0
 22 23  1  0  0  0
 22 18  1  0  0  0
 23 24  2  0  0  0
 24 25  1  0  0  0
 25 26  2  0  0  0
 18 19  2  0  0  0
 19 14  1  0  0  0
 14 15  1  0  0  0
 15 16  2  0  0  0
 15  1  1  0  0  0
  1  2  1  0  0  0
  1  5  2  0  0  0
  2  3  2  0  0  0
  3  4  1  0  0  0
  4  5  1  0  0  0
  4  6  1  0  0  0
  5 27  1  0  0  0
 27 28  1  0  0  0
 28 29  1  0  0  0
 28 32  1  0  0  0
 29 30  1  0  0  0
 30 31  1  0  0  0
 31 32  1  0  0  0
  6  7  2  0  0  0
  6 10  1  0  0  0
  7  8  1  0  0  0
  8  9  1  0  0  0
  9 10  2  0  0  0
 10 11  1  0  0  0
 14 17  1  0  0  0
 11 12  1  0  0  0
 11 13  1  0  0  0
M  END
> <minimizedAffinity>
-8.95858

$$$$
1315


 30 33  0  0  0  0  0  0  0  0999 V2000
   12.6209    4.0380   11.4337 N   0  0  0  0  0  0  0  0  0  0  0  0
   13.4411    5.1288   11.5817 C   0  0  0  0  0  0  0  0  0  0  0  0
   12.6889    6.2234   11.2680 C   0  0  0  0  0  0  0  0  0  0  0  0
   13.2692    7.4940   11.3249 C   0  0  0  0  0  0  0  0  0  0  0  0
   14.5907    7.6208   11.6968 C   0  0  0  0  0  0  0  0  0  0  0  0
   15.3525    6.5177   12.0153 C   0  0  0  0  0  0  0  0  0  0  0  0
   14.7620    5.2529   11.9552 C   0  0  0  0  0  0  0  0  0  0  0  0
   11.4492    5.7939   10.9447 N   0  0  0  0  0  0  0  0  0  0  0  0
   11.3903    4.4640   11.0422 C   0  0  0  0  0  0  0  0  0  0  0  0
   10.3131    3.7272   10.8878 N   0  0  0  0  0  0  0  0  0  0  0  0
    9.4170    4.1026   10.5895 H   0  0  0  0  0  0  0  0  0  0  0  0
   10.3718    2.7234   11.1089 H   0  0  0  0  0  0  0  0  0  0  0  0
   13.0172    2.6779   11.7292 C   0  0  0  0  0  0  0  0  0  0  0  0
   13.5666    1.9536   10.5761 C   0  0  0  0  0  0  0  0  0  0  0  0
   14.8670    2.0454   10.4129 O   0  0  0  0  0  0  0  0  0  0  0  0
    9.2402   -0.6708    8.7533 Br  0  0  0  0  0  0  0  0  0  0  0  0
   11.0731   -0.0595    8.6360 C   0  0  0  0  0  0  0  0  0  0  0  0
   11.6280    0.6925    9.6313 C   0  0  0  0  0  0  0  0  0  0  0  0
   12.9150    1.1453    9.5782 C   0  0  0  0  0  0  0  0  0  0  0  0
   13.6469    0.7940    8.4333 C   0  0  0  0  0  0  0  0  0  0  0  0
   13.1260    0.0424    7.4165 C   0  0  0  0  0  0  0  0  0  0  0  0
   11.8236   -0.3846    7.5288 C   0  0  0  0  0  0  0  0  0  0  0  0
   10.3847    6.7199   10.5990 C   0  0  0  0  0  0  0  0  0  0  0  0
    9.4666    7.0858   11.6913 C   0  0  0  0  0  0  0  0  0  0  0  0
    8.7437    6.0686   12.3659 N   0  0  0  0  0  0  0  0  0  0  0  0
    7.3346    6.0353   11.8971 C   0  0  0  0  0  0  0  0  0  0  0  0
    6.6588    7.3578   12.0535 C   0  0  0  0  0  0  0  0  0  0  0  0
    6.5304    7.5900   13.4239 O   0  0  0  0  0  0  0  0  0  0  0  0
    7.7468    7.5773   14.0598 C   0  0  0  0  0  0  0  0  0  0  0  0
    8.5876    6.3562   13.8016 C   0  0  0  0  0  0  0  0  0  0  0  0
 16 17  1  0  0  0
 17 18  2  0  0  0
 17 22  1  0  0  0
 18 19  1  0  0  0
 19 20  2  0  0  0
 19 14  1  0  0  0
 20 21  1  0  0  0
 21 22  2  0  0  0
 14 15  2  0  0  0
 14 13  1  0  0  0
 13  1  1  0  0  0
  1  2  1  0  0  0
  1  9  1  0  0  0
  2  3  1  0  0  0
  2  7  2  0  0  0
  3  4  2  0  0  0
  3  8  1  0  0  0
  4  5  1  0  0  0
  5  6  2  0  0  0
  6  7  1  0  0  0
  8  9  1  0  0  0
  8 23  1  0  0  0
  9 10  2  0  0  0
 23 24  1  0  0  0
 24 25  1  0  0  0
 25 26  1  0  0  0
 25 30  1  0  0  0
 26 27  1  0  0  0
 27 28  1  0  0  0
 28 29  1  0  0  0
 29 30  1  0  0  0
 10 11  1  0  0  0
 10 12  1  0  0  0
M  END
> <minimizedAffinity>
-8.39275

$$$$
1325


 31 34  0  0  0  0  0  0  0  0999 V2000
   12.6047    5.6224   10.8162 C   0  0  0  0  0  0  0  0  0  0  0  0
   12.3739    4.2109   10.7228 N   0  0  0  0  0  0  0  0  0  0  0  0
   11.0594    4.1216   10.0968 C   0  0  0  0  0  0  0  0  0  0  0  0
   10.6290    3.1629    9.4189 O   0  0  0  0  0  0  0  0  0  0  0  0
   10.3446    5.3459   10.4061 C   0  0  0  0  0  0  0  0  0  0  0  0
    9.1754    5.6956   10.0655 O   0  0  0  0  0  0  0  0  0  0  0  0
   11.2674    6.1427   11.2210 C   0  0  0  0  0  0  0  0  0  0  0  0
   10.9340    7.0939   12.0491 C   0  0  0  0  0  0  0  0  0  0  0  0
   11.9544    7.7923   12.7061 O   0  0  0  0  0  0  0  0  0  0  0  0
    9.5217    7.4377   12.3076 C   0  0  0  0  0  0  0  0  0  0  0  0
    8.7702    8.2262   11.5475 O   0  0  0  0  0  0  0  0  0  0  0  0
    7.5607    8.3471   12.0301 C   0  0  0  0  0  0  0  0  0  0  0  0
    7.4480    7.6103   13.1905 C   0  0  0  0  0  0  0  0  0  0  0  0
    8.7040    7.0468   13.3403 C   0  0  0  0  0  0  0  0  0  0  0  0
    6.2620    7.5772   13.8891 C   0  0  0  0  0  0  0  0  0  0  0  0
    5.1371    8.2625   13.4860 C   0  0  0  0  0  0  0  0  0  0  0  0
    5.2452    9.0042   12.3235 C   0  0  0  0  0  0  0  0  0  0  0  0
    6.4244    9.0474   11.6128 C   0  0  0  0  0  0  0  0  0  0  0  0
   17.3674    7.9839   13.9883 Br  0  0  0  0  0  0  0  0  0  0  0  0
   15.8955    7.2394   13.0139 C   0  0  0  0  0  0  0  0  0  0  0  0
   15.4659    7.7811   11.8281 C   0  0  0  0  0  0  0  0  0  0  0  0
   14.4101    7.2284   11.1494 C   0  0  0  0  0  0  0  0  0  0  0  0
   13.7106    6.0975   11.6088 C   0  0  0  0  0  0  0  0  0  0  0  0
   14.1527    5.5771   12.7853 C   0  0  0  0  0  0  0  0  0  0  0  0
   15.2167    6.1330   13.4694 C   0  0  0  0  0  0  0  0  0  0  0  0
   13.1741    3.0513   11.0482 C   0  0  0  0  0  0  0  0  0  0  0  0
   14.1321    2.5635   10.0450 C   0  0  0  0  0  0  0  0  0  0  0  0
   13.6108    1.7661    8.9657 N   0  0  0  0  0  0  0  0  0  0  0  0
   14.5932    1.4956    7.9547 C   0  0  0  0  0  0  0  0  0  0  0  0
   12.8352    0.6292    9.3729 C   0  0  0  0  0  0  0  0  0  0  0  0
   12.9081    2.4249    8.4825 H   0  0  0  0  0  0  0  0  0  0  0  0
 19 20  1  0  0  0
 20 21  2  0  0  0
 20 25  1  0  0  0
 21 22  1  0  0  0
 22 23  2  0  0  0
 23 24  1  0  0  0
 23  1  1  0  0  0
 24 25  2  0  0  0
  1  2  1  0  0  0
  1  7  1  0  0  0
  2  3  1  0  0  0
  2 26  1  0  0  0
  3  4  2  0  0  0
  3  5  1  0  0  0
  5  6  2  0  0  0
  5  7  1  0  0  0
  7  8  2  0  0  0
  8  9  1  0  0  0
  8 10  1  0  0  0
 10 11  1  0  0  0
 10 14  2  0  0  0
 11 12  1  0  0  0
 12 13  2  0  0  0
 12 18  1  0  0  0
 13 14  1  0  0  0
 13 15  1  0  0  0
 15 16  2  0  0  0
 16 17  1  0  0  0
 17 18  2  0  0  0
 26 27  1  0  0  0
 27 28  1  0  0  0
 28 29  1  0  0  0
 28 30  1  0  0  0
 28 31  1  0  0  0
M  CHG 1   9  -1
M  CHG 1  28   1
M  END
> <minimizedAffinity>
-7.96075

$$$$
1329


 28 31  0  0  0  0  0  0  0  0999 V2000
   16.0854    2.7385   10.4692 C   0  0  0  0  0  0  0  0  0  0  0  0
   14.9643    2.1588   10.0364 C   0  0  0  0  0  0  0  0  0  0  0  0
   13.6626    2.4268   10.4555 O   0  0  0  0  0  0  0  0  0  0  0  0
   12.7667    1.6416    9.7833 C   0  0  0  0  0  0  0  0  0  0  0  0
   13.4312    0.8130    8.8857 C   0  0  0  0  0  0  0  0  0  0  0  0
   12.6762   -0.0518    8.1093 C   0  0  0  0  0  0  0  0  0  0  0  0
   11.3058   -0.0772    8.2333 C   0  0  0  0  0  0  0  0  0  0  0  0
   10.6728    0.7699    9.1465 C   0  0  0  0  0  0  0  0  0  0  0  0
   11.3949    1.6333    9.9273 C   0  0  0  0  0  0  0  0  0  0  0  0
    9.2912    0.6684    9.1967 O   0  0  0  0  0  0  0  0  0  0  0  0
   14.8665    1.1163    9.0179 C   0  0  0  0  0  0  0  0  0  0  0  0
   15.7820    0.5544    8.3628 O   0  0  0  0  0  0  0  0  0  0  0  0
   18.7727    5.9414   13.7796 Br  0  0  0  0  0  0  0  0  0  0  0  0
   17.1618    5.2563   13.0140 C   0  0  0  0  0  0  0  0  0  0  0  0
   17.2110    4.2719   12.0306 C   0  0  0  0  0  0  0  0  0  0  0  0
   16.0495    3.7731   11.4837 C   0  0  0  0  0  0  0  0  0  0  0  0
   14.8284    4.2415   11.9029 C   0  0  0  0  0  0  0  0  0  0  0  0
   14.7981    5.2128   12.8759 C   0  0  0  0  0  0  0  0  0  0  0  0
   15.9358    5.7381   13.4459 C   0  0  0  0  0  0  0  0  0  0  0  0
   10.6914    2.4420   10.9243 C   0  0  0  0  0  0  0  0  0  0  0  0
   11.1924    3.7497   11.1447 N   0  0  0  0  0  0  0  0  0  0  0  0
   10.9631    4.0969   12.5376 C   0  0  0  0  0  0  0  0  0  0  0  0
   10.5645    5.5115   12.7814 C   0  0  0  0  0  0  0  0  0  0  0  0
    9.5075    5.9966   11.9656 N   0  0  0  0  0  0  0  0  0  0  0  0
    9.2585    5.1430   10.8509 C   0  0  0  0  0  0  0  0  0  0  0  0
   10.5508    4.6915   10.2587 C   0  0  0  0  0  0  0  0  0  0  0  0
    9.7835    7.3594   11.5622 C   0  0  0  0  0  0  0  0  0  0  0  0
   12.2305    3.8364   10.9265 H   0  0  0  0  0  0  0  0  0  0  0  0
 13 14  1  0  0  0
 14 15  2  0  0  0
 14 19  1  0  0  0
 15 16  1  0  0  0
 16 17  2  0  0  0
 16  1  1  0  0  0
 17 18  1  0  0  0
 18 19  2  0  0  0
  1  2  2  0  0  0
  2  3  1  0  0  0
  2 11  1  0  0  0
  3  4  1  0  0  0
  4  5  2  0  0  0
  4  9  1  0  0  0
  5  6  1  0  0  0
  5 11  1  0  0  0
  6  7  2  0  0  0
  7  8  1  0  0  0
  8  9  2  0  0  0
  8 10  1  0  0  0
  9 20  1  0  0  0
 20 21  1  0  0  0
 21 22  1  0  0  0
 21 26  1  0  0  0
 22 23  1  0  0  0
 23 24  1  0  0  0
 24 25  1  0  0  0
 24 27  1  0  0  0
 25 26  1  0  0  0
 11 12  2  0  0  0
 21 28  1  0  0  0
M  CHG 1  10  -1
M  CHG 1  21   1
M  END
> <minimizedAffinity>
-9.58908

$$$$
1337


 32 35  0  0  0  0  0  0  0  0999 V2000
   11.2477    6.9294   12.1036 N   0  0  0  0  0  0  0  0  0  0  0  0
    9.9415    7.4776   12.1372 C   0  0  0  0  0  0  0  0  0  0  0  0
    9.4348    7.8559   11.0467 O   0  0  0  0  0  0  0  0  0  0  0  0
   11.6715    6.6156   13.0023 H   0  0  0  0  0  0  0  0  0  0  0  0
    9.2167    7.5910   13.4306 C   0  0  0  0  0  0  0  0  0  0  0  0
    7.9430    7.2012   13.2497 O   0  0  0  0  0  0  0  0  0  0  0  0
    6.9837    7.7090   14.0679 C   0  0  0  0  0  0  0  0  0  0  0  0
    5.7383    7.4482   13.4781 O   0  0  0  0  0  0  0  0  0  0  0  0
    5.4447    8.5033   12.6493 C   0  0  0  0  0  0  0  0  0  0  0  0
    6.3666    9.5080   12.8658 O   0  0  0  0  0  0  0  0  0  0  0  0
    6.9606    9.2186   14.1162 C   0  0  0  0  0  0  0  0  0  0  0  0
    8.3137    9.8043   14.2454 C   0  0  0  0  0  0  0  0  0  0  0  0
    8.5095   10.3725   15.5250 O   0  0  0  0  0  0  0  0  0  0  0  0
    9.7682   10.0219   15.9428 C   0  0  0  0  0  0  0  0  0  0  0  0
    9.9961    8.8045   15.3560 O   0  0  0  0  0  0  0  0  0  0  0  0
    9.4622    8.9094   14.0630 C   0  0  0  0  0  0  0  0  0  0  0  0
    9.7118    9.9057   17.4710 C   0  0  0  0  0  0  0  0  0  0  0  0
   10.8147   11.0615   15.6384 C   0  0  0  0  0  0  0  0  0  0  0  0
    4.0696    9.1004   12.9517 C   0  0  0  0  0  0  0  0  0  0  0  0
    5.4219    8.1034   11.1830 C   0  0  0  0  0  0  0  0  0  0  0  0
   12.0167    6.7841   10.9036 C   0  0  0  0  0  0  0  0  0  0  0  0
   12.0140    4.2534   10.7164 N   0  0  0  0  0  0  0  0  0  0  0  0
   11.6783    5.5187   10.2024 C   0  0  0  0  0  0  0  0  0  0  0  0
   11.0715    5.6300    9.1187 O   0  0  0  0  0  0  0  0  0  0  0  0
   12.5345    4.2695   11.6533 H   0  0  0  0  0  0  0  0  0  0  0  0
   10.5798   -1.2504    8.4286 Br  0  0  0  0  0  0  0  0  0  0  0  0
   11.0908    0.4603    9.1232 C   0  0  0  0  0  0  0  0  0  0  0  0
   10.1356    1.2352    9.7425 C   0  0  0  0  0  0  0  0  0  0  0  0
   10.4830    2.4669   10.2471 C   0  0  0  0  0  0  0  0  0  0  0  0
   11.7636    2.9971   10.1747 C   0  0  0  0  0  0  0  0  0  0  0  0
   12.6952    2.1986    9.5505 C   0  0  0  0  0  0  0  0  0  0  0  0
   12.3583    0.9397    9.0296 C   0  0  0  0  0  0  0  0  0  0  0  0
 26 27  1  0  0  0
 27 28  2  0  0  0
 27 32  1  0  0  0
 28 29  1  0  0  0
 29 30  2  0  0  0
 30 31  1  0  0  0
 30 22  1  0  0  0
 31 32  2  0  0  0
 22 23  1  0  0  0
 23 24  2  0  0  0
 23 21  1  0  0  0
 21  1  1  0  0  0
  1  2  1  0  0  0
  2  3  2  0  0  0
  2  5  1  0  0  0
  5  6  1  0  0  0
  5 16  1  0  0  0
  6  7  1  0  0  0
  7  8  1  0  0  0
  7 11  1  0  0  0
  8  9  1  0  0  0
  9 10  1  0  0  0
  9 19  1  0  0  0
  9 20  1  0  0  0
 10 11  1  0  0  0
 11 12  1  0  0  0
 12 13  1  0  0  0
 12 16  1  0  0  0
 13 14  1  0  0  0
 14 15  1  0  0  0
 14 17  1  0  0  0
 14 18  1  0  0  0
 15 16  1  0  0  0
 22 25  1  0  0  0
  1  4  1  0  0  0
M  END
> <minimizedAffinity>
-8.73346

$$$$
1341


 28 31  0  0  0  0  0  0  0  0999 V2000
   12.1154    1.6826    9.9114 C   0  0  0  0  0  0  0  0  0  0  0  0
   13.4597    1.8399    9.8948 N   0  0  0  0  0  0  0  0  0  0  0  0
   13.7787    2.8965   10.6706 C   0  0  0  0  0  0  0  0  0  0  0  0
   12.6629    3.4421   11.2007 N   0  0  0  0  0  0  0  0  0  0  0  0
   11.6450    2.6875   10.7277 C   0  0  0  0  0  0  0  0  0  0  0  0
   15.2510    3.0914   10.6719 C   0  0  0  0  0  0  0  0  0  0  0  0
   15.8052    2.0811    9.7276 C   0  0  0  0  0  0  0  0  0  0  0  0
   14.6471    1.2485    9.3193 C   0  0  0  0  0  0  0  0  0  0  0  0
    8.5954   -2.3998    7.1616 Cl  0  0  0  0  0  0  0  0  0  0  0  0
    9.6228   -1.2149    7.9578 C   0  0  0  0  0  0  0  0  0  0  0  0
    9.1194   -0.3432    8.8988 C   0  0  0  0  0  0  0  0  0  0  0  0
    9.9320    0.5874    9.5212 C   0  0  0  0  0  0  0  0  0  0  0  0
   11.2794    0.6911    9.2367 C   0  0  0  0  0  0  0  0  0  0  0  0
   11.7864   -0.1811    8.2965 C   0  0  0  0  0  0  0  0  0  0  0  0
   10.9672   -1.1240    7.6640 C   0  0  0  0  0  0  0  0  0  0  0  0
   12.5508    4.5835   12.0857 C   0  0  0  0  0  0  0  0  0  0  0  0
   11.3773    5.4153   11.6943 C   0  0  0  0  0  0  0  0  0  0  0  0
   11.3653    5.8989   10.5608 O   0  0  0  0  0  0  0  0  0  0  0  0
   10.3624    5.5969   12.6356 N   0  0  0  0  0  0  0  0  0  0  0  0
   10.4262    5.1513   13.6114 H   0  0  0  0  0  0  0  0  0  0  0  0
    9.1807    6.3517   12.4159 C   0  0  0  0  0  0  0  0  0  0  0  0
    9.2376    7.7460   12.5398 C   0  0  0  0  0  0  0  0  0  0  0  0
    8.1217    8.4974   12.3550 C   0  0  0  0  0  0  0  0  0  0  0  0
    6.9055    7.9138   12.0404 C   0  0  0  0  0  0  0  0  0  0  0  0
    6.8598    6.5538   11.9227 C   0  0  0  0  0  0  0  0  0  0  0  0
    7.9931    5.7519   12.1074 C   0  0  0  0  0  0  0  0  0  0  0  0
    5.6989    8.7560   11.8423 C   0  0  0  0  0  0  0  0  0  0  0  0
    4.8997    8.1743   10.6720 C   0  0  0  0  0  0  0  0  0  0  0  0
  9 10  1  0  0  0
 10 11  2  0  0  0
 10 15  1  0  0  0
 11 12  1  0  0  0
 12 13  2  0  0  0
 13 14  1  0  0  0
 13  1  1  0  0  0
 14 15  2  0  0  0
  1  2  1  0  0  0
  1  5  2  0  0  0
  2  3  1  0  0  0
  2  8  1  0  0  0
  3  4  2  0  0  0
  3  6  1  0  0  0
  4  5  1  0  0  0
  4 16  1  0  0  0
 16 17  1  0  0  0
 17 18  2  0  0  0
 17 19  1  0  0  0
 19 21  1  0  0  0
 21 22  2  0  0  0
 21 26  1  0  0  0
 22 23  1  0  0  0
 23 24  2  0  0  0
 24 25  1  0  0  0
 24 27  1  0  0  0
 25 26  2  0  0  0
 27 28  1  0  0  0
  6  7  1  0  0  0
  7  8  1  0  0  0
 19 20  1  0  0  0
M  END
> <minimizedAffinity>
-9.44409

$$$$
1343


 41 44  0  0  0  0  0  0  0  0999 V2000
    8.2930    7.7930   12.4125 C   0  0  0  0  0  0  0  0  0  0  0  0
    7.5516    7.9835   13.5342 N   0  0  0  0  0  0  0  0  0  0  0  0
    6.2682    8.2362   13.1692 C   0  0  0  0  0  0  0  0  0  0  0  0
    5.1403    8.4910   13.8423 N   0  0  0  0  0  0  0  0  0  0  0  0
    3.9683    8.7114   13.2192 C   0  0  0  0  0  0  0  0  0  0  0  0
    3.9292    8.6747   11.8694 N   0  0  0  0  0  0  0  0  0  0  0  0
    5.0091    8.4280   11.1362 C   0  0  0  0  0  0  0  0  0  0  0  0
    6.2087    8.2017   11.7817 C   0  0  0  0  0  0  0  0  0  0  0  0
    7.4384    7.9348   11.3767 N   0  0  0  0  0  0  0  0  0  0  0  0
    5.0005    8.3826    9.7383 O   0  0  0  0  0  0  0  0  0  0  0  0
    2.7677    8.9831   13.9574 N   0  0  0  0  0  0  0  0  0  0  0  0
    4.7786    7.4854    9.3236 H   0  0  0  0  0  0  0  0  0  0  0  0
    2.2061    9.8349   13.8568 H   0  0  0  0  0  0  0  0  0  0  0  0
    2.4664    8.2513   14.6350 H   0  0  0  0  0  0  0  0  0  0  0  0
    8.0451    7.9265   14.8755 C   0  0  0  0  0  0  0  0  0  0  0  0
    9.2196    8.6383   15.0758 O   0  0  0  0  0  0  0  0  0  0  0  0
    9.8515    8.1344   16.1763 C   0  0  0  0  0  0  0  0  0  0  0  0
    9.2269    6.8402   16.5711 C   0  0  0  0  0  0  0  0  0  0  0  0
    8.3563    6.5232   15.3534 C   0  0  0  0  0  0  0  0  0  0  0  0
    7.2049    5.8375   15.7383 O   0  0  0  0  0  0  0  0  0  0  0  0
    8.3206    7.0384   17.6327 O   0  0  0  0  0  0  0  0  0  0  0  0
    7.0541    5.0636   15.1360 H   0  0  0  0  0  0  0  0  0  0  0  0
    8.2053    6.2215   18.1640 H   0  0  0  0  0  0  0  0  0  0  0  0
   11.3090    7.8542   15.8050 C   0  0  0  0  0  0  0  0  0  0  0  0
   11.3636    6.9932   14.7033 O   0  0  0  0  0  0  0  0  0  0  0  0
   10.4762    6.5938   14.5135 H   0  0  0  0  0  0  0  0  0  0  0  0
    9.6844    7.5035   12.3637 N   0  0  0  0  0  0  0  0  0  0  0  0
   10.3633    8.2274   12.6462 H   0  0  0  0  0  0  0  0  0  0  0  0
   11.2168    5.9481   11.4625 C   0  0  0  0  0  0  0  0  0  0  0  0
   10.0671    6.2207   11.9261 N   0  0  0  0  0  0  0  0  0  0  0  0
   14.1047    5.2657   12.2483 Br  0  0  0  0  0  0  0  0  0  0  0  0
   12.9097    4.1604   11.2661 C   0  0  0  0  0  0  0  0  0  0  0  0
   11.6414    4.6308   11.0018 C   0  0  0  0  0  0  0  0  0  0  0  0
   10.8097    3.7959   10.2868 C   0  0  0  0  0  0  0  0  0  0  0  0
   11.2075    2.5502    9.8488 C   0  0  0  0  0  0  0  0  0  0  0  0
   12.4763    2.0794   10.1138 C   0  0  0  0  0  0  0  0  0  0  0  0
   13.3235    2.8997   10.8278 C   0  0  0  0  0  0  0  0  0  0  0  0
   10.3612    1.7133    9.1279 O   0  0  0  0  0  0  0  0  0  0  0  0
    9.5615    0.7219    9.6902 C   0  0  0  0  0  0  0  0  0  0  0  0
   12.8727    0.8177    9.6682 O   0  0  0  0  0  0  0  0  0  0  0  0
   13.4341    0.5892    8.4110 C   0  0  0  0  0  0  0  0  0  0  0  0
 31 32  1  0  0  0
 32 33  2  0  0  0
 32 37  1  0  0  0
 33 34  1  0  0  0
 33 29  1  0  0  0
 34 35  2  0  0  0
 35 36  1  0  0  0
 35 38  1  0  0  0
 36 37  2  0  0  0
 36 40  1  0  0  0
 40 41  1  0  0  0
 38 39  1  0  0  0
 29 30  2  0  0  0
 30 27  1  0  0  0
 27  1  1  0  0  0
  1  2  1  0  0  0
  1  9  2  0  0  0
  2  3  1  0  0  0
  2 15  1  0  0  0
  3  4  2  0  0  0
  3  8  1  0  0  0
  4  5  1  0  0  0
  5  6  2  0  0  0
  5 11  1  0  0  0
  6  7  1  0  0  0
  7  8  2  0  0  0
  7 10  1  0  0  0
  8  9  1  0  0  0
 15 16  1  0  0  0
 15 19  1  0  0  0
 16 17  1  0  0  0
 17 18  1  0  0  0
 17 24  1  0  0  0
 18 19  1  0  0  0
 18 21  1  0  0  0
 19 20  1  0  0  0
 24 25  1  0  0  0
 27 28  1  0  0  0
 10 12  1  0  0  0
 11 13  1  0  0  0
 11 14  1  0  0  0
 20 22  1  0  0  0
 21 23  1  0  0  0
 25 26  1  0  0  0
M  END
> <minimizedAffinity>
-9.33988

$$$$
1355


 27 30  0  0  0  0  0  0  0  0999 V2000
    9.1597    5.9363   11.3354 N   0  0  0  0  0  0  0  0  0  0  0  0
    8.9260    6.1663   12.7026 C   0  0  0  0  0  0  0  0  0  0  0  0
    9.8861    6.1412   13.5037 O   0  0  0  0  0  0  0  0  0  0  0  0
    8.3581    5.9586   10.6741 H   0  0  0  0  0  0  0  0  0  0  0  0
    7.5647    6.4333   13.1908 C   0  0  0  0  0  0  0  0  0  0  0  0
    7.5647    7.2881   14.4444 C   0  0  0  0  0  0  0  0  0  0  0  0
    6.1825    7.7078   14.8177 C   0  0  0  0  0  0  0  0  0  0  0  0
    5.7446    9.0183   14.2501 C   0  0  0  0  0  0  0  0  0  0  0  0
    6.4278    9.3303   12.9222 C   0  0  0  0  0  0  0  0  0  0  0  0
    6.1808    8.2146   12.0383 N   0  0  0  0  0  0  0  0  0  0  0  0
    5.4216    8.2861   10.9777 N   0  0  0  0  0  0  0  0  0  0  0  0
    5.4021    7.1129   10.3954 N   0  0  0  0  0  0  0  0  0  0  0  0
    6.1616    6.3033   11.1076 N   0  0  0  0  0  0  0  0  0  0  0  0
    6.6696    6.9732   12.1566 C   0  0  0  0  0  0  0  0  0  0  0  0
   10.4946    5.6696   10.8318 C   0  0  0  0  0  0  0  0  0  0  0  0
   10.8979    2.1027   10.0873 C   0  0  0  0  0  0  0  0  0  0  0  0
   11.3024    2.1842   11.3655 N   0  0  0  0  0  0  0  0  0  0  0  0
   11.2103    3.4321   11.7741 O   0  0  0  0  0  0  0  0  0  0  0  0
   10.7553    4.1852   10.8051 C   0  0  0  0  0  0  0  0  0  0  0  0
   10.5591    3.3604    9.7529 N   0  0  0  0  0  0  0  0  0  0  0  0
   13.3891    1.4146    8.5837 Cl  0  0  0  0  0  0  0  0  0  0  0  0
   11.9158    0.4799    8.5018 C   0  0  0  0  0  0  0  0  0  0  0  0
   10.8396    0.9111    9.2477 C   0  0  0  0  0  0  0  0  0  0  0  0
    9.6961    0.1535    9.1615 C   0  0  0  0  0  0  0  0  0  0  0  0
    9.6085   -0.9758    8.3795 C   0  0  0  0  0  0  0  0  0  0  0  0
   10.7127   -1.3966    7.6282 C   0  0  0  0  0  0  0  0  0  0  0  0
   11.8652   -0.6556    7.6996 C   0  0  0  0  0  0  0  0  0  0  0  0
 21 22  1  0  0  0
 22 23  2  0  0  0
 22 27  1  0  0  0
 23 24  1  0  0  0
 23 16  1  0  0  0
 24 25  2  0  0  0
 25 26  1  0  0  0
 26 27  2  0  0  0
 16 17  2  0  0  0
 16 20  1  0  0  0
 17 18  1  0  0  0
 18 19  1  0  0  0
 19 20  2  0  0  0
 19 15  1  0  0  0
 15  1  1  0  0  0
  1  2  1  0  0  0
  2  3  2  0  0  0
  2  5  1  0  0  0
  5  6  1  0  0  0
  5 14  1  0  0  0
  6  7  1  0  0  0
  7  8  1  0  0  0
  8  9  1  0  0  0
  9 10  1  0  0  0
 10 11  1  0  0  0
 10 14  1  0  0  0
 11 12  2  0  0  0
 12 13  1  0  0  0
 13 14  2  0  0  0
  1  4  1  0  0  0
M  END
> <minimizedAffinity>
-9.73534

$$$$
1357


 24 27  0  0  0  0  0  0  0  0999 V2000
    6.4157    8.3874   13.7727 C   0  0  0  0  0  0  0  0  0  0  0  0
    7.5312    8.3090   12.9371 C   0  0  0  0  0  0  0  0  0  0  0  0
    8.6466    7.3571   12.6818 C   0  0  0  0  0  0  0  0  0  0  0  0
    7.9683    6.6920   11.5409 N   0  0  0  0  0  0  0  0  0  0  0  0
    6.7130    6.5730   11.8412 C   0  0  0  0  0  0  0  0  0  0  0  0
    6.5348    7.1275   13.1464 C   0  0  0  0  0  0  0  0  0  0  0  0
    5.6965    5.9855   10.9985 N   0  0  0  0  0  0  0  0  0  0  0  0
    9.7389    8.0868   12.2000 O   0  0  0  0  0  0  0  0  0  0  0  0
   10.8366    7.7156   12.9520 C   0  0  0  0  0  0  0  0  0  0  0  0
   10.4471    6.3268   13.4297 C   0  0  0  0  0  0  0  0  0  0  0  0
    9.0659    6.5462   13.6580 O   0  0  0  0  0  0  0  0  0  0  0  0
    5.9084    5.1714   10.3908 H   0  0  0  0  0  0  0  0  0  0  0  0
    4.7330    6.3684   10.9857 H   0  0  0  0  0  0  0  0  0  0  0  0
    3.9384    7.8069   15.6947 Br  0  0  0  0  0  0  0  0  0  0  0  0
    5.6960    8.3810   16.1689 C   0  0  0  0  0  0  0  0  0  0  0  0
    6.6689    8.5856   15.2234 C   0  0  0  0  0  0  0  0  0  0  0  0
    7.9259    8.9926   15.6028 C   0  0  0  0  0  0  0  0  0  0  0  0
    8.2470    9.2083   16.9361 C   0  0  0  0  0  0  0  0  0  0  0  0
    7.2879    9.0090   17.8996 C   0  0  0  0  0  0  0  0  0  0  0  0
    6.0112    8.5947   17.5040 C   0  0  0  0  0  0  0  0  0  0  0  0
    6.9185    6.0758   14.1356 C   0  0  0  0  0  0  0  0  0  0  0  0
    7.1965    5.2364   14.9220 N   0  0  0  0  0  0  0  0  0  0  0  0
    7.3398    9.0764   11.6548 C   0  0  0  0  0  0  0  0  0  0  0  0
    7.1965    9.6962   10.6594 N   0  0  0  0  0  0  0  0  0  0  0  0
 14 15  1  0  0  0
 15 16  2  0  0  0
 15 20  1  0  0  0
 16 17  1  0  0  0
 16  1  1  0  0  0
 17 18  2  0  0  0
 18 19  1  0  0  0
 19 20  2  0  0  0
  1  2  1  0  0  0
  1  6  1  0  0  0
  2  3  1  0  0  0
  2  6  1  0  0  0
  2 23  1  0  0  0
  3  4  1  0  0  0
  3  8  1  0  0  0
  3 11  1  0  0  0
  4  5  2  0  0  0
  5  6  1  0  0  0
  5  7  1  0  0  0
  6 21  1  0  0  0
 21 22  3  0  0  0
  8  9  1  0  0  0
  9 10  1  0  0  0
 10 11  1  0  0  0
 23 24  3  0  0  0
  7 12  1  0  0  0
  7 13  1  0  0  0
M  END
> <minimizedAffinity>
-6.34666

$$$$
1360


 34 37  0  0  0  0  0  0  0  0999 V2000
    7.2482    9.6738   14.9766 C   0  0  0  0  0  0  0  0  0  0  0  0
    8.4346    9.1402   14.3593 N   0  0  0  0  0  0  0  0  0  0  0  0
    7.8761    8.0089   13.5839 C   0  0  0  0  0  0  0  0  0  0  0  0
    8.9283    7.5027   12.7907 N   0  0  0  0  0  0  0  0  0  0  0  0
   10.1238    8.1980   13.1569 C   0  0  0  0  0  0  0  0  0  0  0  0
    9.8009    9.1751   14.1008 C   0  0  0  0  0  0  0  0  0  0  0  0
   10.8093    9.9718   14.6012 C   0  0  0  0  0  0  0  0  0  0  0  0
   10.4940   10.8446   15.4504 O   0  0  0  0  0  0  0  0  0  0  0  0
   12.0656    9.7941   14.1765 N   0  0  0  0  0  0  0  0  0  0  0  0
   12.3425    8.8609   13.2815 C   0  0  0  0  0  0  0  0  0  0  0  0
   13.5394    8.7260   12.9080 O   0  0  0  0  0  0  0  0  0  0  0  0
   11.3861    8.0401   12.7483 N   0  0  0  0  0  0  0  0  0  0  0  0
   11.8209    7.0585   11.7804 C   0  0  0  0  0  0  0  0  0  0  0  0
   13.1069   10.6634   14.7348 C   0  0  0  0  0  0  0  0  0  0  0  0
    8.8777    6.4543   11.8044 C   0  0  0  0  0  0  0  0  0  0  0  0
    6.6485    8.5463   12.9784 C   0  0  0  0  0  0  0  0  0  0  0  0
    6.4122    9.8786   13.7032 C   0  0  0  0  0  0  0  0  0  0  0  0
    6.5935    8.7054   15.8257 C   0  0  0  0  0  0  0  0  0  0  0  0
    6.8813    7.4698   15.5292 O   0  0  0  0  0  0  0  0  0  0  0  0
    2.6986    9.1768   20.5339 Br  0  0  0  0  0  0  0  0  0  0  0  0
    3.9077    9.0455   19.0670 C   0  0  0  0  0  0  0  0  0  0  0  0
    4.8360   10.0457   18.8202 C   0  0  0  0  0  0  0  0  0  0  0  0
    5.7159    9.9707   17.7691 C   0  0  0  0  0  0  0  0  0  0  0  0
    5.6822    8.8782   16.9352 C   0  0  0  0  0  0  0  0  0  0  0  0
    4.7534    7.8610   17.1689 C   0  0  0  0  0  0  0  0  0  0  0  0
    3.8787    7.9488   18.2241 C   0  0  0  0  0  0  0  0  0  0  0  0
    4.9968   10.1069   13.9761 C   0  0  0  0  0  0  0  0  0  0  0  0
    4.6029   11.2507   14.3811 O   0  0  0  0  0  0  0  0  0  0  0  0
    4.0569    9.1254   13.8125 O   0  0  0  0  0  0  0  0  0  0  0  0
    2.7184    9.2384   14.3016 C   0  0  0  0  0  0  0  0  0  0  0  0
    6.5891    8.7165   11.5328 C   0  0  0  0  0  0  0  0  0  0  0  0
    7.2760    9.6137   10.9779 O   0  0  0  0  0  0  0  0  0  0  0  0
    5.7967    7.9174   10.7377 O   0  0  0  0  0  0  0  0  0  0  0  0
    4.4279    8.1981   10.5436 C   0  0  0  0  0  0  0  0  0  0  0  0
 20 21  1  0  0  0
 21 22  2  0  0  0
 21 26  1  0  0  0
 22 23  1  0  0  0
 23 24  2  0  0  0
 24 25  1  0  0  0
 24 18  1  0  0  0
 25 26  2  0  0  0
 18 19  2  0  0  0
 18  1  1  0  0  0
  1  2  1  0  0  0
  1 17  1  0  0  0
  2  3  1  0  0  0
  2  6  1  0  0  0
  3  4  1  0  0  0
  3 16  1  0  0  0
  4  5  1  0  0  0
  4 15  1  0  0  0
  5  6  2  0  0  0
  5 12  1  0  0  0
  6  7  1  0  0  0
  7  8  2  0  0  0
  7  9  1  0  0  0
  9 10  1  0  0  0
  9 14  1  0  0  0
 10 11  2  0  0  0
 10 12  1  0  0  0
 12 13  1  0  0  0
 16 17  1  0  0  0
 16 31  1  0  0  0
 17 27  1  0  0  0
 27 28  2  0  0  0
 27 29  1  0  0  0
 29 30  1  0  0  0
 31 32  2  0  0  0
 31 33  1  0  0  0
 33 34  1  0  0  0
M  END
> <minimizedAffinity>
-7.76200

$$$$
1372


 31 34  0  0  0  0  0  0  0  0999 V2000
    8.7707    7.6484   11.8778 C   0  0  0  0  0  0  0  0  0  0  0  0
    9.2641    7.6279   10.7313 O   0  0  0  0  0  0  0  0  0  0  0  0
    8.4615    8.8691   12.4878 N   0  0  0  0  0  0  0  0  0  0  0  0
    8.2890   10.1674   11.9292 C   0  0  0  0  0  0  0  0  0  0  0  0
    7.2614   10.8427   12.8507 C   0  0  0  0  0  0  0  0  0  0  0  0
    6.3115    9.8451   13.4665 C   0  0  0  0  0  0  0  0  0  0  0  0
    5.3626   10.4913   14.3316 N   0  0  0  0  0  0  0  0  0  0  0  0
    4.5451    9.4422   14.9568 C   0  0  0  0  0  0  0  0  0  0  0  0
    3.6804    8.7401   13.9568 C   0  0  0  0  0  0  0  0  0  0  0  0
    4.3113    8.6437   12.6210 C   0  0  0  0  0  0  0  0  0  0  0  0
    3.8644    8.0872   11.4910 N   0  0  0  0  0  0  0  0  0  0  0  0
    4.8006    8.2482   10.5346 C   0  0  0  0  0  0  0  0  0  0  0  0
    5.8268    8.9078   11.0891 N   0  0  0  0  0  0  0  0  0  0  0  0
    5.5825    9.1817   12.3793 C   0  0  0  0  0  0  0  0  0  0  0  0
    7.0299    8.8332   14.3739 C   0  0  0  0  0  0  0  0  0  0  0  0
    8.4441    8.9239   13.9880 C   0  0  0  0  0  0  0  0  0  0  0  0
    5.8732   10.9556   15.1199 H   0  0  0  0  0  0  0  0  0  0  0  0
    2.9641    7.5965   11.2954 H   0  0  0  0  0  0  0  0  0  0  0  0
    8.5179    6.3366   12.5493 C   0  0  0  0  0  0  0  0  0  0  0  0
    7.0814    5.9100   12.1492 C   0  0  0  0  0  0  0  0  0  0  0  0
   10.7210    5.1674   12.4857 C   0  0  0  0  0  0  0  0  0  0  0  0
   11.1987    5.9631   13.3038 O   0  0  0  0  0  0  0  0  0  0  0  0
    9.3374    5.2585   12.0522 N   0  0  0  0  0  0  0  0  0  0  0  0
    8.9520    4.5673   11.4114 H   0  0  0  0  0  0  0  0  0  0  0  0
   10.4576    0.8852    9.3485 Br  0  0  0  0  0  0  0  0  0  0  0  0
   11.4670    2.0975   10.4608 C   0  0  0  0  0  0  0  0  0  0  0  0
   10.8406    3.1584   11.0658 C   0  0  0  0  0  0  0  0  0  0  0  0
   11.5135    4.0831   11.8815 C   0  0  0  0  0  0  0  0  0  0  0  0
   12.8489    3.9016   12.0762 C   0  0  0  0  0  0  0  0  0  0  0  0
   13.4955    2.8308   11.4678 C   0  0  0  0  0  0  0  0  0  0  0  0
   12.8167    1.9306   10.6634 C   0  0  0  0  0  0  0  0  0  0  0  0
 25 26  1  0  0  0
 26 27  2  0  0  0
 26 31  1  0  0  0
 27 28  1  0  0  0
 28 29  2  0  0  0
 28 21  1  0  0  0
 29 30  1  0  0  0
 30 31  2  0  0  0
 21 22  2  0  0  0
 21 23  1  0  0  0
 23 19  1  0  0  0
 19 20  1  0  0  0
 19  1  1  0  0  0
  1  2  2  0  0  0
  1  3  1  0  0  0
  3  4  1  0  0  0
  3 16  1  0  0  0
  4  5  1  0  0  0
  5  6  1  0  0  0
  6  7  1  0  0  0
  6 14  1  0  0  0
  6 15  1  0  0  0
  7  8  1  0  0  0
  8  9  1  0  0  0
  9 10  1  0  0  0
 10 11  1  0  0  0
 10 14  2  0  0  0
 11 12  1  0  0  0
 12 13  2  0  0  0
 13 14  1  0  0  0
 15 16  1  0  0  0
 23 24  1  0  0  0
  7 17  1  0  0  0
 11 18  1  0  0  0
M  END
> <minimizedAffinity>
-9.32844

$$$$
1381


 31 34  0  0  0  0  0  0  0  0999 V2000
   11.4055    2.9111   11.7239 C   0  0  0  0  0  0  0  0  0  0  0  0
   11.3233    2.7249   12.9310 O   0  0  0  0  0  0  0  0  0  0  0  0
   11.9258    2.0481   10.6812 C   0  0  0  0  0  0  0  0  0  0  0  0
   11.0949    1.2004   10.0040 N   0  0  0  0  0  0  0  0  0  0  0  0
   11.5440    0.4046    9.0498 N   0  0  0  0  0  0  0  0  0  0  0  0
   12.8415    0.3915    8.7007 C   0  0  0  0  0  0  0  0  0  0  0  0
   13.2640   -0.3826    7.7777 O   0  0  0  0  0  0  0  0  0  0  0  0
   13.7433    1.2135    9.3341 C   0  0  0  0  0  0  0  0  0  0  0  0
   13.2424    2.0454   10.3387 C   0  0  0  0  0  0  0  0  0  0  0  0
   14.1772    2.8497   10.9430 C   0  0  0  0  0  0  0  0  0  0  0  0
   15.5182    2.8285   10.5743 C   0  0  0  0  0  0  0  0  0  0  0  0
   15.9774    1.9961    9.5808 C   0  0  0  0  0  0  0  0  0  0  0  0
   15.0612    1.1834    8.9620 C   0  0  0  0  0  0  0  0  0  0  0  0
   10.6533   -0.4898    8.3396 C   0  0  0  0  0  0  0  0  0  0  0  0
    9.2588   -0.4851    8.9085 C   0  0  0  0  0  0  0  0  0  0  0  0
    8.2896   -0.7083    7.9480 O   0  0  0  0  0  0  0  0  0  0  0  0
    8.7507   -0.9548    7.1119 H   0  0  0  0  0  0  0  0  0  0  0  0
   10.8937    4.1874   11.3623 O   0  0  0  0  0  0  0  0  0  0  0  0
   11.0683    5.2412   12.2700 C   0  0  0  0  0  0  0  0  0  0  0  0
    4.3438    9.6469   14.2886 Br  0  0  0  0  0  0  0  0  0  0  0  0
    6.0304    8.7574   14.0291 C   0  0  0  0  0  0  0  0  0  0  0  0
    6.1840    7.8194   13.0242 C   0  0  0  0  0  0  0  0  0  0  0  0
    7.3656    7.1838   12.8285 N   0  0  0  0  0  0  0  0  0  0  0  0
    8.4216    7.4488   13.6053 C   0  0  0  0  0  0  0  0  0  0  0  0
    9.5898    6.8163   13.4071 N   0  0  0  0  0  0  0  0  0  0  0  0
    9.7589    5.9023   12.4374 C   0  0  0  0  0  0  0  0  0  0  0  0
    8.6761    5.6294   11.6392 C   0  0  0  0  0  0  0  0  0  0  0  0
    7.4486    6.2800   11.8311 C   0  0  0  0  0  0  0  0  0  0  0  0
    6.4775    6.0067   11.0827 O   0  0  0  0  0  0  0  0  0  0  0  0
    8.2886    8.3745   14.6053 C   0  0  0  0  0  0  0  0  0  0  0  0
    7.1037    9.0420   14.8366 C   0  0  0  0  0  0  0  0  0  0  0  0
 20 21  1  0  0  0
 21 22  2  0  0  0
 21 31  1  0  0  0
 22 23  1  0  0  0
 23 24  1  0  0  0
 23 28  1  0  0  0
 24 25  2  0  0  0
 24 30  1  0  0  0
 25 26  1  0  0  0
 26 27  2  0  0  0
 26 19  1  0  0  0
 27 28  1  0  0  0
 28 29  2  0  0  0
 19 18  1  0  0  0
 18  1  1  0  0  0
  1  2  2  0  0  0
  1  3  1  0  0  0
  3  4  2  0  0  0
  3  9  1  0  0  0
  4  5  1  0  0  0
  5  6  1  0  0  0
  5 14  1  0  0  0
  6  7  2  0  0  0
  6  8  1  0  0  0
  8  9  2  0  0  0
  8 13  1  0  0  0
  9 10  1  0  0  0
 10 11  2  0  0  0
 11 12  1  0  0  0
 12 13  2  0  0  0
 14 15  1  0  0  0
 15 16  1  0  0  0
 30 31  2  0  0  0
 16 17  1  0  0  0
M  END
> <minimizedAffinity>
-9.90010

$$$$
1386


 33 36  0  0  0  0  0  0  0  0999 V2000
   10.5015    5.1453   10.4112 C   0  0  0  0  0  0  0  0  0  0  0  0
    9.8315    5.2334    9.3574 O   0  0  0  0  0  0  0  0  0  0  0  0
    9.9046    5.5746   11.6538 N   0  0  0  0  0  0  0  0  0  0  0  0
    8.5618    6.0876   11.6394 C   0  0  0  0  0  0  0  0  0  0  0  0
    8.6416    7.5615   11.9792 C   0  0  0  0  0  0  0  0  0  0  0  0
    9.7505    7.8994   12.9088 C   0  0  0  0  0  0  0  0  0  0  0  0
   10.2910    6.7674   13.7028 C   0  0  0  0  0  0  0  0  0  0  0  0
   10.5714    5.5233   12.9254 C   0  0  0  0  0  0  0  0  0  0  0  0
   10.8275    8.5289   12.2651 O   0  0  0  0  0  0  0  0  0  0  0  0
    9.2117    8.9387   13.9010 C   0  0  0  0  0  0  0  0  0  0  0  0
   10.8021    8.2634   11.2934 H   0  0  0  0  0  0  0  0  0  0  0  0
    7.3428    7.9766   12.4508 N   0  0  0  0  0  0  0  0  0  0  0  0
    6.7906    7.3843   13.5277 C   0  0  0  0  0  0  0  0  0  0  0  0
    5.5541    7.7483   14.0117 C   0  0  0  0  0  0  0  0  0  0  0  0
    4.8680    8.7518   13.3674 C   0  0  0  0  0  0  0  0  0  0  0  0
    3.7187    9.1348   13.7666 O   0  0  0  0  0  0  0  0  0  0  0  0
    5.4422    9.3232   12.2974 N   0  0  0  0  0  0  0  0  0  0  0  0
    6.6419    8.9522   11.8479 C   0  0  0  0  0  0  0  0  0  0  0  0
    7.1386    9.5234   10.8349 O   0  0  0  0  0  0  0  0  0  0  0  0
    4.9462   10.1023   11.7692 H   0  0  0  0  0  0  0  0  0  0  0  0
   11.8726    4.6236   10.4327 C   0  0  0  0  0  0  0  0  0  0  0  0
   12.0841    3.2581   10.9322 C   0  0  0  0  0  0  0  0  0  0  0  0
    8.4806   -2.4906    7.3643 Cl  0  0  0  0  0  0  0  0  0  0  0  0
    9.7452   -1.3402    7.8258 C   0  0  0  0  0  0  0  0  0  0  0  0
    9.4716   -0.3895    8.7809 C   0  0  0  0  0  0  0  0  0  0  0  0
   10.4336    0.5290    9.1693 C   0  0  0  0  0  0  0  0  0  0  0  0
   10.4456    1.5389   10.0518 N   0  0  0  0  0  0  0  0  0  0  0  0
   11.6867    2.1398   10.0392 C   0  0  0  0  0  0  0  0  0  0  0  0
   12.3949    1.4648    9.1405 N   0  0  0  0  0  0  0  0  0  0  0  0
   11.6699    0.4585    8.5705 C   0  0  0  0  0  0  0  0  0  0  0  0
   11.9539   -0.4906    7.6112 C   0  0  0  0  0  0  0  0  0  0  0  0
   10.9919   -1.3962    7.2336 C   0  0  0  0  0  0  0  0  0  0  0  0
   13.7865    1.6668    8.7784 C   0  0  0  0  0  0  0  0  0  0  0  0
 23 24  1  0  0  0
 24 25  2  0  0  0
 24 32  1  0  0  0
 25 26  1  0  0  0
 26 27  1  0  0  0
 26 30  2  0  0  0
 27 28  2  0  0  0
 28 29  1  0  0  0
 28 22  1  0  0  0
 29 30  1  0  0  0
 29 33  1  0  0  0
 30 31  1  0  0  0
 31 32  2  0  0  0
 22 21  1  0  0  0
 21  1  1  0  0  0
  1  2  2  0  0  0
  1  3  1  0  0  0
  3  4  1  0  0  0
  3  8  1  0  0  0
  4  5  1  0  0  0
  5  6  1  0  0  0
  5 12  1  0  0  0
  6  7  1  0  0  0
  6  9  1  0  0  0
  6 10  1  0  0  0
  7  8  1  0  0  0
 12 13  1  0  0  0
 12 18  1  0  0  0
 13 14  2  0  0  0
 14 15  1  0  0  0
 15 16  2  0  0  0
 15 17  1  0  0  0
 17 18  1  0  0  0
 18 19  2  0  0  0
  9 11  1  0  0  0
 17 20  1  0  0  0
M  END
> <minimizedAffinity>
-10.43919

$$$$
1388


 30 33  0  0  0  0  0  0  0  0999 V2000
   10.1356    5.7452   11.1115 C   0  0  0  0  0  0  0  0  0  0  0  0
   10.3449    6.0453    9.9104 O   0  0  0  0  0  0  0  0  0  0  0  0
    9.3791    6.6126   11.9147 N   0  0  0  0  0  0  0  0  0  0  0  0
    9.0973    6.3362   13.3015 C   0  0  0  0  0  0  0  0  0  0  0  0
    7.5990    6.1589   13.4179 C   0  0  0  0  0  0  0  0  0  0  0  0
    6.8964    7.3264   12.7671 C   0  0  0  0  0  0  0  0  0  0  0  0
    6.1202    6.8183   11.6559 N   0  0  0  0  0  0  0  0  0  0  0  0
    5.2959    7.7800   11.0115 C   0  0  0  0  0  0  0  0  0  0  0  0
    4.6050    8.7687   11.8773 C   0  0  0  0  0  0  0  0  0  0  0  0
    4.7914    8.5559   13.3279 C   0  0  0  0  0  0  0  0  0  0  0  0
    4.0526    8.9266   14.4183 N   0  0  0  0  0  0  0  0  0  0  0  0
    4.7009    8.4658   15.4949 C   0  0  0  0  0  0  0  0  0  0  0  0
    5.8125    7.8239   15.1001 N   0  0  0  0  0  0  0  0  0  0  0  0
    5.9031    7.8603   13.7469 C   0  0  0  0  0  0  0  0  0  0  0  0
    7.8069    8.4232   12.3177 C   0  0  0  0  0  0  0  0  0  0  0  0
    8.8501    7.8335   11.3635 C   0  0  0  0  0  0  0  0  0  0  0  0
    6.7876    6.4279   10.9397 H   0  0  0  0  0  0  0  0  0  0  0  0
    3.1452    9.4757   14.3670 H   0  0  0  0  0  0  0  0  0  0  0  0
   10.7181    4.4667   11.5983 C   0  0  0  0  0  0  0  0  0  0  0  0
   11.6570    2.3560   10.6384 C   0  0  0  0  0  0  0  0  0  0  0  0
   12.3307    2.2266   11.6926 O   0  0  0  0  0  0  0  0  0  0  0  0
   10.8141    3.4861   10.5384 N   0  0  0  0  0  0  0  0  0  0  0  0
   10.2478    3.6146    9.6768 H   0  0  0  0  0  0  0  0  0  0  0  0
    9.4351   -1.6021    7.8504 Br  0  0  0  0  0  0  0  0  0  0  0  0
   10.8880   -0.4535    8.2461 C   0  0  0  0  0  0  0  0  0  0  0  0
   10.7504    0.4876    9.2505 C   0  0  0  0  0  0  0  0  0  0  0  0
   11.7723    1.3555    9.5871 C   0  0  0  0  0  0  0  0  0  0  0  0
   12.9633    1.2586    8.8819 C   0  0  0  0  0  0  0  0  0  0  0  0
   13.0932    0.3210    7.8848 C   0  0  0  0  0  0  0  0  0  0  0  0
   12.0858   -0.5509    7.5362 C   0  0  0  0  0  0  0  0  0  0  0  0
 24 25  1  0  0  0
 25 26  2  0  0  0
 25 30  1  0  0  0
 26 27  1  0  0  0
 27 28  2  0  0  0
 27 20  1  0  0  0
 28 29  1  0  0  0
 29 30  2  0  0  0
 20 21  2  0  0  0
 20 22  1  0  0  0
 22 19  1  0  0  0
 19  1  1  0  0  0
  1  2  2  0  0  0
  1  3  1  0  0  0
  3  4  1  0  0  0
  3 16  1  0  0  0
  4  5  1  0  0  0
  5  6  1  0  0  0
  6  7  1  0  0  0
  6 14  1  0  0  0
  6 15  1  0  0  0
  7  8  1  0  0  0
  8  9  1  0  0  0
  9 10  1  0  0  0
 10 11  1  0  0  0
 10 14  2  0  0  0
 11 12  1  0  0  0
 12 13  2  0  0  0
 13 14  1  0  0  0
 15 16  1  0  0  0
 22 23  1  0  0  0
  7 17  1  0  0  0
 11 18  1  0  0  0
M  END
> <minimizedAffinity>
-9.81787

$$$$
1404


 26 29  0  0  0  0  0  0  0  0999 V2000
    7.3837   10.6345   12.1767 Br  0  0  0  0  0  0  0  0  0  0  0  0
    8.1979    8.9851   12.6825 C   0  0  0  0  0  0  0  0  0  0  0  0
    8.9137    8.2305   11.7724 C   0  0  0  0  0  0  0  0  0  0  0  0
    9.5198    7.0333   12.0892 C   0  0  0  0  0  0  0  0  0  0  0  0
    9.3724    6.6077   13.4126 C   0  0  0  0  0  0  0  0  0  0  0  0
    8.6613    7.3577   14.3168 C   0  0  0  0  0  0  0  0  0  0  0  0
    8.0601    8.5543   13.9852 C   0  0  0  0  0  0  0  0  0  0  0  0
    7.2997    9.3273   15.0081 C   0  0  0  0  0  0  0  0  0  0  0  0
    9.9971    5.4008   13.6944 O   0  0  0  0  0  0  0  0  0  0  0  0
   10.5438    4.5357   12.7171 C   0  0  0  0  0  0  0  0  0  0  0  0
   11.3365    5.3554   11.6452 C   0  0  0  0  0  0  0  0  0  0  0  0
   10.2580    6.2302   11.1244 C   0  0  0  0  0  0  0  0  0  0  0  0
    9.9013    6.3589    9.9402 O   0  0  0  0  0  0  0  0  0  0  0  0
   11.9970    4.5805   10.7431 N   0  0  0  0  0  0  0  0  0  0  0  0
   11.3704    3.7044    9.8485 C   0  0  0  0  0  0  0  0  0  0  0  0
   11.4708    2.2825   10.3579 C   0  0  0  0  0  0  0  0  0  0  0  0
   12.8476    1.9595   10.3060 O   0  0  0  0  0  0  0  0  0  0  0  0
   13.4138    2.6974   11.3601 C   0  0  0  0  0  0  0  0  0  0  0  0
   13.3092    4.1820   11.0029 C   0  0  0  0  0  0  0  0  0  0  0  0
   12.2809    6.1550   12.4697 C   0  0  0  0  0  0  0  0  0  0  0  0
   12.5476    7.5051   12.0829 N   0  0  0  0  0  0  0  0  0  0  0  0
   12.6213    8.4950   13.0895 C   0  0  0  0  0  0  0  0  0  0  0  0
   13.9553    8.3992   13.8449 C   0  0  0  0  0  0  0  0  0  0  0  0
   14.9390    8.7371   12.9096 O   0  0  0  0  0  0  0  0  0  0  0  0
   14.9999    7.6844   11.9890 C   0  0  0  0  0  0  0  0  0  0  0  0
   13.7273    7.5210   11.2160 C   0  0  0  0  0  0  0  0  0  0  0  0
  1  2  1  0  0  0
  2  3  2  0  0  0
  2  7  1  0  0  0
  3  4  1  0  0  0
  4  5  2  0  0  0
  4 12  1  0  0  0
  5  6  1  0  0  0
  5  9  1  0  0  0
  6  7  2  0  0  0
  7  8  1  0  0  0
  9 10  1  0  0  0
 10 11  1  0  0  0
 11 12  1  0  0  0
 11 14  1  0  0  0
 11 20  1  0  0  0
 12 13  2  0  0  0
 14 15  1  0  0  0
 14 19  1  0  0  0
 15 16  1  0  0  0
 16 17  1  0  0  0
 17 18  1  0  0  0
 18 19  1  0  0  0
 20 21  1  0  0  0
 21 22  1  0  0  0
 21 26  1  0  0  0
 22 23  1  0  0  0
 23 24  1  0  0  0
 24 25  1  0  0  0
 25 26  1  0  0  0
M  END
> <minimizedAffinity>
-6.90662

$$$$
1405


 27 30  0  0  0  0  0  0  0  0999 V2000
   12.3310   11.6197   14.7778 Br  0  0  0  0  0  0  0  0  0  0  0  0
   11.1359   10.1957   14.2693 C   0  0  0  0  0  0  0  0  0  0  0  0
    9.9117   10.0532   14.8673 C   0  0  0  0  0  0  0  0  0  0  0  0
    9.0731    9.0268   14.4863 C   0  0  0  0  0  0  0  0  0  0  0  0
    9.5118    8.1782   13.5064 C   0  0  0  0  0  0  0  0  0  0  0  0
   10.7717    8.3264   12.8918 C   0  0  0  0  0  0  0  0  0  0  0  0
   11.5914    9.3515   13.2823 C   0  0  0  0  0  0  0  0  0  0  0  0
    8.5403    7.1755   13.2238 N   0  0  0  0  0  0  0  0  0  0  0  0
    7.4384    7.3961   14.0596 C   0  0  0  0  0  0  0  0  0  0  0  0
    6.3838    6.6905   14.0796 O   0  0  0  0  0  0  0  0  0  0  0  0
    7.7198    8.5998   14.9188 C   0  0  0  0  0  0  0  0  0  0  0  0
    6.6820    9.5722   14.5958 C   0  0  0  0  0  0  0  0  0  0  0  0
    5.7823    9.9809   15.5304 C   0  0  0  0  0  0  0  0  0  0  0  0
    4.9607   10.8807   14.9133 N   0  0  0  0  0  0  0  0  0  0  0  0
    5.3178   11.0347   13.6556 N   0  0  0  0  0  0  0  0  0  0  0  0
    6.3679   10.2526   13.4159 C   0  0  0  0  0  0  0  0  0  0  0  0
    7.1401   10.0676   12.1475 C   0  0  0  0  0  0  0  0  0  0  0  0
    5.7886    9.5069   16.8467 O   0  0  0  0  0  0  0  0  0  0  0  0
    6.7796    8.5791   17.1508 C   0  0  0  0  0  0  0  0  0  0  0  0
    7.6708    8.1480   16.2968 C   0  0  0  0  0  0  0  0  0  0  0  0
    6.8364    8.0496   18.5055 N   0  0  0  0  0  0  0  0  0  0  0  0
    8.6601    6.0943   12.2340 C   0  0  0  0  0  0  0  0  0  0  0  0
    4.8847   11.6541   12.9229 H   0  0  0  0  0  0  0  0  0  0  0  0
    6.2569    7.2013   18.6643 H   0  0  0  0  0  0  0  0  0  0  0  0
    7.3936    8.4662   19.2485 H   0  0  0  0  0  0  0  0  0  0  0  0
    8.6476    7.1638   16.7946 C   0  0  0  0  0  0  0  0  0  0  0  0
    9.4136    6.3866   17.2108 N   0  0  0  0  0  0  0  0  0  0  0  0
  1  2  1  0  0  0
  2  3  2  0  0  0
  2  7  1  0  0  0
  3  4  1  0  0  0
  4  5  2  0  0  0
  4 11  1  0  0  0
  5  6  1  0  0  0
  5  8  1  0  0  0
  6  7  2  0  0  0
  8  9  1  0  0  0
  8 22  1  0  0  0
  9 10  2  0  0  0
  9 11  1  0  0  0
 11 12  1  0  0  0
 11 20  1  0  0  0
 12 13  1  0  0  0
 12 16  2  0  0  0
 13 14  2  0  0  0
 13 18  1  0  0  0
 14 15  1  0  0  0
 15 16  1  0  0  0
 16 17  1  0  0  0
 18 19  1  0  0  0
 19 20  2  0  0  0
 19 21  1  0  0  0
 20 26  1  0  0  0
 26 27  3  0  0  0
 15 23  1  0  0  0
 21 24  1  0  0  0
 21 25  1  0  0  0
M  END
> <minimizedAffinity>
-6.41154

$$$$
1413


 24 27  0  0  0  0  0  0  0  0999 V2000
   11.7926    4.7521   11.4391 C   0  0  0  0  0  0  0  0  0  0  0  0
    9.6673    9.0975   13.5883 Br  0  0  0  0  0  0  0  0  0  0  0  0
    9.5378    7.4943   12.5882 C   0  0  0  0  0  0  0  0  0  0  0  0
    8.3327    7.1297   12.0923 C   0  0  0  0  0  0  0  0  0  0  0  0
    7.1200    7.7123   12.1684 N   0  0  0  0  0  0  0  0  0  0  0  0
    6.3164    6.8972   11.4918 N   0  0  0  0  0  0  0  0  0  0  0  0
    6.9501    5.8646   11.0098 N   0  0  0  0  0  0  0  0  0  0  0  0
    8.2573    5.9620   11.3667 C   0  0  0  0  0  0  0  0  0  0  0  0
    9.3867    5.1795   11.1501 C   0  0  0  0  0  0  0  0  0  0  0  0
   10.5856    5.5366   11.6404 N   0  0  0  0  0  0  0  0  0  0  0  0
   10.6472    6.6841   12.3501 C   0  0  0  0  0  0  0  0  0  0  0  0
    6.6882    8.9052   12.7924 C   0  0  0  0  0  0  0  0  0  0  0  0
   11.6187    3.3181   11.6502 C   0  0  0  0  0  0  0  0  0  0  0  0
   11.4058    2.9473   12.8447 O   0  0  0  0  0  0  0  0  0  0  0  0
   11.6669    2.2798   10.6253 C   0  0  0  0  0  0  0  0  0  0  0  0
   10.5304    1.5761   10.3417 C   0  0  0  0  0  0  0  0  0  0  0  0
   10.5475    0.5913    9.3887 C   0  0  0  0  0  0  0  0  0  0  0  0
   11.6944    0.2718    8.6851 C   0  0  0  0  0  0  0  0  0  0  0  0
   12.8351    1.0069    8.9988 C   0  0  0  0  0  0  0  0  0  0  0  0
   12.8224    1.9910    9.9486 C   0  0  0  0  0  0  0  0  0  0  0  0
   11.7360   -0.7143    7.7214 C   0  0  0  0  0  0  0  0  0  0  0  0
   10.5701   -1.4024    7.4625 C   0  0  0  0  0  0  0  0  0  0  0  0
    9.4198   -1.0926    8.1582 C   0  0  0  0  0  0  0  0  0  0  0  0
    9.3845   -0.1073    9.1177 C   0  0  0  0  0  0  0  0  0  0  0  0
  2  3  1  0  0  0
  3  4  2  0  0  0
  3 11  1  0  0  0
  4  5  1  0  0  0
  4  8  1  0  0  0
  5  6  1  0  0  0
  5 12  1  0  0  0
  6  7  2  0  0  0
  7  8  1  0  0  0
  8  9  2  0  0  0
  9 10  1  0  0  0
 10 11  2  0  0  0
 10  1  1  0  0  0
  1 13  1  0  0  0
 13 14  2  0  0  0
 13 15  1  0  0  0
 15 16  2  0  0  0
 15 20  1  0  0  0
 16 17  1  0  0  0
 17 18  2  0  0  0
 17 24  1  0  0  0
 18 19  1  0  0  0
 18 21  1  0  0  0
 19 20  2  0  0  0
 21 22  2  0  0  0
 22 23  1  0  0  0
 23 24  2  0  0  0
M  END
> <minimizedAffinity>
-9.73464

$$$$
1415


 32 35  0  0  0  0  0  0  0  0999 V2000
    9.8189    7.0058   15.5558 Br  0  0  0  0  0  0  0  0  0  0  0  0
    9.6547    7.2480   13.6617 C   0  0  0  0  0  0  0  0  0  0  0  0
   10.4031    6.4755   12.8059 C   0  0  0  0  0  0  0  0  0  0  0  0
   10.3130    6.6210   11.4115 C   0  0  0  0  0  0  0  0  0  0  0  0
    9.4358    7.5777   10.9495 C   0  0  0  0  0  0  0  0  0  0  0  0
    8.6745    8.3659   11.7855 C   0  0  0  0  0  0  0  0  0  0  0  0
    8.7800    8.2042   13.1481 C   0  0  0  0  0  0  0  0  0  0  0  0
    8.0027    9.0037   14.1302 C   0  0  0  0  0  0  0  0  0  0  0  0
    7.4671    9.6831   11.1166 Br  0  0  0  0  0  0  0  0  0  0  0  0
   11.1224    5.7878   10.5467 C   0  0  0  0  0  0  0  0  0  0  0  0
   10.9748    5.8357    9.3210 O   0  0  0  0  0  0  0  0  0  0  0  0
   12.1226    4.8831   11.1408 C   0  0  0  0  0  0  0  0  0  0  0  0
   11.5703    4.4177   12.4702 C   0  0  0  0  0  0  0  0  0  0  0  0
   11.2782    5.5187   13.3109 O   0  0  0  0  0  0  0  0  0  0  0  0
   12.4885    3.7276   10.2594 C   0  0  0  0  0  0  0  0  0  0  0  0
   13.1604    2.6561   10.8874 N   0  0  0  0  0  0  0  0  0  0  0  0
   12.3256    1.4914   10.8949 C   0  0  0  0  0  0  0  0  0  0  0  0
   12.1271    0.8451    9.5709 C   0  0  0  0  0  0  0  0  0  0  0  0
   12.9697    1.3343    8.4574 C   0  0  0  0  0  0  0  0  0  0  0  0
   14.2359    2.0039    8.8257 C   0  0  0  0  0  0  0  0  0  0  0  0
   14.4091    2.2669   10.2926 C   0  0  0  0  0  0  0  0  0  0  0  0
   10.6619    1.0518    9.1695 C   0  0  0  0  0  0  0  0  0  0  0  0
   13.3638    2.8977   11.8903 H   0  0  0  0  0  0  0  0  0  0  0  0
   13.3454    5.7348   11.4130 C   0  0  0  0  0  0  0  0  0  0  0  0
   13.9449    5.5486   12.6901 N   0  0  0  0  0  0  0  0  0  0  0  0
   14.3121    6.8390   13.2703 C   0  0  0  0  0  0  0  0  0  0  0  0
   15.7748    7.1412   13.1252 C   0  0  0  0  0  0  0  0  0  0  0  0
   16.2417    6.7346   11.7458 C   0  0  0  0  0  0  0  0  0  0  0  0
   16.1602    5.2423   11.6571 C   0  0  0  0  0  0  0  0  0  0  0  0
   15.1534    4.7535   12.6689 C   0  0  0  0  0  0  0  0  0  0  0  0
   15.9266    8.6666   13.1990 C   0  0  0  0  0  0  0  0  0  0  0  0
   13.2836    5.1167   13.3410 H   0  0  0  0  0  0  0  0  0  0  0  0
  1  2  1  0  0  0
  2  3  2  0  0  0
  2  7  1  0  0  0
  3  4  1  0  0  0
  3 14  1  0  0  0
  4  5  2  0  0  0
  4 10  1  0  0  0
  5  6  1  0  0  0
  6  7  2  0  0  0
  6  9  1  0  0  0
  7  8  1  0  0  0
 10 11  2  0  0  0
 10 12  1  0  0  0
 12 13  1  0  0  0
 12 15  1  0  0  0
 12 24  1  0  0  0
 13 14  1  0  0  0
 15 16  1  0  0  0
 16 17  1  0  0  0
 16 21  1  0  0  0
 17 18  1  0  0  0
 18 19  1  0  0  0
 18 22  1  0  0  0
 19 20  1  0  0  0
 20 21  1  0  0  0
 24 25  1  0  0  0
 25 26  1  0  0  0
 25 30  1  0  0  0
 26 27  1  0  0  0
 27 28  1  0  0  0
 27 31  1  0  0  0
 28 29  1  0  0  0
 29 30  1  0  0  0
 16 23  1  0  0  0
 25 32  1  0  0  0
M  CHG 1  16   1
M  CHG 1  25   1
M  END
> <minimizedAffinity>
-7.57474

$$$$
1428


 37 40  0  0  0  0  0  0  0  0999 V2000
    4.5415    9.7227   17.5688 Cl  0  0  0  0  0  0  0  0  0  0  0  0
    4.2977    9.3637   15.8622 C   0  0  0  0  0  0  0  0  0  0  0  0
    5.3211    8.9468   15.0537 C   0  0  0  0  0  0  0  0  0  0  0  0
    5.0760    8.6799   13.7257 C   0  0  0  0  0  0  0  0  0  0  0  0
    3.7993    8.8436   13.2558 C   0  0  0  0  0  0  0  0  0  0  0  0
    2.7565    9.2690   14.0837 C   0  0  0  0  0  0  0  0  0  0  0  0
    3.0114    9.5309   15.3978 C   0  0  0  0  0  0  0  0  0  0  0  0
    3.6859    8.5206   11.8746 N   0  0  0  0  0  0  0  0  0  0  0  0
    4.9660    8.1323   11.4592 C   0  0  0  0  0  0  0  0  0  0  0  0
    5.2015    7.7626   10.2619 O   0  0  0  0  0  0  0  0  0  0  0  0
    5.9065    8.2282   12.5843 C   0  0  0  0  0  0  0  0  0  0  0  0
    6.4669    6.9241   12.8017 N   0  0  0  0  0  0  0  0  0  0  0  0
    7.8523    6.9494   12.4494 C   0  0  0  0  0  0  0  0  0  0  0  0
    8.0992    8.2204   11.7020 C   0  0  0  0  0  0  0  0  0  0  0  0
    7.0191    9.1192   12.2365 C   0  0  0  0  0  0  0  0  0  0  0  0
    2.8171    8.5623   11.2784 H   0  0  0  0  0  0  0  0  0  0  0  0
    6.2795    6.5897   13.7704 H   0  0  0  0  0  0  0  0  0  0  0  0
    7.5023   10.0232   13.3116 C   0  0  0  0  0  0  0  0  0  0  0  0
    7.1317   11.2193   13.2323 O   0  0  0  0  0  0  0  0  0  0  0  0
    8.3233    9.6087   14.3666 N   0  0  0  0  0  0  0  0  0  0  0  0
    8.5711    8.5719   14.3478 H   0  0  0  0  0  0  0  0  0  0  0  0
    8.8400   10.3602   15.4231 C   0  0  0  0  0  0  0  0  0  0  0  0
   10.1909   10.6766   15.4331 C   0  0  0  0  0  0  0  0  0  0  0  0
   10.7687   11.4172   16.4441 C   0  0  0  0  0  0  0  0  0  0  0  0
   10.0241   11.8795   17.5001 C   0  0  0  0  0  0  0  0  0  0  0  0
    8.6917   11.5834   17.5181 C   0  0  0  0  0  0  0  0  0  0  0  0
    8.1211   10.8358   16.4907 C   0  0  0  0  0  0  0  0  0  0  0  0
   11.0081   10.2460   14.4028 O   0  0  0  0  0  0  0  0  0  0  0  0
   12.0523    9.3348   14.5598 C   0  0  0  0  0  0  0  0  0  0  0  0
    7.9058   12.0316   18.5642 O   0  0  0  0  0  0  0  0  0  0  0  0
    8.3765   12.1061   19.8977 C   0  0  0  0  0  0  0  0  0  0  0  0
    8.2515    5.7252   11.6418 C   0  0  0  0  0  0  0  0  0  0  0  0
    9.6302    5.8208   11.1416 C   0  0  0  0  0  0  0  0  0  0  0  0
    9.8507    5.9114    9.9237 O   0  0  0  0  0  0  0  0  0  0  0  0
   10.7051    5.8095   12.0498 N   0  0  0  0  0  0  0  0  0  0  0  0
   11.4495    6.5310   11.9413 H   0  0  0  0  0  0  0  0  0  0  0  0
   10.8118    5.1216   12.8346 H   0  0  0  0  0  0  0  0  0  0  0  0
  1  2  1  0  0  0
  2  3  2  0  0  0
  2  7  1  0  0  0
  3  4  1  0  0  0
  4  5  2  0  0  0
  4 11  1  0  0  0
  5  6  1  0  0  0
  5  8  1  0  0  0
  6  7  2  0  0  0
  8  9  1  0  0  0
  9 10  2  0  0  0
  9 11  1  0  0  0
 11 12  1  0  0  0
 11 15  1  0  0  0
 12 13  1  0  0  0
 13 14  1  0  0  0
 13 32  1  0  0  0
 14 15  1  0  0  0
 15 18  1  0  0  0
 18 19  2  0  0  0
 18 20  1  0  0  0
 20 22  1  0  0  0
 22 23  2  0  0  0
 22 27  1  0  0  0
 23 24  1  0  0  0
 23 28  1  0  0  0
 24 25  2  0  0  0
 25 26  1  0  0  0
 26 27  2  0  0  0
 26 30  1  0  0  0
 30 31  1  0  0  0
 28 29  1  0  0  0
 32 33  1  0  0  0
 33 34  2  0  0  0
 33 35  1  0  0  0
  8 16  1  0  0  0
 12 17  1  0  0  0
 20 21  1  0  0  0
 35 36  1  0  0  0
 35 37  1  0  0  0
M  END
> <minimizedAffinity>
-8.27519

$$$$
1432


 21 24  0  0  0  0  0  0  0  0999 V2000
   10.0222    6.3723   11.2688 C   0  0  0  0  0  0  0  0  0  0  0  0
    9.7954    5.8219   12.4729 N   0  0  0  0  0  0  0  0  0  0  0  0
    8.6595    6.3026   13.0058 N   0  0  0  0  0  0  0  0  0  0  0  0
    8.1502    7.1782   12.1210 C   0  0  0  0  0  0  0  0  0  0  0  0
    8.9861    7.2143   11.0666 N   0  0  0  0  0  0  0  0  0  0  0  0
    6.9668    7.8104   12.4513 C   0  0  0  0  0  0  0  0  0  0  0  0
    6.3104    7.5680   13.6433 C   0  0  0  0  0  0  0  0  0  0  0  0
    5.1856    8.3116   13.7171 N   0  0  0  0  0  0  0  0  0  0  0  0
    5.1365    9.0045   12.5951 N   0  0  0  0  0  0  0  0  0  0  0  0
    6.1883    8.7381   11.7997 C   0  0  0  0  0  0  0  0  0  0  0  0
    4.2353    8.3223   14.8272 C   0  0  0  0  0  0  0  0  0  0  0  0
    6.8768    6.6806   14.4791 N   0  0  0  0  0  0  0  0  0  0  0  0
    8.0268    6.0599   14.1691 C   0  0  0  0  0  0  0  0  0  0  0  0
   11.1557    6.1300   10.3345 C   0  0  0  0  0  0  0  0  0  0  0  0
   13.7655    1.3579   10.5048 Br  0  0  0  0  0  0  0  0  0  0  0  0
   12.4770    2.7401   10.2569 C   0  0  0  0  0  0  0  0  0  0  0  0
   12.6090    4.0985   10.5351 C   0  0  0  0  0  0  0  0  0  0  0  0
   11.4546    4.7128   10.2072 N   0  0  0  0  0  0  0  0  0  0  0  0
   10.6155    3.7885    9.7389 N   0  0  0  0  0  0  0  0  0  0  0  0
   11.2037    2.5766    9.7542 C   0  0  0  0  0  0  0  0  0  0  0  0
   10.6514    1.2689    9.3284 C   0  0  0  0  0  0  0  0  0  0  0  0
 15 16  1  0  0  0
 16 17  2  0  0  0
 16 20  1  0  0  0
 17 18  1  0  0  0
 18 19  1  0  0  0
 18 14  1  0  0  0
 19 20  2  0  0  0
 20 21  1  0  0  0
 14  1  1  0  0  0
  1  2  2  0  0  0
  1  5  1  0  0  0
  2  3  1  0  0  0
  3  4  1  0  0  0
  3 13  1  0  0  0
  4  5  2  0  0  0
  4  6  1  0  0  0
  6  7  2  0  0  0
  6 10  1  0  0  0
  7  8  1  0  0  0
  7 12  1  0  0  0
  8  9  1  0  0  0
  8 11  1  0  0  0
  9 10  2  0  0  0
 12 13  2  0  0  0
M  END
> <minimizedAffinity>
-7.37250

$$$$
1433


 28 31  0  0  0  0  0  0  0  0999 V2000
   11.8067    3.3928   11.9475 Br  0  0  0  0  0  0  0  0  0  0  0  0
   13.5567    3.0907   11.2822 C   0  0  0  0  0  0  0  0  0  0  0  0
   14.5995    3.9402   11.6655 C   0  0  0  0  0  0  0  0  0  0  0  0
   15.8812    3.7446   11.2131 C   0  0  0  0  0  0  0  0  0  0  0  0
   16.1025    2.6837   10.3679 C   0  0  0  0  0  0  0  0  0  0  0  0
   15.0819    1.8220    9.9693 C   0  0  0  0  0  0  0  0  0  0  0  0
   13.7826    2.0316   10.4406 C   0  0  0  0  0  0  0  0  0  0  0  0
   12.6852    1.1144   10.0262 C   0  0  0  0  0  0  0  0  0  0  0  0
   15.3682    0.7004    9.0358 C   0  0  0  0  0  0  0  0  0  0  0  0
   17.0582    4.5748   11.5996 C   0  0  0  0  0  0  0  0  0  0  0  0
   16.7191    5.8149   12.3681 C   0  0  0  0  0  0  0  0  0  0  0  0
   15.2613    6.1582   12.1229 C   0  0  0  0  0  0  0  0  0  0  0  0
   14.4325    5.0308   12.5079 O   0  0  0  0  0  0  0  0  0  0  0  0
   17.7384    4.9186   10.3902 O   0  0  0  0  0  0  0  0  0  0  0  0
   18.2330    4.1119   10.1030 H   0  0  0  0  0  0  0  0  0  0  0  0
   17.5236    6.8767   11.8025 N   0  0  0  0  0  0  0  0  0  0  0  0
   18.7240    7.1340   12.5258 C   0  0  0  0  0  0  0  0  0  0  0  0
   19.3864    8.4502   12.2349 C   0  0  0  0  0  0  0  0  0  0  0  0
   18.5338    9.4979   12.0141 O   0  0  0  0  0  0  0  0  0  0  0  0
   17.6948    9.1520   10.9466 C   0  0  0  0  0  0  0  0  0  0  0  0
   16.7657    8.0666   11.5509 C   0  0  0  0  0  0  0  0  0  0  0  0
   16.8371    5.7206   13.8417 C   0  0  0  0  0  0  0  0  0  0  0  0
   15.9724    6.3449   14.7334 N   0  0  0  0  0  0  0  0  0  0  0  0
   16.0868    5.6904   16.0818 C   0  0  0  0  0  0  0  0  0  0  0  0
   17.4900    5.6968   16.5644 C   0  0  0  0  0  0  0  0  0  0  0  0
   18.2390    6.7665   16.1534 O   0  0  0  0  0  0  0  0  0  0  0  0
   17.5450    7.8967   15.8333 C   0  0  0  0  0  0  0  0  0  0  0  0
   16.2382    7.7151   15.1311 C   0  0  0  0  0  0  0  0  0  0  0  0
  1  2  1  0  0  0
  2  3  2  0  0  0
  2  7  1  0  0  0
  3  4  1  0  0  0
  3 13  1  0  0  0
  4  5  2  0  0  0
  4 10  1  0  0  0
  5  6  1  0  0  0
  6  7  2  0  0  0
  6  9  1  0  0  0
  7  8  1  0  0  0
 10 11  1  0  0  0
 10 14  1  0  0  0
 11 12  1  0  0  0
 11 16  1  0  0  0
 11 22  1  0  0  0
 12 13  1  0  0  0
 16 17  1  0  0  0
 16 21  1  0  0  0
 17 18  1  0  0  0
 18 19  1  0  0  0
 19 20  1  0  0  0
 20 21  1  0  0  0
 22 23  1  0  0  0
 23 24  1  0  0  0
 23 28  1  0  0  0
 24 25  1  0  0  0
 25 26  1  0  0  0
 26 27  1  0  0  0
 27 28  1  0  0  0
 14 15  1  0  0  0
M  END
> <minimizedAffinity>
-6.88681

$$$$
1434


 28 31  0  0  0  0  0  0  0  0999 V2000
   11.6841    4.5448   11.6628 C   0  0  0  0  0  0  0  0  0  0  0  0
   12.7701    5.1282   12.1580 O   0  0  0  0  0  0  0  0  0  0  0  0
   10.7547    5.4239   11.1299 N   0  0  0  0  0  0  0  0  0  0  0  0
    9.5025    5.1210   10.5340 C   0  0  0  0  0  0  0  0  0  0  0  0
    8.3670    5.5524   11.4631 C   0  0  0  0  0  0  0  0  0  0  0  0
    8.7895    6.7850   12.2446 C   0  0  0  0  0  0  0  0  0  0  0  0
    7.5826    7.5777   12.4071 N   0  0  0  0  0  0  0  0  0  0  0  0
    6.9636    7.1281   13.6302 C   0  0  0  0  0  0  0  0  0  0  0  0
    5.7686    7.3196   13.9663 O   0  0  0  0  0  0  0  0  0  0  0  0
    7.9703    6.4244   14.3823 N   0  0  0  0  0  0  0  0  0  0  0  0
    9.1769    6.4465   13.6299 C   0  0  0  0  0  0  0  0  0  0  0  0
   10.3201    6.2182   14.0895 O   0  0  0  0  0  0  0  0  0  0  0  0
    9.8038    7.6105   11.5179 C   0  0  0  0  0  0  0  0  0  0  0  0
   11.0578    6.8753   11.1728 C   0  0  0  0  0  0  0  0  0  0  0  0
    7.2238    8.3241   11.7759 H   0  0  0  0  0  0  0  0  0  0  0  0
    7.8338    5.9847   15.3033 H   0  0  0  0  0  0  0  0  0  0  0  0
   11.7360    3.1034   11.8061 C   0  0  0  0  0  0  0  0  0  0  0  0
   11.9534   -0.3174    7.5923 Br  0  0  0  0  0  0  0  0  0  0  0  0
   12.3390    0.9053    9.0101 C   0  0  0  0  0  0  0  0  0  0  0  0
   13.6103    1.3260    9.3117 C   0  0  0  0  0  0  0  0  0  0  0  0
   13.5014    2.1867   10.3732 C   0  0  0  0  0  0  0  0  0  0  0  0
   12.1858    2.2986   10.7246 N   0  0  0  0  0  0  0  0  0  0  0  0
   11.4777    1.5082    9.8837 C   0  0  0  0  0  0  0  0  0  0  0  0
   10.0080    1.3330    9.9172 C   0  0  0  0  0  0  0  0  0  0  0  0
   14.6522    2.7764   10.8969 C   0  0  0  0  0  0  0  0  0  0  0  0
   15.8994    2.4980   10.3527 C   0  0  0  0  0  0  0  0  0  0  0  0
   15.9871    1.6368    9.2946 C   0  0  0  0  0  0  0  0  0  0  0  0
   14.8574    1.0507    8.7720 C   0  0  0  0  0  0  0  0  0  0  0  0
 18 19  1  0  0  0
 19 20  1  0  0  0
 19 23  2  0  0  0
 20 21  2  0  0  0
 20 28  1  0  0  0
 21 22  1  0  0  0
 21 25  1  0  0  0
 22 23  1  0  0  0
 22 17  1  0  0  0
 23 24  1  0  0  0
 17  1  1  0  0  0
  1  2  2  0  0  0
  1  3  1  0  0  0
  3  4  1  0  0  0
  3 14  1  0  0  0
  4  5  1  0  0  0
  5  6  1  0  0  0
  6  7  1  0  0  0
  6 11  1  0  0  0
  6 13  1  0  0  0
  7  8  1  0  0  0
  8  9  2  0  0  0
  8 10  1  0  0  0
 10 11  1  0  0  0
 11 12  2  0  0  0
 13 14  1  0  0  0
 25 26  2  0  0  0
 26 27  1  0  0  0
 27 28  2  0  0  0
  7 15  1  0  0  0
 10 16  1  0  0  0
M  END
> <minimizedAffinity>
-9.30933

$$$$
1435


 32 35  0  0  0  0  0  0  0  0999 V2000
    7.6097    8.6541   17.4188 C   0  0  0  0  0  0  0  0  0  0  0  0
    7.8839    7.2151   17.0033 C   0  0  0  0  0  0  0  0  0  0  0  0
   11.0793    8.1690   16.8257 Br  0  0  0  0  0  0  0  0  0  0  0  0
    9.8881    7.4961   15.4935 C   0  0  0  0  0  0  0  0  0  0  0  0
    8.6022    7.1553   15.7529 N   0  0  0  0  0  0  0  0  0  0  0  0
    8.1103    6.7340   14.5664 C   0  0  0  0  0  0  0  0  0  0  0  0
    9.0710    6.8088   13.5796 C   0  0  0  0  0  0  0  0  0  0  0  0
   10.1758    7.2921   14.1952 N   0  0  0  0  0  0  0  0  0  0  0  0
    8.8310    6.4445   12.2994 N   0  0  0  0  0  0  0  0  0  0  0  0
    7.6007    5.9932   11.9965 C   0  0  0  0  0  0  0  0  0  0  0  0
    7.3033    5.6357   10.8259 O   0  0  0  0  0  0  0  0  0  0  0  0
    6.6269    5.9046   12.9436 N   0  0  0  0  0  0  0  0  0  0  0  0
    6.8562    6.2632   14.2154 C   0  0  0  0  0  0  0  0  0  0  0  0
    5.9952    6.2008   15.1211 O   0  0  0  0  0  0  0  0  0  0  0  0
    9.8536    6.5310   11.2739 C   0  0  0  0  0  0  0  0  0  0  0  0
    5.6815    5.5478   12.6694 H   0  0  0  0  0  0  0  0  0  0  0  0
    6.1310    8.9365   17.4472 C   0  0  0  0  0  0  0  0  0  0  0  0
    5.6996   10.1122   16.6224 C   0  0  0  0  0  0  0  0  0  0  0  0
    5.3497    9.6965   15.3051 N   0  0  0  0  0  0  0  0  0  0  0  0
    6.0466    9.7180   14.1706 C   0  0  0  0  0  0  0  0  0  0  0  0
    5.2719    9.1623   13.1586 C   0  0  0  0  0  0  0  0  0  0  0  0
    4.1205    8.8232   13.7309 N   0  0  0  0  0  0  0  0  0  0  0  0
    4.1448    9.1377   15.0270 C   0  0  0  0  0  0  0  0  0  0  0  0
    2.7000    8.8278   16.2317 Br  0  0  0  0  0  0  0  0  0  0  0  0
    5.7405    9.0689   11.9109 N   0  0  0  0  0  0  0  0  0  0  0  0
    6.9740    9.5110   11.5991 C   0  0  0  0  0  0  0  0  0  0  0  0
    7.4073    9.4193   10.4235 O   0  0  0  0  0  0  0  0  0  0  0  0
    7.7291   10.0486   12.5621 N   0  0  0  0  0  0  0  0  0  0  0  0
    7.2971   10.1610   13.8271 C   0  0  0  0  0  0  0  0  0  0  0  0
    8.0151   10.6678   14.7118 O   0  0  0  0  0  0  0  0  0  0  0  0
    4.9493    8.4897   10.8305 C   0  0  0  0  0  0  0  0  0  0  0  0
    8.7051   10.4090   12.3595 H   0  0  0  0  0  0  0  0  0  0  0  0
  3  4  1  0  0  0
  4  5  1  0  0  0
  4  8  2  0  0  0
  5  6  1  0  0  0
  5  2  1  0  0  0
  6  7  2  0  0  0
  6 13  1  0  0  0
  7  8  1  0  0  0
  7  9  1  0  0  0
  9 10  1  0  0  0
  9 15  1  0  0  0
 10 11  2  0  0  0
 10 12  1  0  0  0
 12 13  1  0  0  0
 13 14  2  0  0  0
  2  1  1  0  0  0
  1 17  1  0  0  0
 17 18  1  0  0  0
 18 19  1  0  0  0
 19 20  1  0  0  0
 19 23  1  0  0  0
 20 21  2  0  0  0
 20 29  1  0  0  0
 21 22  1  0  0  0
 21 25  1  0  0  0
 22 23  2  0  0  0
 23 24  1  0  0  0
 25 26  1  0  0  0
 25 31  1  0  0  0
 26 27  2  0  0  0
 26 28  1  0  0  0
 28 29  1  0  0  0
 29 30  2  0  0  0
 12 16  1  0  0  0
 28 32  1  0  0  0
M  END
> <minimizedAffinity>
-7.89137

$$$$
1436


 33 36  0  0  0  0  0  0  0  0999 V2000
    9.7496    5.3513   11.4629 O   0  0  0  0  0  0  0  0  0  0  0  0
   10.9468    5.0121   12.0004 C   0  0  0  0  0  0  0  0  0  0  0  0
   11.3884    3.6133   12.1252 C   0  0  0  0  0  0  0  0  0  0  0  0
   14.6787    4.6798   12.3083 Br  0  0  0  0  0  0  0  0  0  0  0  0
   13.7250    3.4262   11.2240 C   0  0  0  0  0  0  0  0  0  0  0  0
   12.4236    3.1486   11.2649 N   0  0  0  0  0  0  0  0  0  0  0  0
   12.2064    2.2374   10.2763 C   0  0  0  0  0  0  0  0  0  0  0  0
   13.4154    1.9905    9.6630 C   0  0  0  0  0  0  0  0  0  0  0  0
   14.3505    2.7249   10.2500 N   0  0  0  0  0  0  0  0  0  0  0  0
   13.4623    1.1071    8.6271 N   0  0  0  0  0  0  0  0  0  0  0  0
   12.3379    0.5097    8.2373 C   0  0  0  0  0  0  0  0  0  0  0  0
   12.4130   -0.3059    7.2732 O   0  0  0  0  0  0  0  0  0  0  0  0
   11.1551    0.7432    8.8276 N   0  0  0  0  0  0  0  0  0  0  0  0
   11.0426    1.6159    9.8691 C   0  0  0  0  0  0  0  0  0  0  0  0
    9.9304    1.8297   10.4130 O   0  0  0  0  0  0  0  0  0  0  0  0
   14.7135    0.8198    7.9566 C   0  0  0  0  0  0  0  0  0  0  0  0
   10.2828    0.2683    8.5113 H   0  0  0  0  0  0  0  0  0  0  0  0
    8.9770    6.0720   12.3587 C   0  0  0  0  0  0  0  0  0  0  0  0
    8.6154    7.3918   11.7453 C   0  0  0  0  0  0  0  0  0  0  0  0
    7.8267    8.1955   12.6244 N   0  0  0  0  0  0  0  0  0  0  0  0
    6.4977    8.3522   12.5630 C   0  0  0  0  0  0  0  0  0  0  0  0
    6.1322    9.1957   13.5655 C   0  0  0  0  0  0  0  0  0  0  0  0
    7.2456    9.5318   14.2115 N   0  0  0  0  0  0  0  0  0  0  0  0
    8.3137    8.9331   13.6592 C   0  0  0  0  0  0  0  0  0  0  0  0
   10.1452    9.0369   14.1509 Br  0  0  0  0  0  0  0  0  0  0  0  0
    4.8393    9.5229   13.7328 N   0  0  0  0  0  0  0  0  0  0  0  0
    3.9296    9.0105   12.9074 C   0  0  0  0  0  0  0  0  0  0  0  0
    2.7216    9.3256   13.0761 O   0  0  0  0  0  0  0  0  0  0  0  0
    4.2654    8.1855   11.9235 N   0  0  0  0  0  0  0  0  0  0  0  0
    5.5370    7.8323   11.7183 C   0  0  0  0  0  0  0  0  0  0  0  0
    5.8174    7.0386   10.7639 O   0  0  0  0  0  0  0  0  0  0  0  0
    4.4312   10.4194   14.7941 C   0  0  0  0  0  0  0  0  0  0  0  0
    3.5376    7.7944   11.2868 H   0  0  0  0  0  0  0  0  0  0  0  0
  4  5  1  0  0  0
  5  6  1  0  0  0
  5  9  2  0  0  0
  6  7  1  0  0  0
  6  3  1  0  0  0
  7  8  2  0  0  0
  7 14  1  0  0  0
  8  9  1  0  0  0
  8 10  1  0  0  0
 10 11  1  0  0  0
 10 16  1  0  0  0
 11 12  2  0  0  0
 11 13  1  0  0  0
 13 14  1  0  0  0
 14 15  2  0  0  0
  3  2  1  0  0  0
  2  1  1  0  0  0
  1 18  1  0  0  0
 18 19  1  0  0  0
 19 20  1  0  0  0
 20 21  1  0  0  0
 20 24  1  0  0  0
 21 22  2  0  0  0
 21 30  1  0  0  0
 22 23  1  0  0  0
 22 26  1  0  0  0
 23 24  2  0  0  0
 24 25  1  0  0  0
 26 27  1  0  0  0
 26 32  1  0  0  0
 27 28  2  0  0  0
 27 29  1  0  0  0
 29 30  1  0  0  0
 30 31  2  0  0  0
 13 17  1  0  0  0
 29 33  1  0  0  0
M  END
> <minimizedAffinity>
-9.17060

$$$$
1444


 33 36  0  0  0  0  0  0  0  0999 V2000
    9.0018    5.4930   13.3719 N   0  0  0  0  0  0  0  0  0  0  0  0
    8.1896    6.1559   14.2357 C   0  0  0  0  0  0  0  0  0  0  0  0
    7.6237    5.2243   15.0737 O   0  0  0  0  0  0  0  0  0  0  0  0
    9.0127    4.3866   13.5712 H   0  0  0  0  0  0  0  0  0  0  0  0
   10.7044    4.9584   11.6718 N   0  0  0  0  0  0  0  0  0  0  0  0
   11.1645    5.5528   10.5782 N   0  0  0  0  0  0  0  0  0  0  0  0
   10.5812    6.7233   10.3842 C   0  0  0  0  0  0  0  0  0  0  0  0
    9.6749    6.8856   11.4425 C   0  0  0  0  0  0  0  0  0  0  0  0
    9.7641    5.7696   12.2433 C   0  0  0  0  0  0  0  0  0  0  0  0
   11.1090    3.6963   12.1848 C   0  0  0  0  0  0  0  0  0  0  0  0
   14.0748    3.1538   11.6143 Cl  0  0  0  0  0  0  0  0  0  0  0  0
   12.7325    2.3737   10.8100 C   0  0  0  0  0  0  0  0  0  0  0  0
   11.4538    2.7008   11.1530 C   0  0  0  0  0  0  0  0  0  0  0  0
   10.4353    2.0557   10.4875 C   0  0  0  0  0  0  0  0  0  0  0  0
   10.6743    1.1188    9.5153 C   0  0  0  0  0  0  0  0  0  0  0  0
   11.9710    0.7957    9.1766 C   0  0  0  0  0  0  0  0  0  0  0  0
   12.9943    1.4364    9.8377 C   0  0  0  0  0  0  0  0  0  0  0  0
    7.7173    7.4861   14.5840 C   0  0  0  0  0  0  0  0  0  0  0  0
    7.5429    8.5623   13.7067 N   0  0  0  0  0  0  0  0  0  0  0  0
    8.5560    9.6381   13.5375 C   0  0  0  0  0  0  0  0  0  0  0  0
    7.8217   10.7388   12.8007 C   0  0  0  0  0  0  0  0  0  0  0  0
    7.4370   10.2313   11.4361 C   0  0  0  0  0  0  0  0  0  0  0  0
    6.3738    9.1631   11.5796 C   0  0  0  0  0  0  0  0  0  0  0  0
    6.3041    8.7027   12.9968 C   0  0  0  0  0  0  0  0  0  0  0  0
    5.1208    8.5318   13.5908 C   0  0  0  0  0  0  0  0  0  0  0  0
    3.8908    8.6651   12.8589 N   0  0  0  0  0  0  0  0  0  0  0  0
    2.8053    8.4988   13.7380 N   0  0  0  0  0  0  0  0  0  0  0  0
    3.3216    8.2593   15.0280 C   0  0  0  0  0  0  0  0  0  0  0  0
    2.7147    8.0564   16.1041 O   0  0  0  0  0  0  0  0  0  0  0  0
    4.7555    8.2859   14.9106 N   0  0  0  0  0  0  0  0  0  0  0  0
    3.7049    8.8476   11.8538 H   0  0  0  0  0  0  0  0  0  0  0  0
    1.7806    8.5377   13.5116 H   0  0  0  0  0  0  0  0  0  0  0  0
    5.4018    8.1634   15.7074 H   0  0  0  0  0  0  0  0  0  0  0  0
 11 12  1  0  0  0
 12 13  2  0  0  0
 12 17  1  0  0  0
 13 14  1  0  0  0
 13 10  1  0  0  0
 14 15  2  0  0  0
 15 16  1  0  0  0
 16 17  2  0  0  0
 10  5  1  0  0  0
  5  6  1  0  0  0
  5  9  1  0  0  0
  6  7  2  0  0  0
  7  8  1  0  0  0
  8  9  2  0  0  0
  9  1  1  0  0  0
  1  2  1  0  0  0
  2  3  2  0  0  0
  2 18  1  0  0  0
 18 19  1  0  0  0
 19 20  1  0  0  0
 19 24  1  0  0  0
 20 21  1  0  0  0
 21 22  1  0  0  0
 22 23  1  0  0  0
 23 24  1  0  0  0
 24 25  2  0  0  0
 25 26  1  0  0  0
 25 30  1  0  0  0
 26 27  1  0  0  0
 27 28  1  0  0  0
 28 29  2  0  0  0
 28 30  1  0  0  0
  1  4  1  0  0  0
 26 31  1  0  0  0
 27 32  1  0  0  0
 30 33  1  0  0  0
M  END
> <minimizedAffinity>
-9.13109

$$$$
1447


 38 41  0  0  0  0  0  0  0  0999 V2000
    8.0009    6.8398   11.7742 C   0  0  0  0  0  0  0  0  0  0  0  0
    6.7323    6.4256   11.4536 N   0  0  0  0  0  0  0  0  0  0  0  0
    5.8661    7.2798   11.9236 N   0  0  0  0  0  0  0  0  0  0  0  0
    6.4634    8.2742   12.5573 N   0  0  0  0  0  0  0  0  0  0  0  0
    7.7820    8.0266   12.4820 C   0  0  0  0  0  0  0  0  0  0  0  0
    5.7776    9.3665   13.1434 C   0  0  0  0  0  0  0  0  0  0  0  0
    6.0776   10.6826   13.1142 N   0  0  0  0  0  0  0  0  0  0  0  0
    5.1747   11.3570   13.7754 O   0  0  0  0  0  0  0  0  0  0  0  0
    4.2649   10.5497   14.2580 N   0  0  0  0  0  0  0  0  0  0  0  0
    4.6073    9.3054   13.8845 C   0  0  0  0  0  0  0  0  0  0  0  0
    3.8703    8.1468   14.2120 N   0  0  0  0  0  0  0  0  0  0  0  0
    2.9508    7.9942   13.7594 H   0  0  0  0  0  0  0  0  0  0  0  0
    4.2118    7.4402   14.8881 H   0  0  0  0  0  0  0  0  0  0  0  0
    9.9777    5.2626   12.1889 N   0  0  0  0  0  0  0  0  0  0  0  0
    9.2229    6.1411   11.4236 C   0  0  0  0  0  0  0  0  0  0  0  0
    9.6523    6.3830   10.2332 O   0  0  0  0  0  0  0  0  0  0  0  0
    9.7889    4.9524   13.1716 H   0  0  0  0  0  0  0  0  0  0  0  0
   11.1450    3.4851   11.1921 C   0  0  0  0  0  0  0  0  0  0  0  0
   11.1561    4.7102   11.5810 N   0  0  0  0  0  0  0  0  0  0  0  0
   12.8810   -0.1447    7.7344 Br  0  0  0  0  0  0  0  0  0  0  0  0
   13.1926    1.2102    9.0214 C   0  0  0  0  0  0  0  0  0  0  0  0
   14.4700    1.5580    9.3507 C   0  0  0  0  0  0  0  0  0  0  0  0
   14.6670    2.5566   10.3010 C   0  0  0  0  0  0  0  0  0  0  0  0
   13.5670    3.1724   10.8896 C   0  0  0  0  0  0  0  0  0  0  0  0
   12.2819    2.8290   10.5647 C   0  0  0  0  0  0  0  0  0  0  0  0
   12.1022    1.8398    9.6236 C   0  0  0  0  0  0  0  0  0  0  0  0
   10.7970    1.5005    9.3023 O   0  0  0  0  0  0  0  0  0  0  0  0
   16.4293    3.0641   10.7805 Br  0  0  0  0  0  0  0  0  0  0  0  0
   15.5802    0.9570    8.7756 O   0  0  0  0  0  0  0  0  0  0  0  0
   10.6123    0.7793    8.6164 H   0  0  0  0  0  0  0  0  0  0  0  0
   16.5131    1.2313    9.0367 H   0  0  0  0  0  0  0  0  0  0  0  0
    8.8661    8.8618   13.0073 C   0  0  0  0  0  0  0  0  0  0  0  0
    8.8874    8.9747   14.4681 N   0  0  0  0  0  0  0  0  0  0  0  0
   10.2253    9.4416   14.8817 C   0  0  0  0  0  0  0  0  0  0  0  0
   11.2745    8.6540   14.1779 C   0  0  0  0  0  0  0  0  0  0  0  0
   11.0620    7.3131   14.3848 O   0  0  0  0  0  0  0  0  0  0  0  0
   10.1028    7.0296   15.3213 C   0  0  0  0  0  0  0  0  0  0  0  0
    8.7436    7.6127   15.0349 C   0  0  0  0  0  0  0  0  0  0  0  0
 20 21  1  0  0  0
 21 22  2  0  0  0
 21 26  1  0  0  0
 22 23  1  0  0  0
 22 29  1  0  0  0
 23 24  2  0  0  0
 23 28  1  0  0  0
 24 25  1  0  0  0
 25 26  2  0  0  0
 25 18  1  0  0  0
 26 27  1  0  0  0
 18 19  2  0  0  0
 19 14  1  0  0  0
 14 15  1  0  0  0
 15 16  2  0  0  0
 15  1  1  0  0  0
  1  2  1  0  0  0
  1  5  2  0  0  0
  2  3  2  0  0  0
  3  4  1  0  0  0
  4  5  1  0  0  0
  4  6  1  0  0  0
  5 32  1  0  0  0
 32 33  1  0  0  0
 33 34  1  0  0  0
 33 38  1  0  0  0
 34 35  1  0  0  0
 35 36  1  0  0  0
 36 37  1  0  0  0
 37 38  1  0  0  0
  6  7  2  0  0  0
  6 10  1  0  0  0
  7  8  1  0  0  0
  8  9  1  0  0  0
  9 10  2  0  0  0
 10 11  1  0  0  0
 27 30  1  0  0  0
 14 17  1  0  0  0
 11 12  1  0  0  0
 11 13  1  0  0  0
 29 31  1  0  0  0
M  END
> <minimizedAffinity>
-9.78459

$$$$
1466


 29 32  0  0  0  0  0  0  0  0999 V2000
   12.1106    5.6195   10.8690 N   0  0  0  0  0  0  0  0  0  0  0  0
   11.6655    5.5653    9.6248 N   0  0  0  0  0  0  0  0  0  0  0  0
   10.3554    5.7675    9.5910 N   0  0  0  0  0  0  0  0  0  0  0  0
    9.9047    5.9627   10.8402 C   0  0  0  0  0  0  0  0  0  0  0  0
   11.0189    5.8674   11.6406 C   0  0  0  0  0  0  0  0  0  0  0  0
    8.5390    6.2187   11.2610 C   0  0  0  0  0  0  0  0  0  0  0  0
    8.1190    7.1481   12.1379 N   0  0  0  0  0  0  0  0  0  0  0  0
    6.7841    7.0710   12.2620 C   0  0  0  0  0  0  0  0  0  0  0  0
    6.3992    6.0782   11.4444 N   0  0  0  0  0  0  0  0  0  0  0  0
    7.4582    5.5966   10.8692 O   0  0  0  0  0  0  0  0  0  0  0  0
    5.9172    7.9061   13.1213 C   0  0  0  0  0  0  0  0  0  0  0  0
    5.2019    8.9431   12.5689 C   0  0  0  0  0  0  0  0  0  0  0  0
    4.4088    9.7098   13.3416 N   0  0  0  0  0  0  0  0  0  0  0  0
    4.2679    9.5168   14.6688 C   0  0  0  0  0  0  0  0  0  0  0  0
    4.9898    8.4726   15.2137 C   0  0  0  0  0  0  0  0  0  0  0  0
    5.8079    7.6683   14.4641 C   0  0  0  0  0  0  0  0  0  0  0  0
   13.4871    5.4507   11.3488 C   0  0  0  0  0  0  0  0  0  0  0  0
   13.5890    4.0217   11.8328 C   0  0  0  0  0  0  0  0  0  0  0  0
   12.4477    2.1837   10.6511 C   0  0  0  0  0  0  0  0  0  0  0  0
   11.5557    2.2021   11.5625 O   0  0  0  0  0  0  0  0  0  0  0  0
   13.5366    3.0932   10.7139 N   0  0  0  0  0  0  0  0  0  0  0  0
   14.2707    3.0904    9.9783 H   0  0  0  0  0  0  0  0  0  0  0  0
    9.5293   -1.5151    8.0749 Br  0  0  0  0  0  0  0  0  0  0  0  0
   11.0880   -0.4473    8.3533 C   0  0  0  0  0  0  0  0  0  0  0  0
   12.1494   -0.5934    7.4885 C   0  0  0  0  0  0  0  0  0  0  0  0
   13.2686    0.1481    7.6599 N   0  0  0  0  0  0  0  0  0  0  0  0
   13.3111    1.0197    8.6847 C   0  0  0  0  0  0  0  0  0  0  0  0
   12.2960    1.2130    9.5773 C   0  0  0  0  0  0  0  0  0  0  0  0
   11.1498    0.4606    9.4109 C   0  0  0  0  0  0  0  0  0  0  0  0
 23 24  1  0  0  0
 24 25  2  0  0  0
 24 29  1  0  0  0
 25 26  1  0  0  0
 26 27  2  0  0  0
 27 28  1  0  0  0
 28 29  2  0  0  0
 28 19  1  0  0  0
 19 20  2  0  0  0
 19 21  1  0  0  0
 21 18  1  0  0  0
 18 17  1  0  0  0
 17  1  1  0  0  0
  1  2  1  0  0  0
  1  5  1  0  0  0
  2  3  2  0  0  0
  3  4  1  0  0  0
  4  5  2  0  0  0
  4  6  1  0  0  0
  6  7  2  0  0  0
  6 10  1  0  0  0
  7  8  1  0  0  0
  8  9  2  0  0  0
  8 11  1  0  0  0
  9 10  1  0  0  0
 11 12  2  0  0  0
 11 16  1  0  0  0
 12 13  1  0  0  0
 13 14  2  0  0  0
 14 15  1  0  0  0
 15 16  2  0  0  0
 21 22  1  0  0  0
M  END
> <minimizedAffinity>
-9.19144

$$$$
1471


 31 34  0  0  0  0  0  0  0  0999 V2000
   10.0217    6.3131   11.2748 C   0  0  0  0  0  0  0  0  0  0  0  0
    8.8457    6.5663   11.9254 C   0  0  0  0  0  0  0  0  0  0  0  0
    8.6637    7.5892   12.8160 N   0  0  0  0  0  0  0  0  0  0  0  0
    9.7040    8.3808   13.0556 C   0  0  0  0  0  0  0  0  0  0  0  0
   10.9218    8.2073   12.4523 C   0  0  0  0  0  0  0  0  0  0  0  0
   11.0973    7.1181   11.5100 C   0  0  0  0  0  0  0  0  0  0  0  0
   12.3725    7.1953   11.0855 N   0  0  0  0  0  0  0  0  0  0  0  0
   12.9825    8.2125   11.6698 N   0  0  0  0  0  0  0  0  0  0  0  0
   12.1466    8.8493   12.5003 C   0  0  0  0  0  0  0  0  0  0  0  0
   12.3577    9.8632   13.2332 O   0  0  0  0  0  0  0  0  0  0  0  0
   13.9841    8.5289   11.5409 H   0  0  0  0  0  0  0  0  0  0  0  0
   12.6848    2.7082   11.1215 N   0  0  0  0  0  0  0  0  0  0  0  0
   11.7944    1.9871   10.2505 C   0  0  0  0  0  0  0  0  0  0  0  0
   10.5681    2.7762    9.8658 C   0  0  0  0  0  0  0  0  0  0  0  0
   10.4549    3.8949   10.7625 N   0  0  0  0  0  0  0  0  0  0  0  0
   10.6870    3.6529   12.1633 C   0  0  0  0  0  0  0  0  0  0  0  0
   12.1982    3.4258   12.3091 C   0  0  0  0  0  0  0  0  0  0  0  0
   10.1294    5.2030   10.3418 C   0  0  0  0  0  0  0  0  0  0  0  0
    9.9158    5.4665    9.1220 O   0  0  0  0  0  0  0  0  0  0  0  0
   13.6845    0.8642    8.9626 Cl  0  0  0  0  0  0  0  0  0  0  0  0
   14.6718    1.9749    9.9176 C   0  0  0  0  0  0  0  0  0  0  0  0
   14.0706    2.7605   10.8765 C   0  0  0  0  0  0  0  0  0  0  0  0
   14.8590    3.6117   11.6018 C   0  0  0  0  0  0  0  0  0  0  0  0
   16.2287    3.7114   11.4108 C   0  0  0  0  0  0  0  0  0  0  0  0
   16.8010    2.8963   10.4282 C   0  0  0  0  0  0  0  0  0  0  0  0
   16.0299    2.0347    9.6881 C   0  0  0  0  0  0  0  0  0  0  0  0
    7.3788    7.7445   13.4804 C   0  0  0  0  0  0  0  0  0  0  0  0
    6.5992    8.9257   13.1083 C   0  0  0  0  0  0  0  0  0  0  0  0
    6.4831    9.4430   11.7436 C   0  0  0  0  0  0  0  0  0  0  0  0
    6.0025    8.6974   10.7352 O   0  0  0  0  0  0  0  0  0  0  0  0
    4.7755    8.1730   10.7193 C   0  0  0  0  0  0  0  0  0  0  0  0
 20 21  1  0  0  0
 21 22  2  0  0  0
 21 26  1  0  0  0
 22 23  1  0  0  0
 22 12  1  0  0  0
 23 24  2  0  0  0
 24 25  1  0  0  0
 25 26  2  0  0  0
 12 13  1  0  0  0
 12 17  1  0  0  0
 13 14  1  0  0  0
 14 15  1  0  0  0
 15 16  1  0  0  0
 15 18  1  0  0  0
 16 17  1  0  0  0
 18 19  2  0  0  0
 18  1  1  0  0  0
  1  2  2  0  0  0
  1  6  1  0  0  0
  2  3  1  0  0  0
  3  4  1  0  0  0
  3 27  1  0  0  0
  4  5  2  0  0  0
  5  6  1  0  0  0
  5  9  1  0  0  0
  6  7  2  0  0  0
  7  8  1  0  0  0
  8  9  1  0  0  0
  9 10  2  0  0  0
 27 28  1  0  0  0
 28 29  1  0  0  0
 29 30  1  0  0  0
 30 31  1  0  0  0
  8 11  1  0  0  0
M  END
> <minimizedAffinity>
-8.69128

$$$$
1477


 35 39  0  0  0  0  0  0  0  0999 V2000
    9.6435    6.6941   13.6052 C   0  0  0  0  0  0  0  0  0  0  0  0
    9.6740    5.6701   12.6558 N   0  0  0  0  0  0  0  0  0  0  0  0
    8.5595    5.9017   11.7419 C   0  0  0  0  0  0  0  0  0  0  0  0
    8.3075    5.2962   10.6698 O   0  0  0  0  0  0  0  0  0  0  0  0
    7.7247    6.9784   12.2516 C   0  0  0  0  0  0  0  0  0  0  0  0
    6.6714    7.4452   11.7022 O   0  0  0  0  0  0  0  0  0  0  0  0
    8.3297    7.4052   13.4851 C   0  0  0  0  0  0  0  0  0  0  0  0
    7.8270    8.2959   14.3149 C   0  0  0  0  0  0  0  0  0  0  0  0
    8.6395    8.6032   15.4315 O   0  0  0  0  0  0  0  0  0  0  0  0
    6.5452    8.9636   14.1868 C   0  0  0  0  0  0  0  0  0  0  0  0
    5.3250    8.6937   14.6762 N   0  0  0  0  0  0  0  0  0  0  0  0
    4.3965    9.5681   14.2605 C   0  0  0  0  0  0  0  0  0  0  0  0
    5.0467   10.4456   13.4642 N   0  0  0  0  0  0  0  0  0  0  0  0
    6.3386   10.1153   13.3961 C   0  0  0  0  0  0  0  0  0  0  0  0
    7.3890   10.8101   12.6389 C   0  0  0  0  0  0  0  0  0  0  0  0
    3.0749    9.4884   14.6562 C   0  0  0  0  0  0  0  0  0  0  0  0
    2.6975    8.4799   15.5014 C   0  0  0  0  0  0  0  0  0  0  0  0
    3.6537    7.5794   15.9305 C   0  0  0  0  0  0  0  0  0  0  0  0
    4.9611    7.6881   15.5177 C   0  0  0  0  0  0  0  0  0  0  0  0
   13.7358    8.1710   16.6749 Br  0  0  0  0  0  0  0  0  0  0  0  0
   12.6352    8.3352   15.1378 C   0  0  0  0  0  0  0  0  0  0  0  0
   11.5562    7.4992   14.9528 C   0  0  0  0  0  0  0  0  0  0  0  0
   10.7427    7.6147   13.8178 C   0  0  0  0  0  0  0  0  0  0  0  0
   11.1100    8.6078   12.9366 C   0  0  0  0  0  0  0  0  0  0  0  0
   12.1680    9.4573   13.0812 C   0  0  0  0  0  0  0  0  0  0  0  0
   12.9486    9.3121   14.2138 C   0  0  0  0  0  0  0  0  0  0  0  0
   10.5153    4.5319   12.5834 C   0  0  0  0  0  0  0  0  0  0  0  0
   11.5813    4.4306   11.5893 C   0  0  0  0  0  0  0  0  0  0  0  0
   11.3098    3.9413   10.2696 N   0  0  0  0  0  0  0  0  0  0  0  0
   12.5983    3.8526    9.5822 C   0  0  0  0  0  0  0  0  0  0  0  0
   13.2697    2.5312    9.7768 C   0  0  0  0  0  0  0  0  0  0  0  0
   12.6439    1.7936   10.7934 O   0  0  0  0  0  0  0  0  0  0  0  0
   11.3837    1.5098   10.3168 C   0  0  0  0  0  0  0  0  0  0  0  0
   10.5516    2.7363   10.2476 C   0  0  0  0  0  0  0  0  0  0  0  0
   10.7871    4.6593    9.6850 H   0  0  0  0  0  0  0  0  0  0  0  0
 20 21  1  0  0  0
 21 22  2  0  0  0
 21 26  1  0  0  0
 22 23  1  0  0  0
 23 24  2  0  0  0
 23  1  1  0  0  0
 24 25  1  0  0  0
 25 26  2  0  0  0
  1  2  1  0  0  0
  1  7  1  0  0  0
  2  3  1  0  0  0
  2 27  1  0  0  0
  3  4  2  0  0  0
  3  5  1  0  0  0
  5  6  2  0  0  0
  5  7  1  0  0  0
  7  8  2  0  0  0
  8  9  1  0  0  0
  8 10  1  0  0  0
 10 11  1  0  0  0
 10 14  2  0  0  0
 11 12  1  0  0  0
 11 19  1  0  0  0
 12 13  2  0  0  0
 12 16  1  0  0  0
 13 14  1  0  0  0
 14 15  1  0  0  0
 16 17  2  0  0  0
 17 18  1  0  0  0
 18 19  2  0  0  0
 27 28  1  0  0  0
 28 29  1  0  0  0
 29 30  1  0  0  0
 29 34  1  0  0  0
 30 31  1  0  0  0
 31 32  1  0  0  0
 32 33  1  0  0  0
 33 34  1  0  0  0
 29 35  1  0  0  0
M  CHG 1   9  -1
M  CHG 1  29   1
M  END
> <minimizedAffinity>
-8.54692

$$$$
1486


 31 34  0  0  0  0  0  0  0  0999 V2000
   13.3406    2.7469   11.2048 N   0  0  0  0  0  0  0  0  0  0  0  0
   12.1474    3.1403   11.5881 N   0  0  0  0  0  0  0  0  0  0  0  0
   12.1835    4.4127   12.0110 C   0  0  0  0  0  0  0  0  0  0  0  0
   13.4520    4.8294   11.8864 N   0  0  0  0  0  0  0  0  0  0  0  0
   14.1687    3.7818   11.3826 C   0  0  0  0  0  0  0  0  0  0  0  0
   15.5994    3.7833   11.0826 C   0  0  0  0  0  0  0  0  0  0  0  0
   16.4549    4.1047   12.2851 C   0  0  0  0  0  0  0  0  0  0  0  0
   16.3606    5.5640   12.6724 C   0  0  0  0  0  0  0  0  0  0  0  0
   15.0407    5.9295   13.2779 C   0  0  0  0  0  0  0  0  0  0  0  0
   13.9623    6.1432   12.2251 C   0  0  0  0  0  0  0  0  0  0  0  0
   13.6966    1.4569   10.6936 C   0  0  0  0  0  0  0  0  0  0  0  0
   13.3431    1.3144    9.2563 C   0  0  0  0  0  0  0  0  0  0  0  0
   14.0423    1.9449    8.4194 O   0  0  0  0  0  0  0  0  0  0  0  0
    8.6259   -2.1624    7.3143 Br  0  0  0  0  0  0  0  0  0  0  0  0
   10.0914   -1.0754    7.9260 C   0  0  0  0  0  0  0  0  0  0  0  0
   11.3093   -1.1289    7.2701 C   0  0  0  0  0  0  0  0  0  0  0  0
   12.3731   -0.3456    7.7076 C   0  0  0  0  0  0  0  0  0  0  0  0
   12.2463    0.4939    8.7900 C   0  0  0  0  0  0  0  0  0  0  0  0
   11.0218    0.5220    9.4191 C   0  0  0  0  0  0  0  0  0  0  0  0
    9.9553   -0.2400    9.0089 C   0  0  0  0  0  0  0  0  0  0  0  0
   11.0703    5.2261   12.5191 C   0  0  0  0  0  0  0  0  0  0  0  0
   10.3946    5.9435   11.4818 N   0  0  0  0  0  0  0  0  0  0  0  0
   10.8079    6.0019   10.5397 H   0  0  0  0  0  0  0  0  0  0  0  0
    9.1475    6.6025   11.6799 C   0  0  0  0  0  0  0  0  0  0  0  0
    9.0445    7.9727   11.7603 C   0  0  0  0  0  0  0  0  0  0  0  0
    7.8377    8.5962   11.9462 C   0  0  0  0  0  0  0  0  0  0  0  0
    6.7064    7.8503   12.0559 C   0  0  0  0  0  0  0  0  0  0  0  0
    6.8054    6.4786   11.9767 C   0  0  0  0  0  0  0  0  0  0  0  0
    8.0140    5.8406   11.7889 C   0  0  0  0  0  0  0  0  0  0  0  0
    5.4829    8.4477   12.2436 O   0  0  0  0  0  0  0  0  0  0  0  0
    5.2577    9.4420   13.2121 C   0  0  0  0  0  0  0  0  0  0  0  0
 14 15  1  0  0  0
 15 16  2  0  0  0
 15 20  1  0  0  0
 16 17  1  0  0  0
 17 18  2  0  0  0
 18 19  1  0  0  0
 18 12  1  0  0  0
 19 20  2  0  0  0
 12 13  2  0  0  0
 12 11  1  0  0  0
 11  1  1  0  0  0
  1  2  1  0  0  0
  1  5  2  0  0  0
  2  3  2  0  0  0
  3  4  1  0  0  0
  3 21  1  0  0  0
  4  5  1  0  0  0
  4 10  1  0  0  0
  5  6  1  0  0  0
  6  7  1  0  0  0
  7  8  1  0  0  0
  8  9  1  0  0  0
  9 10  1  0  0  0
 21 22  1  0  0  0
 22 24  1  0  0  0
 24 25  2  0  0  0
 24 29  1  0  0  0
 25 26  1  0  0  0
 26 27  2  0  0  0
 27 28  1  0  0  0
 27 30  1  0  0  0
 28 29  2  0  0  0
 30 31  1  0  0  0
 22 23  1  0  0  0
M  END
> <minimizedAffinity>
-8.92644

$$$$
1487


 29 32  0  0  0  0  0  0  0  0999 V2000
    9.1828    6.0384   14.3728 N   0  0  0  0  0  0  0  0  0  0  0  0
    7.7632    5.9266   14.5964 C   0  0  0  0  0  0  0  0  0  0  0  0
    7.2036    7.1685   15.1510 C   0  0  0  0  0  0  0  0  0  0  0  0
    8.3508    8.0198   15.2909 N   0  0  0  0  0  0  0  0  0  0  0  0
    8.6122    9.1714   16.1219 C   0  0  0  0  0  0  0  0  0  0  0  0
    8.9222   10.4312   15.3793 C   0  0  0  0  0  0  0  0  0  0  0  0
    9.1518   10.2668   13.9175 C   0  0  0  0  0  0  0  0  0  0  0  0
   10.5516    9.6416   13.7222 C   0  0  0  0  0  0  0  0  0  0  0  0
   10.2896    8.1462   13.7420 C   0  0  0  0  0  0  0  0  0  0  0  0
    9.3710    7.4822   14.4055 C   0  0  0  0  0  0  0  0  0  0  0  0
    6.7240    6.9242   16.4680 O   0  0  0  0  0  0  0  0  0  0  0  0
    9.8015    5.6531   15.0779 H   0  0  0  0  0  0  0  0  0  0  0  0
    6.5642    5.9243   16.5125 H   0  0  0  0  0  0  0  0  0  0  0  0
   12.9039    4.0128   11.3769 Cl  0  0  0  0  0  0  0  0  0  0  0  0
   11.3378    4.7799   11.5933 C   0  0  0  0  0  0  0  0  0  0  0  0
   10.8595    5.0662   12.8693 C   0  0  0  0  0  0  0  0  0  0  0  0
    9.6312    5.6408   13.0854 C   0  0  0  0  0  0  0  0  0  0  0  0
    8.8793    5.9292   11.9403 C   0  0  0  0  0  0  0  0  0  0  0  0
    9.3381    5.6509   10.6576 C   0  0  0  0  0  0  0  0  0  0  0  0
   10.5682    5.0741   10.4861 C   0  0  0  0  0  0  0  0  0  0  0  0
    6.0947    7.7692   14.4501 C   0  0  0  0  0  0  0  0  0  0  0  0
    6.0290    7.8701   13.0603 C   0  0  0  0  0  0  0  0  0  0  0  0
    4.9485    8.4269   12.3901 C   0  0  0  0  0  0  0  0  0  0  0  0
    3.8748    8.9085   13.1392 C   0  0  0  0  0  0  0  0  0  0  0  0
    3.8997    8.8305   14.5017 C   0  0  0  0  0  0  0  0  0  0  0  0
    5.0108    8.2599   15.1429 C   0  0  0  0  0  0  0  0  0  0  0  0
    4.9499    8.4965   10.9784 N   0  0  0  0  0  0  0  0  0  0  0  0
    3.9103    8.1556   10.3324 O   0  0  0  0  0  0  0  0  0  0  0  0
    6.0079    8.9056   10.2564 O   0  0  0  0  0  0  0  0  0  0  0  0
 14 15  1  0  0  0
 15 16  2  0  0  0
 15 20  1  0  0  0
 16 17  1  0  0  0
 17 18  2  0  0  0
 17  1  1  0  0  0
 18 19  1  0  0  0
 19 20  2  0  0  0
  1  2  1  0  0  0
  1 10  1  0  0  0
  2  3  1  0  0  0
  3  4  1  0  0  0
  3 11  1  0  0  0
  3 21  1  0  0  0
  4  5  1  0  0  0
  4 10  1  0  0  0
  5  6  1  0  0  0
  6  7  1  0  0  0
  7  8  1  0  0  0
  8  9  1  0  0  0
  9 10  2  0  0  0
 21 22  2  0  0  0
 21 26  1  0  0  0
 22 23  1  0  0  0
 23 24  2  0  0  0
 23 27  1  0  0  0
 24 25  1  0  0  0
 25 26  2  0  0  0
 27 28  2  0  0  0
 27 29  1  0  0  0
  1 12  1  0  0  0
 11 13  1  0  0  0
M  CHG 1   1   1
M  CHG 1  29  -1
M  END
> <minimizedAffinity>
-8.10488

$$$$
1491


 34 38  0  0  0  0  0  0  0  0999 V2000
    8.1588    5.2588   10.7896 F   0  0  0  0  0  0  0  0  0  0  0  0
    8.4461    6.2292   11.6755 C   0  0  0  0  0  0  0  0  0  0  0  0
    7.3269    6.8654   12.2046 C   0  0  0  0  0  0  0  0  0  0  0  0
    7.4693    7.8749   13.1306 C   0  0  0  0  0  0  0  0  0  0  0  0
    8.7420    8.2278   13.5119 C   0  0  0  0  0  0  0  0  0  0  0  0
    9.8480    7.5788   12.9723 C   0  0  0  0  0  0  0  0  0  0  0  0
    9.7198    6.5751   12.0502 C   0  0  0  0  0  0  0  0  0  0  0  0
    8.8569    9.2174   14.4203 N   0  0  0  0  0  0  0  0  0  0  0  0
    7.7909    9.8474   14.9456 C   0  0  0  0  0  0  0  0  0  0  0  0
    6.5033    9.5178   14.5842 C   0  0  0  0  0  0  0  0  0  0  0  0
    6.3393    8.5131   13.6600 C   0  0  0  0  0  0  0  0  0  0  0  0
    5.1944    8.1629   13.2880 O   0  0  0  0  0  0  0  0  0  0  0  0
   10.8533    5.9551   11.5250 N   0  0  0  0  0  0  0  0  0  0  0  0
   10.6628    5.2597   10.2778 C   0  0  0  0  0  0  0  0  0  0  0  0
   12.0249    4.7547    9.7459 C   0  0  0  0  0  0  0  0  0  0  0  0
   12.4820    3.8252   10.7020 N   0  0  0  0  0  0  0  0  0  0  0  0
   12.8435    4.5366   11.9892 C   0  0  0  0  0  0  0  0  0  0  0  0
   11.5274    5.0928   12.4392 C   0  0  0  0  0  0  0  0  0  0  0  0
   12.6039    2.4767   10.7071 C   0  0  0  0  0  0  0  0  0  0  0  0
   13.1539    1.9669   11.7829 O   0  0  0  0  0  0  0  0  0  0  0  0
   11.5431    6.7380   11.3031 H   0  0  0  0  0  0  0  0  0  0  0  0
   12.2364    1.4872    9.7330 C   0  0  0  0  0  0  0  0  0  0  0  0
   10.9991    0.9394    9.6266 C   0  0  0  0  0  0  0  0  0  0  0  0
   10.6735    0.0252    8.6326 C   0  0  0  0  0  0  0  0  0  0  0  0
   11.6315   -0.3444    7.7242 C   0  0  0  0  0  0  0  0  0  0  0  0
   12.8934    0.1752    7.7873 C   0  0  0  0  0  0  0  0  0  0  0  0
   13.1815    1.0703    8.7726 C   0  0  0  0  0  0  0  0  0  0  0  0
    9.0493   -0.6585    8.5323 Cl  0  0  0  0  0  0  0  0  0  0  0  0
    5.3449   10.2193   15.1695 C   0  0  0  0  0  0  0  0  0  0  0  0
    4.8710    9.9160   16.2757 O   0  0  0  0  0  0  0  0  0  0  0  0
    4.7812   11.2478   14.4493 O   0  0  0  0  0  0  0  0  0  0  0  0
   10.2230    9.5807   14.8149 C   0  0  0  0  0  0  0  0  0  0  0  0
   10.4808   10.7571   15.6509 C   0  0  0  0  0  0  0  0  0  0  0  0
   10.7029   10.9444   14.2164 C   0  0  0  0  0  0  0  0  0  0  0  0
  1  2  1  0  0  0
  2  3  2  0  0  0
  2  7  1  0  0  0
  3  4  1  0  0  0
  4  5  2  0  0  0
  4 11  1  0  0  0
  5  6  1  0  0  0
  5  8  1  0  0  0
  6  7  2  0  0  0
  7 13  1  0  0  0
 13 14  1  0  0  0
 13 18  1  0  0  0
 14 15  1  0  0  0
 15 16  1  0  0  0
 16 17  1  0  0  0
 16 19  1  0  0  0
 17 18  1  0  0  0
 19 20  2  0  0  0
 19 22  1  0  0  0
 22 23  2  0  0  0
 22 27  1  0  0  0
 23 24  1  0  0  0
 24 25  2  0  0  0
 24 28  1  0  0  0
 25 26  1  0  0  0
 26 27  2  0  0  0
  8  9  1  0  0  0
  8 32  1  0  0  0
  9 10  2  0  0  0
 10 11  1  0  0  0
 10 29  1  0  0  0
 11 12  2  0  0  0
 29 30  2  0  0  0
 29 31  1  0  0  0
 32 33  1  0  0  0
 32 34  1  0  0  0
 33 34  1  0  0  0
 13 21  1  0  0  0
M  CHG 1  13   1
M  END
> <minimizedAffinity>
-10.00544

$$$$
1506


 32 35  0  0  0  0  0  0  0  0999 V2000
   12.6130    5.3559   11.2016 N   0  0  0  0  0  0  0  0  0  0  0  0
   11.2347    5.0434   11.4864 C   0  0  0  0  0  0  0  0  0  0  0  0
   10.9747    4.1903   12.3493 O   0  0  0  0  0  0  0  0  0  0  0  0
   12.7504    6.0842   10.5056 H   0  0  0  0  0  0  0  0  0  0  0  0
   10.1236    5.7170   10.7737 C   0  0  0  0  0  0  0  0  0  0  0  0
   10.2543    7.2060   11.0044 C   0  0  0  0  0  0  0  0  0  0  0  0
    9.8876    7.4687   12.4479 C   0  0  0  0  0  0  0  0  0  0  0  0
    8.4485    7.2384   12.5353 N   0  0  0  0  0  0  0  0  0  0  0  0
    7.8425    6.2148   11.7534 C   0  0  0  0  0  0  0  0  0  0  0  0
    8.7783    5.2248   11.1611 C   0  0  0  0  0  0  0  0  0  0  0  0
    7.7082    8.0625   13.4141 C   0  0  0  0  0  0  0  0  0  0  0  0
    6.8668    9.0220   12.9835 N   0  0  0  0  0  0  0  0  0  0  0  0
    6.1704    9.8005   13.7903 N   0  0  0  0  0  0  0  0  0  0  0  0
    5.3068   10.7818   13.5508 N   0  0  0  0  0  0  0  0  0  0  0  0
    4.8549   11.2790   14.6707 N   0  0  0  0  0  0  0  0  0  0  0  0
    5.4204   10.6233   15.6619 N   0  0  0  0  0  0  0  0  0  0  0  0
    6.2433    9.6996   15.1222 C   0  0  0  0  0  0  0  0  0  0  0  0
    7.0924    8.7315   15.6279 C   0  0  0  0  0  0  0  0  0  0  0  0
    7.8213    7.9163   14.7858 C   0  0  0  0  0  0  0  0  0  0  0  0
   13.5960    4.6616   11.9354 C   0  0  0  0  0  0  0  0  0  0  0  0
   14.1501    3.3766   11.4793 C   0  0  0  0  0  0  0  0  0  0  0  0
   13.2534    2.0000    9.5257 C   0  0  0  0  0  0  0  0  0  0  0  0
   14.0775    2.3809    8.6673 O   0  0  0  0  0  0  0  0  0  0  0  0
   13.2917    2.4583   10.8342 N   0  0  0  0  0  0  0  0  0  0  0  0
   12.4857    2.0068   11.4530 H   0  0  0  0  0  0  0  0  0  0  0  0
    9.2175   -2.0000    7.5477 Cl  0  0  0  0  0  0  0  0  0  0  0  0
   10.3829   -0.8244    8.1341 C   0  0  0  0  0  0  0  0  0  0  0  0
   11.6788   -0.8393    7.6455 C   0  0  0  0  0  0  0  0  0  0  0  0
   12.5841    0.0856    8.1095 C   0  0  0  0  0  0  0  0  0  0  0  0
   12.2381    1.0306    9.0508 C   0  0  0  0  0  0  0  0  0  0  0  0
   10.9509    1.0254    9.5201 C   0  0  0  0  0  0  0  0  0  0  0  0
   10.0053    0.1007    9.0707 C   0  0  0  0  0  0  0  0  0  0  0  0
 26 27  1  0  0  0
 27 28  2  0  0  0
 27 32  1  0  0  0
 28 29  1  0  0  0
 29 30  2  0  0  0
 30 31  1  0  0  0
 30 22  1  0  0  0
 31 32  2  0  0  0
 22 23  2  0  0  0
 22 24  1  0  0  0
 24 21  1  0  0  0
 21 20  1  0  0  0
 20  1  1  0  0  0
  1  2  1  0  0  0
  2  3  2  0  0  0
  2  5  1  0  0  0
  5  6  1  0  0  0
  5 10  1  0  0  0
  6  7  1  0  0  0
  7  8  1  0  0  0
  8  9  1  0  0  0
  8 11  1  0  0  0
  9 10  1  0  0  0
 11 12  2  0  0  0
 11 19  1  0  0  0
 12 13  1  0  0  0
 13 14  1  0  0  0
 13 17  1  0  0  0
 14 15  2  0  0  0
 15 16  1  0  0  0
 16 17  2  0  0  0
 17 18  1  0  0  0
 18 19  2  0  0  0
 24 25  1  0  0  0
  1  4  1  0  0  0
M  END
> <minimizedAffinity>
-9.49510

$$$$
1507


 32 35  0  0  0  0  0  0  0  0999 V2000
   11.4936    7.4407   12.9898 C   0  0  0  0  0  0  0  0  0  0  0  0
   11.4310    6.9748   11.7591 C   0  0  0  0  0  0  0  0  0  0  0  0
   12.5119    6.3856   10.9040 C   0  0  0  0  0  0  0  0  0  0  0  0
   11.8413    5.2985   10.2887 N   0  0  0  0  0  0  0  0  0  0  0  0
   10.5514    5.8643    9.9038 C   0  0  0  0  0  0  0  0  0  0  0  0
    9.8086    5.5075    8.9527 O   0  0  0  0  0  0  0  0  0  0  0  0
   10.2860    6.9421   10.8497 C   0  0  0  0  0  0  0  0  0  0  0  0
    9.2898    7.7347   10.9344 O   0  0  0  0  0  0  0  0  0  0  0  0
   12.6735    7.4518   13.7126 O   0  0  0  0  0  0  0  0  0  0  0  0
    6.4766    9.8143   15.6951 Br  0  0  0  0  0  0  0  0  0  0  0  0
    8.0452    9.0813   14.8585 C   0  0  0  0  0  0  0  0  0  0  0  0
    8.2969    7.7286   14.8612 C   0  0  0  0  0  0  0  0  0  0  0  0
    9.3940    7.1539   14.2833 C   0  0  0  0  0  0  0  0  0  0  0  0
   10.3121    7.9755   13.6560 C   0  0  0  0  0  0  0  0  0  0  0  0
   10.0839    9.3323   13.6383 C   0  0  0  0  0  0  0  0  0  0  0  0
    8.9569    9.9070   14.2334 C   0  0  0  0  0  0  0  0  0  0  0  0
   13.7744    6.2568   11.5515 C   0  0  0  0  0  0  0  0  0  0  0  0
   14.0401    5.1248   12.2835 C   0  0  0  0  0  0  0  0  0  0  0  0
   15.2394    4.9201   12.9223 C   0  0  0  0  0  0  0  0  0  0  0  0
   16.2468    5.8711   12.8481 C   0  0  0  0  0  0  0  0  0  0  0  0
   15.9606    7.0012   12.1081 C   0  0  0  0  0  0  0  0  0  0  0  0
   14.7558    7.1984   11.4710 C   0  0  0  0  0  0  0  0  0  0  0  0
   17.7755    5.6234   13.6544 Cl  0  0  0  0  0  0  0  0  0  0  0  0
   12.2018    3.9306    9.9695 C   0  0  0  0  0  0  0  0  0  0  0  0
   11.3110    2.8570   10.4607 C   0  0  0  0  0  0  0  0  0  0  0  0
   11.9223    1.5234   10.4596 N   0  0  0  0  0  0  0  0  0  0  0  0
   13.2803    1.6027   10.0426 C   0  0  0  0  0  0  0  0  0  0  0  0
   13.6278    0.9253    8.7634 C   0  0  0  0  0  0  0  0  0  0  0  0
   12.8340   -0.1535    8.4237 O   0  0  0  0  0  0  0  0  0  0  0  0
   11.5304    0.3788    8.2979 C   0  0  0  0  0  0  0  0  0  0  0  0
   11.0724    0.6685    9.6838 C   0  0  0  0  0  0  0  0  0  0  0  0
   11.8649    1.2067   11.4761 H   0  0  0  0  0  0  0  0  0  0  0  0
 10 11  1  0  0  0
 11 12  2  0  0  0
 11 16  1  0  0  0
 12 13  1  0  0  0
 13 14  2  0  0  0
 14 15  1  0  0  0
 14  1  1  0  0  0
 15 16  2  0  0  0
  1  2  2  0  0  0
  1  9  1  0  0  0
  2  3  1  0  0  0
  2  7  1  0  0  0
  3  4  1  0  0  0
  3 17  1  0  0  0
  4  5  1  0  0  0
  4 24  1  0  0  0
  5  6  2  0  0  0
  5  7  1  0  0  0
  7  8  2  0  0  0
 24 25  1  0  0  0
 25 26  1  0  0  0
 26 27  1  0  0  0
 26 31  1  0  0  0
 27 28  1  0  0  0
 28 29  1  0  0  0
 29 30  1  0  0  0
 30 31  1  0  0  0
 17 18  2  0  0  0
 17 22  1  0  0  0
 18 19  1  0  0  0
 19 20  2  0  0  0
 20 21  1  0  0  0
 20 23  1  0  0  0
 21 22  2  0  0  0
 26 32  1  0  0  0
M  CHG 1   9  -1
M  CHG 1  26   1
M  END
> <minimizedAffinity>
-8.40631

$$$$
1511


 34 37  0  0  0  0  0  0  0  0999 V2000
   15.7538    5.7008   11.9021 N   0  0  0  0  0  0  0  0  0  0  0  0
   14.4732    5.3103   12.0080 C   0  0  0  0  0  0  0  0  0  0  0  0
   14.1489    4.1467   12.3584 O   0  0  0  0  0  0  0  0  0  0  0  0
   13.6072    6.3421   11.6866 C   0  0  0  0  0  0  0  0  0  0  0  0
   14.3771    7.3784   11.3801 C   0  0  0  0  0  0  0  0  0  0  0  0
   13.5374    8.3777   11.0683 N   0  0  0  0  0  0  0  0  0  0  0  0
   12.2885    7.9625   11.1815 N   0  0  0  0  0  0  0  0  0  0  0  0
   12.3099    6.7128   11.5615 N   0  0  0  0  0  0  0  0  0  0  0  0
   15.6949    6.9927   11.5091 C   0  0  0  0  0  0  0  0  0  0  0  0
   16.7068    7.7389   11.2929 O   0  0  0  0  0  0  0  0  0  0  0  0
   13.7925    9.3424   10.7777 H   0  0  0  0  0  0  0  0  0  0  0  0
   11.4039    8.5245   11.0023 H   0  0  0  0  0  0  0  0  0  0  0  0
   20.9269    2.4763   12.7943 Br  0  0  0  0  0  0  0  0  0  0  0  0
   19.3223    3.4875   12.5293 C   0  0  0  0  0  0  0  0  0  0  0  0
   18.9828    4.5281   13.3712 C   0  0  0  0  0  0  0  0  0  0  0  0
   17.8157    5.2601   13.1737 C   0  0  0  0  0  0  0  0  0  0  0  0
   16.9549    4.9743   12.1344 C   0  0  0  0  0  0  0  0  0  0  0  0
   17.2985    3.9349   11.2982 C   0  0  0  0  0  0  0  0  0  0  0  0
   18.4556    3.2086   11.4915 C   0  0  0  0  0  0  0  0  0  0  0  0
   11.1819    5.8477   11.8120 C   0  0  0  0  0  0  0  0  0  0  0  0
   11.1484    4.7617   10.7621 C   0  0  0  0  0  0  0  0  0  0  0  0
   10.8917    5.0670    9.5764 O   0  0  0  0  0  0  0  0  0  0  0  0
   11.4030    3.4295   11.1195 N   0  0  0  0  0  0  0  0  0  0  0  0
   11.6161    3.2422   12.1529 H   0  0  0  0  0  0  0  0  0  0  0  0
   11.4094    2.3262   10.2431 C   0  0  0  0  0  0  0  0  0  0  0  0
   12.4892    1.8694    9.5308 C   0  0  0  0  0  0  0  0  0  0  0  0
   12.4255    0.7907    8.6732 C   0  0  0  0  0  0  0  0  0  0  0  0
   11.2148    0.1459    8.5317 C   0  0  0  0  0  0  0  0  0  0  0  0
   10.1001    0.5750    9.2337 C   0  0  0  0  0  0  0  0  0  0  0  0
   10.1862    1.6483   10.0779 C   0  0  0  0  0  0  0  0  0  0  0  0
   11.1288   -0.9455    7.6716 O   0  0  0  0  0  0  0  0  0  0  0  0
    9.9108   -1.6576    7.5805 C   0  0  0  0  0  0  0  0  0  0  0  0
   13.5397    0.3495    7.9629 O   0  0  0  0  0  0  0  0  0  0  0  0
   14.7108    1.1758    7.9872 C   0  0  0  0  0  0  0  0  0  0  0  0
 13 14  1  0  0  0
 14 15  2  0  0  0
 14 19  1  0  0  0
 15 16  1  0  0  0
 16 17  2  0  0  0
 17 18  1  0  0  0
 17  1  1  0  0  0
 18 19  2  0  0  0
  1  2  1  0  0  0
  1  9  1  0  0  0
  2  3  2  0  0  0
  2  4  1  0  0  0
  4  5  2  0  0  0
  4  8  1  0  0  0
  5  6  1  0  0  0
  5  9  1  0  0  0
  6  7  1  0  0  0
  7  8  1  0  0  0
  8 20  1  0  0  0
 20 21  1  0  0  0
 21 22  2  0  0  0
 21 23  1  0  0  0
 23 25  1  0  0  0
 25 26  2  0  0  0
 25 30  1  0  0  0
 26 27  1  0  0  0
 27 28  2  0  0  0
 27 33  1  0  0  0
 28 29  1  0  0  0
 28 31  1  0  0  0
 29 30  2  0  0  0
 31 32  1  0  0  0
 33 34  1  0  0  0
  9 10  2  0  0  0
  6 11  1  0  0  0
  7 12  1  0  0  0
 23 24  1  0  0  0
M  END
> <minimizedAffinity>
-9.00817

$$$$
1516


 30 33  0  0  0  0  0  0  0  0999 V2000
   10.5776    5.2310   11.7645 C   0  0  0  0  0  0  0  0  0  0  0  0
   10.9198    4.3339   12.6606 O   0  0  0  0  0  0  0  0  0  0  0  0
    9.5852    6.1039   12.1874 N   0  0  0  0  0  0  0  0  0  0  0  0
    9.0705    7.1815   11.4083 C   0  0  0  0  0  0  0  0  0  0  0  0
    8.2453    8.0942   12.3445 C   0  0  0  0  0  0  0  0  0  0  0  0
    7.0165    7.2984   12.7415 C   0  0  0  0  0  0  0  0  0  0  0  0
    6.2782    6.9797   11.5894 N   0  0  0  0  0  0  0  0  0  0  0  0
    5.3478    7.8823   11.0613 C   0  0  0  0  0  0  0  0  0  0  0  0
    4.5556    8.6928   12.0168 C   0  0  0  0  0  0  0  0  0  0  0  0
    5.1233    8.7285   13.3809 C   0  0  0  0  0  0  0  0  0  0  0  0
    4.6403    9.3669   14.4644 N   0  0  0  0  0  0  0  0  0  0  0  0
    5.4677    9.1323   15.4874 C   0  0  0  0  0  0  0  0  0  0  0  0
    6.4735    8.3440   15.0448 N   0  0  0  0  0  0  0  0  0  0  0  0
    6.2751    8.0844   13.7391 C   0  0  0  0  0  0  0  0  0  0  0  0
    7.5028    5.9759   13.3589 C   0  0  0  0  0  0  0  0  0  0  0  0
    8.9963    5.9465   13.5270 C   0  0  0  0  0  0  0  0  0  0  0  0
    6.5383    6.1683   11.0415 H   0  0  0  0  0  0  0  0  0  0  0  0
    7.2634    8.0028   15.6220 H   0  0  0  0  0  0  0  0  0  0  0  0
   11.3147    5.1274   10.5063 C   0  0  0  0  0  0  0  0  0  0  0  0
   12.6436    2.8063    9.9875 C   0  0  0  0  0  0  0  0  0  0  0  0
   13.8717    2.5788   10.1427 O   0  0  0  0  0  0  0  0  0  0  0  0
   11.9823    3.9602   10.2453 N   0  0  0  0  0  0  0  0  0  0  0  0
   13.1583    4.5829   10.5977 H   0  0  0  0  0  0  0  0  0  0  0  0
    9.5119   -1.8182    7.8417 Cl  0  0  0  0  0  0  0  0  0  0  0  0
   10.4239   -0.4578    8.4805 C   0  0  0  0  0  0  0  0  0  0  0  0
   11.7410   -0.3344    8.1362 C   0  0  0  0  0  0  0  0  0  0  0  0
   12.4681    0.7494    8.6392 C   0  0  0  0  0  0  0  0  0  0  0  0
   11.8506    1.6497    9.4562 C   0  0  0  0  0  0  0  0  0  0  0  0
   10.5468    1.5319    9.7998 C   0  0  0  0  0  0  0  0  0  0  0  0
    9.8060    0.4438    9.2971 C   0  0  0  0  0  0  0  0  0  0  0  0
 24 25  1  0  0  0
 25 26  2  0  0  0
 25 30  1  0  0  0
 26 27  1  0  0  0
 27 28  2  0  0  0
 28 29  1  0  0  0
 28 20  1  0  0  0
 29 30  2  0  0  0
 20 21  2  0  0  0
 20 22  1  0  0  0
 22 19  1  0  0  0
 19  1  1  0  0  0
  1  2  2  0  0  0
  1  3  1  0  0  0
  3  4  1  0  0  0
  3 16  1  0  0  0
  4  5  1  0  0  0
  5  6  1  0  0  0
  6  7  1  0  0  0
  6 14  1  0  0  0
  6 15  1  0  0  0
  7  8  1  0  0  0
  8  9  1  0  0  0
  9 10  1  0  0  0
 10 11  1  0  0  0
 10 14  2  0  0  0
 11 12  2  0  0  0
 12 13  1  0  0  0
 13 14  1  0  0  0
 15 16  1  0  0  0
 22 23  1  0  0  0
  7 17  1  0  0  0
 13 18  1  0  0  0
M  END
> <minimizedAffinity>
-9.54630

$$$$
1518


 31 34  0  0  0  0  0  0  0  0999 V2000
   10.8879    5.1300   11.8557 C   0  0  0  0  0  0  0  0  0  0  0  0
   11.2740    4.2049   12.6112 O   0  0  0  0  0  0  0  0  0  0  0  0
    9.7661    5.9175   12.2055 N   0  0  0  0  0  0  0  0  0  0  0  0
    9.2708    6.9976   11.3763 C   0  0  0  0  0  0  0  0  0  0  0  0
    8.6969    8.0625   12.2990 C   0  0  0  0  0  0  0  0  0  0  0  0
    7.4965    7.5092   13.0664 C   0  0  0  0  0  0  0  0  0  0  0  0
    7.5139    8.1259   14.3611 N   0  0  0  0  0  0  0  0  0  0  0  0
    6.2179    8.0771   15.0036 C   0  0  0  0  0  0  0  0  0  0  0  0
    5.2804    9.0402   14.2787 C   0  0  0  0  0  0  0  0  0  0  0  0
    5.1980    8.5591   12.8694 C   0  0  0  0  0  0  0  0  0  0  0  0
    4.2218    8.6856   11.9214 N   0  0  0  0  0  0  0  0  0  0  0  0
    4.6473    8.0659   10.8064 C   0  0  0  0  0  0  0  0  0  0  0  0
    5.8689    7.5606   11.0543 N   0  0  0  0  0  0  0  0  0  0  0  0
    6.2485    7.8487   12.3343 C   0  0  0  0  0  0  0  0  0  0  0  0
    7.6113    6.0086   13.2304 C   0  0  0  0  0  0  0  0  0  0  0  0
    9.0550    5.6606   13.4426 C   0  0  0  0  0  0  0  0  0  0  0  0
    8.2366    7.7067   14.9786 H   0  0  0  0  0  0  0  0  0  0  0  0
    3.3295    9.1931   12.1148 H   0  0  0  0  0  0  0  0  0  0  0  0
   11.6359    5.3661   10.6006 C   0  0  0  0  0  0  0  0  0  0  0  0
   12.5344    4.2264   10.2379 C   0  0  0  0  0  0  0  0  0  0  0  0
   12.0677    1.8079    9.7467 C   0  0  0  0  0  0  0  0  0  0  0  0
   13.0814    1.4463   10.3965 O   0  0  0  0  0  0  0  0  0  0  0  0
   11.7530    3.1627    9.6377 N   0  0  0  0  0  0  0  0  0  0  0  0
   10.9101    3.4796    9.1015 H   0  0  0  0  0  0  0  0  0  0  0  0
    8.6588   -2.4625    7.2531 Cl  0  0  0  0  0  0  0  0  0  0  0  0
    9.6218   -1.2053    8.0037 C   0  0  0  0  0  0  0  0  0  0  0  0
   10.9463   -1.0614    7.6154 C   0  0  0  0  0  0  0  0  0  0  0  0
   11.7641   -0.0874    8.1680 C   0  0  0  0  0  0  0  0  0  0  0  0
   11.2582    0.7618    9.1271 C   0  0  0  0  0  0  0  0  0  0  0  0
    9.9246    0.5945    9.4980 C   0  0  0  0  0  0  0  0  0  0  0  0
    9.1039   -0.3601    8.9625 C   0  0  0  0  0  0  0  0  0  0  0  0
 25 26  1  0  0  0
 26 27  2  0  0  0
 26 31  1  0  0  0
 27 28  1  0  0  0
 28 29  2  0  0  0
 29 30  1  0  0  0
 29 21  1  0  0  0
 30 31  2  0  0  0
 21 22  2  0  0  0
 21 23  1  0  0  0
 23 20  1  0  0  0
 20 19  1  0  0  0
 19  1  1  0  0  0
  1  2  2  0  0  0
  1  3  1  0  0  0
  3  4  1  0  0  0
  3 16  1  0  0  0
  4  5  1  0  0  0
  5  6  1  0  0  0
  6  7  1  0  0  0
  6 14  1  0  0  0
  6 15  1  0  0  0
  7  8  1  0  0  0
  8  9  1  0  0  0
  9 10  1  0  0  0
 10 11  1  0  0  0
 10 14  2  0  0  0
 11 12  1  0  0  0
 12 13  2  0  0  0
 13 14  1  0  0  0
 15 16  1  0  0  0
 23 24  1  0  0  0
  7 17  1  0  0  0
 11 18  1  0  0  0
M  END
> <minimizedAffinity>
-9.93721

$$$$
1521


 24 27  0  0  0  0  0  0  0  0999 V2000
   12.5155   -0.9101    7.3095 Cl  0  0  0  0  0  0  0  0  0  0  0  0
   11.5939   -0.0153    8.4999 C   0  0  0  0  0  0  0  0  0  0  0  0
   12.2428    0.8542    9.3425 C   0  0  0  0  0  0  0  0  0  0  0  0
   13.5220    1.2313    9.5061 N   0  0  0  0  0  0  0  0  0  0  0  0
   13.6478    2.1368   10.4946 C   0  0  0  0  0  0  0  0  0  0  0  0
   12.3715    2.3355   10.9770 C   0  0  0  0  0  0  0  0  0  0  0  0
   11.4870    1.5470   10.2734 C   0  0  0  0  0  0  0  0  0  0  0  0
   10.1228    1.3446   10.3234 C   0  0  0  0  0  0  0  0  0  0  0  0
    9.4508    0.4823    9.4930 C   0  0  0  0  0  0  0  0  0  0  0  0
   10.2139   -0.2121    8.5600 C   0  0  0  0  0  0  0  0  0  0  0  0
   12.2493    3.3101   12.0894 C   0  0  0  0  0  0  0  0  0  0  0  0
   12.9411    4.4904   11.6231 N   0  0  0  0  0  0  0  0  0  0  0  0
   14.3358    4.3397   11.4718 C   0  0  0  0  0  0  0  0  0  0  0  0
   14.7199    2.9128   11.1526 C   0  0  0  0  0  0  0  0  0  0  0  0
   14.3570    0.8885    8.9527 H   0  0  0  0  0  0  0  0  0  0  0  0
   12.4382    5.7030   12.1119 C   0  0  0  0  0  0  0  0  0  0  0  0
   11.3571    6.2835   11.2519 C   0  0  0  0  0  0  0  0  0  0  0  0
   11.3073    5.6990    9.8828 C   0  0  0  0  0  0  0  0  0  0  0  0
   10.0152    5.1667    9.6169 N   0  0  0  0  0  0  0  0  0  0  0  0
    9.1990    5.3114   10.7782 C   0  0  0  0  0  0  0  0  0  0  0  0
   10.0242    5.9303   11.8552 C   0  0  0  0  0  0  0  0  0  0  0  0
   11.4301    7.6819   11.2269 O   0  0  0  0  0  0  0  0  0  0  0  0
    9.5635    5.5573    8.7563 H   0  0  0  0  0  0  0  0  0  0  0  0
   10.9934    7.9612   10.3792 H   0  0  0  0  0  0  0  0  0  0  0  0
  1  2  1  0  0  0
  2  3  2  0  0  0
  2 10  1  0  0  0
  3  4  1  0  0  0
  3  7  1  0  0  0
  4  5  1  0  0  0
  5  6  2  0  0  0
  5 14  1  0  0  0
  6  7  1  0  0  0
  6 11  1  0  0  0
  7  8  2  0  0  0
  8  9  1  0  0  0
  9 10  2  0  0  0
 11 12  1  0  0  0
 12 13  1  0  0  0
 12 16  1  0  0  0
 13 14  1  0  0  0
 16 17  1  0  0  0
 17 18  1  0  0  0
 17 21  1  0  0  0
 17 22  1  0  0  0
 18 19  1  0  0  0
 19 20  1  0  0  0
 20 21  1  0  0  0
  4 15  1  0  0  0
 19 23  1  0  0  0
 22 24  1  0  0  0
M  END
> <minimizedAffinity>
-8.21356

$$$$
1523


 25 28  0  0  0  0  0  0  0  0999 V2000
    6.8714    6.7777   11.6188 C   0  0  0  0  0  0  0  0  0  0  0  0
    6.0776    5.9867   10.9985 O   0  0  0  0  0  0  0  0  0  0  0  0
    6.5148    8.1080   11.8427 N   0  0  0  0  0  0  0  0  0  0  0  0
    5.2495    8.5959   11.3677 C   0  0  0  0  0  0  0  0  0  0  0  0
    4.3923    8.9306   12.5569 C   0  0  0  0  0  0  0  0  0  0  0  0
    5.1718    9.6564   13.5187 N   0  0  0  0  0  0  0  0  0  0  0  0
    6.4379   10.2224   13.0136 C   0  0  0  0  0  0  0  0  0  0  0  0
    7.3281    9.0851   12.5323 C   0  0  0  0  0  0  0  0  0  0  0  0
    4.8783    9.8811   14.8637 C   0  0  0  0  0  0  0  0  0  0  0  0
    5.7462   10.6075   15.4993 O   0  0  0  0  0  0  0  0  0  0  0  0
   10.0516    5.0170   12.0596 N   0  0  0  0  0  0  0  0  0  0  0  0
    9.8558    5.5863   13.2537 N   0  0  0  0  0  0  0  0  0  0  0  0
    8.7329    6.2691   13.2590 N   0  0  0  0  0  0  0  0  0  0  0  0
    8.1486    6.1686   12.0566 C   0  0  0  0  0  0  0  0  0  0  0  0
    8.9932    5.3770   11.3145 C   0  0  0  0  0  0  0  0  0  0  0  0
   11.8391    0.7354    9.4985 Br  0  0  0  0  0  0  0  0  0  0  0  0
   12.0759    2.2967   10.5663 C   0  0  0  0  0  0  0  0  0  0  0  0
   10.9713    3.0848   10.9209 C   0  0  0  0  0  0  0  0  0  0  0  0
   11.1552    4.2074   11.6914 C   0  0  0  0  0  0  0  0  0  0  0  0
   12.4227    4.5334   12.0971 C   0  0  0  0  0  0  0  0  0  0  0  0
   13.5320    3.7527   11.7485 C   0  0  0  0  0  0  0  0  0  0  0  0
   13.3381    2.6318   10.9782 C   0  0  0  0  0  0  0  0  0  0  0  0
    3.7524    9.4327   15.6742 C   0  0  0  0  0  0  0  0  0  0  0  0
    3.4914    8.0371   16.0271 C   0  0  0  0  0  0  0  0  0  0  0  0
    3.8471    9.0561   17.1059 C   0  0  0  0  0  0  0  0  0  0  0  0
 16 17  1  0  0  0
 17 18  2  0  0  0
 17 22  1  0  0  0
 18 19  1  0  0  0
 19 20  2  0  0  0
 19 11  1  0  0  0
 20 21  1  0  0  0
 21 22  2  0  0  0
 11 12  1  0  0  0
 11 15  1  0  0  0
 12 13  2  0  0  0
 13 14  1  0  0  0
 14 15  2  0  0  0
 14  1  1  0  0  0
  1  2  2  0  0  0
  1  3  1  0  0  0
  3  4  1  0  0  0
  3  8  1  0  0  0
  4  5  1  0  0  0
  5  6  1  0  0  0
  6  7  1  0  0  0
  6  9  1  0  0  0
  7  8  1  0  0  0
  9 10  2  0  0  0
  9 23  1  0  0  0
 23 24  1  0  0  0
 23 25  1  0  0  0
 24 25  1  0  0  0
M  END
> <minimizedAffinity>
-8.66784

$$$$
1525


 26 29  0  0  0  0  0  0  0  0999 V2000
   11.8359    4.5316   11.0545 N   0  0  0  0  0  0  0  0  0  0  0  0
   10.9799    4.3171   12.1699 C   0  0  0  0  0  0  0  0  0  0  0  0
   11.0907    3.3390   12.9480 O   0  0  0  0  0  0  0  0  0  0  0  0
   10.0233    5.4173   12.1861 C   0  0  0  0  0  0  0  0  0  0  0  0
    9.8965    5.7829   10.7221 C   0  0  0  0  0  0  0  0  0  0  0  0
   11.1711    5.3717   10.1031 C   0  0  0  0  0  0  0  0  0  0  0  0
   11.6084    5.6849    8.9644 O   0  0  0  0  0  0  0  0  0  0  0  0
   15.2157    1.0439    8.8064 Br  0  0  0  0  0  0  0  0  0  0  0  0
   14.7669    2.4628    9.9926 C   0  0  0  0  0  0  0  0  0  0  0  0
   13.4685    2.9583   10.0736 C   0  0  0  0  0  0  0  0  0  0  0  0
   13.1507    3.9865   10.9359 C   0  0  0  0  0  0  0  0  0  0  0  0
   14.1932    4.4895   11.7062 C   0  0  0  0  0  0  0  0  0  0  0  0
   15.4750    4.0156   11.6414 C   0  0  0  0  0  0  0  0  0  0  0  0
   15.7705    2.9911   10.7753 C   0  0  0  0  0  0  0  0  0  0  0  0
   10.3410    6.5186   13.0032 N   0  0  0  0  0  0  0  0  0  0  0  0
    9.9702    6.4667   14.3593 C   0  0  0  0  0  0  0  0  0  0  0  0
    8.6421    7.2164   14.5330 C   0  0  0  0  0  0  0  0  0  0  0  0
    8.4020    8.0645   13.3764 N   0  0  0  0  0  0  0  0  0  0  0  0
    9.4807    8.7364   12.6795 C   0  0  0  0  0  0  0  0  0  0  0  0
   10.6169    7.7683   12.4484 C   0  0  0  0  0  0  0  0  0  0  0  0
    7.0759    8.2542   12.8637 C   0  0  0  0  0  0  0  0  0  0  0  0
    6.7315    7.7978   11.6413 N   0  0  0  0  0  0  0  0  0  0  0  0
    5.4792    7.9644   11.1725 C   0  0  0  0  0  0  0  0  0  0  0  0
    4.5018    8.6065   11.9239 C   0  0  0  0  0  0  0  0  0  0  0  0
    4.8618    9.0709   13.1766 C   0  0  0  0  0  0  0  0  0  0  0  0
    6.1268    8.8738   13.5881 N   0  0  0  0  0  0  0  0  0  0  0  0
  8  9  1  0  0  0
  9 10  2  0  0  0
  9 14  1  0  0  0
 10 11  1  0  0  0
 11 12  2  0  0  0
 11  1  1  0  0  0
 12 13  1  0  0  0
 13 14  2  0  0  0
  1  2  1  0  0  0
  1  6  1  0  0  0
  2  3  2  0  0  0
  2  4  1  0  0  0
  4  5  1  0  0  0
  4 15  1  0  0  0
  5  6  1  0  0  0
  6  7  2  0  0  0
 15 16  1  0  0  0
 15 20  1  0  0  0
 16 17  1  0  0  0
 17 18  1  0  0  0
 18 19  1  0  0  0
 18 21  1  0  0  0
 19 20  1  0  0  0
 21 22  2  0  0  0
 21 26  1  0  0  0
 22 23  1  0  0  0
 23 24  2  0  0  0
 24 25  1  0  0  0
 25 26  2  0  0  0
M  END
> <minimizedAffinity>
-8.37740

$$$$
1531


 27 30  0  0  0  0  0  0  0  0999 V2000
   11.6203    4.5820   10.6311 N   0  0  0  0  0  0  0  0  0  0  0  0
   12.8456    4.0048   10.8377 C   0  0  0  0  0  0  0  0  0  0  0  0
   12.7545    2.7556   10.3753 N   0  0  0  0  0  0  0  0  0  0  0  0
   11.5358    2.4852    9.8787 C   0  0  0  0  0  0  0  0  0  0  0  0
   10.8152    3.6545   10.0445 C   0  0  0  0  0  0  0  0  0  0  0  0
   14.0220    2.0552   10.5547 C   0  0  0  0  0  0  0  0  0  0  0  0
   14.9016    3.0151   11.3011 C   0  0  0  0  0  0  0  0  0  0  0  0
   14.1873    4.3163   11.3872 C   0  0  0  0  0  0  0  0  0  0  0  0
   11.0287    1.2493    9.2842 C   0  0  0  0  0  0  0  0  0  0  0  0
   11.7277    0.4596    8.4075 C   0  0  0  0  0  0  0  0  0  0  0  0
   11.1733   -0.7152    7.8796 C   0  0  0  0  0  0  0  0  0  0  0  0
    9.9042   -1.1341    8.2120 C   0  0  0  0  0  0  0  0  0  0  0  0
    9.1934   -0.3470    9.0916 C   0  0  0  0  0  0  0  0  0  0  0  0
    9.7415    0.8078    9.6100 C   0  0  0  0  0  0  0  0  0  0  0  0
    9.3429   -2.2943    7.6970 O   0  0  0  0  0  0  0  0  0  0  0  0
    8.2123   -2.2291    6.8464 C   0  0  0  0  0  0  0  0  0  0  0  0
   11.2647    5.9275   10.9298 C   0  0  0  0  0  0  0  0  0  0  0  0
   10.3384    6.2472   11.9905 C   0  0  0  0  0  0  0  0  0  0  0  0
   10.8073    6.0296   13.2039 O   0  0  0  0  0  0  0  0  0  0  0  0
    7.3764   10.4587   12.1045 Cl  0  0  0  0  0  0  0  0  0  0  0  0
    7.5463    8.7258   12.0199 C   0  0  0  0  0  0  0  0  0  0  0  0
    6.4092    7.9549   11.9395 C   0  0  0  0  0  0  0  0  0  0  0  0
    6.5588    6.5914   11.8741 C   0  0  0  0  0  0  0  0  0  0  0  0
    7.8459    6.0339   11.8896 C   0  0  0  0  0  0  0  0  0  0  0  0
    8.9951    6.7602   11.9679 C   0  0  0  0  0  0  0  0  0  0  0  0
    8.7782    8.1592   12.0331 C   0  0  0  0  0  0  0  0  0  0  0  0
    4.8073    8.6551   11.9200 Cl  0  0  0  0  0  0  0  0  0  0  0  0
 20 21  1  0  0  0
 21 22  2  0  0  0
 21 26  1  0  0  0
 22 23  1  0  0  0
 22 27  1  0  0  0
 23 24  2  0  0  0
 24 25  1  0  0  0
 25 26  2  0  0  0
 25 18  1  0  0  0
 18 19  2  0  0  0
 18 17  1  0  0  0
 17  1  1  0  0  0
  1  2  1  0  0  0
  1  5  1  0  0  0
  2  3  2  0  0  0
  2  8  1  0  0  0
  3  4  1  0  0  0
  3  6  1  0  0  0
  4  5  2  0  0  0
  4  9  1  0  0  0
  9 10  2  0  0  0
  9 14  1  0  0  0
 10 11  1  0  0  0
 11 12  2  0  0  0
 12 13  1  0  0  0
 12 15  1  0  0  0
 13 14  2  0  0  0
 15 16  1  0  0  0
  6  7  1  0  0  0
  7  8  1  0  0  0
M  END
> <minimizedAffinity>
-9.28874

$$$$
1533


 28 31  0  0  0  0  0  0  0  0999 V2000
   11.7468    3.8340   10.9814 C   0  0  0  0  0  0  0  0  0  0  0  0
   12.8258    4.4967   11.4725 N   0  0  0  0  0  0  0  0  0  0  0  0
   12.4129    5.5569   12.1751 C   0  0  0  0  0  0  0  0  0  0  0  0
   11.0461    5.6181   12.1671 N   0  0  0  0  0  0  0  0  0  0  0  0
   10.6558    4.5614   11.4351 C   0  0  0  0  0  0  0  0  0  0  0  0
   13.5627    6.3139   12.7187 C   0  0  0  0  0  0  0  0  0  0  0  0
   14.6453    5.2706   12.7060 C   0  0  0  0  0  0  0  0  0  0  0  0
   14.2878    4.4346   11.4989 C   0  0  0  0  0  0  0  0  0  0  0  0
    9.0662   -0.2283    9.0816 Cl  0  0  0  0  0  0  0  0  0  0  0  0
   10.5219    0.7293    9.2490 C   0  0  0  0  0  0  0  0  0  0  0  0
   11.6475    0.3221    8.5950 C   0  0  0  0  0  0  0  0  0  0  0  0
   12.8056    1.0557    8.7089 C   0  0  0  0  0  0  0  0  0  0  0  0
   12.8039    2.2094    9.4971 C   0  0  0  0  0  0  0  0  0  0  0  0
   11.6714    2.6260   10.1598 C   0  0  0  0  0  0  0  0  0  0  0  0
   10.5361    1.8806   10.0302 C   0  0  0  0  0  0  0  0  0  0  0  0
   11.6713   -1.1319    7.5954 Cl  0  0  0  0  0  0  0  0  0  0  0  0
   10.2267    6.6298   12.7682 C   0  0  0  0  0  0  0  0  0  0  0  0
    9.3798    7.4990   11.9979 C   0  0  0  0  0  0  0  0  0  0  0  0
    9.6415    7.4618   10.6948 O   0  0  0  0  0  0  0  0  0  0  0  0
    8.3072    8.4038   12.3253 C   0  0  0  0  0  0  0  0  0  0  0  0
    6.9976    8.1326   11.8682 C   0  0  0  0  0  0  0  0  0  0  0  0
    5.9149    8.9311   12.1292 C   0  0  0  0  0  0  0  0  0  0  0  0
    6.1484   10.0610   12.8864 C   0  0  0  0  0  0  0  0  0  0  0  0
    7.4153   10.3475   13.3437 C   0  0  0  0  0  0  0  0  0  0  0  0
    8.5147    9.5301   13.0743 C   0  0  0  0  0  0  0  0  0  0  0  0
    4.6112    8.6413   11.6612 N   0  0  0  0  0  0  0  0  0  0  0  0
    3.6541    8.7408   12.4363 O   0  0  0  0  0  0  0  0  0  0  0  0
    4.3776    8.2536   10.3739 O   0  0  0  0  0  0  0  0  0  0  0  0
  9 10  1  0  0  0
 10 11  2  0  0  0
 10 15  1  0  0  0
 11 12  1  0  0  0
 11 16  1  0  0  0
 12 13  2  0  0  0
 13 14  1  0  0  0
 14 15  2  0  0  0
 14  1  1  0  0  0
  1  2  1  0  0  0
  1  5  2  0  0  0
  2  3  2  0  0  0
  2  8  1  0  0  0
  3  4  1  0  0  0
  3  6  1  0  0  0
  4  5  1  0  0  0
  4 17  1  0  0  0
 17 18  1  0  0  0
 18 19  2  0  0  0
 18 20  1  0  0  0
 20 21  2  0  0  0
 20 25  1  0  0  0
 21 22  1  0  0  0
 22 23  2  0  0  0
 22 26  1  0  0  0
 23 24  1  0  0  0
 24 25  2  0  0  0
 26 27  2  0  0  0
 26 28  1  0  0  0
  6  7  1  0  0  0
  7  8  1  0  0  0
M  CHG 1  28  -1
M  END
> <minimizedAffinity>
-9.85568

$$$$
1535


 28 31  0  0  0  0  0  0  0  0999 V2000
   10.3967    6.0425   11.8935 C   0  0  0  0  0  0  0  0  0  0  0  0
   11.6346    6.5625   11.9048 N   0  0  0  0  0  0  0  0  0  0  0  0
   12.5426    5.5642   11.8983 C   0  0  0  0  0  0  0  0  0  0  0  0
   11.8754    4.3966   11.8810 N   0  0  0  0  0  0  0  0  0  0  0  0
   10.5355    4.6460   11.8769 C   0  0  0  0  0  0  0  0  0  0  0  0
   13.9135    6.1251   11.9226 C   0  0  0  0  0  0  0  0  0  0  0  0
   13.6649    7.4311   11.2122 C   0  0  0  0  0  0  0  0  0  0  0  0
   12.3557    7.8409   11.9084 C   0  0  0  0  0  0  0  0  0  0  0  0
    7.5171   10.3624   12.1000 Cl  0  0  0  0  0  0  0  0  0  0  0  0
    7.6364    8.6343   11.9934 C   0  0  0  0  0  0  0  0  0  0  0  0
    6.5110    7.8579   11.9274 C   0  0  0  0  0  0  0  0  0  0  0  0
    6.6673    6.4949   11.8455 C   0  0  0  0  0  0  0  0  0  0  0  0
    7.9172    5.9356   11.8294 C   0  0  0  0  0  0  0  0  0  0  0  0
    9.0877    6.6977   11.8941 C   0  0  0  0  0  0  0  0  0  0  0  0
    8.9133    8.0394   11.9763 C   0  0  0  0  0  0  0  0  0  0  0  0
    4.9091    8.5622   11.9470 Cl  0  0  0  0  0  0  0  0  0  0  0  0
   12.4556    3.1045   11.9078 C   0  0  0  0  0  0  0  0  0  0  0  0
   13.1123    2.5084   10.7802 C   0  0  0  0  0  0  0  0  0  0  0  0
   14.3642    2.9070   10.6755 O   0  0  0  0  0  0  0  0  0  0  0  0
   12.6728    1.5810    9.7646 C   0  0  0  0  0  0  0  0  0  0  0  0
   11.4449    0.9779    9.7280 C   0  0  0  0  0  0  0  0  0  0  0  0
   11.0879    0.0891    8.7096 C   0  0  0  0  0  0  0  0  0  0  0  0
   11.9680   -0.2007    7.7172 C   0  0  0  0  0  0  0  0  0  0  0  0
   13.2116    0.3925    7.7292 C   0  0  0  0  0  0  0  0  0  0  0  0
   13.5716    1.2642    8.7208 C   0  0  0  0  0  0  0  0  0  0  0  0
    9.7895   -0.5069    8.7293 N   0  0  0  0  0  0  0  0  0  0  0  0
    8.8767    0.0378    9.3742 O   0  0  0  0  0  0  0  0  0  0  0  0
    9.5169   -1.6579    8.0622 O   0  0  0  0  0  0  0  0  0  0  0  0
  9 10  1  0  0  0
 10 11  2  0  0  0
 10 15  1  0  0  0
 11 12  1  0  0  0
 11 16  1  0  0  0
 12 13  2  0  0  0
 13 14  1  0  0  0
 14 15  2  0  0  0
 14  1  1  0  0  0
  1  2  1  0  0  0
  1  5  2  0  0  0
  2  3  1  0  0  0
  2  8  1  0  0  0
  3  4  2  0  0  0
  3  6  1  0  0  0
  4  5  1  0  0  0
  4 17  1  0  0  0
 17 18  1  0  0  0
 18 19  2  0  0  0
 18 20  1  0  0  0
 20 21  2  0  0  0
 20 25  1  0  0  0
 21 22  1  0  0  0
 22 23  2  0  0  0
 22 26  1  0  0  0
 23 24  1  0  0  0
 24 25  2  0  0  0
 26 27  2  0  0  0
 26 28  1  0  0  0
  6  7  1  0  0  0
  7  8  1  0  0  0
M  CHG 1  28  -1
M  END
> <minimizedAffinity>
-9.53189

$$$$
1536


 31 34  0  0  0  0  0  0  0  0999 V2000
    9.7652    5.9642   11.2611 S   0  0  0  0  0  0  0  0  0  0  0  0
    8.6738    4.9280   10.9735 O   0  0  0  0  0  0  0  0  0  0  0  0
   10.2185    6.3878    9.8619 O   0  0  0  0  0  0  0  0  0  0  0  0
    8.9557    7.2851   12.0522 C   0  0  0  0  0  0  0  0  0  0  0  0
    7.5589    7.2418   12.2014 C   0  0  0  0  0  0  0  0  0  0  0  0
    6.8457    8.2659   12.7680 C   0  0  0  0  0  0  0  0  0  0  0  0
    7.4970    9.3758   13.2105 C   0  0  0  0  0  0  0  0  0  0  0  0
    8.8600    9.4742   13.0926 C   0  0  0  0  0  0  0  0  0  0  0  0
    9.5633    8.4165   12.5130 C   0  0  0  0  0  0  0  0  0  0  0  0
   11.3120    8.5618   12.4586 Cl  0  0  0  0  0  0  0  0  0  0  0  0
    6.7314   10.4423   13.7976 N   0  0  0  0  0  0  0  0  0  0  0  0
    5.3238   10.3158   13.9021 C   0  0  0  0  0  0  0  0  0  0  0  0
    4.6622   10.9976   14.7122 O   0  0  0  0  0  0  0  0  0  0  0  0
    4.6554    9.3356   13.0066 C   0  0  0  0  0  0  0  0  0  0  0  0
    5.4533    8.1867   12.8995 O   0  0  0  0  0  0  0  0  0  0  0  0
    7.2205   11.2933   14.1389 H   0  0  0  0  0  0  0  0  0  0  0  0
   11.0080    5.2066   12.0445 N   0  0  0  0  0  0  0  0  0  0  0  0
   12.3370    5.2505   11.6391 C   0  0  0  0  0  0  0  0  0  0  0  0
   12.8020    4.1511   10.7391 C   0  0  0  0  0  0  0  0  0  0  0  0
   11.8840    2.9434   10.9140 C   0  0  0  0  0  0  0  0  0  0  0  0
   11.6574    2.8813   12.4333 C   0  0  0  0  0  0  0  0  0  0  0  0
   10.6381    3.9712   12.7248 C   0  0  0  0  0  0  0  0  0  0  0  0
   12.4781    1.7202   10.4029 C   0  0  0  0  0  0  0  0  0  0  0  0
   13.6602    1.4241   10.7191 O   0  0  0  0  0  0  0  0  0  0  0  0
   11.7680    0.8540    9.5653 N   0  0  0  0  0  0  0  0  0  0  0  0
   12.3241   -0.4078    9.0637 C   0  0  0  0  0  0  0  0  0  0  0  0
   11.3368   -0.9320    8.0424 C   0  0  0  0  0  0  0  0  0  0  0  0
   10.0597   -1.2088    8.6713 N   0  0  0  0  0  0  0  0  0  0  0  0
    9.4985   -0.0142    9.2768 C   0  0  0  0  0  0  0  0  0  0  0  0
   10.4385    1.1689    9.1233 C   0  0  0  0  0  0  0  0  0  0  0  0
    9.1303   -1.7896    7.7266 C   0  0  0  0  0  0  0  0  0  0  0  0
  1  2  2  0  0  0
  1  3  2  0  0  0
  1 17  1  0  0  0
  1  4  1  0  0  0
 17 18  1  0  0  0
 17 22  1  0  0  0
 18 19  1  0  0  0
 19 20  1  0  0  0
 20 21  1  0  0  0
 20 23  1  0  0  0
 21 22  1  0  0  0
 23 24  2  0  0  0
 23 25  1  0  0  0
 25 26  1  0  0  0
 25 30  1  0  0  0
 26 27  1  0  0  0
 27 28  1  0  0  0
 28 29  1  0  0  0
 28 31  1  0  0  0
 29 30  1  0  0  0
  4  5  2  0  0  0
  4  9  1  0  0  0
  5  6  1  0  0  0
  6  7  2  0  0  0
  6 15  1  0  0  0
  7  8  1  0  0  0
  7 11  1  0  0  0
  8  9  2  0  0  0
  9 10  1  0  0  0
 11 12  1  0  0  0
 12 13  2  0  0  0
 12 14  1  0  0  0
 14 15  1  0  0  0
 11 16  1  0  0  0
M  END
> <minimizedAffinity>
-10.08597

$$$$
1539


 34 37  0  0  0  0  0  0  0  0999 V2000
    9.0906    7.1976   11.4734 C   0  0  0  0  0  0  0  0  0  0  0  0
    8.0304    6.7437   12.3826 N   0  0  0  0  0  0  0  0  0  0  0  0
    8.6758    5.8559   13.2843 C   0  0  0  0  0  0  0  0  0  0  0  0
    8.3381    5.6062   14.4530 O   0  0  0  0  0  0  0  0  0  0  0  0
    9.8137    5.2966   12.5616 C   0  0  0  0  0  0  0  0  0  0  0  0
   10.6933    4.4637   12.9319 O   0  0  0  0  0  0  0  0  0  0  0  0
    9.7840    5.9011   11.2216 C   0  0  0  0  0  0  0  0  0  0  0  0
   10.2883    5.3901   10.1155 C   0  0  0  0  0  0  0  0  0  0  0  0
   10.1988    6.1375    8.9379 O   0  0  0  0  0  0  0  0  0  0  0  0
   12.5618   10.9447   14.7592 Cl  0  0  0  0  0  0  0  0  0  0  0  0
   11.5568    9.8562   13.8044 C   0  0  0  0  0  0  0  0  0  0  0  0
   10.1765    9.9054   13.8778 C   0  0  0  0  0  0  0  0  0  0  0  0
    9.4045    9.0467   13.1248 C   0  0  0  0  0  0  0  0  0  0  0  0
    9.9462    8.1090   12.2719 C   0  0  0  0  0  0  0  0  0  0  0  0
   11.3449    8.0740   12.2106 C   0  0  0  0  0  0  0  0  0  0  0  0
   12.1180    8.9297   12.9608 C   0  0  0  0  0  0  0  0  0  0  0  0
   10.9283    4.0839   10.0655 C   0  0  0  0  0  0  0  0  0  0  0  0
   12.3050    3.9340   10.0955 C   0  0  0  0  0  0  0  0  0  0  0  0
   12.9079    2.6956   10.0211 C   0  0  0  0  0  0  0  0  0  0  0  0
   12.1455    1.5412    9.9119 C   0  0  0  0  0  0  0  0  0  0  0  0
   10.7765    1.6762    9.8806 C   0  0  0  0  0  0  0  0  0  0  0  0
   10.1767    2.9369    9.9566 C   0  0  0  0  0  0  0  0  0  0  0  0
   14.3829    2.5843   10.0565 C   0  0  0  0  0  0  0  0  0  0  0  0
   12.7386    0.2837    9.8367 O   0  0  0  0  0  0  0  0  0  0  0  0
   12.0812   -0.7382    9.1408 C   0  0  0  0  0  0  0  0  0  0  0  0
    6.6199    7.1326   12.3574 C   0  0  0  0  0  0  0  0  0  0  0  0
    6.4458    8.1879   13.4248 C   0  0  0  0  0  0  0  0  0  0  0  0
    5.7267    9.3396   12.9508 N   0  0  0  0  0  0  0  0  0  0  0  0
    5.7645   10.3965   13.9082 C   0  0  0  0  0  0  0  0  0  0  0  0
    4.5843   10.5028   14.8155 C   0  0  0  0  0  0  0  0  0  0  0  0
    3.3896   10.1201   14.2680 O   0  0  0  0  0  0  0  0  0  0  0  0
    3.4277    8.8551   13.6962 C   0  0  0  0  0  0  0  0  0  0  0  0
    4.4096    8.9245   12.5559 C   0  0  0  0  0  0  0  0  0  0  0  0
    6.2555    9.6701   12.0942 H   0  0  0  0  0  0  0  0  0  0  0  0
 10 11  1  0  0  0
 11 12  2  0  0  0
 11 16  1  0  0  0
 12 13  1  0  0  0
 13 14  2  0  0  0
 14 15  1  0  0  0
 14  1  1  0  0  0
 15 16  2  0  0  0
  1  2  1  0  0  0
  1  7  1  0  0  0
  2  3  1  0  0  0
  2 26  1  0  0  0
  3  4  2  0  0  0
  3  5  1  0  0  0
  5  6  2  0  0  0
  5  7  1  0  0  0
  7  8  2  0  0  0
  8  9  1  0  0  0
  8 17  1  0  0  0
 17 18  2  0  0  0
 17 22  1  0  0  0
 18 19  1  0  0  0
 19 20  2  0  0  0
 19 23  1  0  0  0
 20 21  1  0  0  0
 20 24  1  0  0  0
 21 22  2  0  0  0
 24 25  1  0  0  0
 26 27  1  0  0  0
 27 28  1  0  0  0
 28 29  1  0  0  0
 28 33  1  0  0  0
 29 30  1  0  0  0
 30 31  1  0  0  0
 31 32  1  0  0  0
 32 33  1  0  0  0
 28 34  1  0  0  0
M  CHG 1   9  -1
M  CHG 1  28   1
M  END
> <minimizedAffinity>
-8.95514

$$$$
1548


 24 27  0  0  0  0  0  0  0  0999 V2000
   11.8683    1.1896    9.0533 Cl  0  0  0  0  0  0  0  0  0  0  0  0
   11.5109    2.4088   10.2678 C   0  0  0  0  0  0  0  0  0  0  0  0
   10.9609    3.6293    9.9420 C   0  0  0  0  0  0  0  0  0  0  0  0
   10.6847    4.5749   10.8875 N   0  0  0  0  0  0  0  0  0  0  0  0
   10.9372    4.3581   12.1911 C   0  0  0  0  0  0  0  0  0  0  0  0
   10.6638    5.2962   13.1321 N   0  0  0  0  0  0  0  0  0  0  0  0
   10.1246    6.4901   12.8054 C   0  0  0  0  0  0  0  0  0  0  0  0
    9.8552    6.7434   11.4919 C   0  0  0  0  0  0  0  0  0  0  0  0
    9.2561    8.0516   11.0737 C   0  0  0  0  0  0  0  0  0  0  0  0
    8.4940    8.5100   12.2482 N   0  0  0  0  0  0  0  0  0  0  0  0
    9.3013    8.7393   13.4125 C   0  0  0  0  0  0  0  0  0  0  0  0
    9.8723    7.4303   13.9290 C   0  0  0  0  0  0  0  0  0  0  0  0
    7.1181    8.6652   12.1080 C   0  0  0  0  0  0  0  0  0  0  0  0
    6.5859    8.4109   10.9721 O   0  0  0  0  0  0  0  0  0  0  0  0
   10.1474    5.7621   10.5543 C   0  0  0  0  0  0  0  0  0  0  0  0
    9.9047    5.9845    9.3518 O   0  0  0  0  0  0  0  0  0  0  0  0
   11.4910    3.1324   12.5278 C   0  0  0  0  0  0  0  0  0  0  0  0
   11.7808    2.1589   11.5958 C   0  0  0  0  0  0  0  0  0  0  0  0
    6.1920    9.1027   13.1593 C   0  0  0  0  0  0  0  0  0  0  0  0
    5.6674    8.2556   14.0494 N   0  0  0  0  0  0  0  0  0  0  0  0
    4.8248    8.6627   15.0033 C   0  0  0  0  0  0  0  0  0  0  0  0
    4.4471    9.9840   15.1239 C   0  0  0  0  0  0  0  0  0  0  0  0
    4.9847   10.8219   14.2204 N   0  0  0  0  0  0  0  0  0  0  0  0
    5.8266   10.4410   13.2594 C   0  0  0  0  0  0  0  0  0  0  0  0
  1  2  1  0  0  0
  2  3  2  0  0  0
  2 18  1  0  0  0
  3  4  1  0  0  0
  4  5  1  0  0  0
  4 15  1  0  0  0
  5  6  2  0  0  0
  5 17  1  0  0  0
  6  7  1  0  0  0
  7  8  2  0  0  0
  7 12  1  0  0  0
  8  9  1  0  0  0
  8 15  1  0  0  0
  9 10  1  0  0  0
 10 11  1  0  0  0
 10 13  1  0  0  0
 11 12  1  0  0  0
 13 14  2  0  0  0
 13 19  1  0  0  0
 19 20  2  0  0  0
 19 24  1  0  0  0
 20 21  1  0  0  0
 21 22  2  0  0  0
 22 23  1  0  0  0
 23 24  2  0  0  0
 15 16  2  0  0  0
 17 18  2  0  0  0
M  END
> <minimizedAffinity>
-8.54163

$$$$
1553


 29 32  0  0  0  0  0  0  0  0999 V2000
   11.6073    6.8444   11.2145 C   0  0  0  0  0  0  0  0  0  0  0  0
   12.7708    7.5936   11.5055 N   0  0  0  0  0  0  0  0  0  0  0  0
   14.0310    6.9759   11.2122 C   0  0  0  0  0  0  0  0  0  0  0  0
   14.0906    5.6062   11.9094 C   0  0  0  0  0  0  0  0  0  0  0  0
   13.0263    4.8278   11.2476 C   0  0  0  0  0  0  0  0  0  0  0  0
   12.9706    3.5023   10.8476 C   0  0  0  0  0  0  0  0  0  0  0  0
   11.7328    3.3204   10.2721 C   0  0  0  0  0  0  0  0  0  0  0  0
   11.0471    4.4733   10.3091 N   0  0  0  0  0  0  0  0  0  0  0  0
   11.8453    5.4137   10.9137 C   0  0  0  0  0  0  0  0  0  0  0  0
   11.4271    2.0631    9.7834 C   0  0  0  0  0  0  0  0  0  0  0  0
   12.3603    1.0623    9.8932 C   0  0  0  0  0  0  0  0  0  0  0  0
   13.5970    1.2471   10.4687 C   0  0  0  0  0  0  0  0  0  0  0  0
   13.9184    2.5085   10.9651 C   0  0  0  0  0  0  0  0  0  0  0  0
   12.7265    8.4932   10.9280 H   0  0  0  0  0  0  0  0  0  0  0  0
   12.8307    7.9308   12.4989 H   0  0  0  0  0  0  0  0  0  0  0  0
   10.0763    4.6793    9.9580 H   0  0  0  0  0  0  0  0  0  0  0  0
    6.6150    6.3597   13.2197 Br  0  0  0  0  0  0  0  0  0  0  0  0
    8.4907    6.6853   13.4064 C   0  0  0  0  0  0  0  0  0  0  0  0
    9.3249    6.6488   12.2844 C   0  0  0  0  0  0  0  0  0  0  0  0
   10.6825    6.8857   12.4056 C   0  0  0  0  0  0  0  0  0  0  0  0
   11.1774    7.1573   13.6648 C   0  0  0  0  0  0  0  0  0  0  0  0
   10.3418    7.1923   14.7738 C   0  0  0  0  0  0  0  0  0  0  0  0
    8.9923    6.9567   14.6500 C   0  0  0  0  0  0  0  0  0  0  0  0
   11.0866    7.5800   16.5069 Br  0  0  0  0  0  0  0  0  0  0  0  0
    8.7179    6.3693   11.0885 O   0  0  0  0  0  0  0  0  0  0  0  0
    9.1498    6.3103   10.2073 H   0  0  0  0  0  0  0  0  0  0  0  0
   15.1338    7.8457   11.6690 C   0  0  0  0  0  0  0  0  0  0  0  0
   14.9535    8.5819   12.6733 O   0  0  0  0  0  0  0  0  0  0  0  0
   16.3389    7.8358   10.9865 O   0  0  0  0  0  0  0  0  0  0  0  0
 17 18  1  0  0  0
 18 19  2  0  0  0
 18 23  1  0  0  0
 19 20  1  0  0  0
 19 25  1  0  0  0
 20 21  2  0  0  0
 20  1  1  0  0  0
 21 22  1  0  0  0
 22 23  2  0  0  0
 22 24  1  0  0  0
  1  2  1  0  0  0
  1  9  1  0  0  0
  2  3  1  0  0  0
  3  4  1  0  0  0
  3 27  1  0  0  0
  4  5  1  0  0  0
  5  6  1  0  0  0
  5  9  2  0  0  0
  6  7  2  0  0  0
  6 13  1  0  0  0
  7  8  1  0  0  0
  7 10  1  0  0  0
  8  9  1  0  0  0
 10 11  2  0  0  0
 11 12  1  0  0  0
 12 13  2  0  0  0
 27 28  2  0  0  0
 27 29  1  0  0  0
  2 14  1  0  0  0
  2 15  1  0  0  0
  8 16  1  0  0  0
 25 26  1  0  0  0
M  CHG 1   2   1
M  END
> <minimizedAffinity>
-7.81899

$$$$
1571


 28 31  0  0  0  0  0  0  0  0999 V2000
    7.6837    6.5987   12.9531 O   0  0  0  0  0  0  0  0  0  0  0  0
    6.8374    7.0706   11.9764 C   0  0  0  0  0  0  0  0  0  0  0  0
    6.3526    6.2005   11.1984 O   0  0  0  0  0  0  0  0  0  0  0  0
    6.5011    8.5122   11.8293 C   0  0  0  0  0  0  0  0  0  0  0  0
    5.7804    9.0170   12.9993 N   0  0  0  0  0  0  0  0  0  0  0  0
    4.3692    9.1269   13.1641 C   0  0  0  0  0  0  0  0  0  0  0  0
    3.4920    8.6440   12.4054 O   0  0  0  0  0  0  0  0  0  0  0  0
    4.1165    9.9133   14.3938 C   0  0  0  0  0  0  0  0  0  0  0  0
    5.3180    9.5208   15.2213 C   0  0  0  0  0  0  0  0  0  0  0  0
    5.1953    8.1321   15.8176 C   0  0  0  0  0  0  0  0  0  0  0  0
    3.8357    7.5189   15.6105 C   0  0  0  0  0  0  0  0  0  0  0  0
    2.7438    8.4945   15.9474 C   0  0  0  0  0  0  0  0  0  0  0  0
    2.8111    9.6645   15.0314 C   0  0  0  0  0  0  0  0  0  0  0  0
    6.3793    9.5019   14.1883 C   0  0  0  0  0  0  0  0  0  0  0  0
    7.5952    9.8477   14.3174 O   0  0  0  0  0  0  0  0  0  0  0  0
    9.0454    6.9039   13.0676 C   0  0  0  0  0  0  0  0  0  0  0  0
   13.9591    1.4228    9.1653 Br  0  0  0  0  0  0  0  0  0  0  0  0
   12.8502    2.5288   10.2884 C   0  0  0  0  0  0  0  0  0  0  0  0
   12.2789    3.6814    9.8040 C   0  0  0  0  0  0  0  0  0  0  0  0
   11.5032    4.4715   10.5594 N   0  0  0  0  0  0  0  0  0  0  0  0
   11.2441    4.1595   11.8548 C   0  0  0  0  0  0  0  0  0  0  0  0
   10.4775    4.9118   12.6477 N   0  0  0  0  0  0  0  0  0  0  0  0
    9.9008    6.0485   12.2111 C   0  0  0  0  0  0  0  0  0  0  0  0
   10.1416    6.3985   10.8986 C   0  0  0  0  0  0  0  0  0  0  0  0
   10.9360    5.6118   10.0886 C   0  0  0  0  0  0  0  0  0  0  0  0
   11.1812    5.8951    8.8829 O   0  0  0  0  0  0  0  0  0  0  0  0
   11.8049    2.9977   12.3816 C   0  0  0  0  0  0  0  0  0  0  0  0
   12.6018    2.1937   11.5948 C   0  0  0  0  0  0  0  0  0  0  0  0
 17 18  1  0  0  0
 18 19  2  0  0  0
 18 28  1  0  0  0
 19 20  1  0  0  0
 20 21  1  0  0  0
 20 25  1  0  0  0
 21 22  2  0  0  0
 21 27  1  0  0  0
 22 23  1  0  0  0
 23 24  2  0  0  0
 23 16  1  0  0  0
 24 25  1  0  0  0
 25 26  2  0  0  0
 16  1  1  0  0  0
  1  2  1  0  0  0
  2  3  2  0  0  0
  2  4  1  0  0  0
  4  5  1  0  0  0
  5  6  1  0  0  0
  5 14  1  0  0  0
  6  7  2  0  0  0
  6  8  1  0  0  0
  8  9  1  0  0  0
  8 13  1  0  0  0
  9 10  1  0  0  0
  9 14  1  0  0  0
 10 11  1  0  0  0
 11 12  1  0  0  0
 12 13  1  0  0  0
 14 15  2  0  0  0
 27 28  2  0  0  0
M  END
> <minimizedAffinity>
-8.98905

$$$$
1576


 30 33  0  0  0  0  0  0  0  0999 V2000
   11.9003    2.1787   10.5421 N   0  0  0  0  0  0  0  0  0  0  0  0
   12.2177    2.2679   11.9511 C   0  0  0  0  0  0  0  0  0  0  0  0
   11.2181    3.2135   12.6126 C   0  0  0  0  0  0  0  0  0  0  0  0
   10.9777    4.3502   11.7381 N   0  0  0  0  0  0  0  0  0  0  0  0
   10.4944    4.0996   10.4006 C   0  0  0  0  0  0  0  0  0  0  0  0
   10.5478    2.6104   10.1560 C   0  0  0  0  0  0  0  0  0  0  0  0
   11.2055    5.6865   12.1700 C   0  0  0  0  0  0  0  0  0  0  0  0
   11.6259    5.8706   13.3546 O   0  0  0  0  0  0  0  0  0  0  0  0
   11.2343   -0.4518    9.2018 Cl  0  0  0  0  0  0  0  0  0  0  0  0
   12.5898    0.5529    8.8339 C   0  0  0  0  0  0  0  0  0  0  0  0
   12.7574    1.7263    9.5372 C   0  0  0  0  0  0  0  0  0  0  0  0
   13.8712    2.4888    9.1927 C   0  0  0  0  0  0  0  0  0  0  0  0
   14.7467    2.0841    8.2043 C   0  0  0  0  0  0  0  0  0  0  0  0
   14.5390    0.9091    7.5312 C   0  0  0  0  0  0  0  0  0  0  0  0
   13.4611    0.1417    7.8442 C   0  0  0  0  0  0  0  0  0  0  0  0
   10.9839    6.8704   11.3319 C   0  0  0  0  0  0  0  0  0  0  0  0
    9.8293    7.6668   11.7430 N   0  0  0  0  0  0  0  0  0  0  0  0
    8.5660    7.5549   11.3843 N   0  0  0  0  0  0  0  0  0  0  0  0
    7.7785    8.4622   11.9660 C   0  0  0  0  0  0  0  0  0  0  0  0
    8.6015    9.2281   12.7717 C   0  0  0  0  0  0  0  0  0  0  0  0
    9.8686    8.7127   12.6140 C   0  0  0  0  0  0  0  0  0  0  0  0
   11.0779    9.2252   13.2915 C   0  0  0  0  0  0  0  0  0  0  0  0
    6.3229    8.6152   11.7875 C   0  0  0  0  0  0  0  0  0  0  0  0
    5.8607    8.9672   10.6839 O   0  0  0  0  0  0  0  0  0  0  0  0
    5.4702    8.3546   12.8824 N   0  0  0  0  0  0  0  0  0  0  0  0
    5.9313    7.9459   14.1792 C   0  0  0  0  0  0  0  0  0  0  0  0
    4.6963    7.9240   15.0887 C   0  0  0  0  0  0  0  0  0  0  0  0
    4.0223    9.1242   15.0408 O   0  0  0  0  0  0  0  0  0  0  0  0
    3.5329    9.4450   13.7967 C   0  0  0  0  0  0  0  0  0  0  0  0
    4.0210    8.5016   12.7173 C   0  0  0  0  0  0  0  0  0  0  0  0
  9 10  1  0  0  0
 10 11  2  0  0  0
 10 15  1  0  0  0
 11 12  1  0  0  0
 11  1  1  0  0  0
 12 13  2  0  0  0
 13 14  1  0  0  0
 14 15  2  0  0  0
  1  2  1  0  0  0
  1  6  1  0  0  0
  2  3  1  0  0  0
  3  4  1  0  0  0
  4  5  1  0  0  0
  4  7  1  0  0  0
  5  6  1  0  0  0
  7  8  2  0  0  0
  7 16  1  0  0  0
 16 17  1  0  0  0
 17 18  1  0  0  0
 17 21  1  0  0  0
 18 19  2  0  0  0
 19 20  1  0  0  0
 19 23  1  0  0  0
 20 21  2  0  0  0
 21 22  1  0  0  0
 23 24  2  0  0  0
 23 25  1  0  0  0
 25 26  1  0  0  0
 25 30  1  0  0  0
 26 27  1  0  0  0
 27 28  1  0  0  0
 28 29  1  0  0  0
 29 30  1  0  0  0
M  END
> <minimizedAffinity>
-9.35030

$$$$
1581


 27 30  0  0  0  0  0  0  0  0999 V2000
   12.7344    5.7494   11.7642 N   0  0  0  0  0  0  0  0  0  0  0  0
   12.4405    6.0218   10.4194 C   0  0  0  0  0  0  0  0  0  0  0  0
   11.0081    5.8816   10.0236 C   0  0  0  0  0  0  0  0  0  0  0  0
   10.1042    6.1289   11.1376 N   0  0  0  0  0  0  0  0  0  0  0  0
    8.7732    6.1400   11.0818 N   0  0  0  0  0  0  0  0  0  0  0  0
    8.2840    6.4014   12.2974 C   0  0  0  0  0  0  0  0  0  0  0  0
    9.3580    6.5574   13.1371 C   0  0  0  0  0  0  0  0  0  0  0  0
   10.5249    6.3814   12.3868 C   0  0  0  0  0  0  0  0  0  0  0  0
   11.9649    6.4308   12.7432 C   0  0  0  0  0  0  0  0  0  0  0  0
    6.8366    6.5021   12.6630 C   0  0  0  0  0  0  0  0  0  0  0  0
    6.1287    5.5969   11.8554 O   0  0  0  0  0  0  0  0  0  0  0  0
    6.7604    5.0162   11.3402 H   0  0  0  0  0  0  0  0  0  0  0  0
    6.6271    6.0274   14.0987 C   0  0  0  0  0  0  0  0  0  0  0  0
    6.0801    7.1911   14.9120 C   0  0  0  0  0  0  0  0  0  0  0  0
   13.2264    4.4792   12.1009 C   0  0  0  0  0  0  0  0  0  0  0  0
   10.6710   -1.4668    7.2163 Cl  0  0  0  0  0  0  0  0  0  0  0  0
   10.9749   -0.1695    8.3628 C   0  0  0  0  0  0  0  0  0  0  0  0
   12.2547    0.3315    8.4374 C   0  0  0  0  0  0  0  0  0  0  0  0
   12.4854    1.3328    9.3233 N   0  0  0  0  0  0  0  0  0  0  0  0
   11.5161    1.8318   10.1068 C   0  0  0  0  0  0  0  0  0  0  0  0
   11.7364    2.8255   10.9875 N   0  0  0  0  0  0  0  0  0  0  0  0
   12.9445    3.3946   11.1505 C   0  0  0  0  0  0  0  0  0  0  0  0
   13.9446    2.8808   10.3434 C   0  0  0  0  0  0  0  0  0  0  0  0
   13.7188    1.8645    9.4433 C   0  0  0  0  0  0  0  0  0  0  0  0
   14.6670    1.4240    8.7221 O   0  0  0  0  0  0  0  0  0  0  0  0
   10.2137    1.3273   10.0346 C   0  0  0  0  0  0  0  0  0  0  0  0
    9.9485    0.3133    9.1481 C   0  0  0  0  0  0  0  0  0  0  0  0
 16 17  1  0  0  0
 17 18  2  0  0  0
 17 27  1  0  0  0
 18 19  1  0  0  0
 19 20  1  0  0  0
 19 24  1  0  0  0
 20 21  2  0  0  0
 20 26  1  0  0  0
 21 22  1  0  0  0
 22 23  2  0  0  0
 22 15  1  0  0  0
 23 24  1  0  0  0
 24 25  2  0  0  0
 15  1  1  0  0  0
  1  2  1  0  0  0
  1  9  1  0  0  0
  2  3  1  0  0  0
  3  4  1  0  0  0
  4  5  1  0  0  0
  4  8  1  0  0  0
  5  6  2  0  0  0
  6  7  1  0  0  0
  6 10  1  0  0  0
  7  8  2  0  0  0
  8  9  1  0  0  0
 10 11  1  0  0  0
 10 13  1  0  0  0
 13 14  1  0  0  0
 26 27  2  0  0  0
 11 12  1  0  0  0
M  END
> <minimizedAffinity>
-8.44268

$$$$
1586


 29 32  0  0  0  0  0  0  0  0999 V2000
    9.3815    8.8458   13.1292 C   0  0  0  0  0  0  0  0  0  0  0  0
    9.9687    9.8358   13.7827 O   0  0  0  0  0  0  0  0  0  0  0  0
   10.2359    8.0265   12.3728 N   0  0  0  0  0  0  0  0  0  0  0  0
    9.8122    6.9299   11.5773 C   0  0  0  0  0  0  0  0  0  0  0  0
   11.0022    6.4363   10.7369 C   0  0  0  0  0  0  0  0  0  0  0  0
   12.0233    6.0794   11.6875 N   0  0  0  0  0  0  0  0  0  0  0  0
   12.5145    7.1083   12.5415 C   0  0  0  0  0  0  0  0  0  0  0  0
   11.6593    8.3552   12.4477 C   0  0  0  0  0  0  0  0  0  0  0  0
   12.5112    4.7636   11.7650 C   0  0  0  0  0  0  0  0  0  0  0  0
   13.6200    4.5633   12.2919 O   0  0  0  0  0  0  0  0  0  0  0  0
   11.6893    3.6644   11.2183 C   0  0  0  0  0  0  0  0  0  0  0  0
   11.2421    4.0849    9.9230 N   0  0  0  0  0  0  0  0  0  0  0  0
   10.6354    5.3607    9.8175 C   0  0  0  0  0  0  0  0  0  0  0  0
    9.7623    5.6109    8.9284 O   0  0  0  0  0  0  0  0  0  0  0  0
   11.3469    3.4867    9.0664 H   0  0  0  0  0  0  0  0  0  0  0  0
    3.3705    8.9652   13.7045 Cl  0  0  0  0  0  0  0  0  0  0  0  0
    5.1343    8.9019   13.5692 C   0  0  0  0  0  0  0  0  0  0  0  0
    5.8474    7.9269   14.1878 C   0  0  0  0  0  0  0  0  0  0  0  0
    7.2370    7.9048   14.0613 C   0  0  0  0  0  0  0  0  0  0  0  0
    7.9602    8.8193   13.3362 C   0  0  0  0  0  0  0  0  0  0  0  0
    7.1701    9.8054   12.7194 C   0  0  0  0  0  0  0  0  0  0  0  0
    5.7961    9.8477   12.8304 C   0  0  0  0  0  0  0  0  0  0  0  0
   12.3480    2.3388   11.2582 C   0  0  0  0  0  0  0  0  0  0  0  0
   11.8185    1.4783   10.1877 C   0  0  0  0  0  0  0  0  0  0  0  0
   10.5460    1.2188    9.8783 N   0  0  0  0  0  0  0  0  0  0  0  0
   10.5072    0.3665    8.8120 C   0  0  0  0  0  0  0  0  0  0  0  0
   11.7593    0.0844    8.4457 N   0  0  0  0  0  0  0  0  0  0  0  0
   12.5758    0.7499    9.2690 C   0  0  0  0  0  0  0  0  0  0  0  0
   12.0468   -0.5282    7.6778 H   0  0  0  0  0  0  0  0  0  0  0  0
 16 17  1  0  0  0
 17 18  2  0  0  0
 17 22  1  0  0  0
 18 19  1  0  0  0
 19 20  2  0  0  0
 20 21  1  0  0  0
 20  1  1  0  0  0
 21 22  2  0  0  0
  1  2  2  0  0  0
  1  3  1  0  0  0
  3  4  1  0  0  0
  3  8  1  0  0  0
  4  5  1  0  0  0
  5  6  1  0  0  0
  5 13  1  0  0  0
  6  7  1  0  0  0
  6  9  1  0  0  0
  7  8  1  0  0  0
  9 10  2  0  0  0
  9 11  1  0  0  0
 11 12  1  0  0  0
 11 23  1  0  0  0
 12 13  1  0  0  0
 13 14  2  0  0  0
 23 24  1  0  0  0
 24 25  1  0  0  0
 24 28  2  0  0  0
 25 26  2  0  0  0
 26 27  1  0  0  0
 27 28  1  0  0  0
 12 15  1  0  0  0
 27 29  1  0  0  0
M  END
> <minimizedAffinity>
-8.58652

$$$$
1591


 26 29  0  0  0  0  0  0  0  0999 V2000
   13.7882    4.7691   12.5270 Cl  0  0  0  0  0  0  0  0  0  0  0  0
   12.4949    4.1292   11.5381 C   0  0  0  0  0  0  0  0  0  0  0  0
   11.2802    4.7535   11.5042 C   0  0  0  0  0  0  0  0  0  0  0  0
   10.3195    4.1449   10.6919 C   0  0  0  0  0  0  0  0  0  0  0  0
   10.6061    3.0268   10.0070 N   0  0  0  0  0  0  0  0  0  0  0  0
   11.7668    2.4111   10.0256 N   0  0  0  0  0  0  0  0  0  0  0  0
   12.7190    2.9596   10.7916 C   0  0  0  0  0  0  0  0  0  0  0  0
   13.8631    2.4447   10.8746 O   0  0  0  0  0  0  0  0  0  0  0  0
   11.9879    1.2262    9.2670 C   0  0  0  0  0  0  0  0  0  0  0  0
   11.1990    0.1005    9.3953 C   0  0  0  0  0  0  0  0  0  0  0  0
   11.4214   -1.0410    8.6553 C   0  0  0  0  0  0  0  0  0  0  0  0
   12.4591   -1.0979    7.7466 C   0  0  0  0  0  0  0  0  0  0  0  0
   13.2504    0.0234    7.6134 C   0  0  0  0  0  0  0  0  0  0  0  0
   13.0236    1.1657    8.3573 C   0  0  0  0  0  0  0  0  0  0  0  0
   10.9940    5.9447   12.2121 N   0  0  0  0  0  0  0  0  0  0  0  0
   10.5289    5.9509   13.5891 C   0  0  0  0  0  0  0  0  0  0  0  0
    9.1446    6.5347   13.7061 C   0  0  0  0  0  0  0  0  0  0  0  0
    9.0953    7.6700   12.8176 N   0  0  0  0  0  0  0  0  0  0  0  0
   10.3390    8.3007   12.4589 C   0  0  0  0  0  0  0  0  0  0  0  0
   11.1157    7.2688   11.6120 C   0  0  0  0  0  0  0  0  0  0  0  0
    7.8648    8.1539   12.3120 C   0  0  0  0  0  0  0  0  0  0  0  0
    7.6331    8.7058   11.0863 N   0  0  0  0  0  0  0  0  0  0  0  0
    6.3598    9.0318   10.9893 N   0  0  0  0  0  0  0  0  0  0  0  0
    5.7682    8.7002   12.1298 C   0  0  0  0  0  0  0  0  0  0  0  0
    6.6846    8.1790   12.9026 O   0  0  0  0  0  0  0  0  0  0  0  0
    4.3321    8.8623   12.5272 C   0  0  0  0  0  0  0  0  0  0  0  0
  1  2  1  0  0  0
  2  3  2  0  0  0
  2  7  1  0  0  0
  3  4  1  0  0  0
  3 15  1  0  0  0
  4  5  2  0  0  0
  5  6  1  0  0  0
  6  7  1  0  0  0
  6  9  1  0  0  0
  7  8  2  0  0  0
  9 10  2  0  0  0
  9 14  1  0  0  0
 10 11  1  0  0  0
 11 12  2  0  0  0
 12 13  1  0  0  0
 13 14  2  0  0  0
 15 16  1  0  0  0
 15 20  1  0  0  0
 16 17  1  0  0  0
 17 18  1  0  0  0
 18 19  1  0  0  0
 18 21  1  0  0  0
 19 20  1  0  0  0
 21 22  2  0  0  0
 21 25  1  0  0  0
 22 23  1  0  0  0
 23 24  2  0  0  0
 24 25  1  0  0  0
 24 26  1  0  0  0
M  END
> <minimizedAffinity>
-8.79572

$$$$
1594


 27 30  0  0  0  0  0  0  0  0999 V2000
   12.4889    3.9387   11.2063 C   0  0  0  0  0  0  0  0  0  0  0  0
   13.1147    3.7051   12.3052 O   0  0  0  0  0  0  0  0  0  0  0  0
   12.2052    5.2614   10.9264 N   0  0  0  0  0  0  0  0  0  0  0  0
   11.5182    5.7037    9.7368 C   0  0  0  0  0  0  0  0  0  0  0  0
   10.1416    6.2366   10.0735 C   0  0  0  0  0  0  0  0  0  0  0  0
   10.1991    6.9749   11.3803 C   0  0  0  0  0  0  0  0  0  0  0  0
   11.2976    7.0387   12.1932 C   0  0  0  0  0  0  0  0  0  0  0  0
   10.9192    7.7972   13.2545 N   0  0  0  0  0  0  0  0  0  0  0  0
    9.6715    8.1885   13.1296 N   0  0  0  0  0  0  0  0  0  0  0  0
    9.1678    7.7102   11.9849 C   0  0  0  0  0  0  0  0  0  0  0  0
    7.9973    7.8696   11.5104 O   0  0  0  0  0  0  0  0  0  0  0  0
   12.5806    6.3616   11.8474 C   0  0  0  0  0  0  0  0  0  0  0  0
   11.5756    8.0121   14.0436 H   0  0  0  0  0  0  0  0  0  0  0  0
    9.3020   -1.9564    7.6192 Cl  0  0  0  0  0  0  0  0  0  0  0  0
   10.4363   -0.7335    8.1612 C   0  0  0  0  0  0  0  0  0  0  0  0
   10.0688    0.2015    9.1020 C   0  0  0  0  0  0  0  0  0  0  0  0
   10.9759    1.1364    9.4997 N   0  0  0  0  0  0  0  0  0  0  0  0
   12.2043    1.1291    8.9707 C   0  0  0  0  0  0  0  0  0  0  0  0
   12.9127    2.1335    9.5108 N   0  0  0  0  0  0  0  0  0  0  0  0
   12.1497    2.7888   10.3859 C   0  0  0  0  0  0  0  0  0  0  0  0
   10.9019    2.1454   10.3777 C   0  0  0  0  0  0  0  0  0  0  0  0
   12.6069    0.1864    8.0087 C   0  0  0  0  0  0  0  0  0  0  0  0
   11.7050   -0.7499    7.6080 C   0  0  0  0  0  0  0  0  0  0  0  0
    8.8909    9.0186   14.0584 C   0  0  0  0  0  0  0  0  0  0  0  0
    8.9224   10.4695   13.6369 C   0  0  0  0  0  0  0  0  0  0  0  0
    7.7770   10.8414   12.9433 O   0  0  0  0  0  0  0  0  0  0  0  0
    7.9789   11.4848   12.2003 H   0  0  0  0  0  0  0  0  0  0  0  0
 14 15  1  0  0  0
 15 16  2  0  0  0
 15 23  1  0  0  0
 16 17  1  0  0  0
 17 18  1  0  0  0
 17 21  1  0  0  0
 18 19  2  0  0  0
 18 22  1  0  0  0
 19 20  1  0  0  0
 20 21  2  0  0  0
 20  1  1  0  0  0
  1  2  2  0  0  0
  1  3  1  0  0  0
  3  4  1  0  0  0
  3 12  1  0  0  0
  4  5  1  0  0  0
  5  6  1  0  0  0
  6  7  2  0  0  0
  6 10  1  0  0  0
  7  8  1  0  0  0
  7 12  1  0  0  0
  8  9  1  0  0  0
  9 10  1  0  0  0
  9 24  1  0  0  0
 10 11  2  0  0  0
 24 25  1  0  0  0
 25 26  1  0  0  0
 22 23  2  0  0  0
  8 13  1  0  0  0
 26 27  1  0  0  0
M  END
> <minimizedAffinity>
-8.42518

$$$$
1599


 30 33  0  0  0  0  0  0  0  0999 V2000
    9.4867    7.3810   12.9333 C   0  0  0  0  0  0  0  0  0  0  0  0
    9.4445    6.1500   13.2868 O   0  0  0  0  0  0  0  0  0  0  0  0
    8.8931    8.3847   13.7103 N   0  0  0  0  0  0  0  0  0  0  0  0
    8.9164    9.7652   13.3459 C   0  0  0  0  0  0  0  0  0  0  0  0
    7.6525   10.4861   13.7204 C   0  0  0  0  0  0  0  0  0  0  0  0
    6.4453    9.5944   13.9120 C   0  0  0  0  0  0  0  0  0  0  0  0
    5.4658   10.4688   14.5426 N   0  0  0  0  0  0  0  0  0  0  0  0
    4.1536    9.9569   14.6529 C   0  0  0  0  0  0  0  0  0  0  0  0
    3.7819    8.8041   13.7944 C   0  0  0  0  0  0  0  0  0  0  0  0
    4.5818    8.7742   12.5304 C   0  0  0  0  0  0  0  0  0  0  0  0
    4.2634    8.4242   11.2849 N   0  0  0  0  0  0  0  0  0  0  0  0
    5.3855    8.5987   10.5557 C   0  0  0  0  0  0  0  0  0  0  0  0
    6.3883    9.0506   11.3402 N   0  0  0  0  0  0  0  0  0  0  0  0
    5.8936    9.1682   12.6064 C   0  0  0  0  0  0  0  0  0  0  0  0
    6.7076    8.3889   14.7775 C   0  0  0  0  0  0  0  0  0  0  0  0
    8.1833    8.0763   14.9465 C   0  0  0  0  0  0  0  0  0  0  0  0
    5.8873   10.6764   15.4933 H   0  0  0  0  0  0  0  0  0  0  0  0
    7.3503    9.2636   11.0272 H   0  0  0  0  0  0  0  0  0  0  0  0
   10.2153    7.6348   11.6384 C   0  0  0  0  0  0  0  0  0  0  0  0
   10.2052    5.4444   10.0447 C   0  0  0  0  0  0  0  0  0  0  0  0
    9.5557    5.2501    8.9574 O   0  0  0  0  0  0  0  0  0  0  0  0
   10.2101    6.5139   10.8231 N   0  0  0  0  0  0  0  0  0  0  0  0
    9.3069    7.1442    9.9858 H   0  0  0  0  0  0  0  0  0  0  0  0
   11.4424    0.2905    9.4078 Br  0  0  0  0  0  0  0  0  0  0  0  0
   11.6774    1.9608   10.2536 C   0  0  0  0  0  0  0  0  0  0  0  0
   10.9086    3.0432    9.8539 C   0  0  0  0  0  0  0  0  0  0  0  0
   11.0584    4.2698   10.4445 C   0  0  0  0  0  0  0  0  0  0  0  0
   11.9580    4.4920   11.4435 C   0  0  0  0  0  0  0  0  0  0  0  0
   12.7368    3.4052   11.8532 C   0  0  0  0  0  0  0  0  0  0  0  0
   12.5882    2.1654   11.2603 C   0  0  0  0  0  0  0  0  0  0  0  0
 24 25  1  0  0  0
 25 26  2  0  0  0
 25 30  1  0  0  0
 26 27  1  0  0  0
 27 28  2  0  0  0
 27 20  1  0  0  0
 28 29  1  0  0  0
 29 30  2  0  0  0
 20 21  2  0  0  0
 20 22  1  0  0  0
 22 19  1  0  0  0
 19  1  1  0  0  0
  1  2  2  0  0  0
  1  3  1  0  0  0
  3  4  1  0  0  0
  3 16  1  0  0  0
  4  5  1  0  0  0
  5  6  1  0  0  0
  6  7  1  0  0  0
  6 14  1  0  0  0
  6 15  1  0  0  0
  7  8  1  0  0  0
  8  9  1  0  0  0
  9 10  1  0  0  0
 10 11  1  0  0  0
 10 14  2  0  0  0
 11 12  2  0  0  0
 12 13  1  0  0  0
 13 14  1  0  0  0
 15 16  1  0  0  0
 22 23  1  0  0  0
  7 17  1  0  0  0
 13 18  1  0  0  0
M  END
> <minimizedAffinity>
-9.22859

$$$$
1609


 26 29  0  0  0  0  0  0  0  0999 V2000
   12.5474    3.5676   11.2182 N   0  0  0  0  0  0  0  0  0  0  0  0
   11.3895    4.1256   10.5719 C   0  0  0  0  0  0  0  0  0  0  0  0
   11.8805    5.5164   10.2226 C   0  0  0  0  0  0  0  0  0  0  0  0
   12.5545    5.8672   11.4240 O   0  0  0  0  0  0  0  0  0  0  0  0
   13.2291    4.6822   11.7822 C   0  0  0  0  0  0  0  0  0  0  0  0
   14.2789    4.6701   12.4996 O   0  0  0  0  0  0  0  0  0  0  0  0
   10.5753    6.1981   10.0290 C   0  0  0  0  0  0  0  0  0  0  0  0
    9.8744    5.8241   11.2787 N   0  0  0  0  0  0  0  0  0  0  0  0
   10.3124    4.5024   11.6049 C   0  0  0  0  0  0  0  0  0  0  0  0
    8.9880    6.7129   11.8935 C   0  0  0  0  0  0  0  0  0  0  0  0
    8.7800    7.8828   11.3690 O   0  0  0  0  0  0  0  0  0  0  0  0
    8.2352    6.4719   13.1105 C   0  0  0  0  0  0  0  0  0  0  0  0
    8.6853    6.5930   14.3886 N   0  0  0  0  0  0  0  0  0  0  0  0
    7.6911    6.2897   15.2198 C   0  0  0  0  0  0  0  0  0  0  0  0
    6.6092    5.9758   14.5043 N   0  0  0  0  0  0  0  0  0  0  0  0
    6.9306    6.0847   13.1957 C   0  0  0  0  0  0  0  0  0  0  0  0
   10.0206    6.9851   14.7566 C   0  0  0  0  0  0  0  0  0  0  0  0
   13.0095    2.2037   11.3347 C   0  0  0  0  0  0  0  0  0  0  0  0
   13.7574    1.7138   10.1250 C   0  0  0  0  0  0  0  0  0  0  0  0
    9.0635   -0.3317    9.1290 Cl  0  0  0  0  0  0  0  0  0  0  0  0
   10.7709   -0.1170    8.7321 C   0  0  0  0  0  0  0  0  0  0  0  0
   11.5632    0.6692    9.5340 C   0  0  0  0  0  0  0  0  0  0  0  0
   12.9159    0.8620    9.2527 C   0  0  0  0  0  0  0  0  0  0  0  0
   13.4088    0.2233    8.1327 C   0  0  0  0  0  0  0  0  0  0  0  0
   12.6035   -0.5663    7.3323 C   0  0  0  0  0  0  0  0  0  0  0  0
   11.2670   -0.7535    7.6144 C   0  0  0  0  0  0  0  0  0  0  0  0
 20 21  1  0  0  0
 21 22  2  0  0  0
 21 26  1  0  0  0
 22 23  1  0  0  0
 23 24  2  0  0  0
 23 19  1  0  0  0
 24 25  1  0  0  0
 25 26  2  0  0  0
 19 18  1  0  0  0
 18  1  1  0  0  0
  1  2  1  0  0  0
  1  5  1  0  0  0
  2  3  1  0  0  0
  2  9  1  0  0  0
  3  4  1  0  0  0
  3  7  1  0  0  0
  4  5  1  0  0  0
  5  6  2  0  0  0
  7  8  1  0  0  0
  8  9  1  0  0  0
  8 10  1  0  0  0
 10 11  2  0  0  0
 10 12  1  0  0  0
 12 13  1  0  0  0
 12 16  2  0  0  0
 13 14  1  0  0  0
 13 17  1  0  0  0
 14 15  2  0  0  0
 15 16  1  0  0  0
M  END
> <minimizedAffinity>
-8.83136

$$$$
1612


 31 34  0  0  0  0  0  0  0  0999 V2000
   10.0763    6.8819   11.8688 N   0  0  0  0  0  0  0  0  0  0  0  0
    8.8139    6.9630   12.3375 C   0  0  0  0  0  0  0  0  0  0  0  0
    8.8391    7.8220   13.4106 C   0  0  0  0  0  0  0  0  0  0  0  0
   10.0848    8.2275   13.5593 N   0  0  0  0  0  0  0  0  0  0  0  0
   10.8706    7.6579   12.6119 C   0  0  0  0  0  0  0  0  0  0  0  0
    7.6650    8.0674   14.0576 N   0  0  0  0  0  0  0  0  0  0  0  0
    6.5167    7.4988   13.6724 C   0  0  0  0  0  0  0  0  0  0  0  0
    5.4551    7.7593   14.3042 O   0  0  0  0  0  0  0  0  0  0  0  0
    6.4480    6.6573   12.6329 N   0  0  0  0  0  0  0  0  0  0  0  0
    7.5993    6.3939   11.9699 C   0  0  0  0  0  0  0  0  0  0  0  0
    7.5409    5.6096   10.9976 O   0  0  0  0  0  0  0  0  0  0  0  0
    7.6695    8.9817   15.1974 C   0  0  0  0  0  0  0  0  0  0  0  0
    5.5307    6.2357   12.3654 H   0  0  0  0  0  0  0  0  0  0  0  0
   12.2691    7.9372   12.4451 N   0  0  0  0  0  0  0  0  0  0  0  0
   13.0415    8.3200   13.6446 C   0  0  0  0  0  0  0  0  0  0  0  0
   14.2142    7.4190   13.8614 C   0  0  0  0  0  0  0  0  0  0  0  0
   14.6225    6.7844   12.6294 N   0  0  0  0  0  0  0  0  0  0  0  0
   14.4455    7.5352   11.4040 C   0  0  0  0  0  0  0  0  0  0  0  0
   12.9751    7.8652   11.2168 C   0  0  0  0  0  0  0  0  0  0  0  0
   15.1823    5.4786   12.6323 C   0  0  0  0  0  0  0  0  0  0  0  0
   15.3438    4.8620   13.7079 O   0  0  0  0  0  0  0  0  0  0  0  0
   15.5879    4.8121   11.3721 C   0  0  0  0  0  0  0  0  0  0  0  0
   16.6004    3.7304   11.7394 C   0  0  0  0  0  0  0  0  0  0  0  0
   10.4267    6.1137   10.7171 C   0  0  0  0  0  0  0  0  0  0  0  0
   13.6784    2.3938    9.1224 Cl  0  0  0  0  0  0  0  0  0  0  0  0
   12.6180    3.0919   10.3457 C   0  0  0  0  0  0  0  0  0  0  0  0
   11.9927    4.2946   10.0430 C   0  0  0  0  0  0  0  0  0  0  0  0
   11.1685    4.8568   10.9759 C   0  0  0  0  0  0  0  0  0  0  0  0
   10.9833    4.1990   12.2077 C   0  0  0  0  0  0  0  0  0  0  0  0
   11.6108    3.0170   12.4782 C   0  0  0  0  0  0  0  0  0  0  0  0
   12.4497    2.4341   11.5442 C   0  0  0  0  0  0  0  0  0  0  0  0
 25 26  1  0  0  0
 26 27  2  0  0  0
 26 31  1  0  0  0
 27 28  1  0  0  0
 28 29  2  0  0  0
 28 24  1  0  0  0
 29 30  1  0  0  0
 30 31  2  0  0  0
 24  1  1  0  0  0
  1  2  1  0  0  0
  1  5  1  0  0  0
  2  3  2  0  0  0
  2 10  1  0  0  0
  3  4  1  0  0  0
  3  6  1  0  0  0
  4  5  2  0  0  0
  5 14  1  0  0  0
 14 15  1  0  0  0
 14 19  1  0  0  0
 15 16  1  0  0  0
 16 17  1  0  0  0
 17 18  1  0  0  0
 17 20  1  0  0  0
 18 19  1  0  0  0
 20 21  2  0  0  0
 20 22  1  0  0  0
 22 23  1  0  0  0
  6  7  1  0  0  0
  6 12  1  0  0  0
  7  8  2  0  0  0
  7  9  1  0  0  0
  9 10  1  0  0  0
 10 11  2  0  0  0
  9 13  1  0  0  0
M  END
> <minimizedAffinity>
-8.23150

$$$$
1622


 28 31  0  0  0  0  0  0  0  0999 V2000
   11.2547    5.5968   10.3413 C   0  0  0  0  0  0  0  0  0  0  0  0
   11.1498    6.0918    9.1897 O   0  0  0  0  0  0  0  0  0  0  0  0
   10.8715    6.3066   11.5112 N   0  0  0  0  0  0  0  0  0  0  0  0
   10.3415    7.6450   11.3693 C   0  0  0  0  0  0  0  0  0  0  0  0
    9.4404    7.8911   12.5653 C   0  0  0  0  0  0  0  0  0  0  0  0
    8.7059    6.6377   12.9881 C   0  0  0  0  0  0  0  0  0  0  0  0
    7.7248    7.0308   13.9733 N   0  0  0  0  0  0  0  0  0  0  0  0
    6.5441    7.4284   13.2928 C   0  0  0  0  0  0  0  0  0  0  0  0
    5.5934    8.1503   13.7299 O   0  0  0  0  0  0  0  0  0  0  0  0
    6.6294    6.8472   11.9883 N   0  0  0  0  0  0  0  0  0  0  0  0
    7.8497    6.1110   11.8949 C   0  0  0  0  0  0  0  0  0  0  0  0
    8.1035    5.2127   11.0471 O   0  0  0  0  0  0  0  0  0  0  0  0
    5.6583    6.9569   10.8971 C   0  0  0  0  0  0  0  0  0  0  0  0
    9.6378    5.5764   13.4936 C   0  0  0  0  0  0  0  0  0  0  0  0
   10.9762    5.7735   12.8503 C   0  0  0  0  0  0  0  0  0  0  0  0
    7.8811    7.0169   14.9986 H   0  0  0  0  0  0  0  0  0  0  0  0
   13.9999    5.3994   11.4927 Cl  0  0  0  0  0  0  0  0  0  0  0  0
   13.0587    4.0142   10.9226 C   0  0  0  0  0  0  0  0  0  0  0  0
   11.7993    4.2373   10.4102 C   0  0  0  0  0  0  0  0  0  0  0  0
   11.0562    3.1671    9.9627 C   0  0  0  0  0  0  0  0  0  0  0  0
   11.5529    1.8821   10.0202 C   0  0  0  0  0  0  0  0  0  0  0  0
   12.8240    1.7053   10.5425 C   0  0  0  0  0  0  0  0  0  0  0  0
   13.5976    2.7463   10.9995 C   0  0  0  0  0  0  0  0  0  0  0  0
   10.8024    0.7581    9.5631 N   0  0  0  0  0  0  0  0  0  0  0  0
    9.5214    0.6833    9.2974 N   0  0  0  0  0  0  0  0  0  0  0  0
    9.2115   -0.5805    8.8852 C   0  0  0  0  0  0  0  0  0  0  0  0
   10.3683   -1.3279    8.8974 C   0  0  0  0  0  0  0  0  0  0  0  0
   11.3591   -0.4438    9.3337 C   0  0  0  0  0  0  0  0  0  0  0  0
 17 18  1  0  0  0
 18 19  2  0  0  0
 18 23  1  0  0  0
 19 20  1  0  0  0
 19  1  1  0  0  0
 20 21  2  0  0  0
 21 22  1  0  0  0
 21 24  1  0  0  0
 22 23  2  0  0  0
 24 25  1  0  0  0
 24 28  1  0  0  0
 25 26  2  0  0  0
 26 27  1  0  0  0
 27 28  2  0  0  0
  1  2  2  0  0  0
  1  3  1  0  0  0
  3  4  1  0  0  0
  3 15  1  0  0  0
  4  5  1  0  0  0
  5  6  1  0  0  0
  6  7  1  0  0  0
  6 11  1  0  0  0
  6 14  1  0  0  0
  7  8  1  0  0  0
  8  9  2  0  0  0
  8 10  1  0  0  0
 10 11  1  0  0  0
 10 13  1  0  0  0
 11 12  2  0  0  0
 14 15  1  0  0  0
  7 16  1  0  0  0
M  END
> <minimizedAffinity>
-9.55091

$$$$
1624


 32 35  0  0  0  0  0  0  0  0999 V2000
   11.7989    5.0367   12.3966 C   0  0  0  0  0  0  0  0  0  0  0  0
   10.6325    5.9313   12.2829 N   0  0  0  0  0  0  0  0  0  0  0  0
   10.1652    5.8832   10.9414 C   0  0  0  0  0  0  0  0  0  0  0  0
    9.4670    6.7176   10.3617 O   0  0  0  0  0  0  0  0  0  0  0  0
   10.6705    4.6301   10.3471 C   0  0  0  0  0  0  0  0  0  0  0  0
   10.4898    4.1970    9.1638 O   0  0  0  0  0  0  0  0  0  0  0  0
   11.4330    3.9780   11.3992 C   0  0  0  0  0  0  0  0  0  0  0  0
   11.7402    2.7047   11.4042 C   0  0  0  0  0  0  0  0  0  0  0  0
   12.5154    2.2245   12.4555 O   0  0  0  0  0  0  0  0  0  0  0  0
   16.8518    7.9388   10.9705 Cl  0  0  0  0  0  0  0  0  0  0  0  0
   15.3674    7.1222   11.3746 C   0  0  0  0  0  0  0  0  0  0  0  0
   14.1627    7.7580   11.3130 C   0  0  0  0  0  0  0  0  0  0  0  0
   13.0102    7.0616   11.6465 C   0  0  0  0  0  0  0  0  0  0  0  0
   13.0117    5.7615   12.0392 C   0  0  0  0  0  0  0  0  0  0  0  0
   14.2459    5.1147   12.1008 C   0  0  0  0  0  0  0  0  0  0  0  0
   15.4031    5.7845   11.7749 C   0  0  0  0  0  0  0  0  0  0  0  0
   11.3397    1.7235   10.4013 C   0  0  0  0  0  0  0  0  0  0  0  0
   12.3582    1.2054    9.6095 C   0  0  0  0  0  0  0  0  0  0  0  0
   12.0606    0.2626    8.6664 C   0  0  0  0  0  0  0  0  0  0  0  0
   10.7666   -0.1855    8.4833 C   0  0  0  0  0  0  0  0  0  0  0  0
    9.7605    0.3313    9.2713 C   0  0  0  0  0  0  0  0  0  0  0  0
   10.0736    1.2825   10.2211 C   0  0  0  0  0  0  0  0  0  0  0  0
   10.4373   -1.3822    7.2740 Cl  0  0  0  0  0  0  0  0  0  0  0  0
   10.1370    6.6678   13.4176 C   0  0  0  0  0  0  0  0  0  0  0  0
    8.9559    6.0896   14.0991 C   0  0  0  0  0  0  0  0  0  0  0  0
    7.6986    6.7217   13.9444 N   0  0  0  0  0  0  0  0  0  0  0  0
    6.8595    6.1257   12.9264 C   0  0  0  0  0  0  0  0  0  0  0  0
    6.4000    7.1023   11.8706 C   0  0  0  0  0  0  0  0  0  0  0  0
    5.8784    8.2730   12.3569 O   0  0  0  0  0  0  0  0  0  0  0  0
    6.6476    8.8535   13.3479 C   0  0  0  0  0  0  0  0  0  0  0  0
    7.9387    8.1035   13.4776 C   0  0  0  0  0  0  0  0  0  0  0  0
    7.1867    6.8486   14.8329 H   0  0  0  0  0  0  0  0  0  0  0  0
 10 11  1  0  0  0
 11 12  2  0  0  0
 11 16  1  0  0  0
 12 13  1  0  0  0
 13 14  2  0  0  0
 14 15  1  0  0  0
 14  1  1  0  0  0
 15 16  2  0  0  0
  1  2  1  0  0  0
  1  7  1  0  0  0
  2  3  1  0  0  0
  2 24  1  0  0  0
  3  4  2  0  0  0
  3  5  1  0  0  0
  5  6  2  0  0  0
  5  7  1  0  0  0
  7  8  2  0  0  0
  8  9  1  0  0  0
  8 17  1  0  0  0
 17 18  2  0  0  0
 17 22  1  0  0  0
 18 19  1  0  0  0
 19 20  2  0  0  0
 20 21  1  0  0  0
 20 23  1  0  0  0
 21 22  2  0  0  0
 24 25  1  0  0  0
 25 26  1  0  0  0
 26 27  1  0  0  0
 26 31  1  0  0  0
 27 28  1  0  0  0
 28 29  1  0  0  0
 29 30  1  0  0  0
 30 31  1  0  0  0
 26 32  1  0  0  0
M  CHG 1   9  -1
M  CHG 1  26   1
M  END
> <minimizedAffinity>
-8.99979

$$$$
1630


 39 43  0  0  0  0  0  0  0  0999 V2000
   13.4807   11.6169   16.1587 Cl  0  0  0  0  0  0  0  0  0  0  0  0
   12.1098   10.6650   15.5687 C   0  0  0  0  0  0  0  0  0  0  0  0
   11.2041   10.1392   16.4575 C   0  0  0  0  0  0  0  0  0  0  0  0
   10.1274    9.3926   15.9974 C   0  0  0  0  0  0  0  0  0  0  0  0
    9.9025    9.1385   14.6717 C   0  0  0  0  0  0  0  0  0  0  0  0
   10.8430    9.6884   13.7866 C   0  0  0  0  0  0  0  0  0  0  0  0
   11.9147   10.4303   14.2322 C   0  0  0  0  0  0  0  0  0  0  0  0
    8.7012    8.3324   14.5291 C   0  0  0  0  0  0  0  0  0  0  0  0
    7.7260    9.1124   13.7723 N   0  0  0  0  0  0  0  0  0  0  0  0
    7.7740    8.5149   12.4659 C   0  0  0  0  0  0  0  0  0  0  0  0
    7.7925    7.0399   12.7968 C   0  0  0  0  0  0  0  0  0  0  0  0
    8.8709    7.0139   13.8581 C   0  0  0  0  0  0  0  0  0  0  0  0
   10.1002    6.7916   13.1242 C   0  0  0  0  0  0  0  0  0  0  0  0
   11.2654    6.9690   13.5430 O   0  0  0  0  0  0  0  0  0  0  0  0
    9.7849    6.3291   11.8182 N   0  0  0  0  0  0  0  0  0  0  0  0
    8.3652    6.2374   11.6865 C   0  0  0  0  0  0  0  0  0  0  0  0
    7.6769    5.6252   10.8358 O   0  0  0  0  0  0  0  0  0  0  0  0
    8.2088    8.1278   15.9120 C   0  0  0  0  0  0  0  0  0  0  0  0
    7.1805    7.4884   16.2835 O   0  0  0  0  0  0  0  0  0  0  0  0
    9.1059    8.7851   16.7787 N   0  0  0  0  0  0  0  0  0  0  0  0
   11.4056   10.3875   17.9120 C   0  0  0  0  0  0  0  0  0  0  0  0
    7.9872   10.1209   13.7986 H   0  0  0  0  0  0  0  0  0  0  0  0
    9.0168    8.8114   17.8300 H   0  0  0  0  0  0  0  0  0  0  0  0
   10.6849    5.9800   10.7352 C   0  0  0  0  0  0  0  0  0  0  0  0
   11.3184    4.6651   10.9394 C   0  0  0  0  0  0  0  0  0  0  0  0
   12.6647    4.6367   11.2343 C   0  0  0  0  0  0  0  0  0  0  0  0
   13.2554    3.3951   11.4250 C   0  0  0  0  0  0  0  0  0  0  0  0
   12.5358    2.2378   11.3265 C   0  0  0  0  0  0  0  0  0  0  0  0
   11.1949    2.3081   11.0319 C   0  0  0  0  0  0  0  0  0  0  0  0
   10.5508    3.5091   10.8308 C   0  0  0  0  0  0  0  0  0  0  0  0
   13.3706    5.8176   11.3287 O   0  0  0  0  0  0  0  0  0  0  0  0
   14.3735    6.0758   12.2603 C   0  0  0  0  0  0  0  0  0  0  0  0
    6.5677    8.8968   11.6375 C   0  0  0  0  0  0  0  0  0  0  0  0
    5.3873    8.1421   12.2120 C   0  0  0  0  0  0  0  0  0  0  0  0
    4.4136    9.0548   12.8608 C   0  0  0  0  0  0  0  0  0  0  0  0
    4.8204   10.1416   13.3613 O   0  0  0  0  0  0  0  0  0  0  0  0
    3.0525    8.6477   12.8827 N   0  0  0  0  0  0  0  0  0  0  0  0
    2.6783    8.1485   12.0584 H   0  0  0  0  0  0  0  0  0  0  0  0
    2.4981    8.8811   13.7449 H   0  0  0  0  0  0  0  0  0  0  0  0
  1  2  1  0  0  0
  2  3  2  0  0  0
  2  7  1  0  0  0
  3  4  1  0  0  0
  3 21  1  0  0  0
  4  5  2  0  0  0
  4 20  1  0  0  0
  5  6  1  0  0  0
  5  8  1  0  0  0
  6  7  2  0  0  0
  8  9  1  0  0  0
  8 12  1  0  0  0
  8 18  1  0  0  0
  9 10  1  0  0  0
 10 11  1  0  0  0
 10 33  1  0  0  0
 11 12  1  0  0  0
 11 16  1  0  0  0
 12 13  1  0  0  0
 13 14  2  0  0  0
 13 15  1  0  0  0
 15 16  1  0  0  0
 15 24  1  0  0  0
 16 17  2  0  0  0
 24 25  1  0  0  0
 25 26  2  0  0  0
 25 30  1  0  0  0
 26 27  1  0  0  0
 26 31  1  0  0  0
 27 28  2  0  0  0
 28 29  1  0  0  0
 29 30  2  0  0  0
 31 32  1  0  0  0
 33 34  1  0  0  0
 34 35  1  0  0  0
 35 36  2  0  0  0
 35 37  1  0  0  0
 18 19  2  0  0  0
 18 20  1  0  0  0
  9 22  1  0  0  0
 37 38  1  0  0  0
 37 39  1  0  0  0
 20 23  1  0  0  0
M  END
> <minimizedAffinity>
-8.37443

$$$$
1631


 29 32  0  0  0  0  0  0  0  0999 V2000
   11.7664    4.5194   12.3011 C   0  0  0  0  0  0  0  0  0  0  0  0
   10.4850    5.1651   12.3326 N   0  0  0  0  0  0  0  0  0  0  0  0
    9.8313    5.0444   11.0733 C   0  0  0  0  0  0  0  0  0  0  0  0
    8.8387    5.7088   10.6559 O   0  0  0  0  0  0  0  0  0  0  0  0
   10.5234    3.9843   10.3108 C   0  0  0  0  0  0  0  0  0  0  0  0
   10.2177    3.6124    9.1553 O   0  0  0  0  0  0  0  0  0  0  0  0
   11.5856    3.5186   11.1926 C   0  0  0  0  0  0  0  0  0  0  0  0
   12.2736    2.4147   10.9926 C   0  0  0  0  0  0  0  0  0  0  0  0
   13.3048    2.1287   11.9106 O   0  0  0  0  0  0  0  0  0  0  0  0
   16.8784    5.5916   12.7690 Cl  0  0  0  0  0  0  0  0  0  0  0  0
   15.2629    5.9849   12.2236 C   0  0  0  0  0  0  0  0  0  0  0  0
   14.1889    5.1582   12.4536 C   0  0  0  0  0  0  0  0  0  0  0  0
   12.8968    5.4428   12.0305 C   0  0  0  0  0  0  0  0  0  0  0  0
   12.7125    6.6366   11.3402 C   0  0  0  0  0  0  0  0  0  0  0  0
   13.7704    7.4829   11.0959 C   0  0  0  0  0  0  0  0  0  0  0  0
   15.0363    7.1569   11.5359 C   0  0  0  0  0  0  0  0  0  0  0  0
    9.9344    5.8350   13.4466 C   0  0  0  0  0  0  0  0  0  0  0  0
    8.6205    5.5925   13.6968 N   0  0  0  0  0  0  0  0  0  0  0  0
    7.9845    6.1630   14.7190 C   0  0  0  0  0  0  0  0  0  0  0  0
    8.6964    7.0150   15.5318 C   0  0  0  0  0  0  0  0  0  0  0  0
   10.0285    7.2451   15.2597 C   0  0  0  0  0  0  0  0  0  0  0  0
   10.6621    6.6663   14.2246 N   0  0  0  0  0  0  0  0  0  0  0  0
    8.0667    4.9368   13.0796 H   0  0  0  0  0  0  0  0  0  0  0  0
   12.0352    1.4816    9.9000 C   0  0  0  0  0  0  0  0  0  0  0  0
   13.0058    1.3255    8.9002 C   0  0  0  0  0  0  0  0  0  0  0  0
   12.8203    0.4293    7.8705 C   0  0  0  0  0  0  0  0  0  0  0  0
   11.6885   -0.3523    7.7688 C   0  0  0  0  0  0  0  0  0  0  0  0
   10.7239   -0.2149    8.7411 C   0  0  0  0  0  0  0  0  0  0  0  0
   10.9135    0.6940    9.7830 C   0  0  0  0  0  0  0  0  0  0  0  0
 10 11  1  0  0  0
 11 12  2  0  0  0
 11 16  1  0  0  0
 12 13  1  0  0  0
 13 14  2  0  0  0
 13  1  1  0  0  0
 14 15  1  0  0  0
 15 16  2  0  0  0
  1  2  1  0  0  0
  1  7  1  0  0  0
  2  3  1  0  0  0
  2 17  1  0  0  0
  3  4  2  0  0  0
  3  5  1  0  0  0
  5  6  2  0  0  0
  5  7  1  0  0  0
  7  8  2  0  0  0
  8  9  1  0  0  0
  8 24  1  0  0  0
 24 25  2  0  0  0
 24 29  1  0  0  0
 25 26  1  0  0  0
 26 27  2  0  0  0
 27 28  1  0  0  0
 28 29  2  0  0  0
 17 18  2  0  0  0
 17 22  1  0  0  0
 18 19  1  0  0  0
 19 20  2  0  0  0
 20 21  1  0  0  0
 21 22  2  0  0  0
 18 23  1  0  0  0
M  CHG 1   9  -1
M  END
> <minimizedAffinity>
-9.12025

$$$$
1637


 29 32  0  0  0  0  0  0  0  0999 V2000
    8.9808    6.3785   12.2892 C   0  0  0  0  0  0  0  0  0  0  0  0
   10.0945    6.5871   13.0004 N   0  0  0  0  0  0  0  0  0  0  0  0
   11.3186    6.6305   12.4830 C   0  0  0  0  0  0  0  0  0  0  0  0
   11.4341    6.4332   11.0975 C   0  0  0  0  0  0  0  0  0  0  0  0
   10.3073    6.2233   10.3847 C   0  0  0  0  0  0  0  0  0  0  0  0
    9.0842    6.2001   10.9849 N   0  0  0  0  0  0  0  0  0  0  0  0
   10.4174    6.0413    9.0141 O   0  0  0  0  0  0  0  0  0  0  0  0
   12.8088    6.3489   10.5979 C   0  0  0  0  0  0  0  0  0  0  0  0
   13.4672    5.4000   11.4418 N   0  0  0  0  0  0  0  0  0  0  0  0
   13.7960    6.2307   12.6836 C   0  0  0  0  0  0  0  0  0  0  0  0
   12.5682    6.8425   13.2601 C   0  0  0  0  0  0  0  0  0  0  0  0
   11.0813    6.5500    8.4217 H   0  0  0  0  0  0  0  0  0  0  0  0
    7.4395    6.2505   13.1568 S   0  0  0  0  0  0  0  0  0  0  0  0
    7.5699    5.5439   14.4116 O   0  0  0  0  0  0  0  0  0  0  0  0
    6.4831    5.5694   12.2247 O   0  0  0  0  0  0  0  0  0  0  0  0
    6.8647    7.9543   13.3632 C   0  0  0  0  0  0  0  0  0  0  0  0
   12.6088    4.3311   12.0694 C   0  0  0  0  0  0  0  0  0  0  0  0
   12.8347    3.2130   11.0481 C   0  0  0  0  0  0  0  0  0  0  0  0
   11.8762    2.5335   10.4033 C   0  0  0  0  0  0  0  0  0  0  0  0
   12.1330    1.5028    9.4589 C   0  0  0  0  0  0  0  0  0  0  0  0
   13.4896    1.2452    9.2403 C   0  0  0  0  0  0  0  0  0  0  0  0
   13.7977    0.2650    8.3432 C   0  0  0  0  0  0  0  0  0  0  0  0
   12.8410   -0.4940    7.6336 C   0  0  0  0  0  0  0  0  0  0  0  0
   11.4894   -0.1938    7.8835 C   0  0  0  0  0  0  0  0  0  0  0  0
   11.1996    0.7897    8.7867 C   0  0  0  0  0  0  0  0  0  0  0  0
   14.4180    1.9011    9.8468 O   0  0  0  0  0  0  0  0  0  0  0  0
   14.1479    2.8680   10.7373 C   0  0  0  0  0  0  0  0  0  0  0  0
   15.0893    3.5080   11.3452 O   0  0  0  0  0  0  0  0  0  0  0  0
   10.2267    2.9734   10.6898 Cl  0  0  0  0  0  0  0  0  0  0  0  0
 13 14  2  0  0  0
 13 15  2  0  0  0
 13 16  1  0  0  0
 13  1  1  0  0  0
  1  2  2  0  0  0
  1  6  1  0  0  0
  2  3  1  0  0  0
  3  4  2  0  0  0
  3 11  1  0  0  0
  4  5  1  0  0  0
  4  8  1  0  0  0
  5  6  2  0  0  0
  5  7  1  0  0  0
  8  9  1  0  0  0
  9 10  1  0  0  0
  9 17  1  0  0  0
 10 11  1  0  0  0
 17 18  1  0  0  0
 18 19  2  0  0  0
 18 27  1  0  0  0
 19 20  1  0  0  0
 19 29  1  0  0  0
 20 21  2  0  0  0
 20 25  1  0  0  0
 21 22  1  0  0  0
 21 26  1  0  0  0
 22 23  2  0  0  0
 23 24  1  0  0  0
 24 25  2  0  0  0
 26 27  1  0  0  0
 27 28  2  0  0  0
  7 12  1  0  0  0
M  END
> <minimizedAffinity>
-9.28285

$$$$
1638


 38 41  0  0  0  0  0  0  0  0999 V2000
   10.7567    5.1673   11.3658 C   0  0  0  0  0  0  0  0  0  0  0  0
   10.5488    6.1298   10.3868 C   0  0  0  0  0  0  0  0  0  0  0  0
    9.6897    7.1576   10.6240 N   0  0  0  0  0  0  0  0  0  0  0  0
    9.0205    7.2913   11.7769 C   0  0  0  0  0  0  0  0  0  0  0  0
    9.2168    6.3622   12.7287 N   0  0  0  0  0  0  0  0  0  0  0  0
   10.0556    5.3291   12.5415 C   0  0  0  0  0  0  0  0  0  0  0  0
   11.2544    5.9855    9.1785 N   0  0  0  0  0  0  0  0  0  0  0  0
   10.7947    5.9007    8.2485 H   0  0  0  0  0  0  0  0  0  0  0  0
   12.2947    5.9605    9.1999 H   0  0  0  0  0  0  0  0  0  0  0  0
    8.1239    8.3716   12.0255 N   0  0  0  0  0  0  0  0  0  0  0  0
    6.8966    8.5382   11.2858 C   0  0  0  0  0  0  0  0  0  0  0  0
    5.6660    8.6441   12.1431 C   0  0  0  0  0  0  0  0  0  0  0  0
    5.9818    9.1487   13.5415 C   0  0  0  0  0  0  0  0  0  0  0  0
    7.1530   10.1203   13.3165 C   0  0  0  0  0  0  0  0  0  0  0  0
    8.4113    9.3662   13.0432 C   0  0  0  0  0  0  0  0  0  0  0  0
    6.3698    8.1757   14.4462 N   0  0  0  0  0  0  0  0  0  0  0  0
    5.8386    6.8689   14.4141 C   0  0  0  0  0  0  0  0  0  0  0  0
    6.9442    5.9159   14.8992 C   0  0  0  0  0  0  0  0  0  0  0  0
    7.9012    6.7103   15.7460 C   0  0  0  0  0  0  0  0  0  0  0  0
    7.1988    7.7103   16.6287 C   0  0  0  0  0  0  0  0  0  0  0  0
    6.2994    8.6221   15.8107 C   0  0  0  0  0  0  0  0  0  0  0  0
    4.8457    9.9876   13.9861 C   0  0  0  0  0  0  0  0  0  0  0  0
    5.0029   11.2367   14.2022 O   0  0  0  0  0  0  0  0  0  0  0  0
    3.5551    9.4895   14.1957 N   0  0  0  0  0  0  0  0  0  0  0  0
    3.2260    9.3605   15.1915 H   0  0  0  0  0  0  0  0  0  0  0  0
    2.8613    9.2310   13.4661 H   0  0  0  0  0  0  0  0  0  0  0  0
   11.8546    3.8273   11.1079 S   0  0  0  0  0  0  0  0  0  0  0  0
   11.5123    2.6570   11.9712 O   0  0  0  0  0  0  0  0  0  0  0  0
   11.8051    3.4786    9.6419 O   0  0  0  0  0  0  0  0  0  0  0  0
   13.4914    4.3966   11.4677 C   0  0  0  0  0  0  0  0  0  0  0  0
   14.5607    3.5296   11.3718 C   0  0  0  0  0  0  0  0  0  0  0  0
   15.8180    4.0165   11.6611 C   0  0  0  0  0  0  0  0  0  0  0  0
   16.0192    5.3397   12.0402 C   0  0  0  0  0  0  0  0  0  0  0  0
   14.9259    6.1745   12.1240 C   0  0  0  0  0  0  0  0  0  0  0  0
   13.6551    5.7170   11.8410 C   0  0  0  0  0  0  0  0  0  0  0  0
   15.1629    7.8603   12.6047 Cl  0  0  0  0  0  0  0  0  0  0  0  0
   14.3245    2.2361   10.9971 O   0  0  0  0  0  0  0  0  0  0  0  0
   14.9193    1.5839    9.9102 C   0  0  0  0  0  0  0  0  0  0  0  0
 27 28  2  0  0  0
 27 29  2  0  0  0
 27  1  1  0  0  0
 27 30  1  0  0  0
  1  2  2  0  0  0
  1  6  1  0  0  0
  2  3  1  0  0  0
  2  7  1  0  0  0
  3  4  2  0  0  0
  4  5  1  0  0  0
  4 10  1  0  0  0
  5  6  2  0  0  0
 10 11  1  0  0  0
 10 15  1  0  0  0
 11 12  1  0  0  0
 12 13  1  0  0  0
 13 14  1  0  0  0
 13 16  1  0  0  0
 13 22  1  0  0  0
 14 15  1  0  0  0
 16 17  1  0  0  0
 16 21  1  0  0  0
 17 18  1  0  0  0
 18 19  1  0  0  0
 19 20  1  0  0  0
 20 21  1  0  0  0
 22 23  2  0  0  0
 22 24  1  0  0  0
 30 31  2  0  0  0
 30 35  1  0  0  0
 31 32  1  0  0  0
 31 37  1  0  0  0
 32 33  2  0  0  0
 33 34  1  0  0  0
 34 35  2  0  0  0
 34 36  1  0  0  0
 37 38  1  0  0  0
 24 25  1  0  0  0
 24 26  1  0  0  0
  7  8  1  0  0  0
  7  9  1  0  0  0
M  END
> <minimizedAffinity>
-9.19901

$$$$
1651


 23 26  0  0  0  0  0  0  0  0999 V2000
    5.5294    7.6279   18.6088 Cl  0  0  0  0  0  0  0  0  0  0  0  0
    6.5360    8.0898   17.2333 C   0  0  0  0  0  0  0  0  0  0  0  0
    6.2696    7.6440   15.9620 C   0  0  0  0  0  0  0  0  0  0  0  0
    7.0848    8.0253   14.8850 C   0  0  0  0  0  0  0  0  0  0  0  0
    8.1619    8.8463   15.0625 C   0  0  0  0  0  0  0  0  0  0  0  0
    8.4414    9.3074   16.3620 C   0  0  0  0  0  0  0  0  0  0  0  0
    7.6238    8.9147   17.3929 C   0  0  0  0  0  0  0  0  0  0  0  0
    8.8453    9.1048   13.8468 N   0  0  0  0  0  0  0  0  0  0  0  0
    8.1483    8.3960   12.8372 C   0  0  0  0  0  0  0  0  0  0  0  0
    8.4829    8.3984   11.6164 O   0  0  0  0  0  0  0  0  0  0  0  0
    7.0035    7.6820   13.4444 C   0  0  0  0  0  0  0  0  0  0  0  0
    7.2382    6.2044   13.2120 C   0  0  0  0  0  0  0  0  0  0  0  0
    7.0151    6.0002   11.7410 C   0  0  0  0  0  0  0  0  0  0  0  0
    7.8505    5.4605   10.9925 O   0  0  0  0  0  0  0  0  0  0  0  0
    5.7645    6.4676   11.2214 N   0  0  0  0  0  0  0  0  0  0  0  0
    5.1175    7.5702   11.8430 C   0  0  0  0  0  0  0  0  0  0  0  0
    3.9491    8.2206   11.5916 N   0  0  0  0  0  0  0  0  0  0  0  0
    3.8139    9.1767   12.4781 N   0  0  0  0  0  0  0  0  0  0  0  0
    4.8539    9.1987   13.3264 C   0  0  0  0  0  0  0  0  0  0  0  0
    5.7096    8.1638   12.9288 C   0  0  0  0  0  0  0  0  0  0  0  0
   10.0379    9.9432   13.6887 C   0  0  0  0  0  0  0  0  0  0  0  0
    5.3205    6.0117   10.3942 H   0  0  0  0  0  0  0  0  0  0  0  0
    3.3077    7.9562   10.8083 H   0  0  0  0  0  0  0  0  0  0  0  0
  1  2  1  0  0  0
  2  3  2  0  0  0
  2  7  1  0  0  0
  3  4  1  0  0  0
  4  5  2  0  0  0
  4 11  1  0  0  0
  5  6  1  0  0  0
  5  8  1  0  0  0
  6  7  2  0  0  0
  8  9  1  0  0  0
  8 21  1  0  0  0
  9 10  2  0  0  0
  9 11  1  0  0  0
 11 12  1  0  0  0
 11 20  1  0  0  0
 12 13  1  0  0  0
 13 14  2  0  0  0
 13 15  1  0  0  0
 15 16  1  0  0  0
 16 17  1  0  0  0
 16 20  2  0  0  0
 17 18  1  0  0  0
 18 19  2  0  0  0
 19 20  1  0  0  0
 15 22  1  0  0  0
 17 23  1  0  0  0
M  END
> <minimizedAffinity>
-7.46843

$$$$
1657


 33 36  0  0  0  0  0  0  0  0999 V2000
   13.0480   -0.0544    8.2420 Cl  0  0  0  0  0  0  0  0  0  0  0  0
   12.4013    1.1707    9.3410 C   0  0  0  0  0  0  0  0  0  0  0  0
   13.2558    1.9989   10.0361 C   0  0  0  0  0  0  0  0  0  0  0  0
   12.7560    2.9395   10.8770 C   0  0  0  0  0  0  0  0  0  0  0  0
   11.3715    3.0754   11.0471 C   0  0  0  0  0  0  0  0  0  0  0  0
   10.5385    2.2383   10.3442 C   0  0  0  0  0  0  0  0  0  0  0  0
   11.0332    1.2712    9.4789 C   0  0  0  0  0  0  0  0  0  0  0  0
   10.8396    4.0604   11.9269 N   0  0  0  0  0  0  0  0  0  0  0  0
   11.6202    5.2585   12.1964 C   0  0  0  0  0  0  0  0  0  0  0  0
   12.9570    4.8112   12.5105 N   0  0  0  0  0  0  0  0  0  0  0  0
   13.5766    3.8628   11.6571 C   0  0  0  0  0  0  0  0  0  0  0  0
   14.8244    3.7666   11.5277 O   0  0  0  0  0  0  0  0  0  0  0  0
   11.0214    5.9594   13.3694 C   0  0  0  0  0  0  0  0  0  0  0  0
    9.9078    6.9108   12.9961 C   0  0  0  0  0  0  0  0  0  0  0  0
    8.9547    6.3029   12.0912 N   0  0  0  0  0  0  0  0  0  0  0  0
    9.3153    5.8174   10.7742 C   0  0  0  0  0  0  0  0  0  0  0  0
    8.4131    5.1917   10.1717 O   0  0  0  0  0  0  0  0  0  0  0  0
   10.5801    5.9434   10.0315 C   0  0  0  0  0  0  0  0  0  0  0  0
   11.7444    6.1242   10.9588 C   0  0  0  0  0  0  0  0  0  0  0  0
    9.9029    3.8699   12.3398 H   0  0  0  0  0  0  0  0  0  0  0  0
   13.4924    5.1501   13.3338 H   0  0  0  0  0  0  0  0  0  0  0  0
    7.6097    6.1289   12.4620 C   0  0  0  0  0  0  0  0  0  0  0  0
    6.6086    7.1471   12.2386 C   0  0  0  0  0  0  0  0  0  0  0  0
    5.9515    6.9314   11.0982 O   0  0  0  0  0  0  0  0  0  0  0  0
    6.2497    8.2442   12.9888 N   0  0  0  0  0  0  0  0  0  0  0  0
    5.1627    9.1228   12.4846 C   0  0  0  0  0  0  0  0  0  0  0  0
    4.2835    9.3728   13.7201 C   0  0  0  0  0  0  0  0  0  0  0  0
    4.4709    8.3615   14.7056 N   0  0  0  0  0  0  0  0  0  0  0  0
    5.7501    8.3462   15.3503 C   0  0  0  0  0  0  0  0  0  0  0  0
    6.7850    8.6469   14.2293 C   0  0  0  0  0  0  0  0  0  0  0  0
    3.3654    8.1115   15.5666 C   0  0  0  0  0  0  0  0  0  0  0  0
    3.4496    6.7884   16.2998 C   0  0  0  0  0  0  0  0  0  0  0  0
    3.1164    9.2117   16.5621 C   0  0  0  0  0  0  0  0  0  0  0  0
  1  2  1  0  0  0
  2  3  2  0  0  0
  2  7  1  0  0  0
  3  4  1  0  0  0
  4  5  2  0  0  0
  4 11  1  0  0  0
  5  6  1  0  0  0
  5  8  1  0  0  0
  6  7  2  0  0  0
  8  9  1  0  0  0
  9 10  1  0  0  0
  9 13  1  0  0  0
  9 19  1  0  0  0
 10 11  1  0  0  0
 11 12  2  0  0  0
 13 14  1  0  0  0
 14 15  1  0  0  0
 15 16  1  0  0  0
 15 22  1  0  0  0
 16 17  2  0  0  0
 16 18  1  0  0  0
 18 19  1  0  0  0
 22 23  1  0  0  0
 23 24  2  0  0  0
 23 25  1  0  0  0
 25 26  1  0  0  0
 25 30  1  0  0  0
 26 27  1  0  0  0
 27 28  1  0  0  0
 28 29  1  0  0  0
 28 31  1  0  0  0
 29 30  1  0  0  0
 31 32  1  0  0  0
 31 33  1  0  0  0
  8 20  1  0  0  0
 10 21  1  0  0  0
M  END
> <minimizedAffinity>
-10.09587

$$$$
1660


 31 34  0  0  0  0  0  0  0  0999 V2000
   12.0351    1.7493   10.0027 N   0  0  0  0  0  0  0  0  0  0  0  0
   13.2998    1.7569   10.3270 N   0  0  0  0  0  0  0  0  0  0  0  0
   13.6482    2.8486   11.0163 C   0  0  0  0  0  0  0  0  0  0  0  0
   12.5009    3.6188   11.1497 C   0  0  0  0  0  0  0  0  0  0  0  0
   11.5090    2.8925   10.4984 C   0  0  0  0  0  0  0  0  0  0  0  0
   10.2898    3.4380   10.4837 N   0  0  0  0  0  0  0  0  0  0  0  0
   10.0376    4.6284   11.0710 C   0  0  0  0  0  0  0  0  0  0  0  0
   10.9732    5.3515   11.7062 N   0  0  0  0  0  0  0  0  0  0  0  0
   12.2267    4.8296   11.7415 C   0  0  0  0  0  0  0  0  0  0  0  0
   13.1362    5.4717   12.3240 O   0  0  0  0  0  0  0  0  0  0  0  0
    8.7473   -2.3289    7.1278 Cl  0  0  0  0  0  0  0  0  0  0  0  0
    9.7538   -1.1715    7.9371 C   0  0  0  0  0  0  0  0  0  0  0  0
   11.0902   -0.9887    7.6633 C   0  0  0  0  0  0  0  0  0  0  0  0
   11.8739   -0.0578    8.3168 C   0  0  0  0  0  0  0  0  0  0  0  0
   11.3347    0.7417    9.2909 C   0  0  0  0  0  0  0  0  0  0  0  0
    9.9898    0.5476    9.5578 C   0  0  0  0  0  0  0  0  0  0  0  0
    9.1914   -0.3748    8.9173 C   0  0  0  0  0  0  0  0  0  0  0  0
   10.7016    6.6367   12.3575 C   0  0  0  0  0  0  0  0  0  0  0  0
    9.4347    7.2331   11.8985 C   0  0  0  0  0  0  0  0  0  0  0  0
    9.4957    7.7967   10.7492 O   0  0  0  0  0  0  0  0  0  0  0  0
    8.2162    7.2399   12.5730 N   0  0  0  0  0  0  0  0  0  0  0  0
    7.0439    7.9330   12.0161 C   0  0  0  0  0  0  0  0  0  0  0  0
    6.7699    9.0669   13.0131 C   0  0  0  0  0  0  0  0  0  0  0  0
    6.6787    8.5456   14.3514 N   0  0  0  0  0  0  0  0  0  0  0  0
    6.7813    7.1078   14.5177 C   0  0  0  0  0  0  0  0  0  0  0  0
    8.0033    6.5565   13.8294 C   0  0  0  0  0  0  0  0  0  0  0  0
    6.5208    9.3994   15.4649 C   0  0  0  0  0  0  0  0  0  0  0  0
    6.4959   10.6664   15.2411 O   0  0  0  0  0  0  0  0  0  0  0  0
    6.3872    9.0086   16.7781 O   0  0  0  0  0  0  0  0  0  0  0  0
    5.2210    9.3725   17.5416 C   0  0  0  0  0  0  0  0  0  0  0  0
    4.0637    8.5931   16.9432 C   0  0  0  0  0  0  0  0  0  0  0  0
 11 12  1  0  0  0
 12 13  2  0  0  0
 12 17  1  0  0  0
 13 14  1  0  0  0
 14 15  2  0  0  0
 15 16  1  0  0  0
 15  1  1  0  0  0
 16 17  2  0  0  0
  1  2  1  0  0  0
  1  5  1  0  0  0
  2  3  2  0  0  0
  3  4  1  0  0  0
  4  5  2  0  0  0
  4  9  1  0  0  0
  5  6  1  0  0  0
  6  7  2  0  0  0
  7  8  1  0  0  0
  8  9  1  0  0  0
  8 18  1  0  0  0
  9 10  2  0  0  0
 18 19  1  0  0  0
 19 20  2  0  0  0
 19 21  1  0  0  0
 21 22  1  0  0  0
 21 26  1  0  0  0
 22 23  1  0  0  0
 23 24  1  0  0  0
 24 25  1  0  0  0
 24 27  1  0  0  0
 25 26  1  0  0  0
 27 28  2  0  0  0
 27 29  1  0  0  0
 29 30  1  0  0  0
 30 31  1  0  0  0
M  END
> <minimizedAffinity>
-9.26293

$$$$
1666


 30 34  0  0  0  0  0  0  0  0999 V2000
    4.7984    8.5400   13.6647 N   0  0  0  0  0  0  0  0  0  0  0  0
    5.0247    8.7549   12.2598 C   0  0  0  0  0  0  0  0  0  0  0  0
    6.3317    8.1466   11.8058 C   0  0  0  0  0  0  0  0  0  0  0  0
    7.4465    8.6557   12.6435 N   0  0  0  0  0  0  0  0  0  0  0  0
    7.2211    8.1860   14.0030 C   0  0  0  0  0  0  0  0  0  0  0  0
    5.8025    7.6971   14.2380 C   0  0  0  0  0  0  0  0  0  0  0  0
    4.2837    9.8652   14.5584 S   0  0  0  0  0  0  0  0  0  0  0  0
    4.9874   11.1006   14.0113 O   0  0  0  0  0  0  0  0  0  0  0  0
    2.8115   10.1066   14.2222 O   0  0  0  0  0  0  0  0  0  0  0  0
    4.4058    9.7628   16.2683 C   0  0  0  0  0  0  0  0  0  0  0  0
    3.3801    9.2392   17.0171 C   0  0  0  0  0  0  0  0  0  0  0  0
    3.5182    9.1631   18.3915 C   0  0  0  0  0  0  0  0  0  0  0  0
    4.6549    9.5967   19.0491 C   0  0  0  0  0  0  0  0  0  0  0  0
    5.6822   10.1213   18.2932 C   0  0  0  0  0  0  0  0  0  0  0  0
    5.5425   10.1973   16.9119 C   0  0  0  0  0  0  0  0  0  0  0  0
    4.8461    9.4946   20.9433 Br  0  0  0  0  0  0  0  0  0  0  0  0
    8.6147    8.0020   12.0937 C   0  0  0  0  0  0  0  0  0  0  0  0
    8.4544    6.6438   11.5569 C   0  0  0  0  0  0  0  0  0  0  0  0
    9.5977    5.8166   11.3693 N   0  0  0  0  0  0  0  0  0  0  0  0
   10.2863    5.4381   10.1829 C   0  0  0  0  0  0  0  0  0  0  0  0
    9.7883    5.3923    9.0487 O   0  0  0  0  0  0  0  0  0  0  0  0
   11.6900    5.1092   10.5293 C   0  0  0  0  0  0  0  0  0  0  0  0
   11.5069    4.5997   11.9773 C   0  0  0  0  0  0  0  0  0  0  0  0
   11.4820    3.1209   11.8789 C   0  0  0  0  0  0  0  0  0  0  0  0
   11.0401    2.9004   10.4224 C   0  0  0  0  0  0  0  0  0  0  0  0
   12.1065    3.8525    9.8528 C   0  0  0  0  0  0  0  0  0  0  0  0
   13.3029    3.3365   10.5987 C   0  0  0  0  0  0  0  0  0  0  0  0
   12.9203    2.6833   11.6960 C   0  0  0  0  0  0  0  0  0  0  0  0
   10.3018    5.2360   12.4896 C   0  0  0  0  0  0  0  0  0  0  0  0
    9.9640    5.2570   13.6996 O   0  0  0  0  0  0  0  0  0  0  0  0
  7  8  2  0  0  0
  7  9  2  0  0  0
  7  1  1  0  0  0
  7 10  1  0  0  0
  1  2  1  0  0  0
  1  6  1  0  0  0
  2  3  1  0  0  0
  3  4  1  0  0  0
  4  5  1  0  0  0
  4 17  1  0  0  0
  5  6  1  0  0  0
 17 18  1  0  0  0
 18 19  1  0  0  0
 19 20  1  0  0  0
 19 29  1  0  0  0
 20 21  2  0  0  0
 20 22  1  0  0  0
 22 23  1  0  0  0
 22 26  1  0  0  0
 23 24  1  0  0  0
 23 29  1  0  0  0
 24 25  1  0  0  0
 24 28  1  0  0  0
 25 26  1  0  0  0
 26 27  1  0  0  0
 27 28  2  0  0  0
 29 30  2  0  0  0
 10 11  2  0  0  0
 10 15  1  0  0  0
 11 12  1  0  0  0
 12 13  2  0  0  0
 13 14  1  0  0  0
 13 16  1  0  0  0
 14 15  2  0  0  0
M  END
> <minimizedAffinity>
-9.16937

$$$$
1673


 35 38  0  0  0  0  0  0  0  0999 V2000
   11.7528    5.4583   10.6546 C   0  0  0  0  0  0  0  0  0  0  0  0
   12.2043    6.4801   11.6634 C   0  0  0  0  0  0  0  0  0  0  0  0
   11.0557    7.0285   12.2334 N   0  0  0  0  0  0  0  0  0  0  0  0
   10.1607    7.1473   11.0569 C   0  0  0  0  0  0  0  0  0  0  0  0
    9.2908    8.0358   10.8507 O   0  0  0  0  0  0  0  0  0  0  0  0
   10.4752    6.0331   10.1772 C   0  0  0  0  0  0  0  0  0  0  0  0
    9.7755    5.6494    9.1973 O   0  0  0  0  0  0  0  0  0  0  0  0
   13.4470    6.1953   12.3355 C   0  0  0  0  0  0  0  0  0  0  0  0
   14.3295    5.2205   11.9916 C   0  0  0  0  0  0  0  0  0  0  0  0
   15.5110    5.0397   12.6937 C   0  0  0  0  0  0  0  0  0  0  0  0
   15.7959    5.8804   13.7804 C   0  0  0  0  0  0  0  0  0  0  0  0
   14.9081    6.8592   14.1245 C   0  0  0  0  0  0  0  0  0  0  0  0
   13.7500    7.0364   13.4338 C   0  0  0  0  0  0  0  0  0  0  0  0
   16.9576    5.7427   14.5137 O   0  0  0  0  0  0  0  0  0  0  0  0
   16.4133    4.0771   12.3730 O   0  0  0  0  0  0  0  0  0  0  0  0
   16.9492    3.8975   11.1023 C   0  0  0  0  0  0  0  0  0  0  0  0
   16.4479    2.6489   10.3988 C   0  0  0  0  0  0  0  0  0  0  0  0
   11.5609    4.1094   11.1870 C   0  0  0  0  0  0  0  0  0  0  0  0
   11.2505    3.9571   12.4192 O   0  0  0  0  0  0  0  0  0  0  0  0
   11.9468   -1.1134    7.8945 Br  0  0  0  0  0  0  0  0  0  0  0  0
   11.8235    0.5087    8.9288 C   0  0  0  0  0  0  0  0  0  0  0  0
   12.9461    1.1449    9.3917 C   0  0  0  0  0  0  0  0  0  0  0  0
   12.9132    2.3159   10.1417 C   0  0  0  0  0  0  0  0  0  0  0  0
   11.6874    2.8688   10.4355 C   0  0  0  0  0  0  0  0  0  0  0  0
   10.5595    2.2162    9.9617 C   0  0  0  0  0  0  0  0  0  0  0  0
   10.5929    1.0583    9.2208 C   0  0  0  0  0  0  0  0  0  0  0  0
   10.5603    7.5820   13.4548 C   0  0  0  0  0  0  0  0  0  0  0  0
    9.5057    6.8226   14.1665 C   0  0  0  0  0  0  0  0  0  0  0  0
    8.4852    7.4519   14.8909 N   0  0  0  0  0  0  0  0  0  0  0  0
    7.5814    8.2382   14.0411 C   0  0  0  0  0  0  0  0  0  0  0  0
    6.8330    7.3982   13.0613 C   0  0  0  0  0  0  0  0  0  0  0  0
    7.0449    6.0658   13.3329 O   0  0  0  0  0  0  0  0  0  0  0  0
    6.6815    5.8388   14.6707 C   0  0  0  0  0  0  0  0  0  0  0  0
    7.6961    6.4420   15.6189 C   0  0  0  0  0  0  0  0  0  0  0  0
    8.8395    8.0896   15.5994 H   0  0  0  0  0  0  0  0  0  0  0  0
 20 21  1  0  0  0
 21 22  2  0  0  0
 21 26  1  0  0  0
 22 23  1  0  0  0
 23 24  2  0  0  0
 24 25  1  0  0  0
 24 18  1  0  0  0
 25 26  2  0  0  0
 18 19  2  0  0  0
 18  1  1  0  0  0
  1  2  1  0  0  0
  1  6  1  0  0  0
  2  3  1  0  0  0
  2  8  1  0  0  0
  3  4  1  0  0  0
  3 27  1  0  0  0
  4  5  2  0  0  0
  4  6  1  0  0  0
  6  7  2  0  0  0
 27 28  1  0  0  0
 28 29  1  0  0  0
 29 30  1  0  0  0
 29 34  1  0  0  0
 30 31  1  0  0  0
 31 32  1  0  0  0
 32 33  1  0  0  0
 33 34  1  0  0  0
  8  9  2  0  0  0
  8 13  1  0  0  0
  9 10  1  0  0  0
 10 11  2  0  0  0
 10 15  1  0  0  0
 11 12  1  0  0  0
 11 14  1  0  0  0
 12 13  2  0  0  0
 15 16  1  0  0  0
 16 17  1  0  0  0
 29 35  1  0  0  0
M  CHG 1  14  -1
M  CHG 1  29   1
M  END
> <minimizedAffinity>
-8.54369

$$$$
1676


 25 28  0  0  0  0  0  0  0  0999 V2000
   11.2638    4.3232   10.2711 C   0  0  0  0  0  0  0  0  0  0  0  0
   11.6753    5.1973    9.4844 O   0  0  0  0  0  0  0  0  0  0  0  0
   10.5159    4.7234   11.4072 N   0  0  0  0  0  0  0  0  0  0  0  0
   10.1689    4.0091   12.0678 H   0  0  0  0  0  0  0  0  0  0  0  0
    9.5220   -0.5159    8.8962 Br  0  0  0  0  0  0  0  0  0  0  0  0
   10.8913    0.7287    9.3768 C   0  0  0  0  0  0  0  0  0  0  0  0
   12.2062    0.3247    9.4644 C   0  0  0  0  0  0  0  0  0  0  0  0
   13.2065    1.2042    9.8082 C   0  0  0  0  0  0  0  0  0  0  0  0
   14.5473    1.0937    9.9675 N   0  0  0  0  0  0  0  0  0  0  0  0
   15.0049    2.2842   10.3096 N   0  0  0  0  0  0  0  0  0  0  0  0
   14.0449    3.1636   10.3832 N   0  0  0  0  0  0  0  0  0  0  0  0
   12.8907    2.5144   10.0720 C   0  0  0  0  0  0  0  0  0  0  0  0
   11.5720    2.9260    9.9867 C   0  0  0  0  0  0  0  0  0  0  0  0
   10.5682    2.0343    9.6387 C   0  0  0  0  0  0  0  0  0  0  0  0
   14.0500    4.1767   10.6208 H   0  0  0  0  0  0  0  0  0  0  0  0
   10.2269    6.1130   11.6633 C   0  0  0  0  0  0  0  0  0  0  0  0
    8.7350    6.3072   11.6691 C   0  0  0  0  0  0  0  0  0  0  0  0
    8.0467    7.2686   12.3052 N   0  0  0  0  0  0  0  0  0  0  0  0
    6.7215    7.1317   12.0850 C   0  0  0  0  0  0  0  0  0  0  0  0
    6.5888    6.0602   11.2937 N   0  0  0  0  0  0  0  0  0  0  0  0
    7.8073    5.5585   11.0408 N   0  0  0  0  0  0  0  0  0  0  0  0
    5.8366    8.1371   12.7349 C   0  0  0  0  0  0  0  0  0  0  0  0
    6.3939    9.4950   12.2840 C   0  0  0  0  0  0  0  0  0  0  0  0
    7.8503    9.6444   12.5796 C   0  0  0  0  0  0  0  0  0  0  0  0
    8.4476    8.3745   13.1461 C   0  0  0  0  0  0  0  0  0  0  0  0
  5  6  1  0  0  0
  6  7  2  0  0  0
  6 14  1  0  0  0
  7  8  1  0  0  0
  8  9  1  0  0  0
  8 12  2  0  0  0
  9 10  2  0  0  0
 10 11  1  0  0  0
 11 12  1  0  0  0
 12 13  1  0  0  0
 13 14  2  0  0  0
 13  1  1  0  0  0
  1  2  2  0  0  0
  1  3  1  0  0  0
  3 16  1  0  0  0
 16 17  1  0  0  0
 17 18  1  0  0  0
 17 21  2  0  0  0
 18 19  1  0  0  0
 18 25  1  0  0  0
 19 20  2  0  0  0
 19 22  1  0  0  0
 20 21  1  0  0  0
 22 23  1  0  0  0
 23 24  1  0  0  0
 24 25  1  0  0  0
 11 15  1  0  0  0
  3  4  1  0  0  0
M  END
> <minimizedAffinity>
-9.04885

$$$$
1687


 27 30  0  0  0  0  0  0  0  0999 V2000
   12.1510    2.4974   10.9700 N   0  0  0  0  0  0  0  0  0  0  0  0
   13.3545    2.4716   10.3543 C   0  0  0  0  0  0  0  0  0  0  0  0
   13.6128    1.6442    9.2837 C   0  0  0  0  0  0  0  0  0  0  0  0
   12.5633    0.7628    8.7872 C   0  0  0  0  0  0  0  0  0  0  0  0
   13.0953    0.0883    7.7579 N   0  0  0  0  0  0  0  0  0  0  0  0
   14.3698    0.4623    7.5645 N   0  0  0  0  0  0  0  0  0  0  0  0
   14.6978    1.3961    8.4710 C   0  0  0  0  0  0  0  0  0  0  0  0
   15.8237    1.9388    8.5437 O   0  0  0  0  0  0  0  0  0  0  0  0
   11.3438    0.8147    9.4413 C   0  0  0  0  0  0  0  0  0  0  0  0
   11.2037    1.6770   10.4933 C   0  0  0  0  0  0  0  0  0  0  0  0
   14.9674    0.0508    6.8036 H   0  0  0  0  0  0  0  0  0  0  0  0
   10.2692   -0.0531    8.9726 C   0  0  0  0  0  0  0  0  0  0  0  0
    9.0887    0.1891    9.3304 O   0  0  0  0  0  0  0  0  0  0  0  0
   10.5128   -1.1242    8.1546 O   0  0  0  0  0  0  0  0  0  0  0  0
    9.4566   -1.8661    7.5662 C   0  0  0  0  0  0  0  0  0  0  0  0
   11.9120    3.3864   12.1015 C   0  0  0  0  0  0  0  0  0  0  0  0
   12.0329    4.8115   11.6076 C   0  0  0  0  0  0  0  0  0  0  0  0
    8.4005   10.5098   13.4929 Cl  0  0  0  0  0  0  0  0  0  0  0  0
    9.1310    9.0097   12.9227 C   0  0  0  0  0  0  0  0  0  0  0  0
    8.4218    8.0827   12.1884 C   0  0  0  0  0  0  0  0  0  0  0  0
    9.0453    6.9250   11.7680 C   0  0  0  0  0  0  0  0  0  0  0  0
    8.6251    5.8488   11.0488 N   0  0  0  0  0  0  0  0  0  0  0  0
    9.6471    4.9850   10.9176 C   0  0  0  0  0  0  0  0  0  0  0  0
   10.7445    5.4672   11.5383 N   0  0  0  0  0  0  0  0  0  0  0  0
   10.3678    6.6508   12.0540 C   0  0  0  0  0  0  0  0  0  0  0  0
   11.0840    7.5695   12.7852 C   0  0  0  0  0  0  0  0  0  0  0  0
   10.4537    8.7243   13.2024 C   0  0  0  0  0  0  0  0  0  0  0  0
 18 19  1  0  0  0
 19 20  2  0  0  0
 19 27  1  0  0  0
 20 21  1  0  0  0
 21 22  1  0  0  0
 21 25  2  0  0  0
 22 23  2  0  0  0
 23 24  1  0  0  0
 24 25  1  0  0  0
 24 17  1  0  0  0
 25 26  1  0  0  0
 26 27  2  0  0  0
 17 16  1  0  0  0
 16  1  1  0  0  0
  1  2  1  0  0  0
  1 10  1  0  0  0
  2  3  2  0  0  0
  3  4  1  0  0  0
  3  7  1  0  0  0
  4  5  2  0  0  0
  4  9  1  0  0  0
  5  6  1  0  0  0
  6  7  1  0  0  0
  7  8  2  0  0  0
  9 10  2  0  0  0
  9 12  1  0  0  0
 12 13  2  0  0  0
 12 14  1  0  0  0
 14 15  1  0  0  0
  6 11  1  0  0  0
M  END
> <minimizedAffinity>
-8.69524

$$$$
1689


 32 35  0  0  0  0  0  0  0  0999 V2000
   17.0307    5.3613   12.1624 C   0  0  0  0  0  0  0  0  0  0  0  0
   17.5836    4.8305   13.1567 O   0  0  0  0  0  0  0  0  0  0  0  0
   16.3636    6.5913   12.3426 N   0  0  0  0  0  0  0  0  0  0  0  0
   15.6394    7.4206   11.4016 C   0  0  0  0  0  0  0  0  0  0  0  0
   14.4897    7.8896   12.1754 C   0  0  0  0  0  0  0  0  0  0  0  0
   14.7559    7.5371   13.6406 C   0  0  0  0  0  0  0  0  0  0  0  0
   16.2805    7.3030   13.5912 C   0  0  0  0  0  0  0  0  0  0  0  0
   14.4446    8.5560   14.5058 O   0  0  0  0  0  0  0  0  0  0  0  0
   15.2504    9.1192   14.6230 H   0  0  0  0  0  0  0  0  0  0  0  0
   13.1663    7.5748   11.8008 N   0  0  0  0  0  0  0  0  0  0  0  0
   12.9597    6.3919   11.1611 C   0  0  0  0  0  0  0  0  0  0  0  0
   11.7054    5.9927   10.7578 C   0  0  0  0  0  0  0  0  0  0  0  0
   10.6132    6.7932   10.9971 C   0  0  0  0  0  0  0  0  0  0  0  0
    9.4473    6.4500   10.6366 O   0  0  0  0  0  0  0  0  0  0  0  0
   10.8168    7.9597   11.6284 N   0  0  0  0  0  0  0  0  0  0  0  0
   12.0562    8.2936   11.9959 C   0  0  0  0  0  0  0  0  0  0  0  0
   12.1866    9.3879   12.5812 O   0  0  0  0  0  0  0  0  0  0  0  0
   11.4938    4.6851   10.0546 C   0  0  0  0  0  0  0  0  0  0  0  0
    9.9870    8.6007   11.8244 H   0  0  0  0  0  0  0  0  0  0  0  0
   17.1101    4.6645   10.8617 C   0  0  0  0  0  0  0  0  0  0  0  0
   17.1447    3.1802   11.0642 C   0  0  0  0  0  0  0  0  0  0  0  0
   10.5155    0.0794    8.7830 Cl  0  0  0  0  0  0  0  0  0  0  0  0
   12.1845    0.5960    8.7980 C   0  0  0  0  0  0  0  0  0  0  0  0
   12.6909    1.2775    9.8967 C   0  0  0  0  0  0  0  0  0  0  0  0
   14.0118    1.6919    9.9256 C   0  0  0  0  0  0  0  0  0  0  0  0
   14.7758    2.3506   10.8108 N   0  0  0  0  0  0  0  0  0  0  0  0
   16.0445    2.5118   10.3438 C   0  0  0  0  0  0  0  0  0  0  0  0
   16.0334    1.9196    9.1199 N   0  0  0  0  0  0  0  0  0  0  0  0
   14.8208    1.4205    8.8487 C   0  0  0  0  0  0  0  0  0  0  0  0
   14.3124    0.7437    7.7607 C   0  0  0  0  0  0  0  0  0  0  0  0
   12.9917    0.3211    7.7156 C   0  0  0  0  0  0  0  0  0  0  0  0
   14.3901    2.6769   11.7314 H   0  0  0  0  0  0  0  0  0  0  0  0
 22 23  1  0  0  0
 23 24  2  0  0  0
 23 31  1  0  0  0
 24 25  1  0  0  0
 25 26  1  0  0  0
 25 29  2  0  0  0
 26 27  1  0  0  0
 27 28  2  0  0  0
 27 21  1  0  0  0
 28 29  1  0  0  0
 29 30  1  0  0  0
 30 31  2  0  0  0
 21 20  1  0  0  0
 20  1  1  0  0  0
  1  2  2  0  0  0
  1  3  1  0  0  0
  3  4  1  0  0  0
  3  7  1  0  0  0
  4  5  1  0  0  0
  5  6  1  0  0  0
  5 10  1  0  0  0
  6  7  1  0  0  0
  6  8  1  0  0  0
 10 11  1  0  0  0
 10 16  1  0  0  0
 11 12  2  0  0  0
 12 13  1  0  0  0
 12 18  1  0  0  0
 13 14  2  0  0  0
 13 15  1  0  0  0
 15 16  1  0  0  0
 16 17  2  0  0  0
 26 32  1  0  0  0
  8  9  1  0  0  0
 15 19  1  0  0  0
M  END
> <minimizedAffinity>
-8.89437

$$$$
1690


 34 37  0  0  0  0  0  0  0  0999 V2000
   11.3035    5.3248   11.4691 C   0  0  0  0  0  0  0  0  0  0  0  0
   11.8087    5.6743   10.3717 O   0  0  0  0  0  0  0  0  0  0  0  0
   10.7904    6.2948   12.3810 N   0  0  0  0  0  0  0  0  0  0  0  0
   10.1974    5.9675   13.6584 C   0  0  0  0  0  0  0  0  0  0  0  0
    9.0187    6.9096   13.9585 C   0  0  0  0  0  0  0  0  0  0  0  0
    8.4977    7.3645   12.6385 C   0  0  0  0  0  0  0  0  0  0  0  0
    9.4831    8.3296   12.0201 C   0  0  0  0  0  0  0  0  0  0  0  0
   10.8586    7.6952   12.0218 C   0  0  0  0  0  0  0  0  0  0  0  0
    8.0912    6.1234   14.6581 O   0  0  0  0  0  0  0  0  0  0  0  0
    9.5426    7.9911   14.8495 C   0  0  0  0  0  0  0  0  0  0  0  0
    8.2858    6.1930   15.6470 H   0  0  0  0  0  0  0  0  0  0  0  0
    7.1582    7.8363   12.6234 N   0  0  0  0  0  0  0  0  0  0  0  0
    6.7229    8.8657   13.3648 C   0  0  0  0  0  0  0  0  0  0  0  0
    5.4039    9.2997   13.3241 C   0  0  0  0  0  0  0  0  0  0  0  0
    4.5136    8.6547   12.4974 C   0  0  0  0  0  0  0  0  0  0  0  0
    3.3063    9.0481   12.4562 O   0  0  0  0  0  0  0  0  0  0  0  0
    4.9512    7.6257   11.7580 N   0  0  0  0  0  0  0  0  0  0  0  0
    6.2379    7.2444   11.8326 C   0  0  0  0  0  0  0  0  0  0  0  0
    6.6518    6.2603   11.1241 O   0  0  0  0  0  0  0  0  0  0  0  0
    4.9752   10.4607   14.1779 C   0  0  0  0  0  0  0  0  0  0  0  0
    4.2872    7.1296   11.1279 H   0  0  0  0  0  0  0  0  0  0  0  0
   11.2303    3.9022   11.8443 C   0  0  0  0  0  0  0  0  0  0  0  0
   12.4679    3.1950   11.3725 C   0  0  0  0  0  0  0  0  0  0  0  0
    8.7986   -2.1749    7.2965 Cl  0  0  0  0  0  0  0  0  0  0  0  0
   10.0459   -1.1079    7.8994 C   0  0  0  0  0  0  0  0  0  0  0  0
    9.8158   -0.2005    8.9189 C   0  0  0  0  0  0  0  0  0  0  0  0
   10.8028    0.6342    9.3864 C   0  0  0  0  0  0  0  0  0  0  0  0
   10.8374    1.5762   10.3378 N   0  0  0  0  0  0  0  0  0  0  0  0
   12.0782    2.1306   10.4170 C   0  0  0  0  0  0  0  0  0  0  0  0
   12.7904    1.5028    9.4934 N   0  0  0  0  0  0  0  0  0  0  0  0
   12.0632    0.5897    8.8433 C   0  0  0  0  0  0  0  0  0  0  0  0
   12.3172   -0.3045    7.8272 C   0  0  0  0  0  0  0  0  0  0  0  0
   11.3180   -1.1477    7.3571 C   0  0  0  0  0  0  0  0  0  0  0  0
   10.0347    1.8727   10.9579 H   0  0  0  0  0  0  0  0  0  0  0  0
 24 25  1  0  0  0
 25 26  2  0  0  0
 25 33  1  0  0  0
 26 27  1  0  0  0
 27 28  1  0  0  0
 27 31  2  0  0  0
 28 29  1  0  0  0
 29 30  2  0  0  0
 29 23  1  0  0  0
 30 31  1  0  0  0
 31 32  1  0  0  0
 32 33  2  0  0  0
 23 22  1  0  0  0
 22  1  1  0  0  0
  1  2  2  0  0  0
  1  3  1  0  0  0
  3  4  1  0  0  0
  3  8  1  0  0  0
  4  5  1  0  0  0
  5  6  1  0  0  0
  5  9  1  0  0  0
  5 10  1  0  0  0
  6  7  1  0  0  0
  6 12  1  0  0  0
  7  8  1  0  0  0
 12 13  1  0  0  0
 12 18  1  0  0  0
 13 14  2  0  0  0
 14 15  1  0  0  0
 14 20  1  0  0  0
 15 16  2  0  0  0
 15 17  1  0  0  0
 17 18  1  0  0  0
 18 19  2  0  0  0
 28 34  1  0  0  0
 17 21  1  0  0  0
  9 11  1  0  0  0
M  END
> <minimizedAffinity>
-10.70776

$$$$
1691


 35 39  0  0  0  0  0  0  0  0999 V2000
   10.8117    6.0245   12.3735 C   0  0  0  0  0  0  0  0  0  0  0  0
   11.5836    6.8594   12.8828 O   0  0  0  0  0  0  0  0  0  0  0  0
    9.5046    6.3961   12.0197 N   0  0  0  0  0  0  0  0  0  0  0  0
    8.8039    7.6354   12.1371 C   0  0  0  0  0  0  0  0  0  0  0  0
    7.3823    7.2329   12.5979 C   0  0  0  0  0  0  0  0  0  0  0  0
    7.2368    5.9449   11.8677 C   0  0  0  0  0  0  0  0  0  0  0  0
    8.5715    5.4820   11.3900 C   0  0  0  0  0  0  0  0  0  0  0  0
    6.4134    6.0360   10.7461 O   0  0  0  0  0  0  0  0  0  0  0  0
    6.1650    6.9825   10.5484 H   0  0  0  0  0  0  0  0  0  0  0  0
    7.3820    7.1094   14.0279 N   0  0  0  0  0  0  0  0  0  0  0  0
    6.9378    7.9944   14.9357 C   0  0  0  0  0  0  0  0  0  0  0  0
    7.1330    7.4545   16.2234 C   0  0  0  0  0  0  0  0  0  0  0  0
    7.6964    6.2498   16.0382 N   0  0  0  0  0  0  0  0  0  0  0  0
    7.8518    6.0282   14.7353 C   0  0  0  0  0  0  0  0  0  0  0  0
    6.7667    8.1509   17.3531 C   0  0  0  0  0  0  0  0  0  0  0  0
    6.9538    7.6419   18.4906 O   0  0  0  0  0  0  0  0  0  0  0  0
    6.2161    9.3590   17.1868 N   0  0  0  0  0  0  0  0  0  0  0  0
    6.0347    9.8623   15.9651 C   0  0  0  0  0  0  0  0  0  0  0  0
    5.5158   11.0014   15.8259 O   0  0  0  0  0  0  0  0  0  0  0  0
    6.3802    9.2151   14.8103 N   0  0  0  0  0  0  0  0  0  0  0  0
    6.1577    9.8162   13.5336 C   0  0  0  0  0  0  0  0  0  0  0  0
    5.8152   10.1242   18.3697 C   0  0  0  0  0  0  0  0  0  0  0  0
   11.2830    4.6493   12.1481 C   0  0  0  0  0  0  0  0  0  0  0  0
   12.1892    4.5919   10.9387 C   0  0  0  0  0  0  0  0  0  0  0  0
    9.3645   -1.8951    7.9249 Cl  0  0  0  0  0  0  0  0  0  0  0  0
   10.4548   -0.5919    8.3825 C   0  0  0  0  0  0  0  0  0  0  0  0
   10.0266    0.4783    9.1325 C   0  0  0  0  0  0  0  0  0  0  0  0
   10.9228    1.4918    9.4744 C   0  0  0  0  0  0  0  0  0  0  0  0
   10.8039    2.6298   10.1783 N   0  0  0  0  0  0  0  0  0  0  0  0
   11.9761    3.2863   10.2319 C   0  0  0  0  0  0  0  0  0  0  0  0
   12.8436    2.5411    9.5466 N   0  0  0  0  0  0  0  0  0  0  0  0
   12.2385    1.4344    9.0679 C   0  0  0  0  0  0  0  0  0  0  0  0
   12.6666    0.3619    8.3149 C   0  0  0  0  0  0  0  0  0  0  0  0
   11.7603   -0.6445    7.9803 C   0  0  0  0  0  0  0  0  0  0  0  0
    9.8948    2.9380   10.6167 H   0  0  0  0  0  0  0  0  0  0  0  0
 25 26  1  0  0  0
 26 27  2  0  0  0
 26 34  1  0  0  0
 27 28  1  0  0  0
 28 29  1  0  0  0
 28 32  2  0  0  0
 29 30  1  0  0  0
 30 31  2  0  0  0
 30 24  1  0  0  0
 31 32  1  0  0  0
 32 33  1  0  0  0
 33 34  2  0  0  0
 24 23  1  0  0  0
 23  1  1  0  0  0
  1  2  2  0  0  0
  1  3  1  0  0  0
  3  4  1  0  0  0
  3  7  1  0  0  0
  4  5  1  0  0  0
  5  6  1  0  0  0
  5 10  1  0  0  0
  6  7  1  0  0  0
  6  8  1  0  0  0
 10 11  1  0  0  0
 10 14  1  0  0  0
 11 12  2  0  0  0
 11 20  1  0  0  0
 12 13  1  0  0  0
 12 15  1  0  0  0
 13 14  2  0  0  0
 15 16  2  0  0  0
 15 17  1  0  0  0
 17 18  1  0  0  0
 17 22  1  0  0  0
 18 19  2  0  0  0
 18 20  1  0  0  0
 20 21  1  0  0  0
 29 35  1  0  0  0
  8  9  1  0  0  0
M  END
> <minimizedAffinity>
-10.30813

$$$$
1699


 31 34  0  0  0  0  0  0  0  0999 V2000
   11.8109    2.0377   11.2266 Cl  0  0  0  0  0  0  0  0  0  0  0  0
   11.3733    3.7134   11.1503 C   0  0  0  0  0  0  0  0  0  0  0  0
   10.9483    4.3911   12.2837 C   0  0  0  0  0  0  0  0  0  0  0  0
   10.5969    5.7249   12.2385 C   0  0  0  0  0  0  0  0  0  0  0  0
   10.6787    6.3698   11.0360 C   0  0  0  0  0  0  0  0  0  0  0  0
   11.1033    5.7226    9.8715 C   0  0  0  0  0  0  0  0  0  0  0  0
   11.4468    4.3913    9.9525 C   0  0  0  0  0  0  0  0  0  0  0  0
   10.2593    7.7197   11.1856 N   0  0  0  0  0  0  0  0  0  0  0  0
    9.8977    7.9212   12.5432 C   0  0  0  0  0  0  0  0  0  0  0  0
    9.4498    9.0423   12.9488 O   0  0  0  0  0  0  0  0  0  0  0  0
   10.1429    6.6730   13.2537 C   0  0  0  0  0  0  0  0  0  0  0  0
   11.1270    6.8347   14.3274 N   0  0  0  0  0  0  0  0  0  0  0  0
   10.3332    7.5022   15.3345 C   0  0  0  0  0  0  0  0  0  0  0  0
    8.9830    6.8632   15.2972 C   0  0  0  0  0  0  0  0  0  0  0  0
    8.9887    6.1064   14.0033 C   0  0  0  0  0  0  0  0  0  0  0  0
    7.6693    6.3061   13.3548 C   0  0  0  0  0  0  0  0  0  0  0  0
    7.3524    5.6795   12.3102 O   0  0  0  0  0  0  0  0  0  0  0  0
    6.9536    7.2617   14.1205 N   0  0  0  0  0  0  0  0  0  0  0  0
    7.8784    7.8440   15.0464 C   0  0  0  0  0  0  0  0  0  0  0  0
    7.8211    8.9578   15.5774 O   0  0  0  0  0  0  0  0  0  0  0  0
   10.2234    8.4559   10.4198 H   0  0  0  0  0  0  0  0  0  0  0  0
   11.3228    5.8670   14.6692 H   0  0  0  0  0  0  0  0  0  0  0  0
   10.9731    7.4538   16.6983 C   0  0  0  0  0  0  0  0  0  0  0  0
   12.3085    7.1109   16.5275 O   0  0  0  0  0  0  0  0  0  0  0  0
   10.8633    8.7628   17.4368 C   0  0  0  0  0  0  0  0  0  0  0  0
   12.9177    7.8869   16.6231 H   0  0  0  0  0  0  0  0  0  0  0  0
    5.5816    7.5821   14.0041 C   0  0  0  0  0  0  0  0  0  0  0  0
    5.1762    8.7266   13.1614 C   0  0  0  0  0  0  0  0  0  0  0  0
    6.1697    9.2722   12.2095 C   0  0  0  0  0  0  0  0  0  0  0  0
    6.2543    8.6327   10.9821 O   0  0  0  0  0  0  0  0  0  0  0  0
    4.9438    8.2351   10.6224 C   0  0  0  0  0  0  0  0  0  0  0  0
  1  2  1  0  0  0
  2  3  2  0  0  0
  2  7  1  0  0  0
  3  4  1  0  0  0
  4  5  2  0  0  0
  4 11  1  0  0  0
  5  6  1  0  0  0
  5  8  1  0  0  0
  6  7  2  0  0  0
  8  9  1  0  0  0
  9 10  2  0  0  0
  9 11  1  0  0  0
 11 12  1  0  0  0
 11 15  1  0  0  0
 12 13  1  0  0  0
 13 14  1  0  0  0
 13 23  1  0  0  0
 14 15  1  0  0  0
 14 19  1  0  0  0
 15 16  1  0  0  0
 16 17  2  0  0  0
 16 18  1  0  0  0
 18 19  1  0  0  0
 18 27  1  0  0  0
 19 20  2  0  0  0
 27 28  1  0  0  0
 28 29  1  0  0  0
 29 30  1  0  0  0
 30 31  1  0  0  0
 23 24  1  0  0  0
 23 25  1  0  0  0
  8 21  1  0  0  0
 12 22  1  0  0  0
 24 26  1  0  0  0
M  END
> <minimizedAffinity>
-7.26989

$$$$
1706


 25 28  0  0  0  0  0  0  0  0999 V2000
   18.4310    2.9479   11.0276 F   0  0  0  0  0  0  0  0  0  0  0  0
   17.2212    3.5012   11.3765 C   0  0  0  0  0  0  0  0  0  0  0  0
   16.0526    2.9562   10.8297 C   0  0  0  0  0  0  0  0  0  0  0  0
   14.8445    3.4895   11.1624 C   0  0  0  0  0  0  0  0  0  0  0  0
   14.7709    4.5755   12.0456 C   0  0  0  0  0  0  0  0  0  0  0  0
   15.9277    5.0878   12.5649 C   0  0  0  0  0  0  0  0  0  0  0  0
   17.1571    4.5656   12.2424 C   0  0  0  0  0  0  0  0  0  0  0  0
   18.6499    5.2320   12.9175 Cl  0  0  0  0  0  0  0  0  0  0  0  0
   13.7803    2.7328   10.4523 C   0  0  0  0  0  0  0  0  0  0  0  0
   13.0352    3.6284    9.6248 N   0  0  0  0  0  0  0  0  0  0  0  0
   11.9314    4.3436   10.1348 C   0  0  0  0  0  0  0  0  0  0  0  0
   11.4167    5.4265    9.4965 N   0  0  0  0  0  0  0  0  0  0  0  0
   10.3743    6.1385    9.9361 C   0  0  0  0  0  0  0  0  0  0  0  0
    9.7536    5.7674   11.1239 C   0  0  0  0  0  0  0  0  0  0  0  0
   10.2101    4.6889   11.8284 C   0  0  0  0  0  0  0  0  0  0  0  0
   11.2889    4.0011   11.3162 C   0  0  0  0  0  0  0  0  0  0  0  0
   11.8538    2.8310   11.9952 C   0  0  0  0  0  0  0  0  0  0  0  0
   11.2935    2.4791   13.0886 O   0  0  0  0  0  0  0  0  0  0  0  0
   12.9542    2.1229   11.4796 N   0  0  0  0  0  0  0  0  0  0  0  0
   14.5047    1.7171    9.6803 C   0  0  0  0  0  0  0  0  0  0  0  0
   13.9994    0.8247    8.9044 O   0  0  0  0  0  0  0  0  0  0  0  0
   15.8809    1.8623    9.9188 N   0  0  0  0  0  0  0  0  0  0  0  0
   13.2877    3.7779    8.6173 H   0  0  0  0  0  0  0  0  0  0  0  0
   13.1368    1.1681   11.8660 H   0  0  0  0  0  0  0  0  0  0  0  0
   16.6876    1.3047    9.5313 H   0  0  0  0  0  0  0  0  0  0  0  0
  1  2  1  0  0  0
  2  3  2  0  0  0
  2  7  1  0  0  0
  3  4  1  0  0  0
  3 22  1  0  0  0
  4  5  2  0  0  0
  4  9  1  0  0  0
  5  6  1  0  0  0
  6  7  2  0  0  0
  7  8  1  0  0  0
  9 10  1  0  0  0
  9 19  1  0  0  0
  9 20  1  0  0  0
 10 11  1  0  0  0
 11 12  2  0  0  0
 11 16  1  0  0  0
 12 13  1  0  0  0
 13 14  2  0  0  0
 14 15  1  0  0  0
 15 16  2  0  0  0
 16 17  1  0  0  0
 17 18  2  0  0  0
 17 19  1  0  0  0
 20 21  2  0  0  0
 20 22  1  0  0  0
 10 23  1  0  0  0
 19 24  1  0  0  0
 22 25  1  0  0  0
M  END
> <minimizedAffinity>
-8.12555

$$$$
1711


 30 33  0  0  0  0  0  0  0  0999 V2000
   10.7535    7.7329   13.0799 N   0  0  0  0  0  0  0  0  0  0  0  0
   10.3500    8.0353   11.7515 C   0  0  0  0  0  0  0  0  0  0  0  0
   10.1456    6.8110   10.8953 C   0  0  0  0  0  0  0  0  0  0  0  0
   11.0362    5.7361   11.2477 N   0  0  0  0  0  0  0  0  0  0  0  0
   11.1530    5.3401   12.6306 C   0  0  0  0  0  0  0  0  0  0  0  0
   10.5216    6.3951   13.4850 C   0  0  0  0  0  0  0  0  0  0  0  0
   11.8084    5.0460   10.2811 C   0  0  0  0  0  0  0  0  0  0  0  0
   11.7136    5.3813    9.0845 O   0  0  0  0  0  0  0  0  0  0  0  0
   12.1486    8.4829   13.6359 S   0  0  0  0  0  0  0  0  0  0  0  0
   12.1007    9.9520   13.2390 O   0  0  0  0  0  0  0  0  0  0  0  0
   12.1221    8.4845   15.1525 O   0  0  0  0  0  0  0  0  0  0  0  0
   13.6346    7.7655   13.1416 C   0  0  0  0  0  0  0  0  0  0  0  0
   14.4679    7.1876   14.0849 C   0  0  0  0  0  0  0  0  0  0  0  0
   15.6686    6.5991   13.7435 C   0  0  0  0  0  0  0  0  0  0  0  0
   16.0318    6.5965   12.4091 C   0  0  0  0  0  0  0  0  0  0  0  0
   15.1921    7.1765   11.4803 C   0  0  0  0  0  0  0  0  0  0  0  0
   13.9892    7.7678   11.8074 C   0  0  0  0  0  0  0  0  0  0  0  0
   17.6943    5.7916   11.8632 Br  0  0  0  0  0  0  0  0  0  0  0  0
   12.7216    3.9416   10.6509 C   0  0  0  0  0  0  0  0  0  0  0  0
   12.4065    2.7432    9.9294 N   0  0  0  0  0  0  0  0  0  0  0  0
   13.1968    2.0017    9.0099 C   0  0  0  0  0  0  0  0  0  0  0  0
   14.3619    2.3103    8.6764 O   0  0  0  0  0  0  0  0  0  0  0  0
   12.4203    0.8613    8.5526 C   0  0  0  0  0  0  0  0  0  0  0  0
   11.1879    0.8847    9.1615 C   0  0  0  0  0  0  0  0  0  0  0  0
   10.2671   -0.1146    8.8757 C   0  0  0  0  0  0  0  0  0  0  0  0
   10.5548   -1.1256    8.0009 C   0  0  0  0  0  0  0  0  0  0  0  0
   11.8011   -1.1617    7.3764 C   0  0  0  0  0  0  0  0  0  0  0  0
   12.7063   -0.1544    7.6760 C   0  0  0  0  0  0  0  0  0  0  0  0
   11.1545    2.0548   10.0295 C   0  0  0  0  0  0  0  0  0  0  0  0
   10.1495    2.3501   10.7277 O   0  0  0  0  0  0  0  0  0  0  0  0
  9 10  2  0  0  0
  9 11  2  0  0  0
  9  1  1  0  0  0
  9 12  1  0  0  0
  1  2  1  0  0  0
  1  6  1  0  0  0
  2  3  1  0  0  0
  3  4  1  0  0  0
  4  5  1  0  0  0
  4  7  1  0  0  0
  5  6  1  0  0  0
  7  8  2  0  0  0
  7 19  1  0  0  0
 19 20  1  0  0  0
 20 21  1  0  0  0
 20 29  1  0  0  0
 21 22  2  0  0  0
 21 23  1  0  0  0
 23 24  2  0  0  0
 23 28  1  0  0  0
 24 25  1  0  0  0
 24 29  1  0  0  0
 25 26  2  0  0  0
 26 27  1  0  0  0
 27 28  2  0  0  0
 29 30  2  0  0  0
 12 13  2  0  0  0
 12 17  1  0  0  0
 13 14  1  0  0  0
 14 15  2  0  0  0
 15 16  1  0  0  0
 15 18  1  0  0  0
 16 17  2  0  0  0
M  END
> <minimizedAffinity>
-8.95430

$$$$
1718


 34 38  0  0  0  0  0  0  0  0999 V2000
   10.4598   -0.8837    8.6745 Cl  0  0  0  0  0  0  0  0  0  0  0  0
   11.8564    0.1683    8.6367 C   0  0  0  0  0  0  0  0  0  0  0  0
   11.9219    1.1746    9.6012 C   0  0  0  0  0  0  0  0  0  0  0  0
   13.0061    2.0236    9.6046 C   0  0  0  0  0  0  0  0  0  0  0  0
   13.9917    1.8325    8.6343 C   0  0  0  0  0  0  0  0  0  0  0  0
   13.9180    0.8361    7.6851 C   0  0  0  0  0  0  0  0  0  0  0  0
   12.8323   -0.0143    7.6831 C   0  0  0  0  0  0  0  0  0  0  0  0
   12.8931    3.0065   10.6821 C   0  0  0  0  0  0  0  0  0  0  0  0
   14.0265    2.9850   11.5875 N   0  0  0  0  0  0  0  0  0  0  0  0
   14.0245    4.2915   12.2317 C   0  0  0  0  0  0  0  0  0  0  0  0
   13.5075    5.2651   11.2087 C   0  0  0  0  0  0  0  0  0  0  0  0
   12.7910    4.4285   10.1776 C   0  0  0  0  0  0  0  0  0  0  0  0
   11.3860    4.9077   10.1709 C   0  0  0  0  0  0  0  0  0  0  0  0
   10.4893    4.3178    9.5061 O   0  0  0  0  0  0  0  0  0  0  0  0
   11.2739    6.0592   10.9901 N   0  0  0  0  0  0  0  0  0  0  0  0
   12.4137    6.0842   11.8360 C   0  0  0  0  0  0  0  0  0  0  0  0
   12.5572    6.6741   12.9440 O   0  0  0  0  0  0  0  0  0  0  0  0
   11.6280    2.6749   11.3567 C   0  0  0  0  0  0  0  0  0  0  0  0
   11.1082    3.2634   12.3741 O   0  0  0  0  0  0  0  0  0  0  0  0
   11.0721    1.5659   10.6718 N   0  0  0  0  0  0  0  0  0  0  0  0
   14.9252    2.8077   11.0853 H   0  0  0  0  0  0  0  0  0  0  0  0
   10.1601    1.0903   10.9115 H   0  0  0  0  0  0  0  0  0  0  0  0
   10.2226    7.0101   10.9656 C   0  0  0  0  0  0  0  0  0  0  0  0
    9.0588    6.7585   11.8398 C   0  0  0  0  0  0  0  0  0  0  0  0
    7.9472    6.2240   11.2067 O   0  0  0  0  0  0  0  0  0  0  0  0
    7.0990    6.0087   12.2935 C   0  0  0  0  0  0  0  0  0  0  0  0
    7.1954    7.2945   13.1243 C   0  0  0  0  0  0  0  0  0  0  0  0
    8.4949    7.9134   12.5820 C   0  0  0  0  0  0  0  0  0  0  0  0
   15.4196    4.6173   12.6775 C   0  0  0  0  0  0  0  0  0  0  0  0
   16.2379    4.8290   11.4412 C   0  0  0  0  0  0  0  0  0  0  0  0
   16.5565    6.0160   11.1735 O   0  0  0  0  0  0  0  0  0  0  0  0
   16.6435    3.7610   10.6010 N   0  0  0  0  0  0  0  0  0  0  0  0
   17.4023    3.1362   10.9371 H   0  0  0  0  0  0  0  0  0  0  0  0
   16.2292    3.5623    9.6693 H   0  0  0  0  0  0  0  0  0  0  0  0
  1  2  1  0  0  0
  2  3  2  0  0  0
  2  7  1  0  0  0
  3  4  1  0  0  0
  3 20  1  0  0  0
  4  5  2  0  0  0
  4  8  1  0  0  0
  5  6  1  0  0  0
  6  7  2  0  0  0
  8  9  1  0  0  0
  8 12  1  0  0  0
  8 18  1  0  0  0
  9 10  1  0  0  0
 10 11  1  0  0  0
 10 29  1  0  0  0
 11 12  1  0  0  0
 11 16  1  0  0  0
 12 13  1  0  0  0
 13 14  2  0  0  0
 13 15  1  0  0  0
 15 16  1  0  0  0
 15 23  1  0  0  0
 16 17  2  0  0  0
 23 24  1  0  0  0
 24 25  1  0  0  0
 24 28  1  0  0  0
 25 26  1  0  0  0
 26 27  1  0  0  0
 27 28  1  0  0  0
 29 30  1  0  0  0
 30 31  2  0  0  0
 30 32  1  0  0  0
 18 19  2  0  0  0
 18 20  1  0  0  0
  9 21  1  0  0  0
 32 33  1  0  0  0
 32 34  1  0  0  0
 20 22  1  0  0  0
M  END
> <minimizedAffinity>
-9.59239

$$$$
1721


 28 31  0  0  0  0  0  0  0  0999 V2000
    9.9369    3.8489   10.1790 C   0  0  0  0  0  0  0  0  0  0  0  0
   10.1259    5.2725   10.4100 C   0  0  0  0  0  0  0  0  0  0  0  0
   10.3840    5.9469    9.2684 O   0  0  0  0  0  0  0  0  0  0  0  0
   10.0922    6.0302   11.5476 N   0  0  0  0  0  0  0  0  0  0  0  0
    9.9563    5.5965   12.8961 C   0  0  0  0  0  0  0  0  0  0  0  0
    8.6604    6.1016   13.5265 C   0  0  0  0  0  0  0  0  0  0  0  0
    8.3925    7.3607   12.8931 N   0  0  0  0  0  0  0  0  0  0  0  0
    9.5121    8.1878   12.5484 C   0  0  0  0  0  0  0  0  0  0  0  0
   10.1903    7.5258   11.3443 C   0  0  0  0  0  0  0  0  0  0  0  0
    7.0892    7.8045   12.6070 C   0  0  0  0  0  0  0  0  0  0  0  0
    6.4667    7.4994   11.4312 N   0  0  0  0  0  0  0  0  0  0  0  0
    5.2470    7.8848   11.1006 C   0  0  0  0  0  0  0  0  0  0  0  0
    4.4849    8.6485   11.9393 C   0  0  0  0  0  0  0  0  0  0  0  0
    5.0579    8.9958   13.1540 C   0  0  0  0  0  0  0  0  0  0  0  0
    6.3391    8.5789   13.4794 C   0  0  0  0  0  0  0  0  0  0  0  0
   10.9448    2.9939   10.6825 N   0  0  0  0  0  0  0  0  0  0  0  0
   11.2189    3.0233   11.6685 H   0  0  0  0  0  0  0  0  0  0  0  0
   15.1348    1.5593    8.1111 Cl  0  0  0  0  0  0  0  0  0  0  0  0
   13.4691    1.3533    8.5854 C   0  0  0  0  0  0  0  0  0  0  0  0
   12.7390    0.3376    8.1443 N   0  0  0  0  0  0  0  0  0  0  0  0
   11.4600    0.1051    8.4573 C   0  0  0  0  0  0  0  0  0  0  0  0
   10.5493   -0.8292    8.1401 N   0  0  0  0  0  0  0  0  0  0  0  0
    9.3936   -0.5509    8.7665 C   0  0  0  0  0  0  0  0  0  0  0  0
    9.6033    0.5725    9.4783 N   0  0  0  0  0  0  0  0  0  0  0  0
   10.8592    1.0164    9.3216 C   0  0  0  0  0  0  0  0  0  0  0  0
   11.6069    2.0722    9.7850 C   0  0  0  0  0  0  0  0  0  0  0  0
   12.8867    2.2385    9.4253 N   0  0  0  0  0  0  0  0  0  0  0  0
    8.9114    1.0797   10.0920 H   0  0  0  0  0  0  0  0  0  0  0  0
 18 19  1  0  0  0
 19 20  2  0  0  0
 19 27  1  0  0  0
 20 21  1  0  0  0
 21 22  1  0  0  0
 21 25  2  0  0  0
 22 23  2  0  0  0
 23 24  1  0  0  0
 24 25  1  0  0  0
 25 26  1  0  0  0
 26 27  2  0  0  0
 26 16  1  0  0  0
 16  1  1  0  0  0
  1  2  1  0  0  0
  2  3  2  0  0  0
  2  4  1  0  0  0
  4  5  1  0  0  0
  4  9  1  0  0  0
  5  6  1  0  0  0
  6  7  1  0  0  0
  7  8  1  0  0  0
  7 10  1  0  0  0
  8  9  1  0  0  0
 10 11  2  0  0  0
 10 15  1  0  0  0
 11 12  1  0  0  0
 12 13  2  0  0  0
 13 14  1  0  0  0
 14 15  2  0  0  0
 24 28  1  0  0  0
 16 17  1  0  0  0
M  END
> <minimizedAffinity>
-8.92546

$$$$
1726


 30 33  0  0  0  0  0  0  0  0999 V2000
   11.7977    5.6241   10.0252 C   0  0  0  0  0  0  0  0  0  0  0  0
   12.5621    4.5543   10.6365 N   0  0  0  0  0  0  0  0  0  0  0  0
   11.7744    4.0287   11.7008 C   0  0  0  0  0  0  0  0  0  0  0  0
   11.6107    2.5416   11.7019 C   0  0  0  0  0  0  0  0  0  0  0  0
   10.7053    2.0188   10.6437 C   0  0  0  0  0  0  0  0  0  0  0  0
   11.3476    1.2262    9.6331 N   0  0  0  0  0  0  0  0  0  0  0  0
   12.6575    1.2901    9.3291 C   0  0  0  0  0  0  0  0  0  0  0  0
   13.2686    0.5375    8.3679 C   0  0  0  0  0  0  0  0  0  0  0  0
   12.5068   -0.3594    7.6468 C   0  0  0  0  0  0  0  0  0  0  0  0
   11.1683   -0.4312    7.9512 C   0  0  0  0  0  0  0  0  0  0  0  0
   10.5856    0.3430    8.9257 C   0  0  0  0  0  0  0  0  0  0  0  0
    9.3558    0.2500    9.1766 O   0  0  0  0  0  0  0  0  0  0  0  0
   13.4342    2.2917   10.1537 C   0  0  0  0  0  0  0  0  0  0  0  0
   13.0460    3.6357    9.6793 C   0  0  0  0  0  0  0  0  0  0  0  0
   13.0328    1.9822   11.5752 C   0  0  0  0  0  0  0  0  0  0  0  0
   13.4051    5.0358   11.0753 H   0  0  0  0  0  0  0  0  0  0  0  0
   10.3868    5.7151   10.5112 C   0  0  0  0  0  0  0  0  0  0  0  0
    9.5075    5.4300    9.4681 O   0  0  0  0  0  0  0  0  0  0  0  0
    9.4667    6.2581    8.9106 H   0  0  0  0  0  0  0  0  0  0  0  0
   10.1928    7.1402   11.0279 C   0  0  0  0  0  0  0  0  0  0  0  0
    9.4968    7.0365   12.2360 O   0  0  0  0  0  0  0  0  0  0  0  0
    6.7557    5.9317   11.6645 Br  0  0  0  0  0  0  0  0  0  0  0  0
    7.2069    7.5492   12.5638 C   0  0  0  0  0  0  0  0  0  0  0  0
    8.5383    7.8636   12.7178 C   0  0  0  0  0  0  0  0  0  0  0  0
    8.8481    9.0364   13.3699 C   0  0  0  0  0  0  0  0  0  0  0  0
    7.8422    9.8764   13.8579 C   0  0  0  0  0  0  0  0  0  0  0  0
    6.5150    9.5325   13.6878 C   0  0  0  0  0  0  0  0  0  0  0  0
    6.1921    8.3741   13.0442 C   0  0  0  0  0  0  0  0  0  0  0  0
    5.4202   10.4137   14.2009 C   0  0  0  0  0  0  0  0  0  0  0  0
   10.6794    9.5006   13.5989 Br  0  0  0  0  0  0  0  0  0  0  0  0
 22 23  1  0  0  0
 23 24  2  0  0  0
 23 28  1  0  0  0
 24 25  1  0  0  0
 24 21  1  0  0  0
 25 26  2  0  0  0
 25 30  1  0  0  0
 26 27  1  0  0  0
 27 28  2  0  0  0
 27 29  1  0  0  0
 21 20  1  0  0  0
 20 17  1  0  0  0
 17 18  1  0  0  0
 17  1  1  0  0  0
  1  2  1  0  0  0
  2  3  1  0  0  0
  2 14  1  0  0  0
  3  4  1  0  0  0
  4  5  1  0  0  0
  4 15  1  0  0  0
  5  6  1  0  0  0
  6  7  1  0  0  0
  6 11  1  0  0  0
  7  8  2  0  0  0
  7 13  1  0  0  0
  8  9  1  0  0  0
  9 10  2  0  0  0
 10 11  1  0  0  0
 11 12  2  0  0  0
 13 14  1  0  0  0
 13 15  1  0  0  0
 18 19  1  0  0  0
  2 16  1  0  0  0
M  CHG 1   2   1
M  END
> <minimizedAffinity>
-8.96069

$$$$
1732


 28 31  0  0  0  0  0  0  0  0999 V2000
   11.2398    4.4341   10.5630 N   0  0  0  0  0  0  0  0  0  0  0  0
   11.4552    3.7624   11.6820 N   0  0  0  0  0  0  0  0  0  0  0  0
   11.4141    2.4567   11.4408 N   0  0  0  0  0  0  0  0  0  0  0  0
   11.1642    2.2806   10.1263 C   0  0  0  0  0  0  0  0  0  0  0  0
   11.0641    3.5217    9.6222 N   0  0  0  0  0  0  0  0  0  0  0  0
   11.0342    1.0143    9.4205 C   0  0  0  0  0  0  0  0  0  0  0  0
   12.1739    0.4390    8.9088 C   0  0  0  0  0  0  0  0  0  0  0  0
   12.0492   -0.7657    8.2369 C   0  0  0  0  0  0  0  0  0  0  0  0
   10.8380   -1.3884    8.0715 C   0  0  0  0  0  0  0  0  0  0  0  0
    9.6930   -0.8124    8.5839 C   0  0  0  0  0  0  0  0  0  0  0  0
    9.8197    0.3910    9.2553 C   0  0  0  0  0  0  0  0  0  0  0  0
   13.4680    1.0257    9.0404 N   0  0  0  0  0  0  0  0  0  0  0  0
   14.1244    1.1269   10.1892 N   0  0  0  0  0  0  0  0  0  0  0  0
   15.2798    1.7127    9.9663 N   0  0  0  0  0  0  0  0  0  0  0  0
   15.3583    1.9867    8.6662 N   0  0  0  0  0  0  0  0  0  0  0  0
   14.2194    1.5547    8.0854 C   0  0  0  0  0  0  0  0  0  0  0  0
   11.2039    5.8959   10.3959 C   0  0  0  0  0  0  0  0  0  0  0  0
    9.9772    7.6535   11.7127 N   0  0  0  0  0  0  0  0  0  0  0  0
    9.9632    6.4613   10.9885 C   0  0  0  0  0  0  0  0  0  0  0  0
    8.9130    5.8181   10.8072 O   0  0  0  0  0  0  0  0  0  0  0  0
   10.9277    8.1214   11.8080 H   0  0  0  0  0  0  0  0  0  0  0  0
    9.9592    7.2157   14.7198 Br  0  0  0  0  0  0  0  0  0  0  0  0
    8.7238    8.2428   13.7181 C   0  0  0  0  0  0  0  0  0  0  0  0
    8.9026    8.3220   12.3364 C   0  0  0  0  0  0  0  0  0  0  0  0
    7.9644    9.0884   11.6707 C   0  0  0  0  0  0  0  0  0  0  0  0
    6.9142    9.7352   12.3267 C   0  0  0  0  0  0  0  0  0  0  0  0
    6.7910    9.6190   13.6885 C   0  0  0  0  0  0  0  0  0  0  0  0
    7.7035    8.8663   14.3935 C   0  0  0  0  0  0  0  0  0  0  0  0
 22 23  1  0  0  0
 23 24  2  0  0  0
 23 28  1  0  0  0
 24 25  1  0  0  0
 24 18  1  0  0  0
 25 26  2  0  0  0
 26 27  1  0  0  0
 27 28  2  0  0  0
 18 19  1  0  0  0
 19 20  2  0  0  0
 19 17  1  0  0  0
 17  1  1  0  0  0
  1  2  1  0  0  0
  1  5  1  0  0  0
  2  3  2  0  0  0
  3  4  1  0  0  0
  4  5  2  0  0  0
  4  6  1  0  0  0
  6  7  1  0  0  0
  6 11  2  0  0  0
  7  8  2  0  0  0
  7 12  1  0  0  0
  8  9  1  0  0  0
  9 10  2  0  0  0
 10 11  1  0  0  0
 12 13  1  0  0  0
 12 16  1  0  0  0
 13 14  2  0  0  0
 14 15  1  0  0  0
 15 16  2  0  0  0
 18 21  1  0  0  0
M  END
> <minimizedAffinity>
-9.10857

$$$$
1736


 35 39  0  0  0  0  0  0  0  0999 V2000
    7.9118    6.6999   17.8735 Cl  0  0  0  0  0  0  0  0  0  0  0  0
    9.3794    7.2411   17.0430 C   0  0  0  0  0  0  0  0  0  0  0  0
    9.4410    7.2777   15.6722 C   0  0  0  0  0  0  0  0  0  0  0  0
   10.5797    7.6978   15.0380 C   0  0  0  0  0  0  0  0  0  0  0  0
   11.6631    8.0827   15.7868 C   0  0  0  0  0  0  0  0  0  0  0  0
   11.6302    8.0567   17.1809 C   0  0  0  0  0  0  0  0  0  0  0  0
   10.4709    7.6296   17.7884 C   0  0  0  0  0  0  0  0  0  0  0  0
   12.7414    8.4797   14.9603 N   0  0  0  0  0  0  0  0  0  0  0  0
   12.2989    8.3310   13.6193 C   0  0  0  0  0  0  0  0  0  0  0  0
   12.9750    8.5791   12.5980 O   0  0  0  0  0  0  0  0  0  0  0  0
   10.9096    7.8350   13.6011 C   0  0  0  0  0  0  0  0  0  0  0  0
   10.7759    6.5898   12.8856 N   0  0  0  0  0  0  0  0  0  0  0  0
    9.5233    6.6146   12.1976 C   0  0  0  0  0  0  0  0  0  0  0  0
    9.2599    8.0529   11.8169 C   0  0  0  0  0  0  0  0  0  0  0  0
   10.0368    8.7932   12.8755 C   0  0  0  0  0  0  0  0  0  0  0  0
    9.0357    9.4791   13.7289 C   0  0  0  0  0  0  0  0  0  0  0  0
    9.1600    9.9145   14.9014 O   0  0  0  0  0  0  0  0  0  0  0  0
    7.8348    9.5635   12.9343 N   0  0  0  0  0  0  0  0  0  0  0  0
    7.8439    8.4590   12.0067 C   0  0  0  0  0  0  0  0  0  0  0  0
    6.8509    7.9234   11.4493 O   0  0  0  0  0  0  0  0  0  0  0  0
   13.7057    8.8255   15.2404 H   0  0  0  0  0  0  0  0  0  0  0  0
   10.8568    5.7972   13.5304 H   0  0  0  0  0  0  0  0  0  0  0  0
    9.5273    5.7069   10.9863 C   0  0  0  0  0  0  0  0  0  0  0  0
    8.2300    5.2335   10.8118 O   0  0  0  0  0  0  0  0  0  0  0  0
   10.3797    4.4971   11.3547 C   0  0  0  0  0  0  0  0  0  0  0  0
    8.0457    4.5262   11.4704 H   0  0  0  0  0  0  0  0  0  0  0  0
    6.7958   10.5666   13.0330 C   0  0  0  0  0  0  0  0  0  0  0  0
    5.6127   10.0091   13.7545 C   0  0  0  0  0  0  0  0  0  0  0  0
    5.4696   10.1816   15.1150 C   0  0  0  0  0  0  0  0  0  0  0  0
    4.3636    9.6556   15.7606 C   0  0  0  0  0  0  0  0  0  0  0  0
    3.3850    8.9557   15.0824 C   0  0  0  0  0  0  0  0  0  0  0  0
    3.5184    8.7773   13.7233 C   0  0  0  0  0  0  0  0  0  0  0  0
    4.6219    9.3052   13.0934 C   0  0  0  0  0  0  0  0  0  0  0  0
    6.4615   10.8906   15.8000 O   0  0  0  0  0  0  0  0  0  0  0  0
    6.6652   10.6035   17.1875 C   0  0  0  0  0  0  0  0  0  0  0  0
  1  2  1  0  0  0
  2  3  2  0  0  0
  2  7  1  0  0  0
  3  4  1  0  0  0
  4  5  2  0  0  0
  4 11  1  0  0  0
  5  6  1  0  0  0
  5  8  1  0  0  0
  6  7  2  0  0  0
  8  9  1  0  0  0
  9 10  2  0  0  0
  9 11  1  0  0  0
 11 12  1  0  0  0
 11 15  1  0  0  0
 12 13  1  0  0  0
 13 14  1  0  0  0
 13 23  1  0  0  0
 14 15  1  0  0  0
 14 19  1  0  0  0
 15 16  1  0  0  0
 16 17  2  0  0  0
 16 18  1  0  0  0
 18 19  1  0  0  0
 18 27  1  0  0  0
 19 20  2  0  0  0
 27 28  1  0  0  0
 28 29  2  0  0  0
 28 33  1  0  0  0
 29 30  1  0  0  0
 29 34  1  0  0  0
 30 31  2  0  0  0
 31 32  1  0  0  0
 32 33  2  0  0  0
 34 35  1  0  0  0
 23 24  1  0  0  0
 23 25  1  0  0  0
  8 21  1  0  0  0
 12 22  1  0  0  0
 24 26  1  0  0  0
M  END
> <minimizedAffinity>
-7.90702

$$$$
1741


 28 31  0  0  0  0  0  0  0  0999 V2000
   10.8539    4.4746   10.6387 C   0  0  0  0  0  0  0  0  0  0  0  0
   10.4513    4.4235    9.4598 O   0  0  0  0  0  0  0  0  0  0  0  0
   10.8289    5.6862   11.3444 N   0  0  0  0  0  0  0  0  0  0  0  0
   10.3439    6.9260   10.7793 C   0  0  0  0  0  0  0  0  0  0  0  0
    9.3147    7.4810   11.7500 C   0  0  0  0  0  0  0  0  0  0  0  0
    9.0310    6.5737   12.7823 N   0  0  0  0  0  0  0  0  0  0  0  0
   10.0677    6.0801   13.5922 C   0  0  0  0  0  0  0  0  0  0  0  0
   11.2954    5.7923   12.7352 C   0  0  0  0  0  0  0  0  0  0  0  0
   11.3635    3.2154   11.2810 C   0  0  0  0  0  0  0  0  0  0  0  0
    8.9339   -2.2439    7.3929 Br  0  0  0  0  0  0  0  0  0  0  0  0
    9.7670   -0.8065    8.3512 C   0  0  0  0  0  0  0  0  0  0  0  0
   11.1179   -0.5223    8.1397 C   0  0  0  0  0  0  0  0  0  0  0  0
   11.6998    0.5256    8.8459 C   0  0  0  0  0  0  0  0  0  0  0  0
   10.9849    1.2851    9.7421 C   0  0  0  0  0  0  0  0  0  0  0  0
   11.7841    2.2422   10.2955 N   0  0  0  0  0  0  0  0  0  0  0  0
   12.9891    2.0693    9.7389 C   0  0  0  0  0  0  0  0  0  0  0  0
   12.9849    1.0226    8.8391 C   0  0  0  0  0  0  0  0  0  0  0  0
    9.6538    1.0112    9.9551 C   0  0  0  0  0  0  0  0  0  0  0  0
    9.0654   -0.0353    9.2527 C   0  0  0  0  0  0  0  0  0  0  0  0
    7.7422    6.0286   12.8946 C   0  0  0  0  0  0  0  0  0  0  0  0
    6.6955    6.7632   12.1362 C   0  0  0  0  0  0  0  0  0  0  0  0
    6.3039    6.2353   11.0651 O   0  0  0  0  0  0  0  0  0  0  0  0
    6.1419    7.9842   12.5500 N   0  0  0  0  0  0  0  0  0  0  0  0
    5.1306    8.6404   11.7455 C   0  0  0  0  0  0  0  0  0  0  0  0
    3.9434    8.9018   12.6485 C   0  0  0  0  0  0  0  0  0  0  0  0
    4.3934    9.8308   13.5982 O   0  0  0  0  0  0  0  0  0  0  0  0
    5.3359    9.2847   14.4364 C   0  0  0  0  0  0  0  0  0  0  0  0
    6.5177    8.6719   13.7693 C   0  0  0  0  0  0  0  0  0  0  0  0
 10 11  1  0  0  0
 11 12  2  0  0  0
 11 19  1  0  0  0
 12 13  1  0  0  0
 13 14  2  0  0  0
 13 17  1  0  0  0
 14 15  1  0  0  0
 14 18  1  0  0  0
 15 16  1  0  0  0
 15  9  1  0  0  0
 16 17  2  0  0  0
  9  1  1  0  0  0
  1  2  2  0  0  0
  1  3  1  0  0  0
  3  4  1  0  0  0
  3  8  1  0  0  0
  4  5  1  0  0  0
  5  6  1  0  0  0
  6  7  1  0  0  0
  6 20  1  0  0  0
  7  8  1  0  0  0
 20 21  1  0  0  0
 21 22  2  0  0  0
 21 23  1  0  0  0
 23 24  1  0  0  0
 23 28  1  0  0  0
 24 25  1  0  0  0
 25 26  1  0  0  0
 26 27  1  0  0  0
 27 28  1  0  0  0
 18 19  2  0  0  0
M  END
> <minimizedAffinity>
-9.52045

$$$$
1744


 34 37  0  0  0  0  0  0  0  0999 V2000
   12.2205    3.0652   10.3672 N   0  0  0  0  0  0  0  0  0  0  0  0
   13.4268    2.7786   11.0730 C   0  0  0  0  0  0  0  0  0  0  0  0
   13.8838    1.6195   11.2268 O   0  0  0  0  0  0  0  0  0  0  0  0
   14.1551    3.8688   11.6336 N   0  0  0  0  0  0  0  0  0  0  0  0
   13.6569    5.2059   11.4728 C   0  0  0  0  0  0  0  0  0  0  0  0
   14.4676    6.1411   11.7847 O   0  0  0  0  0  0  0  0  0  0  0  0
   12.2974    5.4940   10.9804 C   0  0  0  0  0  0  0  0  0  0  0  0
   11.7130    4.3813   10.1922 C   0  0  0  0  0  0  0  0  0  0  0  0
   10.7812    4.6434    9.3926 O   0  0  0  0  0  0  0  0  0  0  0  0
   15.0519    3.7292   12.1668 H   0  0  0  0  0  0  0  0  0  0  0  0
   12.1769   -1.0105    7.2001 Cl  0  0  0  0  0  0  0  0  0  0  0  0
   11.4149    0.0282    8.3746 C   0  0  0  0  0  0  0  0  0  0  0  0
   12.0748    1.1110    8.9006 C   0  0  0  0  0  0  0  0  0  0  0  0
   11.5014    1.9605    9.8310 C   0  0  0  0  0  0  0  0  0  0  0  0
   10.2265    1.7028   10.2341 C   0  0  0  0  0  0  0  0  0  0  0  0
    9.5137    0.6181    9.7323 C   0  0  0  0  0  0  0  0  0  0  0  0
   10.1217   -0.2055    8.8067 C   0  0  0  0  0  0  0  0  0  0  0  0
   11.3816    5.8481   12.1282 C   0  0  0  0  0  0  0  0  0  0  0  0
   10.4911    5.0223   12.6467 C   0  0  0  0  0  0  0  0  0  0  0  0
    9.8328    5.7890   13.7277 C   0  0  0  0  0  0  0  0  0  0  0  0
   10.8831    6.7098   14.1240 N   0  0  0  0  0  0  0  0  0  0  0  0
   11.3476    7.0851   12.8392 N   0  0  0  0  0  0  0  0  0  0  0  0
   10.5800    7.4963   14.7042 H   0  0  0  0  0  0  0  0  0  0  0  0
   11.6133    7.9855   12.4405 H   0  0  0  0  0  0  0  0  0  0  0  0
    8.6516    6.5309   13.2047 C   0  0  0  0  0  0  0  0  0  0  0  0
    7.7675    6.0479   12.2826 C   0  0  0  0  0  0  0  0  0  0  0  0
    6.6644    6.7625   11.8591 C   0  0  0  0  0  0  0  0  0  0  0  0
    6.4124    8.0237   12.3675 C   0  0  0  0  0  0  0  0  0  0  0  0
    7.3252    8.5147   13.3150 C   0  0  0  0  0  0  0  0  0  0  0  0
    8.4194    7.7896   13.7246 C   0  0  0  0  0  0  0  0  0  0  0  0
    5.7850    6.2199   10.9055 O   0  0  0  0  0  0  0  0  0  0  0  0
    5.9859    5.2930   10.5449 H   0  0  0  0  0  0  0  0  0  0  0  0
    5.3226    8.7618   11.9734 O   0  0  0  0  0  0  0  0  0  0  0  0
    4.1944    8.9296   12.8066 C   0  0  0  0  0  0  0  0  0  0  0  0
 11 12  1  0  0  0
 12 13  2  0  0  0
 12 17  1  0  0  0
 13 14  1  0  0  0
 14 15  2  0  0  0
 14  1  1  0  0  0
 15 16  1  0  0  0
 16 17  2  0  0  0
  1  2  1  0  0  0
  1  8  1  0  0  0
  2  3  2  0  0  0
  2  4  1  0  0  0
  4  5  1  0  0  0
  5  6  2  0  0  0
  5  7  1  0  0  0
  7  8  1  0  0  0
  7 18  1  0  0  0
  8  9  2  0  0  0
 18 19  2  0  0  0
 18 22  1  0  0  0
 19 20  1  0  0  0
 20 21  1  0  0  0
 20 25  1  0  0  0
 21 22  1  0  0  0
 25 26  2  0  0  0
 25 30  1  0  0  0
 26 27  1  0  0  0
 27 28  2  0  0  0
 27 31  1  0  0  0
 28 29  1  0  0  0
 28 33  1  0  0  0
 29 30  2  0  0  0
 33 34  1  0  0  0
  4 10  1  0  0  0
 21 23  1  0  0  0
 22 24  1  0  0  0
 31 32  1  0  0  0
M  END
> <minimizedAffinity>
-9.93569

$$$$
1745


 34 37  0  0  0  0  0  0  0  0999 V2000
   10.9030    4.6479   10.7222 N   0  0  0  0  0  0  0  0  0  0  0  0
   10.2731    5.6983   10.0068 C   0  0  0  0  0  0  0  0  0  0  0  0
    9.9980    5.5878    8.8044 O   0  0  0  0  0  0  0  0  0  0  0  0
    9.9427    6.9236   10.6763 N   0  0  0  0  0  0  0  0  0  0  0  0
   10.2347    7.1055   12.0606 C   0  0  0  0  0  0  0  0  0  0  0  0
    9.6189    7.9211   12.7684 O   0  0  0  0  0  0  0  0  0  0  0  0
   11.3313    6.2736   12.6720 C   0  0  0  0  0  0  0  0  0  0  0  0
   11.1707    4.9133   12.1162 C   0  0  0  0  0  0  0  0  0  0  0  0
   11.2651    3.8778   12.8688 O   0  0  0  0  0  0  0  0  0  0  0  0
    9.4874    7.6725   10.1391 H   0  0  0  0  0  0  0  0  0  0  0  0
   14.6534    1.8592    8.6949 Cl  0  0  0  0  0  0  0  0  0  0  0  0
   12.9889    2.0065    9.1899 C   0  0  0  0  0  0  0  0  0  0  0  0
   12.5638    3.1902    9.7514 C   0  0  0  0  0  0  0  0  0  0  0  0
   11.2418    3.3836   10.1695 C   0  0  0  0  0  0  0  0  0  0  0  0
   10.3904    2.3257    9.9886 C   0  0  0  0  0  0  0  0  0  0  0  0
   10.8075    1.1375    9.4284 C   0  0  0  0  0  0  0  0  0  0  0  0
   12.1292    0.9550    9.0128 C   0  0  0  0  0  0  0  0  0  0  0  0
   12.6529    6.8889   12.3468 C   0  0  0  0  0  0  0  0  0  0  0  0
   13.6090    7.2819   13.1631 C   0  0  0  0  0  0  0  0  0  0  0  0
   14.7310    7.8297   12.3522 C   0  0  0  0  0  0  0  0  0  0  0  0
   14.0088    8.2151   11.1129 N   0  0  0  0  0  0  0  0  0  0  0  0
   13.0754    7.1759   11.0070 N   0  0  0  0  0  0  0  0  0  0  0  0
   13.5626    9.1449   11.2409 H   0  0  0  0  0  0  0  0  0  0  0  0
   12.7477    6.7066   10.1696 H   0  0  0  0  0  0  0  0  0  0  0  0
   15.6329    6.7142   11.9566 C   0  0  0  0  0  0  0  0  0  0  0  0
   16.6960    6.9126   11.0497 C   0  0  0  0  0  0  0  0  0  0  0  0
   17.5664    5.9326   10.6853 C   0  0  0  0  0  0  0  0  0  0  0  0
   17.4250    4.6651   11.2180 C   0  0  0  0  0  0  0  0  0  0  0  0
   16.3987    4.4353   12.1052 C   0  0  0  0  0  0  0  0  0  0  0  0
   15.5247    5.4373   12.4649 C   0  0  0  0  0  0  0  0  0  0  0  0
   18.3070    3.6515   10.8578 O   0  0  0  0  0  0  0  0  0  0  0  0
   19.0508    3.8582   10.2043 H   0  0  0  0  0  0  0  0  0  0  0  0
   18.6040    6.1831    9.7758 O   0  0  0  0  0  0  0  0  0  0  0  0
   19.8270    6.7062   10.2464 C   0  0  0  0  0  0  0  0  0  0  0  0
 11 12  1  0  0  0
 12 13  2  0  0  0
 12 17  1  0  0  0
 13 14  1  0  0  0
 14 15  2  0  0  0
 14  1  1  0  0  0
 15 16  1  0  0  0
 16 17  2  0  0  0
  1  2  1  0  0  0
  1  8  1  0  0  0
  2  3  2  0  0  0
  2  4  1  0  0  0
  4  5  1  0  0  0
  5  6  2  0  0  0
  5  7  1  0  0  0
  7  8  1  0  0  0
  7 18  1  0  0  0
  8  9  2  0  0  0
 18 19  2  0  0  0
 18 22  1  0  0  0
 19 20  1  0  0  0
 20 21  1  0  0  0
 20 25  1  0  0  0
 21 22  1  0  0  0
 25 26  2  0  0  0
 25 30  1  0  0  0
 26 27  1  0  0  0
 27 28  2  0  0  0
 27 33  1  0  0  0
 28 29  1  0  0  0
 28 31  1  0  0  0
 29 30  2  0  0  0
 33 34  1  0  0  0
  4 10  1  0  0  0
 21 23  1  0  0  0
 22 24  1  0  0  0
 31 32  1  0  0  0
M  END
> <minimizedAffinity>
-9.37895

$$$$
1750


 27 30  0  0  0  0  0  0  0  0999 V2000
   10.0581    6.8923   11.6675 N   0  0  0  0  0  0  0  0  0  0  0  0
   10.3612    6.6139   10.2970 C   0  0  0  0  0  0  0  0  0  0  0  0
   10.8918    5.2080   10.0914 C   0  0  0  0  0  0  0  0  0  0  0  0
   11.9250    4.9520   11.0590 N   0  0  0  0  0  0  0  0  0  0  0  0
   12.3467    6.0449   11.9125 C   0  0  0  0  0  0  0  0  0  0  0  0
   11.1070    6.5960   12.5827 C   0  0  0  0  0  0  0  0  0  0  0  0
   12.5446    3.6782   11.2105 C   0  0  0  0  0  0  0  0  0  0  0  0
   13.4418    3.4805   12.0621 O   0  0  0  0  0  0  0  0  0  0  0  0
   12.1461    2.5507   10.3647 C   0  0  0  0  0  0  0  0  0  0  0  0
   12.9175    1.9306    9.4301 N   0  0  0  0  0  0  0  0  0  0  0  0
   12.2062    0.9446    8.8618 C   0  0  0  0  0  0  0  0  0  0  0  0
   11.0025    0.9475    9.4335 N   0  0  0  0  0  0  0  0  0  0  0  0
   10.9395    1.9187   10.3544 C   0  0  0  0  0  0  0  0  0  0  0  0
   10.0915    0.0403    9.0314 C   0  0  0  0  0  0  0  0  0  0  0  0
   10.3209   -0.8973    8.0627 C   0  0  0  0  0  0  0  0  0  0  0  0
   11.5709   -0.9157    7.4543 C   0  0  0  0  0  0  0  0  0  0  0  0
   12.4936    0.0163    7.8733 C   0  0  0  0  0  0  0  0  0  0  0  0
    9.1056   -2.0683    7.5617 Cl  0  0  0  0  0  0  0  0  0  0  0  0
    8.5106    6.4459   12.1789 S   0  0  0  0  0  0  0  0  0  0  0  0
    7.8346    5.6392   11.1184 O   0  0  0  0  0  0  0  0  0  0  0  0
    8.6393    5.5961   13.4117 O   0  0  0  0  0  0  0  0  0  0  0  0
    7.4983    7.7757   12.5771 N   0  0  0  0  0  0  0  0  0  0  0  0
    6.1002    7.5094   12.2940 C   0  0  0  0  0  0  0  0  0  0  0  0
    5.4179    8.8451   12.1185 C   0  0  0  0  0  0  0  0  0  0  0  0
    5.9757    9.8199   12.9389 O   0  0  0  0  0  0  0  0  0  0  0  0
    7.2780   10.1507   12.5708 C   0  0  0  0  0  0  0  0  0  0  0  0
    7.8502    8.9639   11.8219 C   0  0  0  0  0  0  0  0  0  0  0  0
 19 20  2  0  0  0
 19 21  2  0  0  0
 19  1  1  0  0  0
 19 22  1  0  0  0
  1  2  1  0  0  0
  1  6  1  0  0  0
  2  3  1  0  0  0
  3  4  1  0  0  0
  4  5  1  0  0  0
  4  7  1  0  0  0
  5  6  1  0  0  0
  7  8  2  0  0  0
  7  9  1  0  0  0
  9 10  1  0  0  0
  9 13  2  0  0  0
 10 11  2  0  0  0
 11 12  1  0  0  0
 11 17  1  0  0  0
 12 13  1  0  0  0
 12 14  1  0  0  0
 14 15  2  0  0  0
 15 16  1  0  0  0
 15 18  1  0  0  0
 16 17  2  0  0  0
 22 23  1  0  0  0
 22 27  1  0  0  0
 23 24  1  0  0  0
 24 25  1  0  0  0
 25 26  1  0  0  0
 26 27  1  0  0  0
M  END
> <minimizedAffinity>
-9.27313

$$$$
1758


 28 32  0  0  0  0  0  0  0  0999 V2000
   11.7016    4.7237   11.0788 N   0  0  0  0  0  0  0  0  0  0  0  0
   12.6571    5.1466   11.8862 N   0  0  0  0  0  0  0  0  0  0  0  0
   12.3833    6.3676   12.3887 C   0  0  0  0  0  0  0  0  0  0  0  0
   13.0895    7.1010   13.2157 C   0  0  0  0  0  0  0  0  0  0  0  0
   11.1647    6.7429   11.8584 C   0  0  0  0  0  0  0  0  0  0  0  0
   10.5171    7.8932   12.0978 C   0  0  0  0  0  0  0  0  0  0  0  0
   10.7747    5.6962   11.0516 C   0  0  0  0  0  0  0  0  0  0  0  0
    9.7103    5.6503   10.3843 O   0  0  0  0  0  0  0  0  0  0  0  0
   13.5290    4.6163   12.1220 H   0  0  0  0  0  0  0  0  0  0  0  0
   11.8757   -0.7434    7.8960 I   0  0  0  0  0  0  0  0  0  0  0  0
   11.7819    1.0697    8.9623 C   0  0  0  0  0  0  0  0  0  0  0  0
   10.6138    1.5012    9.5569 C   0  0  0  0  0  0  0  0  0  0  0  0
   10.5481    2.7026   10.2642 C   0  0  0  0  0  0  0  0  0  0  0  0
   11.6648    3.4687   10.3709 C   0  0  0  0  0  0  0  0  0  0  0  0
   12.8297    3.0260    9.7706 C   0  0  0  0  0  0  0  0  0  0  0  0
   12.9152    1.8434    9.0683 C   0  0  0  0  0  0  0  0  0  0  0  0
    9.2692    8.0651   11.4386 N   0  0  0  0  0  0  0  0  0  0  0  0
    9.1370    7.9829   10.4113 H   0  0  0  0  0  0  0  0  0  0  0  0
    8.0955    8.3754   12.2385 C   0  0  0  0  0  0  0  0  0  0  0  0
    7.1706    7.1689   12.2919 C   0  0  0  0  0  0  0  0  0  0  0  0
    6.0475    7.4738   13.1346 N   0  0  0  0  0  0  0  0  0  0  0  0
    5.3509    8.6086   12.5381 C   0  0  0  0  0  0  0  0  0  0  0  0
    6.1793    9.7813   12.5105 N   0  0  0  0  0  0  0  0  0  0  0  0
    6.6556   10.0995   13.8382 C   0  0  0  0  0  0  0  0  0  0  0  0
    7.3649    9.0007   14.4371 N   0  0  0  0  0  0  0  0  0  0  0  0
    6.5373    7.7988   14.4549 C   0  0  0  0  0  0  0  0  0  0  0  0
    8.5382    8.7086   13.6463 C   0  0  0  0  0  0  0  0  0  0  0  0
    7.3158    9.5198   11.6638 C   0  0  0  0  0  0  0  0  0  0  0  0
 10 11  1  0  0  0
 11 12  2  0  0  0
 11 16  1  0  0  0
 12 13  1  0  0  0
 13 14  2  0  0  0
 14 15  1  0  0  0
 14  1  1  0  0  0
 15 16  2  0  0  0
  1  2  1  0  0  0
  1  7  1  0  0  0
  2  3  1  0  0  0
  3  4  2  0  0  0
  3  5  1  0  0  0
  5  6  2  0  0  0
  5  7  1  0  0  0
  6 17  1  0  0  0
 17 19  1  0  0  0
 19 20  1  0  0  0
 19 27  1  0  0  0
 19 28  1  0  0  0
 20 21  1  0  0  0
 21 22  1  0  0  0
 21 26  1  0  0  0
 22 23  1  0  0  0
 23 24  1  0  0  0
 23 28  1  0  0  0
 24 25  1  0  0  0
 25 26  1  0  0  0
 25 27  1  0  0  0
  7  8  2  0  0  0
  2  9  1  0  0  0
 17 18  1  0  0  0
M  END
> <minimizedAffinity>
-8.23343

$$$$
1764


 34 37  0  0  0  0  0  0  0  0999 V2000
    9.4892    6.8706   12.4205 N   0  0  0  0  0  0  0  0  0  0  0  0
   10.6335    7.1365   11.6936 C   0  0  0  0  0  0  0  0  0  0  0  0
   11.5032    8.0156   12.6032 C   0  0  0  0  0  0  0  0  0  0  0  0
   11.2199    7.4175   13.9636 C   0  0  0  0  0  0  0  0  0  0  0  0
    9.8185    6.8687   13.8429 C   0  0  0  0  0  0  0  0  0  0  0  0
   11.3675    5.8279   11.4548 C   0  0  0  0  0  0  0  0  0  0  0  0
   12.5608    5.9308   11.1410 O   0  0  0  0  0  0  0  0  0  0  0  0
   10.6793    4.6108   11.5988 N   0  0  0  0  0  0  0  0  0  0  0  0
    9.6715    4.5604   11.8507 H   0  0  0  0  0  0  0  0  0  0  0  0
   11.3643    3.3593   11.3860 C   0  0  0  0  0  0  0  0  0  0  0  0
   11.2552    2.7888   10.0241 C   0  0  0  0  0  0  0  0  0  0  0  0
   12.4462    2.2603    9.4598 N   0  0  0  0  0  0  0  0  0  0  0  0
   12.5115    0.8380    9.3693 C   0  0  0  0  0  0  0  0  0  0  0  0
   13.1756    0.4870    8.0530 C   0  0  0  0  0  0  0  0  0  0  0  0
   14.4809    1.2483    7.9463 C   0  0  0  0  0  0  0  0  0  0  0  0
   15.2197    1.1069    9.2498 C   0  0  0  0  0  0  0  0  0  0  0  0
   14.7472    2.0076   10.3292 C   0  0  0  0  0  0  0  0  0  0  0  0
   13.6088    2.8939    9.9889 C   0  0  0  0  0  0  0  0  0  0  0  0
    7.9696    7.4449   12.0781 S   0  0  0  0  0  0  0  0  0  0  0  0
    7.0794    6.3970   11.4127 O   0  0  0  0  0  0  0  0  0  0  0  0
    8.0954    8.5350   11.0118 O   0  0  0  0  0  0  0  0  0  0  0  0
    7.1168    8.1432   13.4228 C   0  0  0  0  0  0  0  0  0  0  0  0
    6.0212    7.4483   13.9621 C   0  0  0  0  0  0  0  0  0  0  0  0
    5.2420    7.9274   14.9760 C   0  0  0  0  0  0  0  0  0  0  0  0
    5.5669    9.1704   15.4882 C   0  0  0  0  0  0  0  0  0  0  0  0
    6.6165    9.8981   15.0136 C   0  0  0  0  0  0  0  0  0  0  0  0
    7.3771    9.3627   13.9808 C   0  0  0  0  0  0  0  0  0  0  0  0
    8.7675   10.3087   13.4984 Cl  0  0  0  0  0  0  0  0  0  0  0  0
    4.7593    9.6838   16.5588 N   0  0  0  0  0  0  0  0  0  0  0  0
    3.6687    8.9083   17.0502 C   0  0  0  0  0  0  0  0  0  0  0  0
    2.7148    9.4655   17.6217 O   0  0  0  0  0  0  0  0  0  0  0  0
    3.7331    7.4393   16.8484 C   0  0  0  0  0  0  0  0  0  0  0  0
    4.1622    7.2370   15.5045 O   0  0  0  0  0  0  0  0  0  0  0  0
    4.9940   10.6262   16.9576 H   0  0  0  0  0  0  0  0  0  0  0  0
 19 20  2  0  0  0
 19 21  2  0  0  0
 19  1  1  0  0  0
 19 22  1  0  0  0
  1  2  1  0  0  0
  1  5  1  0  0  0
  2  3  1  0  0  0
  2  6  1  0  0  0
  3  4  1  0  0  0
  4  5  1  0  0  0
  6  7  2  0  0  0
  6  8  1  0  0  0
  8 10  1  0  0  0
 10 11  1  0  0  0
 11 12  1  0  0  0
 12 13  1  0  0  0
 12 18  1  0  0  0
 13 14  1  0  0  0
 14 15  1  0  0  0
 15 16  1  0  0  0
 16 17  1  0  0  0
 17 18  1  0  0  0
 22 23  2  0  0  0
 22 27  1  0  0  0
 23 24  1  0  0  0
 24 25  2  0  0  0
 24 33  1  0  0  0
 25 26  1  0  0  0
 25 29  1  0  0  0
 26 27  2  0  0  0
 27 28  1  0  0  0
 29 30  1  0  0  0
 30 31  2  0  0  0
 30 32  1  0  0  0
 32 33  1  0  0  0
  8  9  1  0  0  0
 29 34  1  0  0  0
M  END
> <minimizedAffinity>
-8.76254

$$$$
1781


 24 27  0  0  0  0  0  0  0  0999 V2000
   13.0337    2.0115    9.4906 C   0  0  0  0  0  0  0  0  0  0  0  0
   13.7110    2.6608    8.5769 O   0  0  0  0  0  0  0  0  0  0  0  0
   13.3091    2.3895   10.7960 N   0  0  0  0  0  0  0  0  0  0  0  0
   12.8318    1.8900   12.0422 C   0  0  0  0  0  0  0  0  0  0  0  0
   11.7477    2.8936   12.4846 C   0  0  0  0  0  0  0  0  0  0  0  0
   12.2558    4.2423   12.1718 N   0  0  0  0  0  0  0  0  0  0  0  0
   13.6773    4.4226   12.1018 C   0  0  0  0  0  0  0  0  0  0  0  0
   14.2259    3.5646   10.9771 C   0  0  0  0  0  0  0  0  0  0  0  0
   11.3317    5.3060   11.9575 C   0  0  0  0  0  0  0  0  0  0  0  0
    9.9979    5.0944   12.0084 N   0  0  0  0  0  0  0  0  0  0  0  0
    9.1124    6.0549   11.8128 N   0  0  0  0  0  0  0  0  0  0  0  0
    9.4704    7.3193   11.5481 C   0  0  0  0  0  0  0  0  0  0  0  0
    8.3701    8.0960   11.3920 N   0  0  0  0  0  0  0  0  0  0  0  0
    7.3205    7.3132   11.5607 N   0  0  0  0  0  0  0  0  0  0  0  0
    7.7495    6.0645   11.8174 C   0  0  0  0  0  0  0  0  0  0  0  0
   10.8207    7.6165   11.4796 C   0  0  0  0  0  0  0  0  0  0  0  0
   11.7217    6.5984   11.6867 C   0  0  0  0  0  0  0  0  0  0  0  0
    9.0685   -2.1015    7.4938 Cl  0  0  0  0  0  0  0  0  0  0  0  0
   10.2437   -0.9025    8.0522 C   0  0  0  0  0  0  0  0  0  0  0  0
    9.8950    0.0508    8.9765 C   0  0  0  0  0  0  0  0  0  0  0  0
   10.8112    0.9821    9.4076 C   0  0  0  0  0  0  0  0  0  0  0  0
   12.1341    1.0311    8.9525 C   0  0  0  0  0  0  0  0  0  0  0  0
   12.4559    0.0640    8.0276 C   0  0  0  0  0  0  0  0  0  0  0  0
   11.5292   -0.8938    7.5777 C   0  0  0  0  0  0  0  0  0  0  0  0
 18 19  1  0  0  0
 19 20  2  0  0  0
 19 24  1  0  0  0
 20 21  1  0  0  0
 21 22  2  0  0  0
 22 23  1  0  0  0
 22  1  1  0  0  0
 23 24  2  0  0  0
  1  2  2  0  0  0
  1  3  1  0  0  0
  3  4  1  0  0  0
  3  8  1  0  0  0
  4  5  1  0  0  0
  5  6  1  0  0  0
  6  7  1  0  0  0
  6  9  1  0  0  0
  7  8  1  0  0  0
  9 10  2  0  0  0
  9 17  1  0  0  0
 10 11  1  0  0  0
 11 12  1  0  0  0
 11 15  1  0  0  0
 12 13  2  0  0  0
 12 16  1  0  0  0
 13 14  1  0  0  0
 14 15  2  0  0  0
 16 17  2  0  0  0
M  END
> <minimizedAffinity>
-8.96147

$$$$
1788


 30 33  0  0  0  0  0  0  0  0999 V2000
   15.1638    3.3911   10.9863 N   0  0  0  0  0  0  0  0  0  0  0  0
   14.7823    2.4863   10.1562 N   0  0  0  0  0  0  0  0  0  0  0  0
   13.4232    2.2377   10.2640 C   0  0  0  0  0  0  0  0  0  0  0  0
   12.9808    3.0407   11.2133 N   0  0  0  0  0  0  0  0  0  0  0  0
   14.0689    3.7578   11.6563 C   0  0  0  0  0  0  0  0  0  0  0  0
   13.9986    4.6185   12.5595 O   0  0  0  0  0  0  0  0  0  0  0  0
   20.7999    5.3782   11.6235 Cl  0  0  0  0  0  0  0  0  0  0  0  0
   19.1583    4.7908   11.4377 C   0  0  0  0  0  0  0  0  0  0  0  0
   18.8130    3.4657   11.6259 C   0  0  0  0  0  0  0  0  0  0  0  0
   17.5135    3.0119   11.4787 C   0  0  0  0  0  0  0  0  0  0  0  0
   16.4943    3.8769   11.1325 C   0  0  0  0  0  0  0  0  0  0  0  0
   16.8262    5.2018   10.9419 C   0  0  0  0  0  0  0  0  0  0  0  0
   18.1335    5.6575   11.0908 C   0  0  0  0  0  0  0  0  0  0  0  0
   12.7946    1.2210    9.4233 C   0  0  0  0  0  0  0  0  0  0  0  0
   13.4884    0.7862    8.2868 C   0  0  0  0  0  0  0  0  0  0  0  0
   12.9900   -0.1127    7.3848 C   0  0  0  0  0  0  0  0  0  0  0  0
   11.7248   -0.6579    7.5588 C   0  0  0  0  0  0  0  0  0  0  0  0
   11.0373   -0.2396    8.6634 C   0  0  0  0  0  0  0  0  0  0  0  0
   11.5519    0.6802    9.5817 C   0  0  0  0  0  0  0  0  0  0  0  0
   11.6795    3.1268   11.7974 C   0  0  0  0  0  0  0  0  0  0  0  0
   10.8084    4.1841   11.2498 C   0  0  0  0  0  0  0  0  0  0  0  0
   10.6601    4.1066    9.9596 O   0  0  0  0  0  0  0  0  0  0  0  0
   10.1385    5.2195   11.8623 N   0  0  0  0  0  0  0  0  0  0  0  0
   10.1843    5.5331   13.2654 C   0  0  0  0  0  0  0  0  0  0  0  0
    9.3618    6.7877   13.6093 C   0  0  0  0  0  0  0  0  0  0  0  0
    8.0002    6.6219   13.0916 N   0  0  0  0  0  0  0  0  0  0  0  0
    7.9636    6.1399   11.7306 C   0  0  0  0  0  0  0  0  0  0  0  0
    6.8778    5.7936   11.2120 O   0  0  0  0  0  0  0  0  0  0  0  0
    9.2801    6.0990   11.0498 C   0  0  0  0  0  0  0  0  0  0  0  0
    7.1573    6.8251   13.6352 H   0  0  0  0  0  0  0  0  0  0  0  0
  7  8  1  0  0  0
  8  9  2  0  0  0
  8 13  1  0  0  0
  9 10  1  0  0  0
 10 11  2  0  0  0
 11 12  1  0  0  0
 11  1  1  0  0  0
 12 13  2  0  0  0
  1  2  1  0  0  0
  1  5  1  0  0  0
  2  3  2  0  0  0
  3  4  1  0  0  0
  3 14  1  0  0  0
  4  5  1  0  0  0
  4 20  1  0  0  0
  5  6  2  0  0  0
 20 21  1  0  0  0
 21 22  2  0  0  0
 21 23  1  0  0  0
 23 24  1  0  0  0
 23 29  1  0  0  0
 24 25  1  0  0  0
 25 26  1  0  0  0
 26 27  1  0  0  0
 27 28  2  0  0  0
 27 29  1  0  0  0
 14 15  2  0  0  0
 14 19  1  0  0  0
 15 16  1  0  0  0
 16 17  2  0  0  0
 17 18  1  0  0  0
 18 19  2  0  0  0
 26 30  1  0  0  0
M  END
> <minimizedAffinity>
-9.43877

$$$$
1789


 29 32  0  0  0  0  0  0  0  0999 V2000
   12.8538    3.7676   11.2722 N   0  0  0  0  0  0  0  0  0  0  0  0
   13.8850    4.1070   12.0086 N   0  0  0  0  0  0  0  0  0  0  0  0
   13.5139    5.1682   12.7184 N   0  0  0  0  0  0  0  0  0  0  0  0
   12.2420    5.5113   12.4386 C   0  0  0  0  0  0  0  0  0  0  0  0
   11.8432    4.6182   11.5271 C   0  0  0  0  0  0  0  0  0  0  0  0
   10.5328    4.9693   11.2354 C   0  0  0  0  0  0  0  0  0  0  0  0
    9.8128    4.3579   10.4143 O   0  0  0  0  0  0  0  0  0  0  0  0
   10.1328    6.0387   11.9399 N   0  0  0  0  0  0  0  0  0  0  0  0
   11.1976    6.3775   12.6902 C   0  0  0  0  0  0  0  0  0  0  0  0
   11.2363    7.3465   13.5058 O   0  0  0  0  0  0  0  0  0  0  0  0
   14.8355    3.6321   12.0377 H   0  0  0  0  0  0  0  0  0  0  0  0
   14.1505    5.6501   13.3974 H   0  0  0  0  0  0  0  0  0  0  0  0
   12.6201   -0.8292    7.4854 Cl  0  0  0  0  0  0  0  0  0  0  0  0
   12.7059    0.5389    8.5973 C   0  0  0  0  0  0  0  0  0  0  0  0
   13.6875    1.4862    8.5266 C   0  0  0  0  0  0  0  0  0  0  0  0
   13.7877    2.5681    9.3766 C   0  0  0  0  0  0  0  0  0  0  0  0
   12.8164    2.6863   10.3658 C   0  0  0  0  0  0  0  0  0  0  0  0
   11.8068    1.7182   10.4446 C   0  0  0  0  0  0  0  0  0  0  0  0
   11.7522    0.6640    9.5773 C   0  0  0  0  0  0  0  0  0  0  0  0
    8.8726    6.7028   11.9303 C   0  0  0  0  0  0  0  0  0  0  0  0
    8.7400    8.0596   11.7090 C   0  0  0  0  0  0  0  0  0  0  0  0
    7.5158    8.6950   11.7003 C   0  0  0  0  0  0  0  0  0  0  0  0
    6.3499    7.9908   11.9186 C   0  0  0  0  0  0  0  0  0  0  0  0
    6.4664    6.6349   12.1414 C   0  0  0  0  0  0  0  0  0  0  0  0
    7.6988    6.0066   12.1471 C   0  0  0  0  0  0  0  0  0  0  0  0
    5.1186    8.6412   11.9086 O   0  0  0  0  0  0  0  0  0  0  0  0
    4.4027    8.9613   13.0617 C   0  0  0  0  0  0  0  0  0  0  0  0
    7.3828   10.0620   11.4777 O   0  0  0  0  0  0  0  0  0  0  0  0
    7.5736   10.9227   12.5853 C   0  0  0  0  0  0  0  0  0  0  0  0
 13 14  1  0  0  0
 14 15  2  0  0  0
 14 19  1  0  0  0
 15 16  1  0  0  0
 16 17  2  0  0  0
 17 18  1  0  0  0
 17  1  1  0  0  0
 18 19  2  0  0  0
  1  2  1  0  0  0
  1  5  1  0  0  0
  2  3  1  0  0  0
  3  4  1  0  0  0
  4  5  2  0  0  0
  4  9  1  0  0  0
  5  6  1  0  0  0
  6  7  2  0  0  0
  6  8  1  0  0  0
  8  9  1  0  0  0
  8 20  1  0  0  0
  9 10  2  0  0  0
 20 21  2  0  0  0
 20 25  1  0  0  0
 21 22  1  0  0  0
 22 23  2  0  0  0
 22 28  1  0  0  0
 23 24  1  0  0  0
 23 26  1  0  0  0
 24 25  2  0  0  0
 26 27  1  0  0  0
 28 29  1  0  0  0
  2 11  1  0  0  0
  3 12  1  0  0  0
M  END
> <minimizedAffinity>
-8.62607

$$$$
1790


 29 32  0  0  0  0  0  0  0  0999 V2000
   10.2183    6.7737   12.6982 N   0  0  0  0  0  0  0  0  0  0  0  0
   11.1684    7.3050   13.4414 N   0  0  0  0  0  0  0  0  0  0  0  0
   12.2358    6.5338   13.2770 N   0  0  0  0  0  0  0  0  0  0  0  0
   11.9819    5.5146   12.4383 C   0  0  0  0  0  0  0  0  0  0  0  0
   10.6979    5.6774   12.0775 C   0  0  0  0  0  0  0  0  0  0  0  0
   10.4396    4.6284   11.2155 C   0  0  0  0  0  0  0  0  0  0  0  0
    9.3081    4.4615   10.6707 O   0  0  0  0  0  0  0  0  0  0  0  0
   11.5160    3.8433   11.0441 N   0  0  0  0  0  0  0  0  0  0  0  0
   12.4770    4.3940   11.8046 C   0  0  0  0  0  0  0  0  0  0  0  0
   13.6529    3.9334   11.9083 O   0  0  0  0  0  0  0  0  0  0  0  0
   11.0755    8.1641   14.0346 H   0  0  0  0  0  0  0  0  0  0  0  0
   13.1569    6.6943   13.7389 H   0  0  0  0  0  0  0  0  0  0  0  0
    4.6105    8.8238   12.1599 Cl  0  0  0  0  0  0  0  0  0  0  0  0
    6.2560    8.1986   12.3304 C   0  0  0  0  0  0  0  0  0  0  0  0
    7.3215    8.9168   11.8278 C   0  0  0  0  0  0  0  0  0  0  0  0
    8.6122    8.4705   11.9384 C   0  0  0  0  0  0  0  0  0  0  0  0
    8.8962    7.2671   12.5657 C   0  0  0  0  0  0  0  0  0  0  0  0
    7.8146    6.5599   13.0642 C   0  0  0  0  0  0  0  0  0  0  0  0
    6.5141    7.0063   12.9547 C   0  0  0  0  0  0  0  0  0  0  0  0
   11.5698    2.6837   10.2162 C   0  0  0  0  0  0  0  0  0  0  0  0
   12.7128    2.3175    9.5347 C   0  0  0  0  0  0  0  0  0  0  0  0
   12.7892    1.2002    8.7287 C   0  0  0  0  0  0  0  0  0  0  0  0
   11.6662    0.4107    8.5970 C   0  0  0  0  0  0  0  0  0  0  0  0
   10.4958    0.7289    9.2547 C   0  0  0  0  0  0  0  0  0  0  0  0
   10.4675    1.8661   10.0561 C   0  0  0  0  0  0  0  0  0  0  0  0
    9.3854   -0.0902    9.0974 O   0  0  0  0  0  0  0  0  0  0  0  0
    9.4285   -1.2592    8.3261 C   0  0  0  0  0  0  0  0  0  0  0  0
   13.9807    0.8702    8.0543 O   0  0  0  0  0  0  0  0  0  0  0  0
   15.1530    1.5956    8.3444 C   0  0  0  0  0  0  0  0  0  0  0  0
 13 14  1  0  0  0
 14 15  2  0  0  0
 14 19  1  0  0  0
 15 16  1  0  0  0
 16 17  2  0  0  0
 17 18  1  0  0  0
 17  1  1  0  0  0
 18 19  2  0  0  0
  1  2  1  0  0  0
  1  5  1  0  0  0
  2  3  1  0  0  0
  3  4  1  0  0  0
  4  5  2  0  0  0
  4  9  1  0  0  0
  5  6  1  0  0  0
  6  7  2  0  0  0
  6  8  1  0  0  0
  8  9  1  0  0  0
  8 20  1  0  0  0
  9 10  2  0  0  0
 20 21  2  0  0  0
 20 25  1  0  0  0
 21 22  1  0  0  0
 22 23  2  0  0  0
 22 28  1  0  0  0
 23 24  1  0  0  0
 24 25  2  0  0  0
 24 26  1  0  0  0
 26 27  1  0  0  0
 28 29  1  0  0  0
  2 11  1  0  0  0
  3 12  1  0  0  0
M  END
> <minimizedAffinity>
-8.52736

$$$$
1801


 26 29  0  0  0  0  0  0  0  0999 V2000
   12.8448   -0.3631    7.3851 Cl  0  0  0  0  0  0  0  0  0  0  0  0
   13.5118    0.8062    8.5242 C   0  0  0  0  0  0  0  0  0  0  0  0
   12.6971    1.7659    9.0984 C   0  0  0  0  0  0  0  0  0  0  0  0
   13.2017    2.6781    9.9836 C   0  0  0  0  0  0  0  0  0  0  0  0
   14.5434    2.5936   10.2691 C   0  0  0  0  0  0  0  0  0  0  0  0
   15.3721    1.6531    9.7153 C   0  0  0  0  0  0  0  0  0  0  0  0
   14.8478    0.7352    8.8205 C   0  0  0  0  0  0  0  0  0  0  0  0
   15.1233    3.5623   11.2205 C   0  0  0  0  0  0  0  0  0  0  0  0
   16.3126    3.7365   11.6792 N   0  0  0  0  0  0  0  0  0  0  0  0
   16.3832    4.8336   12.6007 C   0  0  0  0  0  0  0  0  0  0  0  0
   14.9892    5.3654   12.6691 C   0  0  0  0  0  0  0  0  0  0  0  0
   14.2362    4.5199   11.7733 N   0  0  0  0  0  0  0  0  0  0  0  0
   12.8414    4.5628   11.4394 C   0  0  0  0  0  0  0  0  0  0  0  0
   11.8371    5.3613   11.8298 N   0  0  0  0  0  0  0  0  0  0  0  0
   10.7132    5.0012   11.2356 N   0  0  0  0  0  0  0  0  0  0  0  0
   11.0352    3.9534   10.4578 C   0  0  0  0  0  0  0  0  0  0  0  0
   10.2135    3.3393    9.7351 O   0  0  0  0  0  0  0  0  0  0  0  0
   12.3588    3.6599   10.5672 N   0  0  0  0  0  0  0  0  0  0  0  0
    9.3884    5.5973   11.3745 C   0  0  0  0  0  0  0  0  0  0  0  0
    9.5409    7.0453   11.6504 C   0  0  0  0  0  0  0  0  0  0  0  0
    9.4463    7.8599   10.6896 O   0  0  0  0  0  0  0  0  0  0  0  0
    9.7890    7.5576   12.9509 N   0  0  0  0  0  0  0  0  0  0  0  0
    9.8636    6.8725   13.7301 H   0  0  0  0  0  0  0  0  0  0  0  0
    9.9313    8.9792   13.1707 C   0  0  0  0  0  0  0  0  0  0  0  0
    9.2716    9.3870   14.4909 C   0  0  0  0  0  0  0  0  0  0  0  0
   11.4193    9.2457   13.3521 C   0  0  0  0  0  0  0  0  0  0  0  0
  1  2  1  0  0  0
  2  3  2  0  0  0
  2  7  1  0  0  0
  3  4  1  0  0  0
  4  5  2  0  0  0
  4 18  1  0  0  0
  5  6  1  0  0  0
  5  8  1  0  0  0
  6  7  2  0  0  0
  8  9  2  0  0  0
  8 12  1  0  0  0
  9 10  1  0  0  0
 10 11  1  0  0  0
 11 12  1  0  0  0
 12 13  1  0  0  0
 13 14  2  0  0  0
 13 18  1  0  0  0
 14 15  1  0  0  0
 15 16  1  0  0  0
 15 19  1  0  0  0
 16 17  2  0  0  0
 16 18  1  0  0  0
 19 20  1  0  0  0
 20 21  2  0  0  0
 20 22  1  0  0  0
 22 24  1  0  0  0
 24 25  1  0  0  0
 24 26  1  0  0  0
 22 23  1  0  0  0
M  END
> <minimizedAffinity>
-7.92474

$$$$
1802


 27 30  0  0  0  0  0  0  0  0999 V2000
   17.8085    3.8716   11.3210 Cl  0  0  0  0  0  0  0  0  0  0  0  0
   16.2782    3.1307   10.8448 C   0  0  0  0  0  0  0  0  0  0  0  0
   15.0917    3.7598   11.2304 C   0  0  0  0  0  0  0  0  0  0  0  0
   13.8608    3.2399   10.8852 C   0  0  0  0  0  0  0  0  0  0  0  0
   13.8668    2.0735   10.1462 C   0  0  0  0  0  0  0  0  0  0  0  0
   14.9937    1.4313    9.7522 C   0  0  0  0  0  0  0  0  0  0  0  0
   16.2404    1.9687   10.1075 C   0  0  0  0  0  0  0  0  0  0  0  0
   12.5335    1.5310    9.7804 C   0  0  0  0  0  0  0  0  0  0  0  0
   12.1921    0.4747    9.1068 N   0  0  0  0  0  0  0  0  0  0  0  0
   10.7537    0.3728    9.0175 C   0  0  0  0  0  0  0  0  0  0  0  0
   10.1853    1.5659    9.7450 C   0  0  0  0  0  0  0  0  0  0  0  0
   11.3931    2.2302   10.2069 N   0  0  0  0  0  0  0  0  0  0  0  0
   11.4719    3.4323   10.9706 C   0  0  0  0  0  0  0  0  0  0  0  0
   10.5194    4.2503   11.4649 N   0  0  0  0  0  0  0  0  0  0  0  0
   11.1036    5.2604   12.1058 N   0  0  0  0  0  0  0  0  0  0  0  0
   12.4113    5.0414   11.9902 C   0  0  0  0  0  0  0  0  0  0  0  0
   13.3142    5.7845   12.4666 O   0  0  0  0  0  0  0  0  0  0  0  0
   12.6741    3.9049   11.2870 N   0  0  0  0  0  0  0  0  0  0  0  0
   10.4283    6.3761   12.7746 C   0  0  0  0  0  0  0  0  0  0  0  0
    9.3118    6.7591   11.7544 C   0  0  0  0  0  0  0  0  0  0  0  0
    9.8832    7.1637   10.6814 O   0  0  0  0  0  0  0  0  0  0  0  0
    8.0169    6.6431   12.0788 N   0  0  0  0  0  0  0  0  0  0  0  0
    7.6664    7.0037   10.8178 H   0  0  0  0  0  0  0  0  0  0  0  0
    6.6857    6.5241   12.4121 C   0  0  0  0  0  0  0  0  0  0  0  0
    6.0130    7.8834   12.6378 C   0  0  0  0  0  0  0  0  0  0  0  0
    5.9015    8.5908   11.4646 O   0  0  0  0  0  0  0  0  0  0  0  0
    4.8217    8.2789   10.6905 C   0  0  0  0  0  0  0  0  0  0  0  0
  1  2  1  0  0  0
  2  3  2  0  0  0
  2  7  1  0  0  0
  3  4  1  0  0  0
  4  5  2  0  0  0
  4 18  1  0  0  0
  5  6  1  0  0  0
  5  8  1  0  0  0
  6  7  2  0  0  0
  8  9  2  0  0  0
  8 12  1  0  0  0
  9 10  1  0  0  0
 10 11  1  0  0  0
 11 12  1  0  0  0
 12 13  1  0  0  0
 13 14  2  0  0  0
 13 18  1  0  0  0
 14 15  1  0  0  0
 15 16  1  0  0  0
 15 19  1  0  0  0
 16 17  2  0  0  0
 16 18  1  0  0  0
 19 20  1  0  0  0
 20 21  2  0  0  0
 20 22  1  0  0  0
 22 24  1  0  0  0
 24 25  1  0  0  0
 25 26  1  0  0  0
 26 27  1  0  0  0
 22 23  1  0  0  0
M  END
> <minimizedAffinity>
-8.03364

$$$$
1804


 26 30  0  0  0  0  0  0  0  0999 V2000
    9.5190    0.1687    9.1149 Cl  0  0  0  0  0  0  0  0  0  0  0  0
   10.7854    1.2187    9.7125 C   0  0  0  0  0  0  0  0  0  0  0  0
   10.5719    2.5483   10.0358 C   0  0  0  0  0  0  0  0  0  0  0  0
   11.5756    3.3629   10.5052 C   0  0  0  0  0  0  0  0  0  0  0  0
   12.8183    2.7933   10.6419 C   0  0  0  0  0  0  0  0  0  0  0  0
   13.0873    1.4800   10.3365 C   0  0  0  0  0  0  0  0  0  0  0  0
   12.0458    0.6791    9.8618 C   0  0  0  0  0  0  0  0  0  0  0  0
   13.9206    3.6374   11.1420 C   0  0  0  0  0  0  0  0  0  0  0  0
   15.1573    3.3784   11.3648 N   0  0  0  0  0  0  0  0  0  0  0  0
   15.8705    4.5257   11.8586 C   0  0  0  0  0  0  0  0  0  0  0  0
   14.8395    5.6072   11.9166 C   0  0  0  0  0  0  0  0  0  0  0  0
   13.6283    4.9844   11.4513 N   0  0  0  0  0  0  0  0  0  0  0  0
   12.3023    5.5283   11.2880 C   0  0  0  0  0  0  0  0  0  0  0  0
   11.7945    6.7559   11.5115 N   0  0  0  0  0  0  0  0  0  0  0  0
   10.5083    6.7601   11.2055 N   0  0  0  0  0  0  0  0  0  0  0  0
   10.2334    5.5131   10.7890 C   0  0  0  0  0  0  0  0  0  0  0  0
    9.0806    5.1563   10.4128 O   0  0  0  0  0  0  0  0  0  0  0  0
   11.3290    4.7248   10.8286 N   0  0  0  0  0  0  0  0  0  0  0  0
    9.5671    7.8862   11.2966 C   0  0  0  0  0  0  0  0  0  0  0  0
    8.7158    7.6800   12.4977 C   0  0  0  0  0  0  0  0  0  0  0  0
    9.2069    6.9871   13.4242 O   0  0  0  0  0  0  0  0  0  0  0  0
    7.4111    8.2327   12.6006 N   0  0  0  0  0  0  0  0  0  0  0  0
    6.5347    8.0651   13.7442 C   0  0  0  0  0  0  0  0  0  0  0  0
    5.2032    8.6435   13.3469 C   0  0  0  0  0  0  0  0  0  0  0  0
    5.2815    8.6024   11.8346 C   0  0  0  0  0  0  0  0  0  0  0  0
    6.7328    9.0435   11.6169 C   0  0  0  0  0  0  0  0  0  0  0  0
  1  2  1  0  0  0
  2  3  2  0  0  0
  2  7  1  0  0  0
  3  4  1  0  0  0
  4  5  2  0  0  0
  4 18  1  0  0  0
  5  6  1  0  0  0
  5  8  1  0  0  0
  6  7  2  0  0  0
  8  9  2  0  0  0
  8 12  1  0  0  0
  9 10  1  0  0  0
 10 11  1  0  0  0
 11 12  1  0  0  0
 12 13  1  0  0  0
 13 14  2  0  0  0
 13 18  1  0  0  0
 14 15  1  0  0  0
 15 16  1  0  0  0
 15 19  1  0  0  0
 16 17  2  0  0  0
 16 18  1  0  0  0
 19 20  1  0  0  0
 20 21  2  0  0  0
 20 22  1  0  0  0
 22 23  1  0  0  0
 22 26  1  0  0  0
 23 24  1  0  0  0
 24 25  1  0  0  0
 25 26  1  0  0  0
M  END
> <minimizedAffinity>
-8.88185

$$$$
1806


 32 35  0  0  0  0  0  0  0  0999 V2000
   11.5008    4.7471   11.4381 N   0  0  0  0  0  0  0  0  0  0  0  0
   10.3440    4.6543   10.5715 C   0  0  0  0  0  0  0  0  0  0  0  0
   10.3220    3.2297    9.9942 C   0  0  0  0  0  0  0  0  0  0  0  0
   11.4973    2.5000   10.3264 N   0  0  0  0  0  0  0  0  0  0  0  0
   11.6930    2.2906   11.7600 C   0  0  0  0  0  0  0  0  0  0  0  0
   11.7224    3.6670   12.3799 C   0  0  0  0  0  0  0  0  0  0  0  0
   20.4043    4.3637   11.5672 Cl  0  0  0  0  0  0  0  0  0  0  0  0
   18.6460    4.4855   11.5406 C   0  0  0  0  0  0  0  0  0  0  0  0
   17.9942    5.6797   11.5072 C   0  0  0  0  0  0  0  0  0  0  0  0
   16.6141    5.7266   11.4874 C   0  0  0  0  0  0  0  0  0  0  0  0
   15.8756    4.5709   11.5002 C   0  0  0  0  0  0  0  0  0  0  0  0
   16.5343    3.3692   11.5342 C   0  0  0  0  0  0  0  0  0  0  0  0
   17.9169    3.3184   11.5539 C   0  0  0  0  0  0  0  0  0  0  0  0
   14.4299    4.5814   11.4814 N   0  0  0  0  0  0  0  0  0  0  0  0
   13.7097    5.7979   11.4465 C   0  0  0  0  0  0  0  0  0  0  0  0
   12.3985    5.8486   11.4281 C   0  0  0  0  0  0  0  0  0  0  0  0
   14.4682    7.0280   11.4319 N   0  0  0  0  0  0  0  0  0  0  0  0
   15.8836    6.9855   11.4522 C   0  0  0  0  0  0  0  0  0  0  0  0
   16.5761    8.0603   11.4400 O   0  0  0  0  0  0  0  0  0  0  0  0
   13.9250    3.6781   11.4920 H   0  0  0  0  0  0  0  0  0  0  0  0
   13.9721    7.9408   11.4069 H   0  0  0  0  0  0  0  0  0  0  0  0
   12.4966    1.9737    9.4704 C   0  0  0  0  0  0  0  0  0  0  0  0
   13.6702    2.6928    9.3207 N   0  0  0  0  0  0  0  0  0  0  0  0
   14.6783    2.3148    8.5371 C   0  0  0  0  0  0  0  0  0  0  0  0
   14.5496    1.1471    7.8379 C   0  0  0  0  0  0  0  0  0  0  0  0
   13.4056    0.4104    7.9614 C   0  0  0  0  0  0  0  0  0  0  0  0
   12.3356    0.8042    8.7896 C   0  0  0  0  0  0  0  0  0  0  0  0
   11.1641   -0.0078    8.9193 C   0  0  0  0  0  0  0  0  0  0  0  0
   10.0266    0.3139    8.5833 O   0  0  0  0  0  0  0  0  0  0  0  0
   11.2995   -1.3059    9.4842 N   0  0  0  0  0  0  0  0  0  0  0  0
   11.8116   -2.0599    8.9733 H   0  0  0  0  0  0  0  0  0  0  0  0
   10.9078   -1.5751   10.4136 H   0  0  0  0  0  0  0  0  0  0  0  0
  7  8  1  0  0  0
  8  9  2  0  0  0
  8 13  1  0  0  0
  9 10  1  0  0  0
 10 11  2  0  0  0
 10 18  1  0  0  0
 11 12  1  0  0  0
 11 14  1  0  0  0
 12 13  2  0  0  0
 14 15  1  0  0  0
 15 16  2  0  0  0
 15 17  1  0  0  0
 16  1  1  0  0  0
  1  2  1  0  0  0
  1  6  1  0  0  0
  2  3  1  0  0  0
  3  4  1  0  0  0
  4  5  1  0  0  0
  4 22  1  0  0  0
  5  6  1  0  0  0
 22 23  2  0  0  0
 22 27  1  0  0  0
 23 24  1  0  0  0
 24 25  2  0  0  0
 25 26  1  0  0  0
 26 27  2  0  0  0
 27 28  1  0  0  0
 28 29  2  0  0  0
 28 30  1  0  0  0
 17 18  1  0  0  0
 18 19  2  0  0  0
 14 20  1  0  0  0
 30 31  1  0  0  0
 30 32  1  0  0  0
 17 21  1  0  0  0
M  END
> <minimizedAffinity>
-8.85633

$$$$
1808


 24 28  0  0  0  0  0  0  0  0999 V2000
   10.7329    6.0490   11.2298 N   0  0  0  0  0  0  0  0  0  0  0  0
   10.9439    5.4422    9.9645 C   0  0  0  0  0  0  0  0  0  0  0  0
   10.2157    5.6339    8.9612 O   0  0  0  0  0  0  0  0  0  0  0  0
   12.1448    4.5675   10.0388 C   0  0  0  0  0  0  0  0  0  0  0  0
   11.7903    3.1439   10.3394 C   0  0  0  0  0  0  0  0  0  0  0  0
   12.9330    2.7445   11.0675 O   0  0  0  0  0  0  0  0  0  0  0  0
   12.8104    3.6956   12.1117 C   0  0  0  0  0  0  0  0  0  0  0  0
   12.8365    4.9709   11.3418 C   0  0  0  0  0  0  0  0  0  0  0  0
   11.9456    5.9776   11.9790 C   0  0  0  0  0  0  0  0  0  0  0  0
   12.2291    6.6303   12.9869 O   0  0  0  0  0  0  0  0  0  0  0  0
   11.4089    3.4226   12.5238 C   0  0  0  0  0  0  0  0  0  0  0  0
   10.7654    3.1402   11.3951 C   0  0  0  0  0  0  0  0  0  0  0  0
    5.4035    8.5048   12.8694 Br  0  0  0  0  0  0  0  0  0  0  0  0
    7.0589    7.7310   12.3609 C   0  0  0  0  0  0  0  0  0  0  0  0
    7.1642    6.3651   12.2568 C   0  0  0  0  0  0  0  0  0  0  0  0
    8.3779    5.8306   11.8845 C   0  0  0  0  0  0  0  0  0  0  0  0
    9.4763    6.6180   11.6187 C   0  0  0  0  0  0  0  0  0  0  0  0
    9.3712    7.9983   11.7227 C   0  0  0  0  0  0  0  0  0  0  0  0
    8.1389    8.5364   12.0993 C   0  0  0  0  0  0  0  0  0  0  0  0
   11.5300    2.2938    9.1710 C   0  0  0  0  0  0  0  0  0  0  0  0
   10.3001    1.6949    9.1803 O   0  0  0  0  0  0  0  0  0  0  0  0
   10.4669    0.3466    9.3746 C   0  0  0  0  0  0  0  0  0  0  0  0
   11.9380    0.1142    9.4832 C   0  0  0  0  0  0  0  0  0  0  0  0
   12.4884    1.3068    9.0276 O   0  0  0  0  0  0  0  0  0  0  0  0
 13 14  1  0  0  0
 14 15  2  0  0  0
 14 19  1  0  0  0
 15 16  1  0  0  0
 16 17  2  0  0  0
 17 18  1  0  0  0
 17  1  1  0  0  0
 18 19  2  0  0  0
  1  2  1  0  0  0
  1  9  1  0  0  0
  2  3  2  0  0  0
  2  4  1  0  0  0
  4  5  1  0  0  0
  4  8  1  0  0  0
  5  6  1  0  0  0
  5 12  1  0  0  0
  5 20  1  0  0  0
  6  7  1  0  0  0
  7  8  1  0  0  0
  7 11  1  0  0  0
  8  9  1  0  0  0
  9 10  2  0  0  0
 11 12  2  0  0  0
 20 21  1  0  0  0
 20 24  1  0  0  0
 21 22  1  0  0  0
 22 23  1  0  0  0
 23 24  1  0  0  0
M  END
> <minimizedAffinity>
-8.21118

$$$$
1810


 32 35  0  0  0  0  0  0  0  0999 V2000
    8.5584    8.3713   12.6103 N   0  0  0  0  0  0  0  0  0  0  0  0
    7.9384    7.2842   13.3251 C   0  0  0  0  0  0  0  0  0  0  0  0
    8.9466    6.1636   13.4247 C   0  0  0  0  0  0  0  0  0  0  0  0
   10.2447    6.6523   13.0367 N   0  0  0  0  0  0  0  0  0  0  0  0
   10.7271    7.9620   13.4597 C   0  0  0  0  0  0  0  0  0  0  0  0
    9.5618    8.9538   13.4781 C   0  0  0  0  0  0  0  0  0  0  0  0
   11.0743    5.8619   12.2212 C   0  0  0  0  0  0  0  0  0  0  0  0
   12.2405    6.2943   11.9195 O   0  0  0  0  0  0  0  0  0  0  0  0
   10.6034    4.5448   11.7130 C   0  0  0  0  0  0  0  0  0  0  0  0
   11.0288    4.2823   10.2970 C   0  0  0  0  0  0  0  0  0  0  0  0
   12.1347    3.3344   10.3911 N   0  0  0  0  0  0  0  0  0  0  0  0
   12.4330    3.0820   11.7516 C   0  0  0  0  0  0  0  0  0  0  0  0
   13.5381    2.6631   12.1722 O   0  0  0  0  0  0  0  0  0  0  0  0
   11.2005    3.4106   12.4994 C   0  0  0  0  0  0  0  0  0  0  0  0
   12.8166    2.7542    9.2569 C   0  0  0  0  0  0  0  0  0  0  0  0
   12.2525    1.4333    8.8908 C   0  0  0  0  0  0  0  0  0  0  0  0
   13.0255    0.5486    8.1536 C   0  0  0  0  0  0  0  0  0  0  0  0
   12.5662   -0.7012    7.7739 C   0  0  0  0  0  0  0  0  0  0  0  0
   11.2869   -1.0466    8.1591 C   0  0  0  0  0  0  0  0  0  0  0  0
   10.4887   -0.1882    8.8952 C   0  0  0  0  0  0  0  0  0  0  0  0
   10.9777    1.0643    9.2638 C   0  0  0  0  0  0  0  0  0  0  0  0
   14.6326    1.0441    7.6972 Cl  0  0  0  0  0  0  0  0  0  0  0  0
    7.3948    9.5285   12.0982 S   0  0  0  0  0  0  0  0  0  0  0  0
    7.3150    9.6088   10.6003 O   0  0  0  0  0  0  0  0  0  0  0  0
    7.8955   10.8813   12.5580 O   0  0  0  0  0  0  0  0  0  0  0  0
    5.8392    9.2342   12.8139 C   0  0  0  0  0  0  0  0  0  0  0  0
    5.3781    9.4590   14.0915 C   0  0  0  0  0  0  0  0  0  0  0  0
    4.0761    9.0412   14.1400 N   0  0  0  0  0  0  0  0  0  0  0  0
    3.7676    8.5962   12.9807 O   0  0  0  0  0  0  0  0  0  0  0  0
    4.7692    8.6793   12.1381 C   0  0  0  0  0  0  0  0  0  0  0  0
    4.6901    8.2373   10.7286 C   0  0  0  0  0  0  0  0  0  0  0  0
    6.1652   10.0533   15.1886 C   0  0  0  0  0  0  0  0  0  0  0  0
 23 24  2  0  0  0
 23 25  2  0  0  0
 23  1  1  0  0  0
 23 26  1  0  0  0
  1  2  1  0  0  0
  1  6  1  0  0  0
  2  3  1  0  0  0
  3  4  1  0  0  0
  4  5  1  0  0  0
  4  7  1  0  0  0
  5  6  1  0  0  0
  7  8  2  0  0  0
  7  9  1  0  0  0
  9 10  1  0  0  0
  9 14  1  0  0  0
 10 11  1  0  0  0
 11 12  1  0  0  0
 11 15  1  0  0  0
 12 13  2  0  0  0
 12 14  1  0  0  0
 15 16  1  0  0  0
 16 17  2  0  0  0
 16 21  1  0  0  0
 17 18  1  0  0  0
 17 22  1  0  0  0
 18 19  2  0  0  0
 19 20  1  0  0  0
 20 21  2  0  0  0
 26 27  1  0  0  0
 26 30  2  0  0  0
 27 28  2  0  0  0
 27 32  1  0  0  0
 28 29  1  0  0  0
 29 30  1  0  0  0
 30 31  1  0  0  0
M  END
> <minimizedAffinity>
-9.93173

$$$$
1816


 36 39  0  0  0  0  0  0  0  0999 V2000
   11.2526    7.1219   11.8727 C   0  0  0  0  0  0  0  0  0  0  0  0
   10.5348    7.7939   11.0545 O   0  0  0  0  0  0  0  0  0  0  0  0
   12.1370    6.1991   11.3430 N   0  0  0  0  0  0  0  0  0  0  0  0
   12.2820    5.9648    9.9401 C   0  0  0  0  0  0  0  0  0  0  0  0
   11.9537    4.4944    9.6732 C   0  0  0  0  0  0  0  0  0  0  0  0
   12.7802    3.6689   10.4872 N   0  0  0  0  0  0  0  0  0  0  0  0
   13.7128    4.3634   11.4004 C   0  0  0  0  0  0  0  0  0  0  0  0
   12.9789    5.4082   12.2110 C   0  0  0  0  0  0  0  0  0  0  0  0
   12.7772    2.2581   10.4988 C   0  0  0  0  0  0  0  0  0  0  0  0
   13.6573    1.7356   11.3466 O   0  0  0  0  0  0  0  0  0  0  0  0
   12.0056    1.2972    9.7698 C   0  0  0  0  0  0  0  0  0  0  0  0
   12.6443    0.4862    8.7977 C   0  0  0  0  0  0  0  0  0  0  0  0
   11.9410   -0.4407    8.0757 C   0  0  0  0  0  0  0  0  0  0  0  0
   12.5323   -1.1481    7.2182 O   0  0  0  0  0  0  0  0  0  0  0  0
   10.6259   -0.6371    8.2375 N   0  0  0  0  0  0  0  0  0  0  0  0
   10.0248    0.1256    9.1515 C   0  0  0  0  0  0  0  0  0  0  0  0
    8.7734   -0.0222    9.3434 O   0  0  0  0  0  0  0  0  0  0  0  0
   10.7034    1.0675    9.8956 N   0  0  0  0  0  0  0  0  0  0  0  0
    9.9009   -1.6186    7.4641 C   0  0  0  0  0  0  0  0  0  0  0  0
   10.1431    1.6067   10.5845 H   0  0  0  0  0  0  0  0  0  0  0  0
   11.0693    7.3952   13.3250 C   0  0  0  0  0  0  0  0  0  0  0  0
    4.3469   10.8271   14.9177 Cl  0  0  0  0  0  0  0  0  0  0  0  0
    5.3695    9.4225   14.7184 C   0  0  0  0  0  0  0  0  0  0  0  0
    6.7110    9.5284   14.3640 C   0  0  0  0  0  0  0  0  0  0  0  0
    7.5116    8.4231   14.2062 C   0  0  0  0  0  0  0  0  0  0  0  0
    6.9623    7.1782   14.4080 C   0  0  0  0  0  0  0  0  0  0  0  0
    5.6113    7.0759   14.7656 C   0  0  0  0  0  0  0  0  0  0  0  0
    4.8090    8.1826   14.9225 C   0  0  0  0  0  0  0  0  0  0  0  0
    7.7149    6.1147   14.2618 O   0  0  0  0  0  0  0  0  0  0  0  0
    8.9805    6.1804   13.9271 C   0  0  0  0  0  0  0  0  0  0  0  0
    9.6810    5.1216   13.7946 O   0  0  0  0  0  0  0  0  0  0  0  0
    9.6368    7.3887   13.6990 C   0  0  0  0  0  0  0  0  0  0  0  0
    8.8606    8.5155   13.8498 C   0  0  0  0  0  0  0  0  0  0  0  0
    9.4354    9.8408   13.6417 C   0  0  0  0  0  0  0  0  0  0  0  0
    3.4530    8.0699   15.2811 O   0  0  0  0  0  0  0  0  0  0  0  0
    3.0501    7.8633   16.6125 C   0  0  0  0  0  0  0  0  0  0  0  0
 22 23  1  0  0  0
 23 24  2  0  0  0
 23 28  1  0  0  0
 24 25  1  0  0  0
 25 26  2  0  0  0
 25 33  1  0  0  0
 26 27  1  0  0  0
 26 29  1  0  0  0
 27 28  2  0  0  0
 28 35  1  0  0  0
 35 36  1  0  0  0
 29 30  1  0  0  0
 30 31  2  0  0  0
 30 32  1  0  0  0
 32 33  2  0  0  0
 32 21  1  0  0  0
 33 34  1  0  0  0
 21  1  1  0  0  0
  1  2  2  0  0  0
  1  3  1  0  0  0
  3  4  1  0  0  0
  3  8  1  0  0  0
  4  5  1  0  0  0
  5  6  1  0  0  0
  6  7  1  0  0  0
  6  9  1  0  0  0
  7  8  1  0  0  0
  9 10  2  0  0  0
  9 11  1  0  0  0
 11 12  2  0  0  0
 11 18  1  0  0  0
 12 13  1  0  0  0
 13 14  2  0  0  0
 13 15  1  0  0  0
 15 16  1  0  0  0
 15 19  1  0  0  0
 16 17  2  0  0  0
 16 18  1  0  0  0
 18 20  1  0  0  0
M  END
> <minimizedAffinity>
-9.21975

$$$$
1822


 24 27  0  0  0  0  0  0  0  0999 V2000
    6.8500    8.1819   12.2673 Cl  0  0  0  0  0  0  0  0  0  0  0  0
    8.3996    7.3543   12.1515 C   0  0  0  0  0  0  0  0  0  0  0  0
    9.5017    7.9446   12.7281 C   0  0  0  0  0  0  0  0  0  0  0  0
   10.6781    7.3049   12.6343 N   0  0  0  0  0  0  0  0  0  0  0  0
   10.8161    6.1114   11.9997 C   0  0  0  0  0  0  0  0  0  0  0  0
    9.7473    5.5257   11.4342 N   0  0  0  0  0  0  0  0  0  0  0  0
   10.1316    4.3796   10.8802 N   0  0  0  0  0  0  0  0  0  0  0  0
   11.4529    4.1919   11.0715 C   0  0  0  0  0  0  0  0  0  0  0  0
   11.8518    5.2843   11.7702 N   0  0  0  0  0  0  0  0  0  0  0  0
    8.5434    6.1443   11.5092 C   0  0  0  0  0  0  0  0  0  0  0  0
    7.5303    5.5917   10.9750 O   0  0  0  0  0  0  0  0  0  0  0  0
    9.3662    9.2640   13.4332 C   0  0  0  0  0  0  0  0  0  0  0  0
   11.5205    7.7492   13.0703 H   0  0  0  0  0  0  0  0  0  0  0  0
   12.2531    3.0956   10.6372 N   0  0  0  0  0  0  0  0  0  0  0  0
   11.8504    2.0770    9.7320 C   0  0  0  0  0  0  0  0  0  0  0  0
   10.9050    2.1017    8.9020 O   0  0  0  0  0  0  0  0  0  0  0  0
   12.7527    0.8871    9.8980 C   0  0  0  0  0  0  0  0  0  0  0  0
   13.8937    1.3624   10.7246 C   0  0  0  0  0  0  0  0  0  0  0  0
   15.2353    1.3432   10.0139 C   0  0  0  0  0  0  0  0  0  0  0  0
   15.0268    2.0245    8.6959 C   0  0  0  0  0  0  0  0  0  0  0  0
   14.0223    1.5611    7.9743 C   0  0  0  0  0  0  0  0  0  0  0  0
   13.2271    0.4410    8.5317 C   0  0  0  0  0  0  0  0  0  0  0  0
   13.5890    2.7797   10.9970 C   0  0  0  0  0  0  0  0  0  0  0  0
   14.4056    3.6237   11.4911 O   0  0  0  0  0  0  0  0  0  0  0  0
  1  2  1  0  0  0
  2  3  2  0  0  0
  2 10  1  0  0  0
  3  4  1  0  0  0
  3 12  1  0  0  0
  4  5  1  0  0  0
  5  6  1  0  0  0
  5  9  2  0  0  0
  6  7  1  0  0  0
  6 10  1  0  0  0
  7  8  2  0  0  0
  8  9  1  0  0  0
  8 14  1  0  0  0
 14 15  1  0  0  0
 14 23  1  0  0  0
 15 16  2  0  0  0
 15 17  1  0  0  0
 17 18  1  0  0  0
 17 22  1  0  0  0
 18 19  1  0  0  0
 18 23  1  0  0  0
 19 20  1  0  0  0
 20 21  2  0  0  0
 21 22  1  0  0  0
 23 24  2  0  0  0
 10 11  2  0  0  0
  4 13  1  0  0  0
M  END
> <minimizedAffinity>
-8.95977

$$$$
1825


 29 32  0  0  0  0  0  0  0  0999 V2000
   12.4186    3.5938   11.1027 N   0  0  0  0  0  0  0  0  0  0  0  0
   13.5940    3.0929   10.6180 C   0  0  0  0  0  0  0  0  0  0  0  0
   13.3348    2.0054    9.8732 N   0  0  0  0  0  0  0  0  0  0  0  0
   12.0180    1.7643    9.8426 C   0  0  0  0  0  0  0  0  0  0  0  0
   11.4670    2.7865   10.6295 C   0  0  0  0  0  0  0  0  0  0  0  0
   14.5998    1.4722    9.3681 C   0  0  0  0  0  0  0  0  0  0  0  0
   15.6729    2.1216   10.2212 C   0  0  0  0  0  0  0  0  0  0  0  0
   15.0466    3.3984   10.6562 C   0  0  0  0  0  0  0  0  0  0  0  0
   11.2257    0.7286    9.1997 C   0  0  0  0  0  0  0  0  0  0  0  0
   11.7404   -0.1177    8.2569 C   0  0  0  0  0  0  0  0  0  0  0  0
   11.0046   -1.1198    7.6515 C   0  0  0  0  0  0  0  0  0  0  0  0
    9.6721   -1.3174    7.9798 C   0  0  0  0  0  0  0  0  0  0  0  0
    9.1535   -0.4685    8.9275 C   0  0  0  0  0  0  0  0  0  0  0  0
    9.8882    0.5323    9.5322 C   0  0  0  0  0  0  0  0  0  0  0  0
    8.9041   -2.3096    7.3941 O   0  0  0  0  0  0  0  0  0  0  0  0
    7.8289   -2.0305    6.5165 C   0  0  0  0  0  0  0  0  0  0  0  0
   12.3049    4.7698   11.9776 C   0  0  0  0  0  0  0  0  0  0  0  0
   10.0504    5.7826   12.5355 N   0  0  0  0  0  0  0  0  0  0  0  0
   11.0428    5.5199   11.6048 C   0  0  0  0  0  0  0  0  0  0  0  0
   10.9737    5.8676   10.4210 O   0  0  0  0  0  0  0  0  0  0  0  0
   10.2275    5.4349   13.5267 H   0  0  0  0  0  0  0  0  0  0  0  0
    7.6127   10.3221   12.4504 Cl  0  0  0  0  0  0  0  0  0  0  0  0
    7.6606    8.5836   12.2476 C   0  0  0  0  0  0  0  0  0  0  0  0
    8.8112    7.8599   12.4631 C   0  0  0  0  0  0  0  0  0  0  0  0
    8.8387    6.4588   12.2921 C   0  0  0  0  0  0  0  0  0  0  0  0
    7.6648    5.8800   11.9070 C   0  0  0  0  0  0  0  0  0  0  0  0
    6.4842    6.6173   11.6858 C   0  0  0  0  0  0  0  0  0  0  0  0
    6.4888    7.9776   11.8584 C   0  0  0  0  0  0  0  0  0  0  0  0
   10.0343    8.5664   12.8825 C   0  0  0  0  0  0  0  0  0  0  0  0
 22 23  1  0  0  0
 23 24  2  0  0  0
 23 28  1  0  0  0
 24 25  1  0  0  0
 24 29  1  0  0  0
 25 26  2  0  0  0
 25 18  1  0  0  0
 26 27  1  0  0  0
 27 28  2  0  0  0
 18 19  1  0  0  0
 19 20  2  0  0  0
 19 17  1  0  0  0
 17  1  1  0  0  0
  1  2  1  0  0  0
  1  5  1  0  0  0
  2  3  2  0  0  0
  2  8  1  0  0  0
  3  4  1  0  0  0
  3  6  1  0  0  0
  4  5  2  0  0  0
  4  9  1  0  0  0
  9 10  2  0  0  0
  9 14  1  0  0  0
 10 11  1  0  0  0
 11 12  2  0  0  0
 12 13  1  0  0  0
 12 15  1  0  0  0
 13 14  2  0  0  0
 15 16  1  0  0  0
  6  7  1  0  0  0
  7  8  1  0  0  0
 18 21  1  0  0  0
M  END
> <minimizedAffinity>
-9.30334

$$$$
1835


 36 39  0  0  0  0  0  0  0  0999 V2000
   10.1863    5.5233   11.2705 C   0  0  0  0  0  0  0  0  0  0  0  0
    9.5632    6.3115   12.1605 N   0  0  0  0  0  0  0  0  0  0  0  0
   10.4003    7.3358   12.3989 C   0  0  0  0  0  0  0  0  0  0  0  0
   10.3177    8.4278   13.1973 N   0  0  0  0  0  0  0  0  0  0  0  0
   11.3120    9.3342   13.2662 C   0  0  0  0  0  0  0  0  0  0  0  0
   12.4308    9.1693   12.5278 N   0  0  0  0  0  0  0  0  0  0  0  0
   12.5876    8.1105   11.7113 C   0  0  0  0  0  0  0  0  0  0  0  0
   11.5542    7.1956   11.6578 C   0  0  0  0  0  0  0  0  0  0  0  0
   11.3946    6.0482   10.9578 N   0  0  0  0  0  0  0  0  0  0  0  0
   13.7708    7.9653   10.9513 N   0  0  0  0  0  0  0  0  0  0  0  0
   14.0525    8.6619   10.2400 H   0  0  0  0  0  0  0  0  0  0  0  0
   14.3723    7.1375   11.1101 H   0  0  0  0  0  0  0  0  0  0  0  0
    8.2782    6.1713   12.7811 C   0  0  0  0  0  0  0  0  0  0  0  0
    8.2890    6.5317   14.1261 O   0  0  0  0  0  0  0  0  0  0  0  0
    6.9244    6.6334   14.3942 C   0  0  0  0  0  0  0  0  0  0  0  0
    6.4913    7.6133   13.3141 C   0  0  0  0  0  0  0  0  0  0  0  0
    7.2473    7.0691   12.1196 C   0  0  0  0  0  0  0  0  0  0  0  0
    6.3371    6.3279   11.3628 O   0  0  0  0  0  0  0  0  0  0  0  0
    5.1181    7.5880   13.1142 O   0  0  0  0  0  0  0  0  0  0  0  0
    6.4116    5.3676   11.5331 H   0  0  0  0  0  0  0  0  0  0  0  0
    4.7591    6.8084   13.6175 H   0  0  0  0  0  0  0  0  0  0  0  0
    6.6416    7.1609   15.7749 C   0  0  0  0  0  0  0  0  0  0  0  0
    5.3158    7.0801   16.1223 O   0  0  0  0  0  0  0  0  0  0  0  0
    4.7333    6.9836   15.3376 H   0  0  0  0  0  0  0  0  0  0  0  0
    9.6671    4.3170   10.7296 N   0  0  0  0  0  0  0  0  0  0  0  0
    8.7019    3.9864   10.9679 H   0  0  0  0  0  0  0  0  0  0  0  0
   10.7161    2.3252   10.2390 C   0  0  0  0  0  0  0  0  0  0  0  0
   10.4058    3.5105    9.8610 N   0  0  0  0  0  0  0  0  0  0  0  0
   13.5956    3.0053    9.8936 Cl  0  0  0  0  0  0  0  0  0  0  0  0
   12.8308    1.6176    9.1548 C   0  0  0  0  0  0  0  0  0  0  0  0
   11.4891    1.4119    9.3923 C   0  0  0  0  0  0  0  0  0  0  0  0
   10.8905    0.3169    8.8075 C   0  0  0  0  0  0  0  0  0  0  0  0
   11.6050   -0.5603    8.0033 C   0  0  0  0  0  0  0  0  0  0  0  0
   12.9485   -0.3615    7.7600 C   0  0  0  0  0  0  0  0  0  0  0  0
   13.5471    0.7335    8.3448 C   0  0  0  0  0  0  0  0  0  0  0  0
    9.1771    0.0493    9.1075 Cl  0  0  0  0  0  0  0  0  0  0  0  0
 29 30  1  0  0  0
 30 31  2  0  0  0
 30 35  1  0  0  0
 31 32  1  0  0  0
 31 27  1  0  0  0
 32 33  2  0  0  0
 32 36  1  0  0  0
 33 34  1  0  0  0
 34 35  2  0  0  0
 27 28  2  0  0  0
 28 25  1  0  0  0
 25  1  1  0  0  0
  1  2  1  0  0  0
  1  9  2  0  0  0
  2  3  1  0  0  0
  2 13  1  0  0  0
  3  4  2  0  0  0
  3  8  1  0  0  0
  4  5  1  0  0  0
  5  6  2  0  0  0
  6  7  1  0  0  0
  7  8  2  0  0  0
  7 10  1  0  0  0
  8  9  1  0  0  0
 13 14  1  0  0  0
 13 17  1  0  0  0
 14 15  1  0  0  0
 15 16  1  0  0  0
 15 22  1  0  0  0
 16 17  1  0  0  0
 16 19  1  0  0  0
 17 18  1  0  0  0
 22 23  1  0  0  0
 25 26  1  0  0  0
 10 11  1  0  0  0
 10 12  1  0  0  0
 18 20  1  0  0  0
 19 21  1  0  0  0
 23 24  1  0  0  0
M  END
> <minimizedAffinity>
-9.72678

$$$$
1837


 29 32  0  0  0  0  0  0  0  0999 V2000
   12.2368    5.4680   12.2171 N   0  0  0  0  0  0  0  0  0  0  0  0
   12.8654    6.5743   12.9688 C   0  0  0  0  0  0  0  0  0  0  0  0
   11.6389    7.3519   13.4896 C   0  0  0  0  0  0  0  0  0  0  0  0
   10.6774    7.2297   12.3833 N   0  0  0  0  0  0  0  0  0  0  0  0
   11.2472    7.3225   11.0763 C   0  0  0  0  0  0  0  0  0  0  0  0
   12.0180    6.0109   10.8553 C   0  0  0  0  0  0  0  0  0  0  0  0
    9.3243    7.0214   12.6862 C   0  0  0  0  0  0  0  0  0  0  0  0
    8.9578    6.0555   13.5834 N   0  0  0  0  0  0  0  0  0  0  0  0
    7.6945    5.7892   13.9130 C   0  0  0  0  0  0  0  0  0  0  0  0
    6.7054    6.4907   13.3488 N   0  0  0  0  0  0  0  0  0  0  0  0
    6.9352    7.4554   12.4641 C   0  0  0  0  0  0  0  0  0  0  0  0
    6.1460    8.2912   11.7600 N   0  0  0  0  0  0  0  0  0  0  0  0
    6.9428    9.0330   11.0333 N   0  0  0  0  0  0  0  0  0  0  0  0
    8.2078    8.7038   11.2446 N   0  0  0  0  0  0  0  0  0  0  0  0
    8.2656    7.7240   12.1268 C   0  0  0  0  0  0  0  0  0  0  0  0
    4.6987    8.3894   11.7666 C   0  0  0  0  0  0  0  0  0  0  0  0
    4.1988    9.0770   13.0182 C   0  0  0  0  0  0  0  0  0  0  0  0
   13.1391    4.3345   12.1263 C   0  0  0  0  0  0  0  0  0  0  0  0
   12.3858    2.6197   10.4044 N   0  0  0  0  0  0  0  0  0  0  0  0
   12.2993    3.1555   11.6926 C   0  0  0  0  0  0  0  0  0  0  0  0
   11.5023    2.6559   12.5269 O   0  0  0  0  0  0  0  0  0  0  0  0
   13.0516    3.1168    9.7333 H   0  0  0  0  0  0  0  0  0  0  0  0
    9.5070   -2.1087    8.1221 Cl  0  0  0  0  0  0  0  0  0  0  0  0
   10.3520   -0.7261    8.7853 C   0  0  0  0  0  0  0  0  0  0  0  0
   11.7351   -0.7072    8.8937 C   0  0  0  0  0  0  0  0  0  0  0  0
   12.3717    0.3879    9.4176 C   0  0  0  0  0  0  0  0  0  0  0  0
   11.6803    1.5242    9.8638 C   0  0  0  0  0  0  0  0  0  0  0  0
   10.3191    1.4814    9.7482 C   0  0  0  0  0  0  0  0  0  0  0  0
    9.6605    0.3786    9.2185 C   0  0  0  0  0  0  0  0  0  0  0  0
 23 24  1  0  0  0
 24 25  2  0  0  0
 24 29  1  0  0  0
 25 26  1  0  0  0
 26 27  2  0  0  0
 27 28  1  0  0  0
 27 19  1  0  0  0
 28 29  2  0  0  0
 19 20  1  0  0  0
 20 21  2  0  0  0
 20 18  1  0  0  0
 18  1  1  0  0  0
  1  2  1  0  0  0
  1  6  1  0  0  0
  2  3  1  0  0  0
  3  4  1  0  0  0
  4  5  1  0  0  0
  4  7  1  0  0  0
  5  6  1  0  0  0
  7  8  2  0  0  0
  7 15  1  0  0  0
  8  9  1  0  0  0
  9 10  2  0  0  0
 10 11  1  0  0  0
 11 12  1  0  0  0
 11 15  2  0  0  0
 12 13  1  0  0  0
 12 16  1  0  0  0
 13 14  2  0  0  0
 14 15  1  0  0  0
 16 17  1  0  0  0
 19 22  1  0  0  0
M  END
> <minimizedAffinity>
-8.49636

$$$$
1846


 31 34  0  0  0  0  0  0  0  0999 V2000
   10.8819    5.7862   11.3789 N   0  0  0  0  0  0  0  0  0  0  0  0
   10.5950    6.7830   10.5130 C   0  0  0  0  0  0  0  0  0  0  0  0
    9.5340    7.5896   10.7254 N   0  0  0  0  0  0  0  0  0  0  0  0
    8.7208    7.4577   11.7798 C   0  0  0  0  0  0  0  0  0  0  0  0
    7.6628    8.2553   12.0002 N   0  0  0  0  0  0  0  0  0  0  0  0
    6.8309    8.1441   13.0496 C   0  0  0  0  0  0  0  0  0  0  0  0
    7.1029    7.1462   13.9341 N   0  0  0  0  0  0  0  0  0  0  0  0
    8.1503    6.3264   13.7521 C   0  0  0  0  0  0  0  0  0  0  0  0
    8.9977    6.4497   12.6712 C   0  0  0  0  0  0  0  0  0  0  0  0
   10.0790    5.6172   12.4664 C   0  0  0  0  0  0  0  0  0  0  0  0
   10.2799    4.7147   13.3161 O   0  0  0  0  0  0  0  0  0  0  0  0
    5.7252    9.0052   13.2453 N   0  0  0  0  0  0  0  0  0  0  0  0
    4.5190    8.7600   12.4897 C   0  0  0  0  0  0  0  0  0  0  0  0
    3.3129    9.0008   13.3958 C   0  0  0  0  0  0  0  0  0  0  0  0
    3.4088   10.2159   14.0705 O   0  0  0  0  0  0  0  0  0  0  0  0
    4.4539   10.0826   14.9849 C   0  0  0  0  0  0  0  0  0  0  0  0
    5.7438   10.1191   14.1648 C   0  0  0  0  0  0  0  0  0  0  0  0
   11.9837    4.8893   11.2273 C   0  0  0  0  0  0  0  0  0  0  0  0
   10.9594    2.6155   10.7847 N   0  0  0  0  0  0  0  0  0  0  0  0
   11.6647    3.7359   10.3174 C   0  0  0  0  0  0  0  0  0  0  0  0
   12.0598    3.8406    9.1457 O   0  0  0  0  0  0  0  0  0  0  0  0
   10.6524    2.6027   11.8151 H   0  0  0  0  0  0  0  0  0  0  0  0
   12.7856   -0.7988    7.4484 Cl  0  0  0  0  0  0  0  0  0  0  0  0
   11.4445   -0.1680    8.3814 C   0  0  0  0  0  0  0  0  0  0  0  0
   10.2062   -0.7582    8.3022 C   0  0  0  0  0  0  0  0  0  0  0  0
    9.2096   -0.2008    9.0647 C   0  0  0  0  0  0  0  0  0  0  0  0
    9.4047    0.9076    9.8913 C   0  0  0  0  0  0  0  0  0  0  0  0
   10.6363    1.5034    9.9773 C   0  0  0  0  0  0  0  0  0  0  0  0
   11.6477    0.9219    9.1899 C   0  0  0  0  0  0  0  0  0  0  0  0
    9.9722   -1.8717    7.4837 O   0  0  0  0  0  0  0  0  0  0  0  0
    8.6513   -2.2389    7.1587 C   0  0  0  0  0  0  0  0  0  0  0  0
 23 24  1  0  0  0
 24 25  2  0  0  0
 24 29  1  0  0  0
 25 26  1  0  0  0
 25 30  1  0  0  0
 26 27  2  0  0  0
 27 28  1  0  0  0
 28 29  2  0  0  0
 28 19  1  0  0  0
 19 20  1  0  0  0
 20 21  2  0  0  0
 20 18  1  0  0  0
 18  1  1  0  0  0
  1  2  1  0  0  0
  1 10  1  0  0  0
  2  3  2  0  0  0
  3  4  1  0  0  0
  4  5  2  0  0  0
  4  9  1  0  0  0
  5  6  1  0  0  0
  6  7  2  0  0  0
  6 12  1  0  0  0
  7  8  1  0  0  0
  8  9  2  0  0  0
  9 10  1  0  0  0
 10 11  2  0  0  0
 12 13  1  0  0  0
 12 17  1  0  0  0
 13 14  1  0  0  0
 14 15  1  0  0  0
 15 16  1  0  0  0
 16 17  1  0  0  0
 30 31  1  0  0  0
 19 22  1  0  0  0
M  END
> <minimizedAffinity>
-9.20962

$$$$
1850


 24 27  0  0  0  0  0  0  0  0999 V2000
   15.0593    0.9877    8.1487 Cl  0  0  0  0  0  0  0  0  0  0  0  0
   13.3379    0.7516    8.4173 C   0  0  0  0  0  0  0  0  0  0  0  0
   12.6639    1.5135    9.3506 C   0  0  0  0  0  0  0  0  0  0  0  0
   11.3260    1.3309    9.5602 C   0  0  0  0  0  0  0  0  0  0  0  0
   10.6729    0.3716    8.8200 C   0  0  0  0  0  0  0  0  0  0  0  0
   11.3261   -0.4001    7.8841 C   0  0  0  0  0  0  0  0  0  0  0  0
   12.6775   -0.2074    7.6799 C   0  0  0  0  0  0  0  0  0  0  0  0
   10.5335    2.1086   10.5423 C   0  0  0  0  0  0  0  0  0  0  0  0
   11.3850    3.1620   11.0385 N   0  0  0  0  0  0  0  0  0  0  0  0
   12.7292    2.7895   11.4122 C   0  0  0  0  0  0  0  0  0  0  0  0
   13.4697    2.5231   10.0962 C   0  0  0  0  0  0  0  0  0  0  0  0
   10.9517    4.5028   11.1624 C   0  0  0  0  0  0  0  0  0  0  0  0
   11.7458    5.3752   11.6027 O   0  0  0  0  0  0  0  0  0  0  0  0
    9.5883    4.9547   10.7982 C   0  0  0  0  0  0  0  0  0  0  0  0
    9.4678    6.3431   10.8261 O   0  0  0  0  0  0  0  0  0  0  0  0
    8.5879    7.0325   11.6500 C   0  0  0  0  0  0  0  0  0  0  0  0
    8.4833    8.3697   11.5279 N   0  0  0  0  0  0  0  0  0  0  0  0
    7.6596    9.0875   12.2870 N   0  0  0  0  0  0  0  0  0  0  0  0
    6.8790    8.5301   13.2220 C   0  0  0  0  0  0  0  0  0  0  0  0
    6.1579    9.4938   13.8277 N   0  0  0  0  0  0  0  0  0  0  0  0
    6.4969   10.6288   13.2664 N   0  0  0  0  0  0  0  0  0  0  0  0
    7.4191   10.4110   12.3141 C   0  0  0  0  0  0  0  0  0  0  0  0
    6.9602    7.1507   13.3765 C   0  0  0  0  0  0  0  0  0  0  0  0
    7.8104    6.4080   12.5934 C   0  0  0  0  0  0  0  0  0  0  0  0
  1  2  1  0  0  0
  2  3  2  0  0  0
  2  7  1  0  0  0
  3  4  1  0  0  0
  3 11  1  0  0  0
  4  5  2  0  0  0
  4  8  1  0  0  0
  5  6  1  0  0  0
  6  7  2  0  0  0
  8  9  1  0  0  0
  9 10  1  0  0  0
  9 12  1  0  0  0
 10 11  1  0  0  0
 12 13  2  0  0  0
 12 14  1  0  0  0
 14 15  1  0  0  0
 15 16  1  0  0  0
 16 17  2  0  0  0
 16 24  1  0  0  0
 17 18  1  0  0  0
 18 19  1  0  0  0
 18 22  1  0  0  0
 19 20  2  0  0  0
 19 23  1  0  0  0
 20 21  1  0  0  0
 21 22  2  0  0  0
 23 24  2  0  0  0
M  END
> <minimizedAffinity>
-9.13215

$$$$
1852


 26 29  0  0  0  0  0  0  0  0999 V2000
   11.7873    5.0483   10.6076 S   0  0  0  0  0  0  0  0  0  0  0  0
   13.1520    5.6071   10.8288 O   0  0  0  0  0  0  0  0  0  0  0  0
   11.1410    5.7846    9.4636 O   0  0  0  0  0  0  0  0  0  0  0  0
   11.9014    3.3536   10.1938 C   0  0  0  0  0  0  0  0  0  0  0  0
   10.7897    2.6659    9.7493 C   0  0  0  0  0  0  0  0  0  0  0  0
   10.8264    1.3244    9.4095 C   0  0  0  0  0  0  0  0  0  0  0  0
   12.0139    0.6227    9.5096 C   0  0  0  0  0  0  0  0  0  0  0  0
   13.1137    1.3126    9.9509 C   0  0  0  0  0  0  0  0  0  0  0  0
   13.0811    2.6481   10.2902 C   0  0  0  0  0  0  0  0  0  0  0  0
   12.0063   -0.7178    9.1577 O   0  0  0  0  0  0  0  0  0  0  0  0
   10.8458   -1.5293    9.1995 C   0  0  0  0  0  0  0  0  0  0  0  0
    9.5758   -0.7603    8.9492 C   0  0  0  0  0  0  0  0  0  0  0  0
    9.7256    0.6290    8.9655 O   0  0  0  0  0  0  0  0  0  0  0  0
   10.8113    5.2996   12.0032 N   0  0  0  0  0  0  0  0  0  0  0  0
    9.4367    5.5191   11.6805 C   0  0  0  0  0  0  0  0  0  0  0  0
    8.9811    6.7580   12.4320 C   0  0  0  0  0  0  0  0  0  0  0  0
   10.2784    7.5272   12.5730 C   0  0  0  0  0  0  0  0  0  0  0  0
   11.2661    6.3806   12.8188 C   0  0  0  0  0  0  0  0  0  0  0  0
    8.1223    7.4896   11.5736 O   0  0  0  0  0  0  0  0  0  0  0  0
    6.8620    7.9038   11.9735 C   0  0  0  0  0  0  0  0  0  0  0  0
    6.6946    8.0914   13.3146 N   0  0  0  0  0  0  0  0  0  0  0  0
    5.4832    8.4938   13.7322 C   0  0  0  0  0  0  0  0  0  0  0  0
    4.4337    8.7148   12.8631 C   0  0  0  0  0  0  0  0  0  0  0  0
    4.6616    8.5085   11.5159 C   0  0  0  0  0  0  0  0  0  0  0  0
    5.8800    8.1050   11.0966 N   0  0  0  0  0  0  0  0  0  0  0  0
    2.8585    9.2385   13.4222 Cl  0  0  0  0  0  0  0  0  0  0  0  0
  1  2  2  0  0  0
  1  3  2  0  0  0
  1 14  1  0  0  0
  1  4  1  0  0  0
 14 15  1  0  0  0
 14 18  1  0  0  0
 15 16  1  0  0  0
 16 17  1  0  0  0
 16 19  1  0  0  0
 17 18  1  0  0  0
 19 20  1  0  0  0
 20 21  2  0  0  0
 20 25  1  0  0  0
 21 22  1  0  0  0
 22 23  2  0  0  0
 23 24  1  0  0  0
 23 26  1  0  0  0
 24 25  2  0  0  0
  4  5  2  0  0  0
  4  9  1  0  0  0
  5  6  1  0  0  0
  6  7  2  0  0  0
  6 13  1  0  0  0
  7  8  1  0  0  0
  7 10  1  0  0  0
  8  9  2  0  0  0
 10 11  1  0  0  0
 11 12  1  0  0  0
 12 13  1  0  0  0
M  END
> <minimizedAffinity>
-9.02531

$$$$
1856


 31 34  0  0  0  0  0  0  0  0999 V2000
   11.5908    4.8161    9.8150 C   0  0  0  0  0  0  0  0  0  0  0  0
   12.7553    4.8499   10.4810 N   0  0  0  0  0  0  0  0  0  0  0  0
   13.4373    3.7413   10.8722 C   0  0  0  0  0  0  0  0  0  0  0  0
   12.8526    2.5601   10.5391 N   0  0  0  0  0  0  0  0  0  0  0  0
   11.6903    2.4635    9.8752 C   0  0  0  0  0  0  0  0  0  0  0  0
   11.0855    3.5919    9.5272 N   0  0  0  0  0  0  0  0  0  0  0  0
   11.1392    1.1995    9.5613 N   0  0  0  0  0  0  0  0  0  0  0  0
   11.8800    0.1593    8.8772 C   0  0  0  0  0  0  0  0  0  0  0  0
   11.3782   -1.1992    9.3162 C   0  0  0  0  0  0  0  0  0  0  0  0
   10.0347   -1.3794    9.1235 O   0  0  0  0  0  0  0  0  0  0  0  0
    9.3386   -0.2002    8.8909 C   0  0  0  0  0  0  0  0  0  0  0  0
    9.7588    0.8520    9.9132 C   0  0  0  0  0  0  0  0  0  0  0  0
   14.6581    3.8120   11.5696 N   0  0  0  0  0  0  0  0  0  0  0  0
   15.7901    3.0492   11.1360 C   0  0  0  0  0  0  0  0  0  0  0  0
   16.9483    4.0194   10.9745 C   0  0  0  0  0  0  0  0  0  0  0  0
   17.1439    4.6299   12.2227 O   0  0  0  0  0  0  0  0  0  0  0  0
   16.0728    5.4732   12.5188 C   0  0  0  0  0  0  0  0  0  0  0  0
   14.7993    4.6442   12.7258 C   0  0  0  0  0  0  0  0  0  0  0  0
   10.9161    6.0042    9.4278 N   0  0  0  0  0  0  0  0  0  0  0  0
   11.2300    6.5579    8.6065 H   0  0  0  0  0  0  0  0  0  0  0  0
    9.9690    6.7395   11.4127 C   0  0  0  0  0  0  0  0  0  0  0  0
    9.8078    6.4701   10.1354 N   0  0  0  0  0  0  0  0  0  0  0  0
    8.2397   10.1808   15.0689 Br  0  0  0  0  0  0  0  0  0  0  0  0
    7.9847    8.7509   13.8325 C   0  0  0  0  0  0  0  0  0  0  0  0
    9.0312    8.2804   13.0968 C   0  0  0  0  0  0  0  0  0  0  0  0
    8.8398    7.2277   12.1886 C   0  0  0  0  0  0  0  0  0  0  0  0
    7.5873    6.6914   12.0603 C   0  0  0  0  0  0  0  0  0  0  0  0
    6.5133    7.1813   12.8210 C   0  0  0  0  0  0  0  0  0  0  0  0
    6.7248    8.2105   13.7026 C   0  0  0  0  0  0  0  0  0  0  0  0
    7.3405    5.6545   11.1824 O   0  0  0  0  0  0  0  0  0  0  0  0
    8.0286    5.2312   10.5942 H   0  0  0  0  0  0  0  0  0  0  0  0
 23 24  1  0  0  0
 24 25  2  0  0  0
 24 29  1  0  0  0
 25 26  1  0  0  0
 26 27  2  0  0  0
 26 21  1  0  0  0
 27 28  1  0  0  0
 27 30  1  0  0  0
 28 29  2  0  0  0
 21 22  2  0  0  0
 22 19  1  0  0  0
 19  1  1  0  0  0
  1  2  2  0  0  0
  1  6  1  0  0  0
  2  3  1  0  0  0
  3  4  2  0  0  0
  3 13  1  0  0  0
  4  5  1  0  0  0
  5  6  2  0  0  0
  5  7  1  0  0  0
  7  8  1  0  0  0
  7 12  1  0  0  0
  8  9  1  0  0  0
  9 10  1  0  0  0
 10 11  1  0  0  0
 11 12  1  0  0  0
 13 14  1  0  0  0
 13 18  1  0  0  0
 14 15  1  0  0  0
 15 16  1  0  0  0
 16 17  1  0  0  0
 17 18  1  0  0  0
 30 31  1  0  0  0
 19 20  1  0  0  0
M  END
> <minimizedAffinity>
-8.66591

$$$$
1863


 33 36  0  0  0  0  0  0  0  0999 V2000
   14.5236    4.2384   11.5266 N   0  0  0  0  0  0  0  0  0  0  0  0
   15.7607    4.7903   11.6619 C   0  0  0  0  0  0  0  0  0  0  0  0
   15.6109    6.1520   11.6449 C   0  0  0  0  0  0  0  0  0  0  0  0
   14.3057    6.3783   11.5014 N   0  0  0  0  0  0  0  0  0  0  0  0
   13.6135    5.2103   11.4244 C   0  0  0  0  0  0  0  0  0  0  0  0
   16.7104    6.9184   11.7490 N   0  0  0  0  0  0  0  0  0  0  0  0
   17.9514    6.3741   11.8668 C   0  0  0  0  0  0  0  0  0  0  0  0
   18.9969    7.0907   11.9656 O   0  0  0  0  0  0  0  0  0  0  0  0
   18.1296    5.0424   11.8852 N   0  0  0  0  0  0  0  0  0  0  0  0
   17.0443    4.2628   11.7835 C   0  0  0  0  0  0  0  0  0  0  0  0
   17.2441    3.0278   11.8020 O   0  0  0  0  0  0  0  0  0  0  0  0
   16.6054    8.3538   11.7316 C   0  0  0  0  0  0  0  0  0  0  0  0
   19.1025    4.6205   11.9783 H   0  0  0  0  0  0  0  0  0  0  0  0
   12.1875    5.1202   11.2245 N   0  0  0  0  0  0  0  0  0  0  0  0
   11.3852    5.3149   12.4101 C   0  0  0  0  0  0  0  0  0  0  0  0
    9.9010    5.2995   12.1471 C   0  0  0  0  0  0  0  0  0  0  0  0
    9.6491    6.1217   11.0204 N   0  0  0  0  0  0  0  0  0  0  0  0
   10.2352    5.6012    9.8306 C   0  0  0  0  0  0  0  0  0  0  0  0
   11.5290    4.8588    9.9907 C   0  0  0  0  0  0  0  0  0  0  0  0
    9.9823    7.4837   11.2962 C   0  0  0  0  0  0  0  0  0  0  0  0
    8.8541    8.2844   11.8558 C   0  0  0  0  0  0  0  0  0  0  0  0
    7.7480    8.4114   11.3075 O   0  0  0  0  0  0  0  0  0  0  0  0
    9.1294    8.9256   13.1093 N   0  0  0  0  0  0  0  0  0  0  0  0
    9.6356    9.8382   13.1607 H   0  0  0  0  0  0  0  0  0  0  0  0
    8.8199    8.4727   13.9666 H   0  0  0  0  0  0  0  0  0  0  0  0
   14.2906    2.8329   11.5302 C   0  0  0  0  0  0  0  0  0  0  0  0
   11.3803   -0.0777    8.3074 Cl  0  0  0  0  0  0  0  0  0  0  0  0
   12.8386    0.8300    8.6974 C   0  0  0  0  0  0  0  0  0  0  0  0
   13.0329    1.4651    9.8916 C   0  0  0  0  0  0  0  0  0  0  0  0
   14.1946    2.1926   10.1920 C   0  0  0  0  0  0  0  0  0  0  0  0
   15.1601    2.2520    9.2336 C   0  0  0  0  0  0  0  0  0  0  0  0
   14.9679    1.6083    8.0201 C   0  0  0  0  0  0  0  0  0  0  0  0
   13.8215    0.8950    7.7334 C   0  0  0  0  0  0  0  0  0  0  0  0
 27 28  1  0  0  0
 28 29  2  0  0  0
 28 33  1  0  0  0
 29 30  1  0  0  0
 30 31  2  0  0  0
 30 26  1  0  0  0
 31 32  1  0  0  0
 32 33  2  0  0  0
 26  1  1  0  0  0
  1  2  1  0  0  0
  1  5  1  0  0  0
  2  3  2  0  0  0
  2 10  1  0  0  0
  3  4  1  0  0  0
  3  6  1  0  0  0
  4  5  2  0  0  0
  5 14  1  0  0  0
 14 15  1  0  0  0
 14 19  1  0  0  0
 15 16  1  0  0  0
 16 17  1  0  0  0
 17 18  1  0  0  0
 17 20  1  0  0  0
 18 19  1  0  0  0
 20 21  1  0  0  0
 21 22  2  0  0  0
 21 23  1  0  0  0
  6  7  1  0  0  0
  6 12  1  0  0  0
  7  8  2  0  0  0
  7  9  1  0  0  0
  9 10  1  0  0  0
 10 11  2  0  0  0
 23 24  1  0  0  0
 23 25  1  0  0  0
  9 13  1  0  0  0
M  END
> <minimizedAffinity>
-8.19356

$$$$
1865


 29 32  0  0  0  0  0  0  0  0999 V2000
    9.4224    6.1884   11.6184 N   0  0  0  0  0  0  0  0  0  0  0  0
    9.9271    7.5083   11.3652 C   0  0  0  0  0  0  0  0  0  0  0  0
    9.2053    8.5187   11.0745 O   0  0  0  0  0  0  0  0  0  0  0  0
   11.3464    7.4959   11.4939 N   0  0  0  0  0  0  0  0  0  0  0  0
   11.7405    6.1151   11.3238 C   0  0  0  0  0  0  0  0  0  0  0  0
   11.7311    5.8335    9.8330 C   0  0  0  0  0  0  0  0  0  0  0  0
   11.7062    4.3160    9.6899 C   0  0  0  0  0  0  0  0  0  0  0  0
   12.7166    3.7202   10.5433 N   0  0  0  0  0  0  0  0  0  0  0  0
   13.6406    4.5655   11.2522 C   0  0  0  0  0  0  0  0  0  0  0  0
   13.0364    5.7594   11.9157 C   0  0  0  0  0  0  0  0  0  0  0  0
   12.7903    2.3086   10.6688 C   0  0  0  0  0  0  0  0  0  0  0  0
   13.6759    1.7921   11.4228 O   0  0  0  0  0  0  0  0  0  0  0  0
   10.5749    5.3985   11.8988 C   0  0  0  0  0  0  0  0  0  0  0  0
   10.5277    4.3051   12.5241 O   0  0  0  0  0  0  0  0  0  0  0  0
   11.9705    8.3052   11.6710 H   0  0  0  0  0  0  0  0  0  0  0  0
   11.8999    1.3938    9.9751 C   0  0  0  0  0  0  0  0  0  0  0  0
   10.5613    1.4269   10.1264 N   0  0  0  0  0  0  0  0  0  0  0  0
    9.7968    0.5495    9.4532 C   0  0  0  0  0  0  0  0  0  0  0  0
   10.3294   -0.3956    8.6027 C   0  0  0  0  0  0  0  0  0  0  0  0
   11.6616   -0.4319    8.4495 N   0  0  0  0  0  0  0  0  0  0  0  0
   12.4395    0.4540    9.1283 C   0  0  0  0  0  0  0  0  0  0  0  0
    8.0502    5.7382   11.5993 C   0  0  0  0  0  0  0  0  0  0  0  0
    4.4015    9.2271   13.0032 Cl  0  0  0  0  0  0  0  0  0  0  0  0
    5.5483    7.9509   13.3596 C   0  0  0  0  0  0  0  0  0  0  0  0
    6.3290    7.3538   12.3918 C   0  0  0  0  0  0  0  0  0  0  0  0
    7.2309    6.3515   12.6660 C   0  0  0  0  0  0  0  0  0  0  0  0
    7.3780    5.9067   13.9598 C   0  0  0  0  0  0  0  0  0  0  0  0
    6.6025    6.4940   14.9442 C   0  0  0  0  0  0  0  0  0  0  0  0
    5.7018    7.4983   14.6550 C   0  0  0  0  0  0  0  0  0  0  0  0
 23 24  1  0  0  0
 24 25  2  0  0  0
 24 29  1  0  0  0
 25 26  1  0  0  0
 26 27  2  0  0  0
 26 22  1  0  0  0
 27 28  1  0  0  0
 28 29  2  0  0  0
 22  1  1  0  0  0
  1  2  1  0  0  0
  1 13  1  0  0  0
  2  3  2  0  0  0
  2  4  1  0  0  0
  4  5  1  0  0  0
  5  6  1  0  0  0
  5 10  1  0  0  0
  5 13  1  0  0  0
  6  7  1  0  0  0
  7  8  1  0  0  0
  8  9  1  0  0  0
  8 11  1  0  0  0
  9 10  1  0  0  0
 11 12  2  0  0  0
 11 16  1  0  0  0
 16 17  2  0  0  0
 16 21  1  0  0  0
 17 18  1  0  0  0
 18 19  2  0  0  0
 19 20  1  0  0  0
 20 21  2  0  0  0
 13 14  2  0  0  0
  4 15  1  0  0  0
M  END
> <minimizedAffinity>
-8.73231

$$$$
1871


 28 31  0  0  0  0  0  0  0  0999 V2000
   12.0131    5.7508   10.4577 C   0  0  0  0  0  0  0  0  0  0  0  0
   12.7916    4.5748   10.4237 N   0  0  0  0  0  0  0  0  0  0  0  0
   13.8751    4.6743   11.3073 C   0  0  0  0  0  0  0  0  0  0  0  0
   14.9602    4.0379   11.6743 C   0  0  0  0  0  0  0  0  0  0  0  0
   15.8476    4.5658   12.7168 C   0  0  0  0  0  0  0  0  0  0  0  0
   15.3847    5.6158   13.6157 C   0  0  0  0  0  0  0  0  0  0  0  0
   14.0227    6.1828   13.3014 C   0  0  0  0  0  0  0  0  0  0  0  0
   13.6750    5.9690   11.9420 N   0  0  0  0  0  0  0  0  0  0  0  0
   13.1044    6.7584   10.8580 C   0  0  0  0  0  0  0  0  0  0  0  0
   12.6250    8.0602   11.3476 C   0  0  0  0  0  0  0  0  0  0  0  0
   11.6403    6.1046    9.1813 O   0  0  0  0  0  0  0  0  0  0  0  0
   13.3327    4.7002    9.4530 H   0  0  0  0  0  0  0  0  0  0  0  0
   10.8035    6.5949    9.0844 H   0  0  0  0  0  0  0  0  0  0  0  0
    7.4801    6.1565   14.3573 Cl  0  0  0  0  0  0  0  0  0  0  0  0
    8.7805    6.0504   13.1857 C   0  0  0  0  0  0  0  0  0  0  0  0
    8.6485    6.5524   11.8986 C   0  0  0  0  0  0  0  0  0  0  0  0
    9.7292    6.4305   11.0271 C   0  0  0  0  0  0  0  0  0  0  0  0
   10.9035    5.8341   11.4046 C   0  0  0  0  0  0  0  0  0  0  0  0
   11.0398    5.3313   12.6869 C   0  0  0  0  0  0  0  0  0  0  0  0
    9.9702    5.4513   13.5509 C   0  0  0  0  0  0  0  0  0  0  0  0
   12.1435    3.3690   10.1765 C   0  0  0  0  0  0  0  0  0  0  0  0
   12.8686    2.3836    9.5267 C   0  0  0  0  0  0  0  0  0  0  0  0
   12.3423    1.1538    9.2134 C   0  0  0  0  0  0  0  0  0  0  0  0
   11.0248    0.8115    9.5349 C   0  0  0  0  0  0  0  0  0  0  0  0
   10.3296    1.8063   10.1767 C   0  0  0  0  0  0  0  0  0  0  0  0
   10.8627    3.0330   10.4866 C   0  0  0  0  0  0  0  0  0  0  0  0
   10.5073   -0.4297    9.2185 O   0  0  0  0  0  0  0  0  0  0  0  0
    9.1719   -0.5371    8.7941 C   0  0  0  0  0  0  0  0  0  0  0  0
 14 15  1  0  0  0
 15 16  2  0  0  0
 15 20  1  0  0  0
 16 17  1  0  0  0
 17 18  2  0  0  0
 18 19  1  0  0  0
 18  1  1  0  0  0
 19 20  2  0  0  0
  1  2  1  0  0  0
  1  9  1  0  0  0
  1 11  1  0  0  0
  2  3  1  0  0  0
  2 21  1  0  0  0
  3  4  2  0  0  0
  3  8  1  0  0  0
  4  5  1  0  0  0
  5  6  1  0  0  0
  6  7  1  0  0  0
  7  8  1  0  0  0
  8  9  1  0  0  0
  9 10  1  0  0  0
 21 22  2  0  0  0
 21 26  1  0  0  0
 22 23  1  0  0  0
 23 24  2  0  0  0
 24 25  1  0  0  0
 24 27  1  0  0  0
 25 26  2  0  0  0
 27 28  1  0  0  0
  2 12  1  0  0  0
 11 13  1  0  0  0
M  CHG 1   2   1
M  END
> <minimizedAffinity>
-7.94679

$$$$
1893


 28 31  0  0  0  0  0  0  0  0999 V2000
   10.9139    3.5705   10.9660 N   0  0  0  0  0  0  0  0  0  0  0  0
   10.3876    4.7651   10.6076 C   0  0  0  0  0  0  0  0  0  0  0  0
   10.1007    5.0796    9.4228 O   0  0  0  0  0  0  0  0  0  0  0  0
   10.2121    5.5812   11.7126 C   0  0  0  0  0  0  0  0  0  0  0  0
   10.6347    4.8812   12.7533 C   0  0  0  0  0  0  0  0  0  0  0  0
   10.4623    5.6794   13.8281 N   0  0  0  0  0  0  0  0  0  0  0  0
    9.9416    6.8452   13.4216 N   0  0  0  0  0  0  0  0  0  0  0  0
    9.7829    6.7928   12.1091 N   0  0  0  0  0  0  0  0  0  0  0  0
   11.0641    3.6515   12.2993 C   0  0  0  0  0  0  0  0  0  0  0  0
   11.5225    2.7591   13.0464 O   0  0  0  0  0  0  0  0  0  0  0  0
   10.6983    5.4247   14.8049 H   0  0  0  0  0  0  0  0  0  0  0  0
    9.6897    7.6748   13.9996 H   0  0  0  0  0  0  0  0  0  0  0  0
   12.2908   -0.9701    7.3567 Cl  0  0  0  0  0  0  0  0  0  0  0  0
   11.8518    0.3650    8.4286 C   0  0  0  0  0  0  0  0  0  0  0  0
   10.5708    0.4816    8.9263 C   0  0  0  0  0  0  0  0  0  0  0  0
   10.2872    1.5476    9.7604 C   0  0  0  0  0  0  0  0  0  0  0  0
   11.2287    2.4921   10.1119 C   0  0  0  0  0  0  0  0  0  0  0  0
   12.4995    2.3408    9.5942 C   0  0  0  0  0  0  0  0  0  0  0  0
   12.8298    1.2838    8.7509 C   0  0  0  0  0  0  0  0  0  0  0  0
    9.2487    7.8339   11.2570 C   0  0  0  0  0  0  0  0  0  0  0  0
    8.1688    8.6184   11.9057 C   0  0  0  0  0  0  0  0  0  0  0  0
    6.8324    8.2925   11.8433 C   0  0  0  0  0  0  0  0  0  0  0  0
    5.8310    9.0247   12.4493 C   0  0  0  0  0  0  0  0  0  0  0  0
    6.1722   10.1495   13.1605 C   0  0  0  0  0  0  0  0  0  0  0  0
    7.4957   10.5123   13.2493 C   0  0  0  0  0  0  0  0  0  0  0  0
    8.4805    9.7595   12.6313 C   0  0  0  0  0  0  0  0  0  0  0  0
    4.5009    8.6046   12.3225 O   0  0  0  0  0  0  0  0  0  0  0  0
    3.5186    8.9668   13.2718 C   0  0  0  0  0  0  0  0  0  0  0  0
 13 14  1  0  0  0
 14 15  2  0  0  0
 14 19  1  0  0  0
 15 16  1  0  0  0
 16 17  2  0  0  0
 17 18  1  0  0  0
 17  1  1  0  0  0
 18 19  2  0  0  0
  1  2  1  0  0  0
  1  9  1  0  0  0
  2  3  2  0  0  0
  2  4  1  0  0  0
  4  5  2  0  0  0
  4  8  1  0  0  0
  5  6  1  0  0  0
  5  9  1  0  0  0
  6  7  1  0  0  0
  7  8  1  0  0  0
  8 20  1  0  0  0
 20 21  1  0  0  0
 21 22  2  0  0  0
 21 26  1  0  0  0
 22 23  1  0  0  0
 23 24  2  0  0  0
 23 27  1  0  0  0
 24 25  1  0  0  0
 25 26  2  0  0  0
 27 28  1  0  0  0
  9 10  2  0  0  0
  6 11  1  0  0  0
  7 12  1  0  0  0
M  END
> <minimizedAffinity>
-9.01638

$$$$
1894


 26 29  0  0  0  0  0  0  0  0999 V2000
   10.8548    3.6729   10.9831 N   0  0  0  0  0  0  0  0  0  0  0  0
   10.2863    4.8492   10.6350 C   0  0  0  0  0  0  0  0  0  0  0  0
    9.9425    5.1429    9.4708 O   0  0  0  0  0  0  0  0  0  0  0  0
   10.1397    5.6746   11.7370 C   0  0  0  0  0  0  0  0  0  0  0  0
   10.6294    4.9849   12.7775 C   0  0  0  0  0  0  0  0  0  0  0  0
   10.4804    5.7937   13.8415 N   0  0  0  0  0  0  0  0  0  0  0  0
    9.9229    6.9287   13.4610 N   0  0  0  0  0  0  0  0  0  0  0  0
    9.7062    6.8718   12.1645 N   0  0  0  0  0  0  0  0  0  0  0  0
   11.0621    3.7650   12.3025 C   0  0  0  0  0  0  0  0  0  0  0  0
   11.5816    2.8621   13.0141 O   0  0  0  0  0  0  0  0  0  0  0  0
   10.7505    5.5900   14.8258 H   0  0  0  0  0  0  0  0  0  0  0  0
    9.6858    7.7536   14.0876 H   0  0  0  0  0  0  0  0  0  0  0  0
   12.1918   -0.9557    7.3892 Cl  0  0  0  0  0  0  0  0  0  0  0  0
   11.7936    0.3986    8.4431 C   0  0  0  0  0  0  0  0  0  0  0  0
   12.7406    1.3427    8.7791 C   0  0  0  0  0  0  0  0  0  0  0  0
   12.4303    2.4060    9.6057 C   0  0  0  0  0  0  0  0  0  0  0  0
   11.1662    2.5727   10.1305 C   0  0  0  0  0  0  0  0  0  0  0  0
   10.2231    1.6212    9.7872 C   0  0  0  0  0  0  0  0  0  0  0  0
   10.5247    0.5551    8.9619 C   0  0  0  0  0  0  0  0  0  0  0  0
    9.1180    7.8962   11.3338 C   0  0  0  0  0  0  0  0  0  0  0  0
    7.9129    8.5203   11.9210 C   0  0  0  0  0  0  0  0  0  0  0  0
    6.7522    7.7934   12.0241 C   0  0  0  0  0  0  0  0  0  0  0  0
    5.6418    8.3946   12.5703 C   0  0  0  0  0  0  0  0  0  0  0  0
    5.6738    9.7048   13.0129 C   0  0  0  0  0  0  0  0  0  0  0  0
    6.8363   10.4345   12.9096 C   0  0  0  0  0  0  0  0  0  0  0  0
    7.9310    9.8223   12.3649 C   0  0  0  0  0  0  0  0  0  0  0  0
 13 14  1  0  0  0
 14 15  2  0  0  0
 14 19  1  0  0  0
 15 16  1  0  0  0
 16 17  2  0  0  0
 17 18  1  0  0  0
 17  1  1  0  0  0
 18 19  2  0  0  0
  1  2  1  0  0  0
  1  9  1  0  0  0
  2  3  2  0  0  0
  2  4  1  0  0  0
  4  5  2  0  0  0
  4  8  1  0  0  0
  5  6  1  0  0  0
  5  9  1  0  0  0
  6  7  1  0  0  0
  7  8  1  0  0  0
  8 20  1  0  0  0
 20 21  1  0  0  0
 21 22  2  0  0  0
 21 26  1  0  0  0
 22 23  1  0  0  0
 23 24  2  0  0  0
 24 25  1  0  0  0
 25 26  2  0  0  0
  9 10  2  0  0  0
  6 11  1  0  0  0
  7 12  1  0  0  0
M  END
> <minimizedAffinity>
-8.81581

$$$$
1895


 32 35  0  0  0  0  0  0  0  0999 V2000
   11.5182    2.8800   10.7842 N   0  0  0  0  0  0  0  0  0  0  0  0
   10.6927    3.7598   10.0524 C   0  0  0  0  0  0  0  0  0  0  0  0
    9.5333    4.1802   10.9797 C   0  0  0  0  0  0  0  0  0  0  0  0
   10.1800    5.0085   11.9650 N   0  0  0  0  0  0  0  0  0  0  0  0
   11.1127    4.2397   12.8179 C   0  0  0  0  0  0  0  0  0  0  0  0
   11.8832    3.2116   12.0969 C   0  0  0  0  0  0  0  0  0  0  0  0
   10.0427    6.3749   12.2017 C   0  0  0  0  0  0  0  0  0  0  0  0
   10.8043    6.8043   13.1894 O   0  0  0  0  0  0  0  0  0  0  0  0
   12.7236    2.0956    9.8637 S   0  0  0  0  0  0  0  0  0  0  0  0
   13.4546    2.9788    8.9316 O   0  0  0  0  0  0  0  0  0  0  0  0
   13.7146    1.4774   10.8208 O   0  0  0  0  0  0  0  0  0  0  0  0
   11.9309    0.7921    8.9621 C   0  0  0  0  0  0  0  0  0  0  0  0
   10.3417    0.1918    9.0819 S   0  0  0  0  0  0  0  0  0  0  0  0
   10.4162   -1.0207    7.8895 C   0  0  0  0  0  0  0  0  0  0  0  0
   11.7008   -0.9223    7.4227 C   0  0  0  0  0  0  0  0  0  0  0  0
   12.4808    0.0190    7.9826 C   0  0  0  0  0  0  0  0  0  0  0  0
    9.1431   -2.1390    7.3763 Cl  0  0  0  0  0  0  0  0  0  0  0  0
    9.2608    7.4318   11.6136 C   0  0  0  0  0  0  0  0  0  0  0  0
    7.9421    7.6660   12.1179 N   0  0  0  0  0  0  0  0  0  0  0  0
    6.7699    6.9346   11.7548 C   0  0  0  0  0  0  0  0  0  0  0  0
    6.7677    5.9799   10.9054 O   0  0  0  0  0  0  0  0  0  0  0  0
    5.6809    7.4555   12.4865 N   0  0  0  0  0  0  0  0  0  0  0  0
    6.2103    8.2358   13.5942 C   0  0  0  0  0  0  0  0  0  0  0  0
    5.4220    9.4573   13.9135 C   0  0  0  0  0  0  0  0  0  0  0  0
    5.5156    9.6855   15.4260 C   0  0  0  0  0  0  0  0  0  0  0  0
    4.6424    8.6221   16.0637 C   0  0  0  0  0  0  0  0  0  0  0  0
    4.9766    7.2796   15.4609 C   0  0  0  0  0  0  0  0  0  0  0  0
    6.3337    7.2962   14.7724 C   0  0  0  0  0  0  0  0  0  0  0  0
    5.9469   10.7180   13.2664 C   0  0  0  0  0  0  0  0  0  0  0  0
    7.5530    8.6451   13.0840 C   0  0  0  0  0  0  0  0  0  0  0  0
    8.2118    9.6445   13.4305 O   0  0  0  0  0  0  0  0  0  0  0  0
    4.6772    7.3210   12.2910 H   0  0  0  0  0  0  0  0  0  0  0  0
  9 10  2  0  0  0
  9 11  2  0  0  0
  9  1  1  0  0  0
  9 12  1  0  0  0
  1  2  1  0  0  0
  1  6  1  0  0  0
  2  3  1  0  0  0
  3  4  1  0  0  0
  4  5  1  0  0  0
  4  7  1  0  0  0
  5  6  1  0  0  0
  7  8  2  0  0  0
  7 18  1  0  0  0
 18 19  1  0  0  0
 19 20  1  0  0  0
 19 30  1  0  0  0
 20 21  2  0  0  0
 20 22  1  0  0  0
 22 23  1  0  0  0
 23 24  1  0  0  0
 23 28  1  0  0  0
 23 30  1  0  0  0
 24 25  1  0  0  0
 24 29  1  0  0  0
 25 26  1  0  0  0
 26 27  1  0  0  0
 27 28  1  0  0  0
 30 31  2  0  0  0
 12 13  1  0  0  0
 12 16  2  0  0  0
 13 14  1  0  0  0
 14 15  2  0  0  0
 14 17  1  0  0  0
 15 16  1  0  0  0
 22 32  1  0  0  0
M  END
> <minimizedAffinity>
-9.53621

$$$$
1906


 33 36  0  0  0  0  0  0  0  0999 V2000
   12.2882    5.2750   11.9600 C   0  0  0  0  0  0  0  0  0  0  0  0
   12.4977    5.5258   10.5961 O   0  0  0  0  0  0  0  0  0  0  0  0
   11.4624    5.1532    9.7833 C   0  0  0  0  0  0  0  0  0  0  0  0
   10.2261    6.0187    9.9195 C   0  0  0  0  0  0  0  0  0  0  0  0
   10.1471    6.2988   11.3765 N   0  0  0  0  0  0  0  0  0  0  0  0
   10.7675    5.3303   12.1954 C   0  0  0  0  0  0  0  0  0  0  0  0
    9.4942    7.4434   11.7842 C   0  0  0  0  0  0  0  0  0  0  0  0
    8.9662    8.2441   10.9067 O   0  0  0  0  0  0  0  0  0  0  0  0
    9.3320    7.8571   13.1446 C   0  0  0  0  0  0  0  0  0  0  0  0
    8.3023    7.4978   13.9113 N   0  0  0  0  0  0  0  0  0  0  0  0
    8.1433    7.8829   15.1930 C   0  0  0  0  0  0  0  0  0  0  0  0
    9.0938    8.7040   15.7786 C   0  0  0  0  0  0  0  0  0  0  0  0
   10.1307    9.0805   15.0481 N   0  0  0  0  0  0  0  0  0  0  0  0
   10.2692    8.6849   13.7720 C   0  0  0  0  0  0  0  0  0  0  0  0
    8.8680    9.0968   17.1914 C   0  0  0  0  0  0  0  0  0  0  0  0
   12.6819    3.8420   12.1778 C   0  0  0  0  0  0  0  0  0  0  0  0
   13.5987    3.2663   11.4336 O   0  0  0  0  0  0  0  0  0  0  0  0
   12.4714    0.0315    7.6747 Cl  0  0  0  0  0  0  0  0  0  0  0  0
   13.5960    0.9538    8.6725 C   0  0  0  0  0  0  0  0  0  0  0  0
   13.1097    1.7535    9.6707 C   0  0  0  0  0  0  0  0  0  0  0  0
   13.9610    2.4819   10.4614 C   0  0  0  0  0  0  0  0  0  0  0  0
   15.3414    2.3733   10.2014 C   0  0  0  0  0  0  0  0  0  0  0  0
   15.8050    1.5759    9.2081 C   0  0  0  0  0  0  0  0  0  0  0  0
   14.9512    0.8483    8.4208 C   0  0  0  0  0  0  0  0  0  0  0  0
   13.0101    6.2835   12.7303 C   0  0  0  0  0  0  0  0  0  0  0  0
   13.8558    7.2404   12.0142 C   0  0  0  0  0  0  0  0  0  0  0  0
   13.3760    8.2817   11.5275 O   0  0  0  0  0  0  0  0  0  0  0  0
   15.2526    7.0169   11.8478 N   0  0  0  0  0  0  0  0  0  0  0  0
   15.9024    5.8248   12.3818 C   0  0  0  0  0  0  0  0  0  0  0  0
   17.1496    6.2856   13.1060 C   0  0  0  0  0  0  0  0  0  0  0  0
   17.9598    6.9867   12.2075 O   0  0  0  0  0  0  0  0  0  0  0  0
   17.3474    8.2047   11.9151 C   0  0  0  0  0  0  0  0  0  0  0  0
   16.0942    7.9585   11.1394 C   0  0  0  0  0  0  0  0  0  0  0  0
 18 19  1  0  0  0
 19 20  2  0  0  0
 19 24  1  0  0  0
 20 21  1  0  0  0
 21 22  2  0  0  0
 21 17  1  0  0  0
 22 23  1  0  0  0
 23 24  2  0  0  0
 17 16  1  0  0  0
 16  1  1  0  0  0
  1  2  1  0  0  0
  1  6  1  0  0  0
  1 25  1  0  0  0
  2  3  1  0  0  0
  3  4  1  0  0  0
  4  5  1  0  0  0
  5  6  1  0  0  0
  5  7  1  0  0  0
  7  8  2  0  0  0
  7  9  1  0  0  0
  9 10  2  0  0  0
  9 14  1  0  0  0
 10 11  1  0  0  0
 11 12  2  0  0  0
 12 13  1  0  0  0
 12 15  1  0  0  0
 13 14  2  0  0  0
 25 26  1  0  0  0
 26 27  2  0  0  0
 26 28  1  0  0  0
 28 29  1  0  0  0
 28 33  1  0  0  0
 29 30  1  0  0  0
 30 31  1  0  0  0
 31 32  1  0  0  0
 32 33  1  0  0  0
M  END
> <minimizedAffinity>
-7.89504

$$$$
1913


 29 32  0  0  0  0  0  0  0  0999 V2000
   11.8593    3.6844   10.5590 N   0  0  0  0  0  0  0  0  0  0  0  0
   12.0362    4.8975    9.7942 C   0  0  0  0  0  0  0  0  0  0  0  0
   12.2927    6.1101   10.6479 C   0  0  0  0  0  0  0  0  0  0  0  0
   11.3388    6.1237   11.7915 C   0  0  0  0  0  0  0  0  0  0  0  0
   11.5874    4.9473   12.6714 C   0  0  0  0  0  0  0  0  0  0  0  0
   11.8117    3.6484   11.9882 C   0  0  0  0  0  0  0  0  0  0  0  0
    8.8957   -0.1888    9.1415 Cl  0  0  0  0  0  0  0  0  0  0  0  0
   10.4191    0.6376    9.1609 C   0  0  0  0  0  0  0  0  0  0  0  0
   11.4686    0.1160    8.5228 N   0  0  0  0  0  0  0  0  0  0  0  0
   12.6649    0.7106    8.5063 C   0  0  0  0  0  0  0  0  0  0  0  0
   13.8237    0.3889    7.9449 N   0  0  0  0  0  0  0  0  0  0  0  0
   14.6642    1.3797    8.2699 C   0  0  0  0  0  0  0  0  0  0  0  0
   14.0681    2.3170    9.0184 N   0  0  0  0  0  0  0  0  0  0  0  0
   12.7950    1.9269    9.1920 C   0  0  0  0  0  0  0  0  0  0  0  0
   11.7254    2.4724    9.8507 C   0  0  0  0  0  0  0  0  0  0  0  0
   10.5397    1.7960    9.8158 N   0  0  0  0  0  0  0  0  0  0  0  0
   14.4732    3.1997    9.4095 H   0  0  0  0  0  0  0  0  0  0  0  0
    9.9480    6.2958   11.3685 C   0  0  0  0  0  0  0  0  0  0  0  0
    9.7224    6.8533   10.2667 O   0  0  0  0  0  0  0  0  0  0  0  0
    8.8478    5.8663   12.1389 N   0  0  0  0  0  0  0  0  0  0  0  0
    9.0381    5.3940   13.0701 H   0  0  0  0  0  0  0  0  0  0  0  0
    7.4708    6.0297   11.7341 C   0  0  0  0  0  0  0  0  0  0  0  0
    6.6488    6.8312   12.7021 C   0  0  0  0  0  0  0  0  0  0  0  0
    7.2855    8.1015   13.0009 N   0  0  0  0  0  0  0  0  0  0  0  0
    6.8952    8.6389   14.2605 C   0  0  0  0  0  0  0  0  0  0  0  0
    6.0103    9.8539   14.0673 C   0  0  0  0  0  0  0  0  0  0  0  0
    6.7558   10.8202   13.4392 O   0  0  0  0  0  0  0  0  0  0  0  0
    7.3600   10.4509   12.2669 C   0  0  0  0  0  0  0  0  0  0  0  0
    7.2745    9.0077   11.9093 C   0  0  0  0  0  0  0  0  0  0  0  0
  7  8  1  0  0  0
  8  9  2  0  0  0
  8 16  1  0  0  0
  9 10  1  0  0  0
 10 11  1  0  0  0
 10 14  2  0  0  0
 11 12  2  0  0  0
 12 13  1  0  0  0
 13 14  1  0  0  0
 14 15  1  0  0  0
 15 16  2  0  0  0
 15  1  1  0  0  0
  1  2  1  0  0  0
  1  6  1  0  0  0
  2  3  1  0  0  0
  3  4  1  0  0  0
  4  5  1  0  0  0
  4 18  1  0  0  0
  5  6  1  0  0  0
 18 19  2  0  0  0
 18 20  1  0  0  0
 20 22  1  0  0  0
 22 23  1  0  0  0
 23 24  1  0  0  0
 24 25  1  0  0  0
 24 29  1  0  0  0
 25 26  1  0  0  0
 26 27  1  0  0  0
 27 28  1  0  0  0
 28 29  1  0  0  0
 13 17  1  0  0  0
 20 21  1  0  0  0
M  END
> <minimizedAffinity>
-8.27706

$$$$
1927


 36 39  0  0  0  0  0  0  0  0999 V2000
    9.6738    6.5406   12.2824 C   0  0  0  0  0  0  0  0  0  0  0  0
    5.5226    8.2492   14.9586 C   0  0  0  0  0  0  0  0  0  0  0  0
    6.6853    7.2852   15.1830 C   0  0  0  0  0  0  0  0  0  0  0  0
    6.8668    6.6181   13.8351 C   0  0  0  0  0  0  0  0  0  0  0  0
    7.3500    7.5544   12.8825 N   0  0  0  0  0  0  0  0  0  0  0  0
    6.5064    8.7604   12.6743 C   0  0  0  0  0  0  0  0  0  0  0  0
    5.8413    9.2529   13.9145 C   0  0  0  0  0  0  0  0  0  0  0  0
    8.5268    7.4518   12.1525 C   0  0  0  0  0  0  0  0  0  0  0  0
    8.6615    8.2972   11.1632 O   0  0  0  0  0  0  0  0  0  0  0  0
    4.5006    7.4052   14.4179 O   0  0  0  0  0  0  0  0  0  0  0  0
    4.0275    7.9446   13.7368 H   0  0  0  0  0  0  0  0  0  0  0  0
    3.8535   10.4478   20.3694 Cl  0  0  0  0  0  0  0  0  0  0  0  0
    4.3110    9.8046   18.7705 C   0  0  0  0  0  0  0  0  0  0  0  0
    5.5405   10.0795   18.2225 C   0  0  0  0  0  0  0  0  0  0  0  0
    5.8985    9.5685   16.9751 C   0  0  0  0  0  0  0  0  0  0  0  0
    5.0342    8.7576   16.2278 C   0  0  0  0  0  0  0  0  0  0  0  0
    3.8145    8.5040   16.8079 C   0  0  0  0  0  0  0  0  0  0  0  0
    3.4464    9.0041   18.0421 C   0  0  0  0  0  0  0  0  0  0  0  0
    9.6450    5.3444   11.5617 N   0  0  0  0  0  0  0  0  0  0  0  0
   10.7340    4.4260   11.4517 C   0  0  0  0  0  0  0  0  0  0  0  0
   11.7862    4.7761   12.0485 O   0  0  0  0  0  0  0  0  0  0  0  0
    8.7604    5.0034   11.0989 H   0  0  0  0  0  0  0  0  0  0  0  0
   10.6036    3.2008   10.7119 C   0  0  0  0  0  0  0  0  0  0  0  0
   11.4567    2.5436    9.9977 C   0  0  0  0  0  0  0  0  0  0  0  0
   12.8055    2.9711    9.7949 N   0  0  0  0  0  0  0  0  0  0  0  0
   13.7226    2.2218    9.0286 N   0  0  0  0  0  0  0  0  0  0  0  0
   13.3421    1.0061    8.4256 C   0  0  0  0  0  0  0  0  0  0  0  0
   14.1969    0.3638    7.7484 O   0  0  0  0  0  0  0  0  0  0  0  0
   11.9830    0.5345    8.6064 C   0  0  0  0  0  0  0  0  0  0  0  0
   11.0826    1.2599    9.3524 C   0  0  0  0  0  0  0  0  0  0  0  0
    9.8304    0.7354    9.4985 C   0  0  0  0  0  0  0  0  0  0  0  0
    9.4461   -0.4847    8.9300 C   0  0  0  0  0  0  0  0  0  0  0  0
   10.3777   -1.1678    8.1975 C   0  0  0  0  0  0  0  0  0  0  0  0
   11.6673   -0.6735    8.0190 C   0  0  0  0  0  0  0  0  0  0  0  0
   13.1556    3.8657   10.2140 H   0  0  0  0  0  0  0  0  0  0  0  0
   14.7054    2.5593    8.9030 H   0  0  0  0  0  0  0  0  0  0  0  0
 12 13  1  0  0  0
 13 14  2  0  0  0
 13 18  1  0  0  0
 14 15  1  0  0  0
 15 16  2  0  0  0
 16 17  1  0  0  0
 16  2  1  0  0  0
 17 18  2  0  0  0
  2  3  1  0  0  0
  2  7  1  0  0  0
  2 10  1  0  0  0
  3  4  1  0  0  0
  4  5  1  0  0  0
  5  6  1  0  0  0
  5  8  1  0  0  0
  6  7  1  0  0  0
  8  9  2  0  0  0
  8  1  1  0  0  0
  1 19  1  0  0  0
 19 20  1  0  0  0
 20 21  2  0  0  0
 20 23  1  0  0  0
 23 24  2  0  0  0
 24 25  1  0  0  0
 24 30  1  0  0  0
 25 26  1  0  0  0
 26 27  1  0  0  0
 27 28  2  0  0  0
 27 29  1  0  0  0
 29 30  2  0  0  0
 29 34  1  0  0  0
 30 31  1  0  0  0
 31 32  2  0  0  0
 32 33  1  0  0  0
 33 34  2  0  0  0
 19 22  1  0  0  0
 25 35  1  0  0  0
 26 36  1  0  0  0
 10 11  1  0  0  0
M  END
> <minimizedAffinity>
-10.61733

$$$$
1928


 28 31  0  0  0  0  0  0  0  0999 V2000
   12.2467    2.6292   10.8988 N   0  0  0  0  0  0  0  0  0  0  0  0
   13.4327    2.5865   10.2571 C   0  0  0  0  0  0  0  0  0  0  0  0
   13.6400    1.7135    9.2196 C   0  0  0  0  0  0  0  0  0  0  0  0
   12.5527    0.8185    8.8085 C   0  0  0  0  0  0  0  0  0  0  0  0
   13.0299    0.0829    7.7812 N   0  0  0  0  0  0  0  0  0  0  0  0
   14.2750    0.4347    7.5332 N   0  0  0  0  0  0  0  0  0  0  0  0
   14.6927    1.4045    8.3601 C   0  0  0  0  0  0  0  0  0  0  0  0
   15.8174    1.9593    8.3893 O   0  0  0  0  0  0  0  0  0  0  0  0
   11.3587    0.8988    9.4936 C   0  0  0  0  0  0  0  0  0  0  0  0
   11.2728    1.8085   10.5104 C   0  0  0  0  0  0  0  0  0  0  0  0
   14.8582    0.0126    6.7876 H   0  0  0  0  0  0  0  0  0  0  0  0
   10.2518    0.0221    9.1123 C   0  0  0  0  0  0  0  0  0  0  0  0
    9.0871    0.2956    9.4341 O   0  0  0  0  0  0  0  0  0  0  0  0
   10.4748   -1.1345    8.3843 O   0  0  0  0  0  0  0  0  0  0  0  0
    9.4753   -1.7990    7.6484 C   0  0  0  0  0  0  0  0  0  0  0  0
   12.0822    3.5804   11.9995 C   0  0  0  0  0  0  0  0  0  0  0  0
    9.5021    6.1108   11.6620 C   0  0  0  0  0  0  0  0  0  0  0  0
   10.0156    5.9957   10.4280 N   0  0  0  0  0  0  0  0  0  0  0  0
   10.9633    5.1072   10.4171 O   0  0  0  0  0  0  0  0  0  0  0  0
   11.1003    4.6167   11.6247 C   0  0  0  0  0  0  0  0  0  0  0  0
   10.1872    5.2399   12.4165 N   0  0  0  0  0  0  0  0  0  0  0  0
    5.0320    9.8148   13.2775 Cl  0  0  0  0  0  0  0  0  0  0  0  0
    6.3379    8.7410   12.8050 C   0  0  0  0  0  0  0  0  0  0  0  0
    7.4693    9.2231   12.1721 C   0  0  0  0  0  0  0  0  0  0  0  0
    8.4865    8.3615   11.8075 C   0  0  0  0  0  0  0  0  0  0  0  0
    8.4242    7.0095   12.0508 C   0  0  0  0  0  0  0  0  0  0  0  0
    7.2975    6.5225   12.6813 C   0  0  0  0  0  0  0  0  0  0  0  0
    6.2714    7.3772   13.0520 C   0  0  0  0  0  0  0  0  0  0  0  0
 22 23  1  0  0  0
 23 24  2  0  0  0
 23 28  1  0  0  0
 24 25  1  0  0  0
 25 26  2  0  0  0
 26 27  1  0  0  0
 26 17  1  0  0  0
 27 28  2  0  0  0
 17 18  2  0  0  0
 17 21  1  0  0  0
 18 19  1  0  0  0
 19 20  1  0  0  0
 20 21  2  0  0  0
 20 16  1  0  0  0
 16  1  1  0  0  0
  1  2  1  0  0  0
  1 10  1  0  0  0
  2  3  2  0  0  0
  3  4  1  0  0  0
  3  7  1  0  0  0
  4  5  2  0  0  0
  4  9  1  0  0  0
  5  6  1  0  0  0
  6  7  1  0  0  0
  7  8  2  0  0  0
  9 10  2  0  0  0
  9 12  1  0  0  0
 12 13  2  0  0  0
 12 14  1  0  0  0
 14 15  1  0  0  0
  6 11  1  0  0  0
M  END
> <minimizedAffinity>
-9.12021

$$$$
1930


 34 37  0  0  0  0  0  0  0  0999 V2000
   12.1413    4.1463   12.0591 C   0  0  0  0  0  0  0  0  0  0  0  0
   11.6608    3.1890   12.7186 O   0  0  0  0  0  0  0  0  0  0  0  0
   11.6899    5.4559   12.3052 N   0  0  0  0  0  0  0  0  0  0  0  0
   10.6709    5.7601   13.3104 C   0  0  0  0  0  0  0  0  0  0  0  0
    9.4847    6.2922   12.5311 C   0  0  0  0  0  0  0  0  0  0  0  0
    9.8872    7.4671   11.6709 C   0  0  0  0  0  0  0  0  0  0  0  0
   11.3567    7.8293   11.9161 C   0  0  0  0  0  0  0  0  0  0  0  0
   12.1993    6.6094   11.5840 C   0  0  0  0  0  0  0  0  0  0  0  0
    9.8323    7.1579   10.2898 O   0  0  0  0  0  0  0  0  0  0  0  0
    9.0247    8.6784   11.8587 C   0  0  0  0  0  0  0  0  0  0  0  0
    9.9306    8.0208    9.8175 H   0  0  0  0  0  0  0  0  0  0  0  0
    8.3130    6.4985   13.3069 N   0  0  0  0  0  0  0  0  0  0  0  0
    8.3719    7.0232   14.5662 C   0  0  0  0  0  0  0  0  0  0  0  0
    7.2357    7.2232   15.3212 C   0  0  0  0  0  0  0  0  0  0  0  0
    6.0064    6.8882   14.7986 C   0  0  0  0  0  0  0  0  0  0  0  0
    4.9299    7.0580   15.4660 O   0  0  0  0  0  0  0  0  0  0  0  0
    5.9565    6.3718   13.5584 N   0  0  0  0  0  0  0  0  0  0  0  0
    7.1083    6.1920   12.8493 C   0  0  0  0  0  0  0  0  0  0  0  0
    6.9999    5.7078   11.7005 O   0  0  0  0  0  0  0  0  0  0  0  0
    7.2646    7.7914   16.6920 C   0  0  0  0  0  0  0  0  0  0  0  0
    5.0330    6.1186   13.1607 H   0  0  0  0  0  0  0  0  0  0  0  0
   13.1751    3.8631   11.0342 C   0  0  0  0  0  0  0  0  0  0  0  0
   13.6736    2.4551   11.0604 C   0  0  0  0  0  0  0  0  0  0  0  0
    8.7238   -2.1331    7.3189 Cl  0  0  0  0  0  0  0  0  0  0  0  0
   10.1540   -1.2377    7.8087 C   0  0  0  0  0  0  0  0  0  0  0  0
   10.1834   -0.4239    8.9124 C   0  0  0  0  0  0  0  0  0  0  0  0
   11.3163    0.2793    9.2920 C   0  0  0  0  0  0  0  0  0  0  0  0
   11.6343    1.1239   10.2871 N   0  0  0  0  0  0  0  0  0  0  0  0
   12.9110    1.5311   10.1852 C   0  0  0  0  0  0  0  0  0  0  0  0
   13.3938    0.9041    9.0736 N   0  0  0  0  0  0  0  0  0  0  0  0
   12.4475    0.1404    8.5152 C   0  0  0  0  0  0  0  0  0  0  0  0
   12.4615   -0.6673    7.3977 C   0  0  0  0  0  0  0  0  0  0  0  0
   11.3019   -1.3539    7.0537 C   0  0  0  0  0  0  0  0  0  0  0  0
   14.7699    1.0907    8.6174 C   0  0  0  0  0  0  0  0  0  0  0  0
 24 25  1  0  0  0
 25 26  2  0  0  0
 25 33  1  0  0  0
 26 27  1  0  0  0
 27 28  1  0  0  0
 27 31  2  0  0  0
 28 29  2  0  0  0
 29 30  1  0  0  0
 29 23  1  0  0  0
 30 31  1  0  0  0
 30 34  1  0  0  0
 31 32  1  0  0  0
 32 33  2  0  0  0
 23 22  1  0  0  0
 22  1  1  0  0  0
  1  2  2  0  0  0
  1  3  1  0  0  0
  3  4  1  0  0  0
  3  8  1  0  0  0
  4  5  1  0  0  0
  5  6  1  0  0  0
  5 12  1  0  0  0
  6  7  1  0  0  0
  6  9  1  0  0  0
  6 10  1  0  0  0
  7  8  1  0  0  0
 12 13  1  0  0  0
 12 18  1  0  0  0
 13 14  2  0  0  0
 14 15  1  0  0  0
 14 20  1  0  0  0
 15 16  2  0  0  0
 15 17  1  0  0  0
 17 18  1  0  0  0
 18 19  2  0  0  0
  9 11  1  0  0  0
 17 21  1  0  0  0
M  END
> <minimizedAffinity>
-10.55037

$$$$
1936


 25 28  0  0  0  0  0  0  0  0999 V2000
   10.1102    6.1095   12.2585 N   0  0  0  0  0  0  0  0  0  0  0  0
    9.1079    6.9745   11.7793 C   0  0  0  0  0  0  0  0  0  0  0  0
    9.3520    7.6266   10.7498 O   0  0  0  0  0  0  0  0  0  0  0  0
    9.9258    5.5514   13.1246 H   0  0  0  0  0  0  0  0  0  0  0  0
    7.8022    7.1322   12.4431 C   0  0  0  0  0  0  0  0  0  0  0  0
    6.6761    6.3710   11.8605 C   0  0  0  0  0  0  0  0  0  0  0  0
    7.2516    5.8246   13.1069 C   0  0  0  0  0  0  0  0  0  0  0  0
    7.5604    8.2740   13.2734 N   0  0  0  0  0  0  0  0  0  0  0  0
    6.5909    9.1890   12.8160 C   0  0  0  0  0  0  0  0  0  0  0  0
    7.3222   10.3264   12.1131 C   0  0  0  0  0  0  0  0  0  0  0  0
    8.0267   11.0709   13.0291 O   0  0  0  0  0  0  0  0  0  0  0  0
    8.4805   10.3720   14.1200 C   0  0  0  0  0  0  0  0  0  0  0  0
    8.6898    8.9002   13.8270 C   0  0  0  0  0  0  0  0  0  0  0  0
   11.3962    5.9585   11.6030 C   0  0  0  0  0  0  0  0  0  0  0  0
   10.2869   -1.0373    8.5006 Cl  0  0  0  0  0  0  0  0  0  0  0  0
   11.0591    0.4467    9.0544 C   0  0  0  0  0  0  0  0  0  0  0  0
   10.3473    1.4590    9.6758 C   0  0  0  0  0  0  0  0  0  0  0  0
   10.9118    2.6340   10.1225 C   0  0  0  0  0  0  0  0  0  0  0  0
   10.4686    3.7450   10.7370 N   0  0  0  0  0  0  0  0  0  0  0  0
   11.4800    4.6087   10.9462 C   0  0  0  0  0  0  0  0  0  0  0  0
   12.5739    4.0123   10.4458 N   0  0  0  0  0  0  0  0  0  0  0  0
   12.2862    2.8010    9.9297 C   0  0  0  0  0  0  0  0  0  0  0  0
   13.0056    1.8035    9.3137 C   0  0  0  0  0  0  0  0  0  0  0  0
   12.4256    0.6404    8.8758 C   0  0  0  0  0  0  0  0  0  0  0  0
   13.5287    4.4373   10.4585 H   0  0  0  0  0  0  0  0  0  0  0  0
 15 16  1  0  0  0
 16 17  2  0  0  0
 16 24  1  0  0  0
 17 18  1  0  0  0
 18 19  1  0  0  0
 18 22  2  0  0  0
 19 20  2  0  0  0
 20 21  1  0  0  0
 20 14  1  0  0  0
 21 22  1  0  0  0
 22 23  1  0  0  0
 23 24  2  0  0  0
 14  1  1  0  0  0
  1  2  1  0  0  0
  2  3  2  0  0  0
  2  5  1  0  0  0
  5  6  1  0  0  0
  5  7  1  0  0  0
  5  8  1  0  0  0
  6  7  1  0  0  0
  8  9  1  0  0  0
  8 13  1  0  0  0
  9 10  1  0  0  0
 10 11  1  0  0  0
 11 12  1  0  0  0
 12 13  1  0  0  0
 21 25  1  0  0  0
  1  4  1  0  0  0
M  END
> <minimizedAffinity>
-7.61373

$$$$
1937


 31 34  0  0  0  0  0  0  0  0999 V2000
   11.6875    5.9156   12.3219 N   0  0  0  0  0  0  0  0  0  0  0  0
   12.1940    6.8839   13.1792 C   0  0  0  0  0  0  0  0  0  0  0  0
   11.1045    8.0342   13.2807 C   0  0  0  0  0  0  0  0  0  0  0  0
    9.8994    7.2771   13.0693 N   0  0  0  0  0  0  0  0  0  0  0  0
    9.6658    7.0540   11.6126 C   0  0  0  0  0  0  0  0  0  0  0  0
   11.0082    6.5652   11.1458 C   0  0  0  0  0  0  0  0  0  0  0  0
    9.0290    6.8869   14.0425 C   0  0  0  0  0  0  0  0  0  0  0  0
    8.2947    5.8671   13.8063 O   0  0  0  0  0  0  0  0  0  0  0  0
    8.7944    7.5228   15.3770 C   0  0  0  0  0  0  0  0  0  0  0  0
    8.5271    8.9276   15.0573 O   0  0  0  0  0  0  0  0  0  0  0  0
    7.7904    9.0255   13.8412 C   0  0  0  0  0  0  0  0  0  0  0  0
    6.8776    8.0386   13.5779 C   0  0  0  0  0  0  0  0  0  0  0  0
    6.1173    8.0438   12.4135 C   0  0  0  0  0  0  0  0  0  0  0  0
    6.3348    9.1026   11.5395 C   0  0  0  0  0  0  0  0  0  0  0  0
    7.2379   10.1151   11.7781 C   0  0  0  0  0  0  0  0  0  0  0  0
    7.9715   10.0748   12.9472 C   0  0  0  0  0  0  0  0  0  0  0  0
    6.7072    7.0020   14.5023 O   0  0  0  0  0  0  0  0  0  0  0  0
    7.3814    7.0259   15.7857 C   0  0  0  0  0  0  0  0  0  0  0  0
   12.4878    4.8426   11.7824 C   0  0  0  0  0  0  0  0  0  0  0  0
   11.1683    3.1191   10.5331 N   0  0  0  0  0  0  0  0  0  0  0  0
   11.6005    3.5933   11.7735 C   0  0  0  0  0  0  0  0  0  0  0  0
   11.3175    3.0571   12.8130 O   0  0  0  0  0  0  0  0  0  0  0  0
   11.2914    3.8201    9.7186 H   0  0  0  0  0  0  0  0  0  0  0  0
   10.5093    1.8934   10.2601 C   0  0  0  0  0  0  0  0  0  0  0  0
    8.9598   -0.3234    9.1129 Cl  0  0  0  0  0  0  0  0  0  0  0  0
   10.6300   -0.0156    8.7018 C   0  0  0  0  0  0  0  0  0  0  0  0
   11.3033    0.9878    9.3889 C   0  0  0  0  0  0  0  0  0  0  0  0
   12.6253    1.1615    9.0750 C   0  0  0  0  0  0  0  0  0  0  0  0
   13.2461    0.3781    8.1093 C   0  0  0  0  0  0  0  0  0  0  0  0
   12.5662   -0.6407    7.4105 C   0  0  0  0  0  0  0  0  0  0  0  0
   11.2417   -0.7886    7.7699 C   0  0  0  0  0  0  0  0  0  0  0  0
 25 26  1  0  0  0
 26 27  2  0  0  0
 26 31  1  0  0  0
 27 28  1  0  0  0
 27 24  1  0  0  0
 28 29  2  0  0  0
 29 30  1  0  0  0
 30 31  2  0  0  0
 24 20  1  0  0  0
 20 21  1  0  0  0
 21 22  2  0  0  0
 21 19  1  0  0  0
 19  1  1  0  0  0
  1  2  1  0  0  0
  1  6  1  0  0  0
  2  3  1  0  0  0
  3  4  1  0  0  0
  4  5  1  0  0  0
  4  7  1  0  0  0
  5  6  1  0  0  0
  7  8  2  0  0  0
  7  9  1  0  0  0
  9 10  1  0  0  0
  9 18  1  0  0  0
 10 11  1  0  0  0
 11 12  2  0  0  0
 11 16  1  0  0  0
 12 13  1  0  0  0
 12 17  1  0  0  0
 13 14  2  0  0  0
 14 15  1  0  0  0
 15 16  2  0  0  0
 17 18  1  0  0  0
 20 23  1  0  0  0
M  END
> <minimizedAffinity>
-9.18890

$$$$
1939


 28 31  0  0  0  0  0  0  0  0999 V2000
   13.9923    4.3280   11.7794 N   0  0  0  0  0  0  0  0  0  0  0  0
   15.2756    4.7854   11.6608 C   0  0  0  0  0  0  0  0  0  0  0  0
   15.2727    6.1418   11.4853 C   0  0  0  0  0  0  0  0  0  0  0  0
   13.9889    6.4747   11.5008 N   0  0  0  0  0  0  0  0  0  0  0  0
   13.1796    5.3809   11.6794 C   0  0  0  0  0  0  0  0  0  0  0  0
   16.4145    6.8380   11.3350 N   0  0  0  0  0  0  0  0  0  0  0  0
   17.6076    6.1880   11.3553 C   0  0  0  0  0  0  0  0  0  0  0  0
   18.6429    6.8764   11.2122 O   0  0  0  0  0  0  0  0  0  0  0  0
   17.6622    4.8559   11.5249 N   0  0  0  0  0  0  0  0  0  0  0  0
   16.5176    4.1722   11.6730 C   0  0  0  0  0  0  0  0  0  0  0  0
   16.6213    2.9351   11.8259 O   0  0  0  0  0  0  0  0  0  0  0  0
   16.3194    8.2759   11.1547 C   0  0  0  0  0  0  0  0  0  0  0  0
   18.6014    4.4063   11.5329 H   0  0  0  0  0  0  0  0  0  0  0  0
   11.7713    5.4778   11.7193 N   0  0  0  0  0  0  0  0  0  0  0  0
   11.1784    6.3119   12.7561 C   0  0  0  0  0  0  0  0  0  0  0  0
    9.9563    6.9349   12.0570 C   0  0  0  0  0  0  0  0  0  0  0  0
   10.2049    7.1592   10.6505 N   0  0  0  0  0  0  0  0  0  0  0  0
   10.3671    5.9442    9.8812 C   0  0  0  0  0  0  0  0  0  0  0  0
   10.8132    4.8749   10.8677 C   0  0  0  0  0  0  0  0  0  0  0  0
    9.3786    7.6563   10.2781 H   0  0  0  0  0  0  0  0  0  0  0  0
   13.6792    2.9366   11.9715 C   0  0  0  0  0  0  0  0  0  0  0  0
   12.0122   -0.2803    7.1562 Cl  0  0  0  0  0  0  0  0  0  0  0  0
   12.5221    0.6682    8.5356 C   0  0  0  0  0  0  0  0  0  0  0  0
   11.5998    0.9868    9.4869 C   0  0  0  0  0  0  0  0  0  0  0  0
   11.9677    1.7429   10.6042 C   0  0  0  0  0  0  0  0  0  0  0  0
   13.2330    2.1903   10.7979 C   0  0  0  0  0  0  0  0  0  0  0  0
   14.1576    1.8442    9.8005 C   0  0  0  0  0  0  0  0  0  0  0  0
   13.8182    1.1023    8.6934 C   0  0  0  0  0  0  0  0  0  0  0  0
 22 23  1  0  0  0
 23 24  2  0  0  0
 23 28  1  0  0  0
 24 25  1  0  0  0
 25 26  2  0  0  0
 26 27  1  0  0  0
 26 21  1  0  0  0
 27 28  2  0  0  0
 21  1  1  0  0  0
  1  2  1  0  0  0
  1  5  1  0  0  0
  2  3  2  0  0  0
  2 10  1  0  0  0
  3  4  1  0  0  0
  3  6  1  0  0  0
  4  5  2  0  0  0
  5 14  1  0  0  0
 14 15  1  0  0  0
 14 19  1  0  0  0
 15 16  1  0  0  0
 16 17  1  0  0  0
 17 18  1  0  0  0
 18 19  1  0  0  0
  6  7  1  0  0  0
  6 12  1  0  0  0
  7  8  2  0  0  0
  7  9  1  0  0  0
  9 10  1  0  0  0
 10 11  2  0  0  0
 17 20  1  0  0  0
  9 13  1  0  0  0
M  END
> <minimizedAffinity>
-7.58761

$$$$
1940


 30 33  0  0  0  0  0  0  0  0999 V2000
   11.2370    5.3412   12.7670 C   0  0  0  0  0  0  0  0  0  0  0  0
   10.0614    6.1358   12.3891 N   0  0  0  0  0  0  0  0  0  0  0  0
   10.0790    6.1845   10.9741 C   0  0  0  0  0  0  0  0  0  0  0  0
    9.6180    7.0990   10.2508 O   0  0  0  0  0  0  0  0  0  0  0  0
   10.7448    4.9523   10.5110 C   0  0  0  0  0  0  0  0  0  0  0  0
   10.9699    4.5981    9.3315 O   0  0  0  0  0  0  0  0  0  0  0  0
   11.0869    4.2378   11.7330 C   0  0  0  0  0  0  0  0  0  0  0  0
   11.2157    2.9657   11.8848 C   0  0  0  0  0  0  0  0  0  0  0  0
   11.5348    2.4176   13.1259 O   0  0  0  0  0  0  0  0  0  0  0  0
   16.3745    8.1321   11.2870 Cl  0  0  0  0  0  0  0  0  0  0  0  0
   14.8642    7.3677   11.7145 C   0  0  0  0  0  0  0  0  0  0  0  0
   13.7213    8.0877   11.9884 C   0  0  0  0  0  0  0  0  0  0  0  0
   12.5601    7.4182   12.3224 C   0  0  0  0  0  0  0  0  0  0  0  0
   12.4868    6.0502   12.3958 C   0  0  0  0  0  0  0  0  0  0  0  0
   13.6530    5.3375   12.1156 C   0  0  0  0  0  0  0  0  0  0  0  0
   14.8143    5.9989   11.7819 C   0  0  0  0  0  0  0  0  0  0  0  0
   11.0330    2.0569   10.7574 C   0  0  0  0  0  0  0  0  0  0  0  0
    9.9794    1.6221   10.1629 O   0  0  0  0  0  0  0  0  0  0  0  0
   10.2912    0.8151    9.1896 C   0  0  0  0  0  0  0  0  0  0  0  0
   11.6558    0.6960    9.1204 C   0  0  0  0  0  0  0  0  0  0  0  0
   12.1447    1.4877   10.1220 C   0  0  0  0  0  0  0  0  0  0  0  0
    9.1034    6.7419   13.3028 C   0  0  0  0  0  0  0  0  0  0  0  0
    8.7169    8.1444   12.9479 C   0  0  0  0  0  0  0  0  0  0  0  0
    7.4421    8.3100   12.3384 N   0  0  0  0  0  0  0  0  0  0  0  0
    6.3155    8.3856   13.2119 C   0  0  0  0  0  0  0  0  0  0  0  0
    6.3329    9.5903   14.1249 C   0  0  0  0  0  0  0  0  0  0  0  0
    6.4143   10.7679   13.3895 O   0  0  0  0  0  0  0  0  0  0  0  0
    7.4543   10.7383   12.4662 C   0  0  0  0  0  0  0  0  0  0  0  0
    7.3930    9.5520   11.5397 C   0  0  0  0  0  0  0  0  0  0  0  0
    7.2844    7.5102   11.6869 H   0  0  0  0  0  0  0  0  0  0  0  0
 10 11  1  0  0  0
 11 12  2  0  0  0
 11 16  1  0  0  0
 12 13  1  0  0  0
 13 14  2  0  0  0
 14 15  1  0  0  0
 14  1  1  0  0  0
 15 16  2  0  0  0
  1  2  1  0  0  0
  1  7  1  0  0  0
  2  3  1  0  0  0
  2 22  1  0  0  0
  3  4  2  0  0  0
  3  5  1  0  0  0
  5  6  2  0  0  0
  5  7  1  0  0  0
  7  8  2  0  0  0
  8  9  1  0  0  0
  8 17  1  0  0  0
 17 18  1  0  0  0
 17 21  2  0  0  0
 18 19  1  0  0  0
 19 20  2  0  0  0
 20 21  1  0  0  0
 22 23  1  0  0  0
 23 24  1  0  0  0
 24 25  1  0  0  0
 24 29  1  0  0  0
 25 26  1  0  0  0
 26 27  1  0  0  0
 27 28  1  0  0  0
 28 29  1  0  0  0
 24 30  1  0  0  0
M  CHG 1   9  -1
M  CHG 1  24   1
M  END
> <minimizedAffinity>
-8.34945

$$$$
1941


 22 25  0  0  0  0  0  0  0  0999 V2000
   11.1608    4.2014   10.7621 N   0  0  0  0  0  0  0  0  0  0  0  0
   11.1086    4.3875   12.1840 C   0  0  0  0  0  0  0  0  0  0  0  0
   10.9736    3.4017   12.9884 O   0  0  0  0  0  0  0  0  0  0  0  0
   11.2321    5.8204   12.4963 C   0  0  0  0  0  0  0  0  0  0  0  0
   10.8533    6.4845   11.1945 C   0  0  0  0  0  0  0  0  0  0  0  0
    9.5928    7.2952   11.4046 C   0  0  0  0  0  0  0  0  0  0  0  0
    9.9989    8.4428   12.3410 C   0  0  0  0  0  0  0  0  0  0  0  0
   10.3844    7.7811   13.6326 C   0  0  0  0  0  0  0  0  0  0  0  0
   10.6723    8.4414   14.5941 O   0  0  0  0  0  0  0  0  0  0  0  0
   10.3861    6.2770   13.6351 C   0  0  0  0  0  0  0  0  0  0  0  0
    8.9256    5.8669   13.4145 C   0  0  0  0  0  0  0  0  0  0  0  0
    8.5268    6.5047   12.1116 C   0  0  0  0  0  0  0  0  0  0  0  0
    7.4100    6.3684   11.6937 O   0  0  0  0  0  0  0  0  0  0  0  0
   10.7297    5.4288   10.1908 C   0  0  0  0  0  0  0  0  0  0  0  0
   10.3131    5.5813    9.0203 O   0  0  0  0  0  0  0  0  0  0  0  0
   12.7059   -0.7557    7.7497 Cl  0  0  0  0  0  0  0  0  0  0  0  0
   12.2628    0.7003    8.6331 C   0  0  0  0  0  0  0  0  0  0  0  0
   10.9712    0.9219    9.0433 C   0  0  0  0  0  0  0  0  0  0  0  0
   10.6327    2.0635    9.7337 C   0  0  0  0  0  0  0  0  0  0  0  0
   11.5615    3.0379   10.0480 C   0  0  0  0  0  0  0  0  0  0  0  0
   12.8513    2.7975    9.6289 C   0  0  0  0  0  0  0  0  0  0  0  0
   13.2106    1.6635    8.9376 C   0  0  0  0  0  0  0  0  0  0  0  0
 16 17  1  0  0  0
 17 18  2  0  0  0
 17 22  1  0  0  0
 18 19  1  0  0  0
 19 20  2  0  0  0
 20 21  1  0  0  0
 20  1  1  0  0  0
 21 22  2  0  0  0
  1  2  1  0  0  0
  1 14  1  0  0  0
  2  3  2  0  0  0
  2  4  1  0  0  0
  4  5  1  0  0  0
  4 10  1  0  0  0
  5  6  1  0  0  0
  5 14  1  0  0  0
  6  7  1  0  0  0
  6 12  1  0  0  0
  7  8  1  0  0  0
  8  9  2  0  0  0
  8 10  1  0  0  0
 10 11  1  0  0  0
 11 12  1  0  0  0
 12 13  2  0  0  0
 14 15  2  0  0  0
M  END
> <minimizedAffinity>
-8.38423

$$$$
1943


 34 38  0  0  0  0  0  0  0  0999 V2000
    8.9389    6.4555   12.6844 N   0  0  0  0  0  0  0  0  0  0  0  0
    7.5859    6.8129   12.3267 C   0  0  0  0  0  0  0  0  0  0  0  0
    7.0131    6.5200   11.2731 O   0  0  0  0  0  0  0  0  0  0  0  0
    6.9779    7.5861   13.4175 C   0  0  0  0  0  0  0  0  0  0  0  0
    6.2521    8.8434   13.0017 C   0  0  0  0  0  0  0  0  0  0  0  0
    7.1904    9.9375   13.0709 N   0  0  0  0  0  0  0  0  0  0  0  0
    8.5041    9.3383   13.1967 C   0  0  0  0  0  0  0  0  0  0  0  0
    8.2007    8.1574   14.0965 C   0  0  0  0  0  0  0  0  0  0  0  0
    9.1697    7.0531   13.9710 C   0  0  0  0  0  0  0  0  0  0  0  0
    9.9900    6.7537   14.8424 O   0  0  0  0  0  0  0  0  0  0  0  0
    5.1456    8.9997   14.0084 C   0  0  0  0  0  0  0  0  0  0  0  0
    3.9648    8.7609   13.3642 C   0  0  0  0  0  0  0  0  0  0  0  0
    2.7372    8.7690   14.0449 C   0  0  0  0  0  0  0  0  0  0  0  0
    2.6984    9.0256   15.3996 C   0  0  0  0  0  0  0  0  0  0  0  0
    3.8809    9.2680   16.0456 C   0  0  0  0  0  0  0  0  0  0  0  0
    5.0791    9.2552   15.3625 C   0  0  0  0  0  0  0  0  0  0  0  0
    4.1691    8.6000   11.9698 N   0  0  0  0  0  0  0  0  0  0  0  0
    5.5598    8.7550   11.7319 C   0  0  0  0  0  0  0  0  0  0  0  0
    6.0585    8.8052   10.5878 O   0  0  0  0  0  0  0  0  0  0  0  0
    7.1023   10.4889   12.1845 H   0  0  0  0  0  0  0  0  0  0  0  0
    3.4197    8.4013   11.2383 H   0  0  0  0  0  0  0  0  0  0  0  0
   12.8672    3.2105    9.5783 Cl  0  0  0  0  0  0  0  0  0  0  0  0
   11.7180    4.1717   10.4918 C   0  0  0  0  0  0  0  0  0  0  0  0
   11.3058    3.7474   11.7316 C   0  0  0  0  0  0  0  0  0  0  0  0
   10.3888    4.5131   12.4423 C   0  0  0  0  0  0  0  0  0  0  0  0
    9.8645    5.6857   11.9719 C   0  0  0  0  0  0  0  0  0  0  0  0
   10.2962    6.0852   10.7306 C   0  0  0  0  0  0  0  0  0  0  0  0
   11.2177    5.3349    9.9929 C   0  0  0  0  0  0  0  0  0  0  0  0
    9.4991   10.2712   13.8360 C   0  0  0  0  0  0  0  0  0  0  0  0
    9.2731   10.5062   15.2588 C   0  0  0  0  0  0  0  0  0  0  0  0
    8.1969   10.9899   15.6582 O   0  0  0  0  0  0  0  0  0  0  0  0
   10.2811   10.1847   16.1974 N   0  0  0  0  0  0  0  0  0  0  0  0
   11.2347    9.8301   15.9438 H   0  0  0  0  0  0  0  0  0  0  0  0
   10.1427   10.2827   17.2455 H   0  0  0  0  0  0  0  0  0  0  0  0
 22 23  1  0  0  0
 23 24  2  0  0  0
 23 28  1  0  0  0
 24 25  1  0  0  0
 25 26  2  0  0  0
 26 27  1  0  0  0
 26  1  1  0  0  0
 27 28  2  0  0  0
  1  2  1  0  0  0
  1  9  1  0  0  0
  2  3  2  0  0  0
  2  4  1  0  0  0
  4  5  1  0  0  0
  4  8  1  0  0  0
  5  6  1  0  0  0
  5 11  1  0  0  0
  5 18  1  0  0  0
  6  7  1  0  0  0
  7  8  1  0  0  0
  7 29  1  0  0  0
  8  9  1  0  0  0
  9 10  2  0  0  0
 29 30  1  0  0  0
 30 31  2  0  0  0
 30 32  1  0  0  0
 11 12  1  0  0  0
 11 16  2  0  0  0
 12 13  2  0  0  0
 12 17  1  0  0  0
 13 14  1  0  0  0
 14 15  2  0  0  0
 15 16  1  0  0  0
 17 18  1  0  0  0
 18 19  2  0  0  0
  6 20  1  0  0  0
 32 33  1  0  0  0
 32 34  1  0  0  0
 17 21  1  0  0  0
M  END
> <minimizedAffinity>
-9.25941

$$$$
1945


 24 27  0  0  0  0  0  0  0  0999 V2000
   16.6558    3.9962   11.4514 Cl  0  0  0  0  0  0  0  0  0  0  0  0
   15.4933    2.9715   10.6331 C   0  0  0  0  0  0  0  0  0  0  0  0
   14.1522    3.0071   10.9392 C   0  0  0  0  0  0  0  0  0  0  0  0
   13.2357    2.1838   10.2794 C   0  0  0  0  0  0  0  0  0  0  0  0
   13.7123    1.3244    9.3005 C   0  0  0  0  0  0  0  0  0  0  0  0
   15.0489    1.2778    8.9833 C   0  0  0  0  0  0  0  0  0  0  0  0
   15.9383    2.0897    9.6394 C   0  0  0  0  0  0  0  0  0  0  0  0
   12.7828    0.4385    8.5772 C   0  0  0  0  0  0  0  0  0  0  0  0
   12.9554   -0.4350    7.6444 N   0  0  0  0  0  0  0  0  0  0  0  0
   11.7266   -1.0640    7.2447 C   0  0  0  0  0  0  0  0  0  0  0  0
   10.6866   -0.4234    8.1109 C   0  0  0  0  0  0  0  0  0  0  0  0
   11.4144    0.5118    8.9264 N   0  0  0  0  0  0  0  0  0  0  0  0
   10.9566    1.4039    9.9346 C   0  0  0  0  0  0  0  0  0  0  0  0
    9.7387    1.4857   10.2605 O   0  0  0  0  0  0  0  0  0  0  0  0
   11.8624    2.2700   10.6422 N   0  0  0  0  0  0  0  0  0  0  0  0
   11.3707    3.1760   11.6710 C   0  0  0  0  0  0  0  0  0  0  0  0
   10.9287    4.4616   11.0842 C   0  0  0  0  0  0  0  0  0  0  0  0
   10.9600    4.5846    9.8354 O   0  0  0  0  0  0  0  0  0  0  0  0
   10.4737    5.5523   11.8632 N   0  0  0  0  0  0  0  0  0  0  0  0
   10.4526    5.4343   12.8963 H   0  0  0  0  0  0  0  0  0  0  0  0
   10.0476    6.7948   11.2659 C   0  0  0  0  0  0  0  0  0  0  0  0
    9.3013    7.6243   12.2769 C   0  0  0  0  0  0  0  0  0  0  0  0
    7.8530    7.3712   12.5047 C   0  0  0  0  0  0  0  0  0  0  0  0
    8.2685    8.5751   11.7486 C   0  0  0  0  0  0  0  0  0  0  0  0
  1  2  1  0  0  0
  2  3  2  0  0  0
  2  7  1  0  0  0
  3  4  1  0  0  0
  4  5  2  0  0  0
  4 15  1  0  0  0
  5  6  1  0  0  0
  5  8  1  0  0  0
  6  7  2  0  0  0
  8  9  2  0  0  0
  8 12  1  0  0  0
  9 10  1  0  0  0
 10 11  1  0  0  0
 11 12  1  0  0  0
 12 13  1  0  0  0
 13 14  2  0  0  0
 13 15  1  0  0  0
 15 16  1  0  0  0
 16 17  1  0  0  0
 17 18  2  0  0  0
 17 19  1  0  0  0
 19 21  1  0  0  0
 21 22  1  0  0  0
 22 23  1  0  0  0
 22 24  1  0  0  0
 23 24  1  0  0  0
 19 20  1  0  0  0
M  END
> <minimizedAffinity>
-7.93566

$$$$
1956


 35 38  0  0  0  0  0  0  0  0999 V2000
   12.9465    3.7982   11.5396 C   0  0  0  0  0  0  0  0  0  0  0  0
   12.2449    4.9173   11.4728 C   0  0  0  0  0  0  0  0  0  0  0  0
   12.2596    6.0197   12.5017 C   0  0  0  0  0  0  0  0  0  0  0  0
   11.1373    6.8549   12.1848 N   0  0  0  0  0  0  0  0  0  0  0  0
   10.6069    6.5207   10.9106 C   0  0  0  0  0  0  0  0  0  0  0  0
    9.7276    7.1303   10.2845 O   0  0  0  0  0  0  0  0  0  0  0  0
   11.3073    5.2942   10.4635 C   0  0  0  0  0  0  0  0  0  0  0  0
   11.0854    4.7109    9.3763 O   0  0  0  0  0  0  0  0  0  0  0  0
   13.7648    3.6467   12.6843 O   0  0  0  0  0  0  0  0  0  0  0  0
   12.6934   -0.6102    7.4373 Cl  0  0  0  0  0  0  0  0  0  0  0  0
   12.7369    0.6656    8.6326 C   0  0  0  0  0  0  0  0  0  0  0  0
   11.8138    0.7736    9.6451 C   0  0  0  0  0  0  0  0  0  0  0  0
   11.8930    1.8003   10.5628 C   0  0  0  0  0  0  0  0  0  0  0  0
   12.8986    2.7759   10.5181 C   0  0  0  0  0  0  0  0  0  0  0  0
   13.8083    2.6413    9.4963 C   0  0  0  0  0  0  0  0  0  0  0  0
   13.7307    1.5996    8.5621 C   0  0  0  0  0  0  0  0  0  0  0  0
   13.5736    6.7052   12.3658 C   0  0  0  0  0  0  0  0  0  0  0  0
   13.9190    7.2924   11.1827 C   0  0  0  0  0  0  0  0  0  0  0  0
   15.1212    7.9304   11.0709 C   0  0  0  0  0  0  0  0  0  0  0  0
   16.0066    8.0012   12.1245 C   0  0  0  0  0  0  0  0  0  0  0  0
   15.6589    7.4066   13.3233 C   0  0  0  0  0  0  0  0  0  0  0  0
   14.4364    6.7605   13.4316 C   0  0  0  0  0  0  0  0  0  0  0  0
   17.2295    8.6526   12.0023 O   0  0  0  0  0  0  0  0  0  0  0  0
   17.8689    8.6548   10.7177 C   0  0  0  0  0  0  0  0  0  0  0  0
   18.7524    7.4146   10.6087 C   0  0  0  0  0  0  0  0  0  0  0  0
   18.2552    6.6207    9.4090 C   0  0  0  0  0  0  0  0  0  0  0  0
   10.5945    7.8976   13.0495 C   0  0  0  0  0  0  0  0  0  0  0  0
    9.4858    7.3407   13.8742 C   0  0  0  0  0  0  0  0  0  0  0  0
    8.1965    7.9664   13.5374 N   0  0  0  0  0  0  0  0  0  0  0  0
    7.4284    7.0196   12.7892 C   0  0  0  0  0  0  0  0  0  0  0  0
    6.2618    7.6818   12.0600 C   0  0  0  0  0  0  0  0  0  0  0  0
    6.8282    8.6680   11.2322 O   0  0  0  0  0  0  0  0  0  0  0  0
    7.2915    9.6740   12.0541 C   0  0  0  0  0  0  0  0  0  0  0  0
    8.5089    9.1747   12.8058 C   0  0  0  0  0  0  0  0  0  0  0  0
    7.6728    8.2216   14.4151 H   0  0  0  0  0  0  0  0  0  0  0  0
 10 11  1  0  0  0
 11 12  2  0  0  0
 11 16  1  0  0  0
 12 13  1  0  0  0
 13 14  2  0  0  0
 14 15  1  0  0  0
 14  1  1  0  0  0
 15 16  2  0  0  0
  1  2  2  0  0  0
  1  9  1  0  0  0
  2  3  1  0  0  0
  2  7  1  0  0  0
  3  4  1  0  0  0
  3 17  1  0  0  0
  4  5  1  0  0  0
  4 27  1  0  0  0
  5  6  2  0  0  0
  5  7  1  0  0  0
  7  8  2  0  0  0
 27 28  1  0  0  0
 28 29  1  0  0  0
 29 30  1  0  0  0
 29 34  1  0  0  0
 30 31  1  0  0  0
 31 32  1  0  0  0
 32 33  1  0  0  0
 33 34  1  0  0  0
 17 18  2  0  0  0
 17 22  1  0  0  0
 18 19  1  0  0  0
 19 20  2  0  0  0
 20 21  1  0  0  0
 20 23  1  0  0  0
 21 22  2  0  0  0
 23 24  1  0  0  0
 24 25  1  0  0  0
 25 26  1  0  0  0
 29 35  1  0  0  0
M  CHG 1   9  -1
M  CHG 1  29   1
M  END
> <minimizedAffinity>
-8.10413

$$$$
1957


 36 40  0  0  0  0  0  0  0  0999 V2000
   12.0443    3.2497   10.5598 C   0  0  0  0  0  0  0  0  0  0  0  0
   13.2575    4.0534   10.6367 N   0  0  0  0  0  0  0  0  0  0  0  0
   12.9356    5.2182   11.4369 C   0  0  0  0  0  0  0  0  0  0  0  0
   11.9353    4.6756   12.4163 C   0  0  0  0  0  0  0  0  0  0  0  0
   11.1298    3.6789   11.6446 C   0  0  0  0  0  0  0  0  0  0  0  0
    9.9332    4.4150   11.1515 C   0  0  0  0  0  0  0  0  0  0  0  0
    9.1362    4.0348   10.2613 O   0  0  0  0  0  0  0  0  0  0  0  0
    9.8759    5.6482   11.9017 N   0  0  0  0  0  0  0  0  0  0  0  0
   10.9204    5.6504   12.8526 C   0  0  0  0  0  0  0  0  0  0  0  0
   10.9976    6.3488   13.8928 O   0  0  0  0  0  0  0  0  0  0  0  0
   14.1298    5.7698   12.1223 C   0  0  0  0  0  0  0  0  0  0  0  0
   14.3031    7.0477   11.6459 C   0  0  0  0  0  0  0  0  0  0  0  0
   15.3616    7.8051   12.1286 C   0  0  0  0  0  0  0  0  0  0  0  0
   16.2050    7.2597   13.0676 C   0  0  0  0  0  0  0  0  0  0  0  0
   16.0383    5.9744   13.5544 C   0  0  0  0  0  0  0  0  0  0  0  0
   14.9833    5.2327   13.0655 C   0  0  0  0  0  0  0  0  0  0  0  0
   13.2954    7.3772   10.6727 N   0  0  0  0  0  0  0  0  0  0  0  0
   12.4512    6.2487   10.5355 C   0  0  0  0  0  0  0  0  0  0  0  0
   11.4803    6.2009    9.7628 O   0  0  0  0  0  0  0  0  0  0  0  0
   13.5821    4.3092    9.6980 H   0  0  0  0  0  0  0  0  0  0  0  0
   13.2492    8.3032   10.1897 H   0  0  0  0  0  0  0  0  0  0  0  0
   12.4956    1.8168   10.6528 C   0  0  0  0  0  0  0  0  0  0  0  0
   13.8150    1.6256   10.3347 O   0  0  0  0  0  0  0  0  0  0  0  0
   14.3662    2.0380   11.0480 H   0  0  0  0  0  0  0  0  0  0  0  0
    9.1650   -1.9593    7.2642 Cl  0  0  0  0  0  0  0  0  0  0  0  0
   10.1331   -0.8736    8.2473 C   0  0  0  0  0  0  0  0  0  0  0  0
   11.5140   -0.8965    8.2239 C   0  0  0  0  0  0  0  0  0  0  0  0
   12.2603   -0.0446    8.9954 C   0  0  0  0  0  0  0  0  0  0  0  0
   11.6600    0.8871    9.8409 C   0  0  0  0  0  0  0  0  0  0  0  0
   10.2874    0.9200    9.8726 C   0  0  0  0  0  0  0  0  0  0  0  0
    9.5622    0.0545    9.0890 C   0  0  0  0  0  0  0  0  0  0  0  0
    8.9189    6.6952   11.6961 C   0  0  0  0  0  0  0  0  0  0  0  0
    7.6509    6.5758   12.4551 C   0  0  0  0  0  0  0  0  0  0  0  0
    6.5803    7.5577   12.1313 C   0  0  0  0  0  0  0  0  0  0  0  0
    5.8365    7.2122   11.0108 O   0  0  0  0  0  0  0  0  0  0  0  0
    4.9563    8.2674   10.6917 C   0  0  0  0  0  0  0  0  0  0  0  0
 25 26  1  0  0  0
 26 27  2  0  0  0
 26 31  1  0  0  0
 27 28  1  0  0  0
 28 29  2  0  0  0
 29 30  1  0  0  0
 29 22  1  0  0  0
 30 31  2  0  0  0
 22 23  1  0  0  0
 22  1  1  0  0  0
  1  2  1  0  0  0
  1  5  1  0  0  0
  2  3  1  0  0  0
  3  4  1  0  0  0
  3 11  1  0  0  0
  3 18  1  0  0  0
  4  5  1  0  0  0
  4  9  1  0  0  0
  5  6  1  0  0  0
  6  7  2  0  0  0
  6  8  1  0  0  0
  8  9  1  0  0  0
  8 32  1  0  0  0
  9 10  2  0  0  0
 32 33  1  0  0  0
 33 34  1  0  0  0
 34 35  1  0  0  0
 35 36  1  0  0  0
 11 12  1  0  0  0
 11 16  2  0  0  0
 12 13  2  0  0  0
 12 17  1  0  0  0
 13 14  1  0  0  0
 14 15  2  0  0  0
 15 16  1  0  0  0
 17 18  1  0  0  0
 18 19  2  0  0  0
 23 24  1  0  0  0
  2 20  1  0  0  0
 17 21  1  0  0  0
M  END
> <minimizedAffinity>
-8.69592

$$$$
1958


 28 31  0  0  0  0  0  0  0  0999 V2000
   11.0837    3.6140   10.0408 C   0  0  0  0  0  0  0  0  0  0  0  0
   10.1705    3.5838    9.1449 O   0  0  0  0  0  0  0  0  0  0  0  0
   11.5121    4.8164   10.6212 N   0  0  0  0  0  0  0  0  0  0  0  0
   12.5308    4.8575   11.6218 C   0  0  0  0  0  0  0  0  0  0  0  0
   12.4377    6.0326   12.5539 C   0  0  0  0  0  0  0  0  0  0  0  0
   11.0429    6.5328   12.6077 C   0  0  0  0  0  0  0  0  0  0  0  0
   10.2593    6.5660   11.4692 C   0  0  0  0  0  0  0  0  0  0  0  0
    9.0019    7.0211   11.5062 N   0  0  0  0  0  0  0  0  0  0  0  0
    8.4212    7.4709   12.6389 C   0  0  0  0  0  0  0  0  0  0  0  0
    9.1852    7.4400   13.7573 N   0  0  0  0  0  0  0  0  0  0  0  0
   10.4525    6.9925   13.7705 C   0  0  0  0  0  0  0  0  0  0  0  0
   11.2077    6.9744   14.9342 O   0  0  0  0  0  0  0  0  0  0  0  0
   10.9133    6.0549   10.2073 C   0  0  0  0  0  0  0  0  0  0  0  0
   10.9733    6.3697   15.7257 H   0  0  0  0  0  0  0  0  0  0  0  0
    7.0954    7.9365   12.6247 N   0  0  0  0  0  0  0  0  0  0  0  0
    6.2141    7.6682   13.7220 C   0  0  0  0  0  0  0  0  0  0  0  0
    5.1236    8.7481   13.6709 C   0  0  0  0  0  0  0  0  0  0  0  0
    4.3974    8.6653   12.5093 O   0  0  0  0  0  0  0  0  0  0  0  0
    5.1198    8.5489   11.3529 C   0  0  0  0  0  0  0  0  0  0  0  0
    6.6094    8.6874   11.5055 C   0  0  0  0  0  0  0  0  0  0  0  0
   11.6735    2.2957   10.4393 C   0  0  0  0  0  0  0  0  0  0  0  0
    9.0694   -2.2085    7.3874 Cl  0  0  0  0  0  0  0  0  0  0  0  0
    9.8344   -0.9033    8.2673 C   0  0  0  0  0  0  0  0  0  0  0  0
   11.1583   -0.5585    8.0153 C   0  0  0  0  0  0  0  0  0  0  0  0
   11.7492    0.4713    8.7148 C   0  0  0  0  0  0  0  0  0  0  0  0
   11.0722    1.1902    9.6765 C   0  0  0  0  0  0  0  0  0  0  0  0
    9.7606    0.8547    9.9316 C   0  0  0  0  0  0  0  0  0  0  0  0
    9.1684   -0.1734    9.2333 C   0  0  0  0  0  0  0  0  0  0  0  0
 22 23  1  0  0  0
 23 24  2  0  0  0
 23 28  1  0  0  0
 24 25  1  0  0  0
 25 26  2  0  0  0
 26 27  1  0  0  0
 26 21  1  0  0  0
 27 28  2  0  0  0
 21  1  1  0  0  0
  1  2  2  0  0  0
  1  3  1  0  0  0
  3  4  1  0  0  0
  3 13  1  0  0  0
  4  5  1  0  0  0
  5  6  1  0  0  0
  6  7  2  0  0  0
  6 11  1  0  0  0
  7  8  1  0  0  0
  7 13  1  0  0  0
  8  9  2  0  0  0
  9 10  1  0  0  0
  9 15  1  0  0  0
 10 11  2  0  0  0
 11 12  1  0  0  0
 15 16  1  0  0  0
 15 20  1  0  0  0
 16 17  1  0  0  0
 17 18  1  0  0  0
 18 19  1  0  0  0
 19 20  1  0  0  0
 12 14  1  0  0  0
M  END
> <minimizedAffinity>
-9.43670

$$$$
1960


 28 31  0  0  0  0  0  0  0  0999 V2000
   12.1169    4.1484   10.5967 C   0  0  0  0  0  0  0  0  0  0  0  0
   11.9948    4.2042    9.3447 O   0  0  0  0  0  0  0  0  0  0  0  0
   12.1933    5.3493   11.3196 N   0  0  0  0  0  0  0  0  0  0  0  0
   12.1343    6.6533   10.6359 C   0  0  0  0  0  0  0  0  0  0  0  0
   11.3331    7.6078   11.5081 C   0  0  0  0  0  0  0  0  0  0  0  0
   10.4196    6.7940   12.2847 N   0  0  0  0  0  0  0  0  0  0  0  0
   11.0303    6.0186   13.3510 C   0  0  0  0  0  0  0  0  0  0  0  0
   12.3291    5.4370   12.7667 C   0  0  0  0  0  0  0  0  0  0  0  0
    9.0286    6.7498   12.0079 C   0  0  0  0  0  0  0  0  0  0  0  0
    8.4874    5.6612   11.3490 C   0  0  0  0  0  0  0  0  0  0  0  0
    7.1486    5.6500   11.0836 N   0  0  0  0  0  0  0  0  0  0  0  0
    6.3408    6.6343   11.4266 N   0  0  0  0  0  0  0  0  0  0  0  0
    6.8087    7.7417   12.0813 C   0  0  0  0  0  0  0  0  0  0  0  0
    8.1452    7.7483   12.3440 C   0  0  0  0  0  0  0  0  0  0  0  0
    5.8888    8.7598   12.4164 N   0  0  0  0  0  0  0  0  0  0  0  0
    6.3120    9.9339   13.1567 C   0  0  0  0  0  0  0  0  0  0  0  0
    5.3084   10.2582   14.2642 C   0  0  0  0  0  0  0  0  0  0  0  0
    4.0090   10.2278   13.7984 O   0  0  0  0  0  0  0  0  0  0  0  0
    3.7346    8.9360   13.3762 C   0  0  0  0  0  0  0  0  0  0  0  0
    4.4950    8.6997   12.0591 C   0  0  0  0  0  0  0  0  0  0  0  0
   12.1701    2.8105   11.2163 C   0  0  0  0  0  0  0  0  0  0  0  0
   10.3990   -1.4978    7.3846 Cl  0  0  0  0  0  0  0  0  0  0  0  0
   10.9004   -0.2545    8.4893 C   0  0  0  0  0  0  0  0  0  0  0  0
   12.2548   -0.0005    8.7118 C   0  0  0  0  0  0  0  0  0  0  0  0
   12.6466    0.9906    9.5930 C   0  0  0  0  0  0  0  0  0  0  0  0
   11.7050    1.7558   10.2763 C   0  0  0  0  0  0  0  0  0  0  0  0
   10.3772    1.5101   10.0616 C   0  0  0  0  0  0  0  0  0  0  0  0
    9.9840    0.5106    9.1718 C   0  0  0  0  0  0  0  0  0  0  0  0
 22 23  1  0  0  0
 23 24  2  0  0  0
 23 28  1  0  0  0
 24 25  1  0  0  0
 25 26  2  0  0  0
 26 27  1  0  0  0
 26 21  1  0  0  0
 27 28  2  0  0  0
 21  1  1  0  0  0
  1  2  2  0  0  0
  1  3  1  0  0  0
  3  4  1  0  0  0
  3  8  1  0  0  0
  4  5  1  0  0  0
  5  6  1  0  0  0
  6  7  1  0  0  0
  6  9  1  0  0  0
  7  8  1  0  0  0
  9 10  2  0  0  0
  9 14  1  0  0  0
 10 11  1  0  0  0
 11 12  2  0  0  0
 12 13  1  0  0  0
 13 14  2  0  0  0
 13 15  1  0  0  0
 15 16  1  0  0  0
 15 20  1  0  0  0
 16 17  1  0  0  0
 17 18  1  0  0  0
 18 19  1  0  0  0
 19 20  1  0  0  0
M  END
> <minimizedAffinity>
-9.38241

$$$$
1966


 27 30  0  0  0  0  0  0  0  0999 V2000
   15.2808    2.8602   10.7456 C   0  0  0  0  0  0  0  0  0  0  0  0
   16.4519    2.5086   10.3277 O   0  0  0  0  0  0  0  0  0  0  0  0
   15.0578    3.8505   11.6687 N   0  0  0  0  0  0  0  0  0  0  0  0
   16.4024    4.0731   11.7761 H   0  0  0  0  0  0  0  0  0  0  0  0
   12.2927    2.3696   11.5392 F   0  0  0  0  0  0  0  0  0  0  0  0
   12.9223    1.8504   10.4569 C   0  0  0  0  0  0  0  0  0  0  0  0
   12.2834    1.0263    9.5713 N   0  0  0  0  0  0  0  0  0  0  0  0
   13.2075    0.7130    8.6492 C   0  0  0  0  0  0  0  0  0  0  0  0
   14.3661    1.3189    8.9559 N   0  0  0  0  0  0  0  0  0  0  0  0
   14.2288    2.0428   10.0838 C   0  0  0  0  0  0  0  0  0  0  0  0
   12.8193   -0.1196    7.6282 C   0  0  0  0  0  0  0  0  0  0  0  0
   11.5242   -0.6315    7.5293 C   0  0  0  0  0  0  0  0  0  0  0  0
   10.6090   -0.2890    8.4884 C   0  0  0  0  0  0  0  0  0  0  0  0
   11.0272    0.5543    9.5117 C   0  0  0  0  0  0  0  0  0  0  0  0
    8.9540   -0.8945    8.4239 Cl  0  0  0  0  0  0  0  0  0  0  0  0
   14.8364    4.8343   12.5871 C   0  0  0  0  0  0  0  0  0  0  0  0
   14.7796    6.2381   12.0387 C   0  0  0  0  0  0  0  0  0  0  0  0
   13.6966    6.8357   11.5355 N   0  0  0  0  0  0  0  0  0  0  0  0
   14.0452    8.0560   11.1645 N   0  0  0  0  0  0  0  0  0  0  0  0
   15.3207    8.2556   11.4174 N   0  0  0  0  0  0  0  0  0  0  0  0
   15.7685    7.1228   11.9597 N   0  0  0  0  0  0  0  0  0  0  0  0
   12.4217    6.1947   11.4627 C   0  0  0  0  0  0  0  0  0  0  0  0
   12.0545    5.6029   10.2588 C   0  0  0  0  0  0  0  0  0  0  0  0
   10.8213    4.9789   10.1160 C   0  0  0  0  0  0  0  0  0  0  0  0
    9.9224    4.9269   11.1621 C   0  0  0  0  0  0  0  0  0  0  0  0
   10.2934    5.5150   12.3524 C   0  0  0  0  0  0  0  0  0  0  0  0
   11.5202    6.1378   12.4977 C   0  0  0  0  0  0  0  0  0  0  0  0
  5  6  1  0  0  0
  6  7  1  0  0  0
  6 10  2  0  0  0
  7  8  1  0  0  0
  7 14  1  0  0  0
  8  9  2  0  0  0
  8 11  1  0  0  0
  9 10  1  0  0  0
 10  1  1  0  0  0
  1  2  2  0  0  0
  1  3  1  0  0  0
  3 16  1  0  0  0
 16 17  1  0  0  0
 17 18  1  0  0  0
 17 21  2  0  0  0
 18 19  1  0  0  0
 18 22  1  0  0  0
 19 20  2  0  0  0
 20 21  1  0  0  0
 22 23  2  0  0  0
 22 27  1  0  0  0
 23 24  1  0  0  0
 24 25  2  0  0  0
 25 26  1  0  0  0
 26 27  2  0  0  0
 11 12  2  0  0  0
 12 13  1  0  0  0
 13 14  2  0  0  0
 13 15  1  0  0  0
  3  4  1  0  0  0
M  END
> <minimizedAffinity>
-8.74656

$$$$
1969


 26 29  0  0  0  0  0  0  0  0999 V2000
    9.5439    7.0426   12.4322 C   0  0  0  0  0  0  0  0  0  0  0  0
   10.1919    8.2662   12.2960 O   0  0  0  0  0  0  0  0  0  0  0  0
    9.0292    6.8998   13.6770 N   0  0  0  0  0  0  0  0  0  0  0  0
    8.2088    5.8814   14.2624 C   0  0  0  0  0  0  0  0  0  0  0  0
    7.4047    6.4859   15.4320 C   0  0  0  0  0  0  0  0  0  0  0  0
    7.1642    7.8735   15.0115 N   0  0  0  0  0  0  0  0  0  0  0  0
    8.2581    8.7872   15.0026 C   0  0  0  0  0  0  0  0  0  0  0  0
    9.4504    7.9562   14.6520 C   0  0  0  0  0  0  0  0  0  0  0  0
    5.9134    8.2344   14.5238 C   0  0  0  0  0  0  0  0  0  0  0  0
    5.7410    8.5994   13.1837 N   0  0  0  0  0  0  0  0  0  0  0  0
    4.6282    8.9239   12.6258 C   0  0  0  0  0  0  0  0  0  0  0  0
    3.4177    8.9332   13.3360 C   0  0  0  0  0  0  0  0  0  0  0  0
    3.5797    8.5788   14.6690 C   0  0  0  0  0  0  0  0  0  0  0  0
    4.7173    8.2701   15.1676 N   0  0  0  0  0  0  0  0  0  0  0  0
   11.0333    4.4620   10.6093 N   0  0  0  0  0  0  0  0  0  0  0  0
   10.4556    5.0311    9.5732 N   0  0  0  0  0  0  0  0  0  0  0  0
    9.8716    5.9628   10.0160 N   0  0  0  0  0  0  0  0  0  0  0  0
    9.7233    6.4544   11.1169 C   0  0  0  0  0  0  0  0  0  0  0  0
   10.7132    5.1924   11.6441 C   0  0  0  0  0  0  0  0  0  0  0  0
   11.7887   -0.4907    9.0558 Cl  0  0  0  0  0  0  0  0  0  0  0  0
   12.2617    1.0249    9.7572 C   0  0  0  0  0  0  0  0  0  0  0  0
   11.4183    2.1212    9.8835 C   0  0  0  0  0  0  0  0  0  0  0  0
   11.8419    3.2737   10.4486 C   0  0  0  0  0  0  0  0  0  0  0  0
   13.1495    3.3021   10.8898 C   0  0  0  0  0  0  0  0  0  0  0  0
   14.0170    2.2670   10.7943 C   0  0  0  0  0  0  0  0  0  0  0  0
   13.6095    1.1052   10.2361 C   0  0  0  0  0  0  0  0  0  0  0  0
 20 21  1  0  0  0
 21 22  2  0  0  0
 21 26  1  0  0  0
 22 23  1  0  0  0
 23 24  2  0  0  0
 23 15  1  0  0  0
 24 25  1  0  0  0
 25 26  2  0  0  0
 15 16  1  0  0  0
 15 19  1  0  0  0
 16 17  2  0  0  0
 17 18  1  0  0  0
 18 19  2  0  0  0
 18  1  1  0  0  0
  1  2  2  0  0  0
  1  3  1  0  0  0
  3  4  1  0  0  0
  3  8  1  0  0  0
  4  5  1  0  0  0
  5  6  1  0  0  0
  6  7  1  0  0  0
  6  9  1  0  0  0
  7  8  1  0  0  0
  9 10  2  0  0  0
  9 14  1  0  0  0
 10 11  1  0  0  0
 11 12  2  0  0  0
 12 13  1  0  0  0
 13 14  2  0  0  0
M  END
> <minimizedAffinity>
-8.58525

$$$$
1971


 22 25  0  0  0  0  0  0  0  0999 V2000
    8.7264    6.8214   12.4043 N   0  0  0  0  0  0  0  0  0  0  0  0
    7.3835    6.6483   11.9145 C   0  0  0  0  0  0  0  0  0  0  0  0
    7.0699    5.9333   10.9337 O   0  0  0  0  0  0  0  0  0  0  0  0
    6.4571    7.4281   12.7308 C   0  0  0  0  0  0  0  0  0  0  0  0
    5.8946    8.6446   12.0728 C   0  0  0  0  0  0  0  0  0  0  0  0
    5.6205    9.4406   13.2137 O   0  0  0  0  0  0  0  0  0  0  0  0
    6.9588    9.5238   13.6777 C   0  0  0  0  0  0  0  0  0  0  0  0
    7.2969    8.0637   13.8506 C   0  0  0  0  0  0  0  0  0  0  0  0
    8.6764    7.8009   13.4354 C   0  0  0  0  0  0  0  0  0  0  0  0
    9.6971    8.3536   13.9133 O   0  0  0  0  0  0  0  0  0  0  0  0
    7.6397   10.0034   12.4567 C   0  0  0  0  0  0  0  0  0  0  0  0
    6.9389    9.4719   11.4289 C   0  0  0  0  0  0  0  0  0  0  0  0
   11.8336    2.6642   12.5576 Cl  0  0  0  0  0  0  0  0  0  0  0  0
   11.4087    4.2646   11.9912 C   0  0  0  0  0  0  0  0  0  0  0  0
   10.2594    4.8988   12.4123 C   0  0  0  0  0  0  0  0  0  0  0  0
    9.9125    6.1661   11.9718 C   0  0  0  0  0  0  0  0  0  0  0  0
   10.7744    6.7756   11.0818 C   0  0  0  0  0  0  0  0  0  0  0  0
   11.9324    6.1374   10.6569 C   0  0  0  0  0  0  0  0  0  0  0  0
   12.2700    4.8755   11.1024 C   0  0  0  0  0  0  0  0  0  0  0  0
    4.6773    8.4167   11.2484 C   0  0  0  0  0  0  0  0  0  0  0  0
    5.0392    8.3070    9.9119 O   0  0  0  0  0  0  0  0  0  0  0  0
    6.0105    8.4346    9.8088 H   0  0  0  0  0  0  0  0  0  0  0  0
 13 14  1  0  0  0
 14 15  2  0  0  0
 14 19  1  0  0  0
 15 16  1  0  0  0
 16 17  2  0  0  0
 16  1  1  0  0  0
 17 18  1  0  0  0
 18 19  2  0  0  0
  1  2  1  0  0  0
  1  9  1  0  0  0
  2  3  2  0  0  0
  2  4  1  0  0  0
  4  5  1  0  0  0
  4  8  1  0  0  0
  5  6  1  0  0  0
  5 12  1  0  0  0
  5 20  1  0  0  0
  6  7  1  0  0  0
  7  8  1  0  0  0
  7 11  1  0  0  0
  8  9  1  0  0  0
  9 10  2  0  0  0
 11 12  2  0  0  0
 20 21  1  0  0  0
 21 22  1  0  0  0
M  END
> <minimizedAffinity>
-8.01320

$$$$
1973


 24 27  0  0  0  0  0  0  0  0999 V2000
    9.5928   -1.5581    7.3392 Cl  0  0  0  0  0  0  0  0  0  0  0  0
   10.9611   -0.6344    7.9585 C   0  0  0  0  0  0  0  0  0  0  0  0
   10.8385    0.2223    9.0329 C   0  0  0  0  0  0  0  0  0  0  0  0
   11.8777    0.9399    9.5235 N   0  0  0  0  0  0  0  0  0  0  0  0
   13.1081    0.8591    8.9838 C   0  0  0  0  0  0  0  0  0  0  0  0
   14.1625    1.5710    9.4616 N   0  0  0  0  0  0  0  0  0  0  0  0
   14.0514    2.4087   10.5086 C   0  0  0  0  0  0  0  0  0  0  0  0
   12.7858    2.5038   11.0780 C   0  0  0  0  0  0  0  0  0  0  0  0
   12.6612    3.4291   12.2345 C   0  0  0  0  0  0  0  0  0  0  0  0
   13.3707    4.6483   11.8301 N   0  0  0  0  0  0  0  0  0  0  0  0
   14.7756    4.5391   11.5554 C   0  0  0  0  0  0  0  0  0  0  0  0
   15.1959    3.1908   11.0420 C   0  0  0  0  0  0  0  0  0  0  0  0
   12.6821    5.8756   11.7121 C   0  0  0  0  0  0  0  0  0  0  0  0
   11.4298    5.8629   11.9639 O   0  0  0  0  0  0  0  0  0  0  0  0
   11.7356    1.7697   10.5726 C   0  0  0  0  0  0  0  0  0  0  0  0
   10.5867    1.8747   11.1120 O   0  0  0  0  0  0  0  0  0  0  0  0
   13.2524    0.0046    7.9031 C   0  0  0  0  0  0  0  0  0  0  0  0
   12.2107   -0.7368    7.3856 C   0  0  0  0  0  0  0  0  0  0  0  0
   13.3483    7.1374   11.3196 C   0  0  0  0  0  0  0  0  0  0  0  0
   14.4956    7.4894   12.2407 C   0  0  0  0  0  0  0  0  0  0  0  0
   14.0029    7.1862   13.6497 C   0  0  0  0  0  0  0  0  0  0  0  0
   12.6604    7.5393   13.7752 O   0  0  0  0  0  0  0  0  0  0  0  0
   12.3401    8.6339   12.9605 C   0  0  0  0  0  0  0  0  0  0  0  0
   12.3280    8.2732   11.4871 C   0  0  0  0  0  0  0  0  0  0  0  0
  1  2  1  0  0  0
  2  3  2  0  0  0
  2 18  1  0  0  0
  3  4  1  0  0  0
  4  5  1  0  0  0
  4 15  1  0  0  0
  5  6  2  0  0  0
  5 17  1  0  0  0
  6  7  1  0  0  0
  7  8  2  0  0  0
  7 12  1  0  0  0
  8  9  1  0  0  0
  8 15  1  0  0  0
  9 10  1  0  0  0
 10 11  1  0  0  0
 10 13  1  0  0  0
 11 12  1  0  0  0
 13 14  2  0  0  0
 13 19  1  0  0  0
 19 20  1  0  0  0
 19 24  1  0  0  0
 20 21  1  0  0  0
 21 22  1  0  0  0
 22 23  1  0  0  0
 23 24  1  0  0  0
 15 16  2  0  0  0
 17 18  2  0  0  0
M  END
> <minimizedAffinity>
-8.44540

$$$$
1974


 26 29  0  0  0  0  0  0  0  0999 V2000
    9.7958    2.0288   10.4795 F   0  0  0  0  0  0  0  0  0  0  0  0
   11.0111    1.7062    9.9755 C   0  0  0  0  0  0  0  0  0  0  0  0
   12.1292    2.3436   10.4916 C   0  0  0  0  0  0  0  0  0  0  0  0
   13.3966    2.0670   10.0283 C   0  0  0  0  0  0  0  0  0  0  0  0
   13.5208    1.1250    9.0213 C   0  0  0  0  0  0  0  0  0  0  0  0
   12.4130    0.4917    8.5085 C   0  0  0  0  0  0  0  0  0  0  0  0
   11.1500    0.7726    8.9756 C   0  0  0  0  0  0  0  0  0  0  0  0
   15.1331    0.7691    8.4274 Cl  0  0  0  0  0  0  0  0  0  0  0  0
   14.3940    2.8567   10.7206 C   0  0  0  0  0  0  0  0  0  0  0  0
   15.6354    2.8624   10.5570 O   0  0  0  0  0  0  0  0  0  0  0  0
   13.6507    3.6692   11.6751 C   0  0  0  0  0  0  0  0  0  0  0  0
   14.1628    4.5054   12.4833 O   0  0  0  0  0  0  0  0  0  0  0  0
   12.2781    3.3440   11.5211 N   0  0  0  0  0  0  0  0  0  0  0  0
   11.1639    3.9039   12.2579 C   0  0  0  0  0  0  0  0  0  0  0  0
   11.1189    5.3504   12.2196 N   0  0  0  0  0  0  0  0  0  0  0  0
   10.5877    5.8131   10.9836 C   0  0  0  0  0  0  0  0  0  0  0  0
    9.5993    6.9211   11.0827 C   0  0  0  0  0  0  0  0  0  0  0  0
    8.7031    6.7992   12.2029 N   0  0  0  0  0  0  0  0  0  0  0  0
    9.0634    5.9073   13.2803 C   0  0  0  0  0  0  0  0  0  0  0  0
   10.5727    5.9459   13.3915 C   0  0  0  0  0  0  0  0  0  0  0  0
    7.4899    7.5196   12.2849 C   0  0  0  0  0  0  0  0  0  0  0  0
    6.5735    7.4606   11.3044 N   0  0  0  0  0  0  0  0  0  0  0  0
    5.4101    8.1382   11.3586 C   0  0  0  0  0  0  0  0  0  0  0  0
    5.1149    8.9338   12.4491 C   0  0  0  0  0  0  0  0  0  0  0  0
    6.0265    8.9962   13.4328 N   0  0  0  0  0  0  0  0  0  0  0  0
    7.1898    8.3199   13.3800 C   0  0  0  0  0  0  0  0  0  0  0  0
  1  2  1  0  0  0
  2  3  2  0  0  0
  2  7  1  0  0  0
  3  4  1  0  0  0
  3 13  1  0  0  0
  4  5  2  0  0  0
  4  9  1  0  0  0
  5  6  1  0  0  0
  5  8  1  0  0  0
  6  7  2  0  0  0
  9 10  2  0  0  0
  9 11  1  0  0  0
 11 12  2  0  0  0
 11 13  1  0  0  0
 13 14  1  0  0  0
 14 15  1  0  0  0
 15 16  1  0  0  0
 15 20  1  0  0  0
 16 17  1  0  0  0
 17 18  1  0  0  0
 18 19  1  0  0  0
 18 21  1  0  0  0
 19 20  1  0  0  0
 21 22  2  0  0  0
 21 26  1  0  0  0
 22 23  1  0  0  0
 23 24  2  0  0  0
 24 25  1  0  0  0
 25 26  2  0  0  0
M  END
> <minimizedAffinity>
-8.70484

$$$$
1976


 26 29  0  0  0  0  0  0  0  0999 V2000
   12.7375    5.2636   11.7720 C   0  0  0  0  0  0  0  0  0  0  0  0
   13.6380    5.9972   11.2339 O   0  0  0  0  0  0  0  0  0  0  0  0
   11.3976    5.7104   11.9159 N   0  0  0  0  0  0  0  0  0  0  0  0
   10.4396    4.8511   12.5172 C   0  0  0  0  0  0  0  0  0  0  0  0
    9.1936    4.8299   11.6228 C   0  0  0  0  0  0  0  0  0  0  0  0
    8.7110    6.2630   11.6934 C   0  0  0  0  0  0  0  0  0  0  0  0
    9.6294    7.2902   11.6253 C   0  0  0  0  0  0  0  0  0  0  0  0
    9.1744    8.5733   11.7035 N   0  0  0  0  0  0  0  0  0  0  0  0
    7.8739    8.8745   11.8433 C   0  0  0  0  0  0  0  0  0  0  0  0
    6.9923    7.8610   11.9085 N   0  0  0  0  0  0  0  0  0  0  0  0
    7.3850    6.5545   11.8353 C   0  0  0  0  0  0  0  0  0  0  0  0
    6.4804    5.5105   11.9022 O   0  0  0  0  0  0  0  0  0  0  0  0
   11.0706    7.0185   11.4583 C   0  0  0  0  0  0  0  0  0  0  0  0
    6.3474    4.9426   11.0738 H   0  0  0  0  0  0  0  0  0  0  0  0
   13.1552    3.9051   12.2468 C   0  0  0  0  0  0  0  0  0  0  0  0
   15.9322    3.4054   11.2040 Cl  0  0  0  0  0  0  0  0  0  0  0  0
   14.5111    2.6600   10.5226 C   0  0  0  0  0  0  0  0  0  0  0  0
   14.5939    1.7846    9.4513 C   0  0  0  0  0  0  0  0  0  0  0  0
   13.4770    1.1859    8.8988 C   0  0  0  0  0  0  0  0  0  0  0  0
   12.2477    1.4865    9.4546 C   0  0  0  0  0  0  0  0  0  0  0  0
   12.1838    2.3615   10.5227 C   0  0  0  0  0  0  0  0  0  0  0  0
   13.2900    2.9704   11.0885 C   0  0  0  0  0  0  0  0  0  0  0  0
   11.1338    0.8879    8.9035 O   0  0  0  0  0  0  0  0  0  0  0  0
   11.1541   -0.2698    8.0934 C   0  0  0  0  0  0  0  0  0  0  0  0
   12.4888   -0.5995    7.5248 C   0  0  0  0  0  0  0  0  0  0  0  0
   13.5049    0.3136    7.8397 O   0  0  0  0  0  0  0  0  0  0  0  0
 16 17  1  0  0  0
 17 18  2  0  0  0
 17 22  1  0  0  0
 18 19  1  0  0  0
 19 20  2  0  0  0
 19 26  1  0  0  0
 20 21  1  0  0  0
 20 23  1  0  0  0
 21 22  2  0  0  0
 22 15  1  0  0  0
 15  1  1  0  0  0
  1  2  2  0  0  0
  1  3  1  0  0  0
  3  4  1  0  0  0
  3 13  1  0  0  0
  4  5  1  0  0  0
  5  6  1  0  0  0
  6  7  2  0  0  0
  6 11  1  0  0  0
  7  8  1  0  0  0
  7 13  1  0  0  0
  8  9  2  0  0  0
  9 10  1  0  0  0
 10 11  2  0  0  0
 11 12  1  0  0  0
 23 24  1  0  0  0
 24 25  1  0  0  0
 25 26  1  0  0  0
 12 14  1  0  0  0
M  END
> <minimizedAffinity>
-8.68826

$$$$
1982


 25 28  0  0  0  0  0  0  0  0999 V2000
   18.7593    3.2373   11.5530 Cl  0  0  0  0  0  0  0  0  0  0  0  0
   17.0571    3.6406   11.6205 C   0  0  0  0  0  0  0  0  0  0  0  0
   16.0976    2.9441   10.9154 C   0  0  0  0  0  0  0  0  0  0  0  0
   14.7530    3.2517   10.9585 C   0  0  0  0  0  0  0  0  0  0  0  0
   14.3659    4.3135   11.7534 C   0  0  0  0  0  0  0  0  0  0  0  0
   15.3160    5.0175   12.4638 C   0  0  0  0  0  0  0  0  0  0  0  0
   16.6606    4.7100   12.4197 C   0  0  0  0  0  0  0  0  0  0  0  0
   12.9296    4.6611   11.8163 C   0  0  0  0  0  0  0  0  0  0  0  0
   12.3209    5.5696   12.4548 N   0  0  0  0  0  0  0  0  0  0  0  0
   10.8895    5.5703   12.2382 C   0  0  0  0  0  0  0  0  0  0  0  0
   10.6451    4.4402   11.2926 C   0  0  0  0  0  0  0  0  0  0  0  0
   11.9783    3.9137   11.0712 N   0  0  0  0  0  0  0  0  0  0  0  0
   12.4615    2.8316   10.2751 C   0  0  0  0  0  0  0  0  0  0  0  0
   11.8070    1.9660    9.4804 N   0  0  0  0  0  0  0  0  0  0  0  0
   12.6460    1.1115    8.9204 N   0  0  0  0  0  0  0  0  0  0  0  0
   13.8695    1.4626    9.3875 C   0  0  0  0  0  0  0  0  0  0  0  0
   14.9205    0.8665    9.0668 O   0  0  0  0  0  0  0  0  0  0  0  0
   13.7811    2.5137   10.2192 N   0  0  0  0  0  0  0  0  0  0  0  0
   12.3237    0.0337    8.0050 C   0  0  0  0  0  0  0  0  0  0  0  0
   11.5114   -1.0350    8.7499 C   0  0  0  0  0  0  0  0  0  0  0  0
   10.0836   -0.9608    8.3503 C   0  0  0  0  0  0  0  0  0  0  0  0
    9.1869   -0.3943    9.0241 O   0  0  0  0  0  0  0  0  0  0  0  0
    9.7054   -1.5701    7.1265 N   0  0  0  0  0  0  0  0  0  0  0  0
   10.1046   -2.4625    6.7831 H   0  0  0  0  0  0  0  0  0  0  0  0
    8.9878   -1.0885    6.5463 H   0  0  0  0  0  0  0  0  0  0  0  0
  1  2  1  0  0  0
  2  3  2  0  0  0
  2  7  1  0  0  0
  3  4  1  0  0  0
  4  5  2  0  0  0
  4 18  1  0  0  0
  5  6  1  0  0  0
  5  8  1  0  0  0
  6  7  2  0  0  0
  8  9  2  0  0  0
  8 12  1  0  0  0
  9 10  1  0  0  0
 10 11  1  0  0  0
 11 12  1  0  0  0
 12 13  1  0  0  0
 13 14  2  0  0  0
 13 18  1  0  0  0
 14 15  1  0  0  0
 15 16  1  0  0  0
 15 19  1  0  0  0
 16 17  2  0  0  0
 16 18  1  0  0  0
 19 20  1  0  0  0
 20 21  1  0  0  0
 21 22  2  0  0  0
 21 23  1  0  0  0
 23 24  1  0  0  0
 23 25  1  0  0  0
M  END
> <minimizedAffinity>
-8.22308

$$$$
1986


 30 33  0  0  0  0  0  0  0  0999 V2000
   12.1441    3.8465   12.5062 Cl  0  0  0  0  0  0  0  0  0  0  0  0
   10.6701    4.7466   12.1943 C   0  0  0  0  0  0  0  0  0  0  0  0
    9.9547    5.3180   13.2275 C   0  0  0  0  0  0  0  0  0  0  0  0
    8.7776    6.0359   12.9794 C   0  0  0  0  0  0  0  0  0  0  0  0
    8.3822    6.1380   11.6705 C   0  0  0  0  0  0  0  0  0  0  0  0
    9.1115    5.5561   10.6244 C   0  0  0  0  0  0  0  0  0  0  0  0
   10.2681    4.8518   10.8788 C   0  0  0  0  0  0  0  0  0  0  0  0
    7.2162    6.8474   11.3971 O   0  0  0  0  0  0  0  0  0  0  0  0
    6.4451    7.4477   12.3777 C   0  0  0  0  0  0  0  0  0  0  0  0
    6.8460    7.3432   13.7004 C   0  0  0  0  0  0  0  0  0  0  0  0
    8.0523    6.6229   14.1231 C   0  0  0  0  0  0  0  0  0  0  0  0
    6.0455    7.9600   14.6412 C   0  0  0  0  0  0  0  0  0  0  0  0
    6.3632    7.8981   15.8713 O   0  0  0  0  0  0  0  0  0  0  0  0
    4.9241    8.6393   14.3536 N   0  0  0  0  0  0  0  0  0  0  0  0
    4.5717    8.7151   13.0471 C   0  0  0  0  0  0  0  0  0  0  0  0
    3.5157    9.3574   12.7993 O   0  0  0  0  0  0  0  0  0  0  0  0
    5.3218    8.1294   12.0957 N   0  0  0  0  0  0  0  0  0  0  0  0
    4.8776    8.2549   10.7221 C   0  0  0  0  0  0  0  0  0  0  0  0
    4.1124    9.2768   15.3907 C   0  0  0  0  0  0  0  0  0  0  0  0
    8.9666    7.5688   14.8429 C   0  0  0  0  0  0  0  0  0  0  0  0
    9.3319    7.3401   16.1513 C   0  0  0  0  0  0  0  0  0  0  0  0
   10.1608    8.2071   16.7943 N   0  0  0  0  0  0  0  0  0  0  0  0
   10.6356    9.3061   16.1563 C   0  0  0  0  0  0  0  0  0  0  0  0
   11.4020   10.0889   16.7849 O   0  0  0  0  0  0  0  0  0  0  0  0
   10.2968    9.5554   14.8815 N   0  0  0  0  0  0  0  0  0  0  0  0
    9.4771    8.7012   14.2403 C   0  0  0  0  0  0  0  0  0  0  0  0
    9.1736    8.9451   13.0637 O   0  0  0  0  0  0  0  0  0  0  0  0
   10.8249   10.7478   14.2257 C   0  0  0  0  0  0  0  0  0  0  0  0
   10.5124    7.9075   18.1787 C   0  0  0  0  0  0  0  0  0  0  0  0
    8.8561    6.2336   16.7978 O   0  0  0  0  0  0  0  0  0  0  0  0
  1  2  1  0  0  0
  2  3  2  0  0  0
  2  7  1  0  0  0
  3  4  1  0  0  0
  4  5  2  0  0  0
  4 11  1  0  0  0
  5  6  1  0  0  0
  5  8  1  0  0  0
  6  7  2  0  0  0
  8  9  1  0  0  0
  9 10  2  0  0  0
  9 17  1  0  0  0
 10 11  1  0  0  0
 10 12  1  0  0  0
 11 20  1  0  0  0
 20 21  2  0  0  0
 20 26  1  0  0  0
 21 22  1  0  0  0
 21 30  1  0  0  0
 22 23  1  0  0  0
 22 29  1  0  0  0
 23 24  2  0  0  0
 23 25  1  0  0  0
 25 26  1  0  0  0
 25 28  1  0  0  0
 26 27  2  0  0  0
 12 13  2  0  0  0
 12 14  1  0  0  0
 14 15  1  0  0  0
 14 19  1  0  0  0
 15 16  2  0  0  0
 15 17  1  0  0  0
 17 18  1  0  0  0
M  CHG 1  30  -1
M  END
> <minimizedAffinity>
-8.09623

$$$$
1991


 31 34  0  0  0  0  0  0  0  0999 V2000
   17.5155    7.8816   12.4625 Cl  0  0  0  0  0  0  0  0  0  0  0  0
   16.1406    6.8103   12.3421 C   0  0  0  0  0  0  0  0  0  0  0  0
   15.0293    7.1627   11.6092 C   0  0  0  0  0  0  0  0  0  0  0  0
   13.9595    6.3102   11.5263 C   0  0  0  0  0  0  0  0  0  0  0  0
   14.0036    5.0782   12.1902 C   0  0  0  0  0  0  0  0  0  0  0  0
   15.1174    4.7155   12.9303 C   0  0  0  0  0  0  0  0  0  0  0  0
   16.1638    5.5944   12.9889 C   0  0  0  0  0  0  0  0  0  0  0  0
   13.0106    4.1108   12.2059 O   0  0  0  0  0  0  0  0  0  0  0  0
   11.9880    3.9086   11.2596 C   0  0  0  0  0  0  0  0  0  0  0  0
   11.0261    5.0507   11.2071 C   0  0  0  0  0  0  0  0  0  0  0  0
   11.6147    6.3531   11.2927 N   0  0  0  0  0  0  0  0  0  0  0  0
   12.8386    6.8285   10.7014 C   0  0  0  0  0  0  0  0  0  0  0  0
   10.9247    7.3489   12.0654 C   0  0  0  0  0  0  0  0  0  0  0  0
   11.4534    8.4865   12.1255 O   0  0  0  0  0  0  0  0  0  0  0  0
   12.6039    3.5981    9.9044 C   0  0  0  0  0  0  0  0  0  0  0  0
   12.7715    2.0984    9.7347 C   0  0  0  0  0  0  0  0  0  0  0  0
   11.5616    1.4363    9.6618 O   0  0  0  0  0  0  0  0  0  0  0  0
   10.5754    2.1253   10.3581 C   0  0  0  0  0  0  0  0  0  0  0  0
   11.1800    2.6652   11.6397 C   0  0  0  0  0  0  0  0  0  0  0  0
    9.6670    7.0553   12.7502 C   0  0  0  0  0  0  0  0  0  0  0  0
    9.2430    7.9506   13.7633 N   0  0  0  0  0  0  0  0  0  0  0  0
    8.2516    7.3394   14.6524 C   0  0  0  0  0  0  0  0  0  0  0  0
    7.0669    6.9671   13.8422 C   0  0  0  0  0  0  0  0  0  0  0  0
    6.5558    7.9990   12.8935 C   0  0  0  0  0  0  0  0  0  0  0  0
    7.4278    9.1608   12.6229 C   0  0  0  0  0  0  0  0  0  0  0  0
    8.7343    9.2245   13.3185 C   0  0  0  0  0  0  0  0  0  0  0  0
    6.0774    7.3884   11.6290 C   0  0  0  0  0  0  0  0  0  0  0  0
    5.6614    8.1259   10.7127 O   0  0  0  0  0  0  0  0  0  0  0  0
    6.0936    5.9860   11.4712 N   0  0  0  0  0  0  0  0  0  0  0  0
    6.8529    5.6044   10.8333 H   0  0  0  0  0  0  0  0  0  0  0  0
    5.4517    5.3138   11.9078 H   0  0  0  0  0  0  0  0  0  0  0  0
  1  2  1  0  0  0
  2  3  2  0  0  0
  2  7  1  0  0  0
  3  4  1  0  0  0
  4  5  2  0  0  0
  4 12  1  0  0  0
  5  6  1  0  0  0
  5  8  1  0  0  0
  6  7  2  0  0  0
  8  9  1  0  0  0
  9 10  1  0  0  0
  9 15  1  0  0  0
  9 19  1  0  0  0
 10 11  1  0  0  0
 11 12  1  0  0  0
 11 13  1  0  0  0
 13 14  2  0  0  0
 13 20  1  0  0  0
 20 21  1  0  0  0
 21 22  1  0  0  0
 21 26  1  0  0  0
 22 23  1  0  0  0
 23 24  1  0  0  0
 24 25  1  0  0  0
 24 27  1  0  0  0
 25 26  1  0  0  0
 27 28  2  0  0  0
 27 29  1  0  0  0
 15 16  1  0  0  0
 16 17  1  0  0  0
 17 18  1  0  0  0
 18 19  1  0  0  0
 29 30  1  0  0  0
 29 31  1  0  0  0
M  END
> <minimizedAffinity>
-8.47674

$$$$
2003


 28 31  0  0  0  0  0  0  0  0999 V2000
   12.9072    3.2939   10.5208 N   0  0  0  0  0  0  0  0  0  0  0  0
   12.0593    4.1638    9.7649 C   0  0  0  0  0  0  0  0  0  0  0  0
   11.3775    5.2110   10.6051 C   0  0  0  0  0  0  0  0  0  0  0  0
   12.2205    5.6923   11.6752 N   0  0  0  0  0  0  0  0  0  0  0  0
   13.5710    5.2434   11.8864 C   0  0  0  0  0  0  0  0  0  0  0  0
   13.9153    3.9322   11.2894 C   0  0  0  0  0  0  0  0  0  0  0  0
   11.6860    6.6630   12.5651 C   0  0  0  0  0  0  0  0  0  0  0  0
   12.3801    7.1281   13.5297 O   0  0  0  0  0  0  0  0  0  0  0  0
   10.3197    7.1596   12.4030 C   0  0  0  0  0  0  0  0  0  0  0  0
    9.9003    7.8718   11.2972 C   0  0  0  0  0  0  0  0  0  0  0  0
    8.6257    8.2967   11.2154 N   0  0  0  0  0  0  0  0  0  0  0  0
    7.7057    8.0655   12.1695 C   0  0  0  0  0  0  0  0  0  0  0  0
    8.0985    7.3719   13.2536 N   0  0  0  0  0  0  0  0  0  0  0  0
    7.1908    7.1294   14.2204 C   0  0  0  0  0  0  0  0  0  0  0  0
    5.8855    7.5688   14.1305 C   0  0  0  0  0  0  0  0  0  0  0  0
    5.4510    8.2829   13.0304 C   0  0  0  0  0  0  0  0  0  0  0  0
    6.3987    8.5200   12.0500 C   0  0  0  0  0  0  0  0  0  0  0  0
    9.3648    6.9296   13.3731 C   0  0  0  0  0  0  0  0  0  0  0  0
    9.7317    6.2827   14.3845 O   0  0  0  0  0  0  0  0  0  0  0  0
   13.3953    1.8954    9.7007 S   0  0  0  0  0  0  0  0  0  0  0  0
   14.1579    2.2298    8.4766 O   0  0  0  0  0  0  0  0  0  0  0  0
   14.2542    1.0645   10.6273 O   0  0  0  0  0  0  0  0  0  0  0  0
   11.9557    0.9539    9.2758 C   0  0  0  0  0  0  0  0  0  0  0  0
   11.8033   -0.3750    8.2193 S   0  0  0  0  0  0  0  0  0  0  0  0
   10.1314   -0.6644    8.3887 C   0  0  0  0  0  0  0  0  0  0  0  0
    9.7392    0.2985    9.2769 C   0  0  0  0  0  0  0  0  0  0  0  0
   10.6761    1.1339    9.7355 C   0  0  0  0  0  0  0  0  0  0  0  0
    9.1108   -1.8987    7.6225 Cl  0  0  0  0  0  0  0  0  0  0  0  0
 20 21  2  0  0  0
 20 22  2  0  0  0
 20  1  1  0  0  0
 20 23  1  0  0  0
  1  2  1  0  0  0
  1  6  1  0  0  0
  2  3  1  0  0  0
  3  4  1  0  0  0
  4  5  1  0  0  0
  4  7  1  0  0  0
  5  6  1  0  0  0
  7  8  2  0  0  0
  7  9  1  0  0  0
  9 10  2  0  0  0
  9 18  1  0  0  0
 10 11  1  0  0  0
 11 12  2  0  0  0
 12 13  1  0  0  0
 12 17  1  0  0  0
 13 14  1  0  0  0
 13 18  1  0  0  0
 14 15  2  0  0  0
 15 16  1  0  0  0
 16 17  2  0  0  0
 18 19  2  0  0  0
 23 24  1  0  0  0
 23 27  2  0  0  0
 24 25  1  0  0  0
 25 26  2  0  0  0
 25 28  1  0  0  0
 26 27  1  0  0  0
M  END
> <minimizedAffinity>
-8.87695

$$$$
2004


 29 32  0  0  0  0  0  0  0  0999 V2000
   11.4986    3.6009   10.8991 S   0  0  0  0  0  0  0  0  0  0  0  0
   10.9921    3.3943    9.4796 O   0  0  0  0  0  0  0  0  0  0  0  0
   10.9169    2.4192   11.6731 O   0  0  0  0  0  0  0  0  0  0  0  0
   13.2355    3.3871   10.8938 C   0  0  0  0  0  0  0  0  0  0  0  0
   14.0416    4.3843   11.4786 C   0  0  0  0  0  0  0  0  0  0  0  0
   15.4153    4.3021   11.4534 C   0  0  0  0  0  0  0  0  0  0  0  0
   16.0831    3.2541   10.8617 C   0  0  0  0  0  0  0  0  0  0  0  0
   15.3022    2.2790   10.2925 C   0  0  0  0  0  0  0  0  0  0  0  0
   13.9012    2.3434   10.3086 C   0  0  0  0  0  0  0  0  0  0  0  0
   12.9790    1.0241    9.6291 Cl  0  0  0  0  0  0  0  0  0  0  0  0
   17.4984    3.2307   10.8678 N   0  0  0  0  0  0  0  0  0  0  0  0
   18.2741    4.2608   11.4671 C   0  0  0  0  0  0  0  0  0  0  0  0
   19.4888    4.1781   11.7317 O   0  0  0  0  0  0  0  0  0  0  0  0
   17.5514    5.5193   11.7900 C   0  0  0  0  0  0  0  0  0  0  0  0
   16.1901    5.3030   12.0404 O   0  0  0  0  0  0  0  0  0  0  0  0
   17.6730    6.5128   10.6568 C   0  0  0  0  0  0  0  0  0  0  0  0
   18.0006    2.4309   10.4167 H   0  0  0  0  0  0  0  0  0  0  0  0
   10.9192    5.0266   11.5573 N   0  0  0  0  0  0  0  0  0  0  0  0
   10.5281    5.0261   12.8982 C   0  0  0  0  0  0  0  0  0  0  0  0
   10.2781    6.4382   13.4473 C   0  0  0  0  0  0  0  0  0  0  0  0
    9.6463    7.2777   12.4737 N   0  0  0  0  0  0  0  0  0  0  0  0
   10.1491    7.2442   11.1177 C   0  0  0  0  0  0  0  0  0  0  0  0
   10.0828    5.7978   10.6682 C   0  0  0  0  0  0  0  0  0  0  0  0
    8.5745    8.1024   12.8351 C   0  0  0  0  0  0  0  0  0  0  0  0
    8.1542    8.1142   14.0198 O   0  0  0  0  0  0  0  0  0  0  0  0
    7.8835    8.9965   11.8532 C   0  0  0  0  0  0  0  0  0  0  0  0
    7.5166   10.3481   12.4189 C   0  0  0  0  0  0  0  0  0  0  0  0
    6.1712    9.7437   12.8135 C   0  0  0  0  0  0  0  0  0  0  0  0
    6.4143    8.6758   11.7429 C   0  0  0  0  0  0  0  0  0  0  0  0
  1  2  2  0  0  0
  1  3  2  0  0  0
  1 18  1  0  0  0
  1  4  1  0  0  0
 18 19  1  0  0  0
 18 23  1  0  0  0
 19 20  1  0  0  0
 20 21  1  0  0  0
 21 22  1  0  0  0
 21 24  1  0  0  0
 22 23  1  0  0  0
 24 25  2  0  0  0
 24 26  1  0  0  0
 26 27  1  0  0  0
 26 29  1  0  0  0
 27 28  1  0  0  0
 28 29  1  0  0  0
  4  5  2  0  0  0
  4  9  1  0  0  0
  5  6  1  0  0  0
  6  7  2  0  0  0
  6 15  1  0  0  0
  7  8  1  0  0  0
  7 11  1  0  0  0
  8  9  2  0  0  0
  9 10  1  0  0  0
 11 12  1  0  0  0
 12 13  2  0  0  0
 12 14  1  0  0  0
 14 15  1  0  0  0
 14 16  1  0  0  0
 11 17  1  0  0  0
M  END
> <minimizedAffinity>
-8.72569

$$$$
2012


 25 28  0  0  0  0  0  0  0  0999 V2000
   10.6455    4.2129   10.6388 N   0  0  0  0  0  0  0  0  0  0  0  0
   10.1201    5.3463    9.9572 C   0  0  0  0  0  0  0  0  0  0  0  0
    9.5690    5.3041    8.8443 O   0  0  0  0  0  0  0  0  0  0  0  0
   10.3383    6.5497   10.7774 C   0  0  0  0  0  0  0  0  0  0  0  0
    9.3833    7.5148   10.7647 O   0  0  0  0  0  0  0  0  0  0  0  0
    9.4090    7.9802   12.0664 N   0  0  0  0  0  0  0  0  0  0  0  0
    9.6042    6.8604   12.9339 C   0  0  0  0  0  0  0  0  0  0  0  0
   10.1771    5.9571   12.1464 C   0  0  0  0  0  0  0  0  0  0  0  0
   10.6857    4.5978   12.0379 C   0  0  0  0  0  0  0  0  0  0  0  0
   11.0800    3.9204   13.0210 O   0  0  0  0  0  0  0  0  0  0  0  0
    9.3101    8.9756   12.3232 H   0  0  0  0  0  0  0  0  0  0  0  0
    9.5521   -0.6352    9.1384 Cl  0  0  0  0  0  0  0  0  0  0  0  0
   10.6485    0.7068    9.4531 C   0  0  0  0  0  0  0  0  0  0  0  0
   10.1572    1.9210    9.9252 C   0  0  0  0  0  0  0  0  0  0  0  0
   11.0536    2.9373   10.1595 C   0  0  0  0  0  0  0  0  0  0  0  0
   12.4262    2.7557    9.9275 C   0  0  0  0  0  0  0  0  0  0  0  0
   12.8999    1.5646    9.4651 C   0  0  0  0  0  0  0  0  0  0  0  0
   11.9992    0.5390    9.2312 C   0  0  0  0  0  0  0  0  0  0  0  0
    9.3061    6.7442   14.3475 C   0  0  0  0  0  0  0  0  0  0  0  0
   10.2376    7.1003   15.3270 C   0  0  0  0  0  0  0  0  0  0  0  0
    9.7165    6.8841   16.5436 N   0  0  0  0  0  0  0  0  0  0  0  0
    8.4833    6.4010   16.3828 N   0  0  0  0  0  0  0  0  0  0  0  0
    8.2241    6.3112   15.0577 C   0  0  0  0  0  0  0  0  0  0  0  0
    6.9647    5.8032   14.4576 C   0  0  0  0  0  0  0  0  0  0  0  0
   10.3179    7.1052   17.8543 C   0  0  0  0  0  0  0  0  0  0  0  0
 12 13  1  0  0  0
 13 14  2  0  0  0
 13 18  1  0  0  0
 14 15  1  0  0  0
 15 16  2  0  0  0
 15  1  1  0  0  0
 16 17  1  0  0  0
 17 18  2  0  0  0
  1  2  1  0  0  0
  1  9  1  0  0  0
  2  3  2  0  0  0
  2  4  1  0  0  0
  4  5  1  0  0  0
  4  8  1  0  0  0
  5  6  1  0  0  0
  6  7  1  0  0  0
  7  8  2  0  0  0
  7 19  1  0  0  0
  8  9  1  0  0  0
  9 10  2  0  0  0
 19 20  2  0  0  0
 19 23  1  0  0  0
 20 21  1  0  0  0
 21 22  1  0  0  0
 21 25  1  0  0  0
 22 23  2  0  0  0
 23 24  1  0  0  0
  6 11  1  0  0  0
M  END
> <minimizedAffinity>
-8.44025

$$$$
2014


 26 29  0  0  0  0  0  0  0  0999 V2000
    6.9813    7.0705   12.5636 C   0  0  0  0  0  0  0  0  0  0  0  0
    8.3002    6.9037   12.6000 N   0  0  0  0  0  0  0  0  0  0  0  0
    8.6851    6.0248   11.6289 C   0  0  0  0  0  0  0  0  0  0  0  0
    7.5404    5.6699   10.9999 N   0  0  0  0  0  0  0  0  0  0  0  0
    6.5228    6.2812   11.5425 N   0  0  0  0  0  0  0  0  0  0  0  0
   10.0149    5.8477   11.6508 N   0  0  0  0  0  0  0  0  0  0  0  0
   10.5324    6.5943   12.6192 C   0  0  0  0  0  0  0  0  0  0  0  0
    9.4526    7.2633   13.2193 C   0  0  0  0  0  0  0  0  0  0  0  0
    9.6810    8.1079   14.2332 N   0  0  0  0  0  0  0  0  0  0  0  0
   10.9662    8.2794   14.6447 C   0  0  0  0  0  0  0  0  0  0  0  0
   11.1527    9.0847   15.6095 O   0  0  0  0  0  0  0  0  0  0  0  0
   12.0219    7.6693   14.1127 N   0  0  0  0  0  0  0  0  0  0  0  0
   11.7991    6.8292   13.1005 C   0  0  0  0  0  0  0  0  0  0  0  0
   12.7618    6.2257   12.5605 O   0  0  0  0  0  0  0  0  0  0  0  0
   13.3844    7.9101   14.6189 C   0  0  0  0  0  0  0  0  0  0  0  0
    8.6310    8.8514   14.8665 C   0  0  0  0  0  0  0  0  0  0  0  0
   10.7850    4.9891   10.7743 C   0  0  0  0  0  0  0  0  0  0  0  0
    3.6211    7.3859   16.6993 Br  0  0  0  0  0  0  0  0  0  0  0  0
    4.5689    8.1246   15.2040 C   0  0  0  0  0  0  0  0  0  0  0  0
    5.3738    7.3339   14.4308 C   0  0  0  0  0  0  0  0  0  0  0  0
    6.0565    7.8820   13.3479 C   0  0  0  0  0  0  0  0  0  0  0  0
    5.8744    9.2289   13.1130 C   0  0  0  0  0  0  0  0  0  0  0  0
    5.0691   10.0079   13.8902 C   0  0  0  0  0  0  0  0  0  0  0  0
    4.3843    9.4758   14.9702 C   0  0  0  0  0  0  0  0  0  0  0  0
    6.5785    9.7590   12.0091 O   0  0  0  0  0  0  0  0  0  0  0  0
    7.4139   10.8922   12.1573 C   0  0  0  0  0  0  0  0  0  0  0  0
 18 19  1  0  0  0
 19 20  2  0  0  0
 19 24  1  0  0  0
 20 21  1  0  0  0
 21 22  2  0  0  0
 21  1  1  0  0  0
 22 23  1  0  0  0
 22 25  1  0  0  0
 23 24  2  0  0  0
 25 26  1  0  0  0
  1  2  1  0  0  0
  1  5  2  0  0  0
  2  3  1  0  0  0
  2  8  1  0  0  0
  3  4  2  0  0  0
  3  6  1  0  0  0
  4  5  1  0  0  0
  6  7  1  0  0  0
  6 17  1  0  0  0
  7  8  2  0  0  0
  7 13  1  0  0  0
  8  9  1  0  0  0
  9 10  1  0  0  0
  9 16  1  0  0  0
 10 11  2  0  0  0
 10 12  1  0  0  0
 12 13  1  0  0  0
 12 15  1  0  0  0
 13 14  2  0  0  0
M  END
> <minimizedAffinity>
-7.40964

$$$$
2017


 24 27  0  0  0  0  0  0  0  0999 V2000
   12.8214   -1.0427    7.6152 Cl  0  0  0  0  0  0  0  0  0  0  0  0
   12.1253    0.1728    8.6736 C   0  0  0  0  0  0  0  0  0  0  0  0
   12.9019    0.9920    9.4704 C   0  0  0  0  0  0  0  0  0  0  0  0
   12.3528    1.9294   10.2863 N   0  0  0  0  0  0  0  0  0  0  0  0
   11.0256    2.1235   10.3734 C   0  0  0  0  0  0  0  0  0  0  0  0
   10.4723    3.0492   11.1787 N   0  0  0  0  0  0  0  0  0  0  0  0
   11.2204    3.8502   11.9582 C   0  0  0  0  0  0  0  0  0  0  0  0
   12.6003    3.6568   11.8737 C   0  0  0  0  0  0  0  0  0  0  0  0
   13.1557    2.7051   11.0458 C   0  0  0  0  0  0  0  0  0  0  0  0
   14.4149    2.5322   10.9734 O   0  0  0  0  0  0  0  0  0  0  0  0
   10.2214    1.3134    9.5824 C   0  0  0  0  0  0  0  0  0  0  0  0
   10.7604    0.3554    8.7474 C   0  0  0  0  0  0  0  0  0  0  0  0
   10.6566    4.8860   12.8621 C   0  0  0  0  0  0  0  0  0  0  0  0
   10.9802    6.1701   12.3607 N   0  0  0  0  0  0  0  0  0  0  0  0
   11.5137    7.1178   13.2650 C   0  0  0  0  0  0  0  0  0  0  0  0
   11.2011    8.5643   12.9147 C   0  0  0  0  0  0  0  0  0  0  0  0
    9.7359    8.6159   12.6666 C   0  0  0  0  0  0  0  0  0  0  0  0
    9.2338    7.6389   11.8325 C   0  0  0  0  0  0  0  0  0  0  0  0
    7.9165    7.6437   11.5795 N   0  0  0  0  0  0  0  0  0  0  0  0
    7.1061    8.5943   12.1387 C   0  0  0  0  0  0  0  0  0  0  0  0
    7.6353    9.5376   12.9535 N   0  0  0  0  0  0  0  0  0  0  0  0
    8.9534    9.5869   13.2480 C   0  0  0  0  0  0  0  0  0  0  0  0
    5.6454    8.6096   11.8666 C   0  0  0  0  0  0  0  0  0  0  0  0
   10.1957    6.6562   11.2767 C   0  0  0  0  0  0  0  0  0  0  0  0
  1  2  1  0  0  0
  2  3  2  0  0  0
  2 12  1  0  0  0
  3  4  1  0  0  0
  4  5  1  0  0  0
  4  9  1  0  0  0
  5  6  2  0  0  0
  5 11  1  0  0  0
  6  7  1  0  0  0
  7  8  2  0  0  0
  7 13  1  0  0  0
  8  9  1  0  0  0
  9 10  2  0  0  0
 13 14  1  0  0  0
 14 15  1  0  0  0
 14 24  1  0  0  0
 15 16  1  0  0  0
 16 17  1  0  0  0
 17 18  2  0  0  0
 17 22  1  0  0  0
 18 19  1  0  0  0
 18 24  1  0  0  0
 19 20  2  0  0  0
 20 21  1  0  0  0
 20 23  1  0  0  0
 21 22  2  0  0  0
 11 12  2  0  0  0
M  END
> <minimizedAffinity>
-8.39851

$$$$
2020


 22 24  0  0  0  0  0  0  0  0999 V2000
   12.2532    2.8036   11.8184 C   0  0  0  0  0  0  0  0  0  0  0  0
   10.9118    3.5724   11.6628 C   0  0  0  0  0  0  0  0  0  0  0  0
   11.1405    4.0932   10.2307 C   0  0  0  0  0  0  0  0  0  0  0  0
   10.3174    4.0058    9.3378 O   0  0  0  0  0  0  0  0  0  0  0  0
   12.4521    4.6900   10.1108 N   0  0  0  0  0  0  0  0  0  0  0  0
   13.0552    5.0748   11.4003 C   0  0  0  0  0  0  0  0  0  0  0  0
   11.9566    5.7654   12.0903 N   0  0  0  0  0  0  0  0  0  0  0  0
   10.8957    4.8523   12.4352 C   0  0  0  0  0  0  0  0  0  0  0  0
   10.0313    5.0941   13.2974 O   0  0  0  0  0  0  0  0  0  0  0  0
   13.2576    3.7560   12.1945 C   0  0  0  0  0  0  0  0  0  0  0  0
   14.2895    5.8591   11.3161 C   0  0  0  0  0  0  0  0  0  0  0  0
   12.9400    4.8227    9.2211 H   0  0  0  0  0  0  0  0  0  0  0  0
   11.9597    6.7722   12.2894 H   0  0  0  0  0  0  0  0  0  0  0  0
    9.5964   -0.5597    8.7209 Br  0  0  0  0  0  0  0  0  0  0  0  0
   11.1640    0.4302    9.1456 C   0  0  0  0  0  0  0  0  0  0  0  0
   11.1736    1.2833   10.2513 C   0  0  0  0  0  0  0  0  0  0  0  0
   12.3172    2.0174   10.5916 C   0  0  0  0  0  0  0  0  0  0  0  0
   13.4152    1.8420    9.7680 C   0  0  0  0  0  0  0  0  0  0  0  0
   13.3852    0.9909    8.6770 C   0  0  0  0  0  0  0  0  0  0  0  0
   12.2609    0.2827    8.3582 C   0  0  0  0  0  0  0  0  0  0  0  0
   14.5183    2.5726   10.1069 O   0  0  0  0  0  0  0  0  0  0  0  0
   15.7615    2.2701    9.5336 C   0  0  0  0  0  0  0  0  0  0  0  0
 14 15  1  0  0  0
 15 16  2  0  0  0
 15 20  1  0  0  0
 16 17  1  0  0  0
 17 18  2  0  0  0
 17  1  1  0  0  0
 18 19  1  0  0  0
 18 21  1  0  0  0
 19 20  2  0  0  0
 21 22  1  0  0  0
  1  2  1  0  0  0
  1 10  1  0  0  0
  2  3  1  0  0  0
  2  8  1  0  0  0
  3  4  2  0  0  0
  3  5  1  0  0  0
  5  6  1  0  0  0
  6  7  1  0  0  0
  6 10  1  0  0  0
  6 11  1  0  0  0
  7  8  1  0  0  0
  8  9  2  0  0  0
  5 12  1  0  0  0
  7 13  1  0  0  0
M  END
> <minimizedAffinity>
-7.47822

$$$$
2028


 31 34  0  0  0  0  0  0  0  0999 V2000
   14.9724    7.8701   11.0065 Cl  0  0  0  0  0  0  0  0  0  0  0  0
   13.7013    6.8079   11.6061 C   0  0  0  0  0  0  0  0  0  0  0  0
   12.5878    7.3966   12.2324 C   0  0  0  0  0  0  0  0  0  0  0  0
   11.6038    6.5718   12.6902 C   0  0  0  0  0  0  0  0  0  0  0  0
   11.6828    5.1923   12.5586 C   0  0  0  0  0  0  0  0  0  0  0  0
   12.7854    4.6453   11.9433 C   0  0  0  0  0  0  0  0  0  0  0  0
   13.7999    5.4419   11.4617 C   0  0  0  0  0  0  0  0  0  0  0  0
   12.8456    3.1470   11.8143 C   0  0  0  0  0  0  0  0  0  0  0  0
   10.4951    7.4436   13.1871 C   0  0  0  0  0  0  0  0  0  0  0  0
    9.8309    6.9718   14.3357 N   0  0  0  0  0  0  0  0  0  0  0  0
    8.7605    6.1311   13.8798 C   0  0  0  0  0  0  0  0  0  0  0  0
    8.6114    6.2825   12.4208 C   0  0  0  0  0  0  0  0  0  0  0  0
    9.4104    7.5626   12.1627 C   0  0  0  0  0  0  0  0  0  0  0  0
    8.4174    8.5741   12.4743 C   0  0  0  0  0  0  0  0  0  0  0  0
    8.4722    9.6895   13.0374 O   0  0  0  0  0  0  0  0  0  0  0  0
    7.1688    8.0335   11.9673 N   0  0  0  0  0  0  0  0  0  0  0  0
    7.2907    6.6204   11.9046 C   0  0  0  0  0  0  0  0  0  0  0  0
    6.4197    5.8462   11.4843 O   0  0  0  0  0  0  0  0  0  0  0  0
   11.1330    8.7502   13.3317 C   0  0  0  0  0  0  0  0  0  0  0  0
   10.7797    9.7881   13.9752 O   0  0  0  0  0  0  0  0  0  0  0  0
   12.3346    8.7481   12.5968 N   0  0  0  0  0  0  0  0  0  0  0  0
   10.4647    6.4641   14.9990 H   0  0  0  0  0  0  0  0  0  0  0  0
   12.9643    9.5486   12.3359 H   0  0  0  0  0  0  0  0  0  0  0  0
    7.4942    6.3231   14.6932 C   0  0  0  0  0  0  0  0  0  0  0  0
    6.9060    5.1739   15.1311 O   0  0  0  0  0  0  0  0  0  0  0  0
    7.7227    7.3842   15.7185 C   0  0  0  0  0  0  0  0  0  0  0  0
    6.5949    5.2008   16.0715 H   0  0  0  0  0  0  0  0  0  0  0  0
    5.9877    8.7537   11.5707 C   0  0  0  0  0  0  0  0  0  0  0  0
    4.9107    8.8352   12.5876 C   0  0  0  0  0  0  0  0  0  0  0  0
    4.7531   10.0119   13.2553 O   0  0  0  0  0  0  0  0  0  0  0  0
    5.2774   10.0402   14.5310 C   0  0  0  0  0  0  0  0  0  0  0  0
  1  2  1  0  0  0
  2  3  2  0  0  0
  2  7  1  0  0  0
  3  4  1  0  0  0
  3 21  1  0  0  0
  4  5  2  0  0  0
  4  9  1  0  0  0
  5  6  1  0  0  0
  6  7  2  0  0  0
  6  8  1  0  0  0
  9 10  1  0  0  0
  9 13  1  0  0  0
  9 19  1  0  0  0
 10 11  1  0  0  0
 11 12  1  0  0  0
 11 24  1  0  0  0
 12 13  1  0  0  0
 12 17  1  0  0  0
 13 14  1  0  0  0
 14 15  2  0  0  0
 14 16  1  0  0  0
 16 17  1  0  0  0
 16 28  1  0  0  0
 17 18  2  0  0  0
 28 29  1  0  0  0
 29 30  1  0  0  0
 30 31  1  0  0  0
 24 25  1  0  0  0
 24 26  1  0  0  0
 19 20  2  0  0  0
 19 21  1  0  0  0
 10 22  1  0  0  0
 25 27  1  0  0  0
 21 23  1  0  0  0
M  END
> <minimizedAffinity>
-7.80816

$$$$
2032


 31 34  0  0  0  0  0  0  0  0999 V2000
   15.9643    2.8717   10.1847 C   0  0  0  0  0  0  0  0  0  0  0  0
   14.8642    2.2766    9.8537 C   0  0  0  0  0  0  0  0  0  0  0  0
   13.6398    2.4372   10.4392 O   0  0  0  0  0  0  0  0  0  0  0  0
   12.7135    1.6258    9.7869 C   0  0  0  0  0  0  0  0  0  0  0  0
   13.2772    0.9140    8.7772 C   0  0  0  0  0  0  0  0  0  0  0  0
   12.5122    0.0506    7.9846 C   0  0  0  0  0  0  0  0  0  0  0  0
   11.1678   -0.1243    8.1847 C   0  0  0  0  0  0  0  0  0  0  0  0
   10.6317    0.6294    9.2444 C   0  0  0  0  0  0  0  0  0  0  0  0
   11.3424    1.4760   10.0248 C   0  0  0  0  0  0  0  0  0  0  0  0
    9.2506    0.4006    9.4199 O   0  0  0  0  0  0  0  0  0  0  0  0
   14.6921    1.3014    8.7756 C   0  0  0  0  0  0  0  0  0  0  0  0
   15.5856    0.8729    7.9886 O   0  0  0  0  0  0  0  0  0  0  0  0
   13.9624    6.9204   13.0436 Br  0  0  0  0  0  0  0  0  0  0  0  0
   15.3289    5.6909   12.5712 C   0  0  0  0  0  0  0  0  0  0  0  0
   15.1449    4.7227   11.5678 C   0  0  0  0  0  0  0  0  0  0  0  0
   16.1486    3.8444   11.2523 C   0  0  0  0  0  0  0  0  0  0  0  0
   17.3474    3.9164   11.9231 C   0  0  0  0  0  0  0  0  0  0  0  0
   17.5288    4.8840   12.9228 C   0  0  0  0  0  0  0  0  0  0  0  0
   16.5330    5.7511   13.2368 C   0  0  0  0  0  0  0  0  0  0  0  0
   18.3005    3.0267   11.5655 O   0  0  0  0  0  0  0  0  0  0  0  0
   19.6292    3.0064   11.9588 C   0  0  0  0  0  0  0  0  0  0  0  0
   10.7932    2.2284   11.1685 C   0  0  0  0  0  0  0  0  0  0  0  0
   11.0614    3.6422   11.0515 N   0  0  0  0  0  0  0  0  0  0  0  0
   11.2174    4.2110   12.3783 C   0  0  0  0  0  0  0  0  0  0  0  0
   10.6242    5.5438   12.5572 C   0  0  0  0  0  0  0  0  0  0  0  0
   10.5959    6.3834   11.4023 N   0  0  0  0  0  0  0  0  0  0  0  0
   10.9386    5.8245   10.1743 C   0  0  0  0  0  0  0  0  0  0  0  0
   10.3927    4.3745   10.0891 C   0  0  0  0  0  0  0  0  0  0  0  0
   12.1206    3.6154   10.6853 H   0  0  0  0  0  0  0  0  0  0  0  0
    9.6749    7.4553   11.4158 C   0  0  0  0  0  0  0  0  0  0  0  0
    9.7091    8.3177   12.6282 C   0  0  0  0  0  0  0  0  0  0  0  0
 13 14  1  0  0  0
 14 15  2  0  0  0
 14 19  1  0  0  0
 15 16  1  0  0  0
 16 17  2  0  0  0
 16  1  1  0  0  0
 17 18  1  0  0  0
 17 20  1  0  0  0
 18 19  2  0  0  0
 20 21  1  0  0  0
  1  2  2  0  0  0
  2  3  1  0  0  0
  2 11  1  0  0  0
  3  4  1  0  0  0
  4  5  2  0  0  0
  4  9  1  0  0  0
  5  6  1  0  0  0
  5 11  1  0  0  0
  6  7  2  0  0  0
  7  8  1  0  0  0
  8  9  2  0  0  0
  8 10  1  0  0  0
  9 22  1  0  0  0
 22 23  1  0  0  0
 23 24  1  0  0  0
 23 28  1  0  0  0
 24 25  1  0  0  0
 25 26  1  0  0  0
 26 27  1  0  0  0
 26 30  1  0  0  0
 27 28  1  0  0  0
 30 31  1  0  0  0
 11 12  2  0  0  0
 23 29  1  0  0  0
M  CHG 1  10  -1
M  CHG 1  23   1
M  END
> <minimizedAffinity>
-9.23081

$$$$
2033


 29 32  0  0  0  0  0  0  0  0999 V2000
   16.2679    2.8256   10.3396 C   0  0  0  0  0  0  0  0  0  0  0  0
   15.1534    2.2589    9.9683 C   0  0  0  0  0  0  0  0  0  0  0  0
   13.9076    2.5538   10.4998 O   0  0  0  0  0  0  0  0  0  0  0  0
   12.9073    1.7980    9.9175 C   0  0  0  0  0  0  0  0  0  0  0  0
   13.4313    0.9544    8.9646 C   0  0  0  0  0  0  0  0  0  0  0  0
   12.6032    0.1071    8.2589 C   0  0  0  0  0  0  0  0  0  0  0  0
   11.2490    0.1124    8.5178 C   0  0  0  0  0  0  0  0  0  0  0  0
   10.7380    0.9850    9.4988 C   0  0  0  0  0  0  0  0  0  0  0  0
   11.5356    1.8309   10.2064 C   0  0  0  0  0  0  0  0  0  0  0  0
    9.3467    0.8794    9.6542 O   0  0  0  0  0  0  0  0  0  0  0  0
   14.8731    1.2235    8.9690 C   0  0  0  0  0  0  0  0  0  0  0  0
   15.7326    0.6705    8.2478 O   0  0  0  0  0  0  0  0  0  0  0  0
   14.1795    6.9743   13.0763 Br  0  0  0  0  0  0  0  0  0  0  0  0
   15.5400    5.7224   12.6177 C   0  0  0  0  0  0  0  0  0  0  0  0
   15.4166    4.7439   11.6738 C   0  0  0  0  0  0  0  0  0  0  0  0
   16.4165    3.8499   11.3596 C   0  0  0  0  0  0  0  0  0  0  0  0
   17.6190    3.9735   12.0622 C   0  0  0  0  0  0  0  0  0  0  0  0
   17.7991    4.9340   13.0191 C   0  0  0  0  0  0  0  0  0  0  0  0
   16.7539    5.8081   13.2932 C   0  0  0  0  0  0  0  0  0  0  0  0
   18.6397    3.0924   11.7626 O   0  0  0  0  0  0  0  0  0  0  0  0
   19.8916    3.5715   11.3466 C   0  0  0  0  0  0  0  0  0  0  0  0
   11.0681    2.7548   11.2029 C   0  0  0  0  0  0  0  0  0  0  0  0
   11.5756    4.0591   11.3327 N   0  0  0  0  0  0  0  0  0  0  0  0
   11.4323    4.9050   10.1792 C   0  0  0  0  0  0  0  0  0  0  0  0
   10.0752    5.5523   10.0543 C   0  0  0  0  0  0  0  0  0  0  0  0
    9.1641    5.1202   11.0083 O   0  0  0  0  0  0  0  0  0  0  0  0
    9.7202    5.4239   12.2462 C   0  0  0  0  0  0  0  0  0  0  0  0
   11.0312    4.7591   12.5104 C   0  0  0  0  0  0  0  0  0  0  0  0
   12.5908    4.0093   11.5565 H   0  0  0  0  0  0  0  0  0  0  0  0
 13 14  1  0  0  0
 14 15  2  0  0  0
 14 19  1  0  0  0
 15 16  1  0  0  0
 16 17  2  0  0  0
 16  1  1  0  0  0
 17 18  1  0  0  0
 17 20  1  0  0  0
 18 19  2  0  0  0
 20 21  1  0  0  0
  1  2  2  0  0  0
  2  3  1  0  0  0
  2 11  1  0  0  0
  3  4  1  0  0  0
  4  5  2  0  0  0
  4  9  1  0  0  0
  5  6  1  0  0  0
  5 11  1  0  0  0
  6  7  2  0  0  0
  7  8  1  0  0  0
  8  9  2  0  0  0
  8 10  1  0  0  0
  9 22  1  0  0  0
 22 23  1  0  0  0
 23 24  1  0  0  0
 23 28  1  0  0  0
 24 25  1  0  0  0
 25 26  1  0  0  0
 26 27  1  0  0  0
 27 28  1  0  0  0
 11 12  2  0  0  0
 23 29  1  0  0  0
M  CHG 1  10  -1
M  CHG 1  23   1
M  END
> <minimizedAffinity>
-8.89783

$$$$
2041


 30 33  0  0  0  0  0  0  0  0999 V2000
   11.4690    3.4428   10.1959 N   0  0  0  0  0  0  0  0  0  0  0  0
   12.1002    4.6550    9.7143 C   0  0  0  0  0  0  0  0  0  0  0  0
   11.3555    5.8806   10.2285 C   0  0  0  0  0  0  0  0  0  0  0  0
   11.4078    5.8521   11.6898 N   0  0  0  0  0  0  0  0  0  0  0  0
   11.8827    4.6239   12.2547 C   0  0  0  0  0  0  0  0  0  0  0  0
   11.1426    3.4937   11.5888 C   0  0  0  0  0  0  0  0  0  0  0  0
   11.0199    6.9861   12.4103 C   0  0  0  0  0  0  0  0  0  0  0  0
   10.6295    8.0369   11.7561 O   0  0  0  0  0  0  0  0  0  0  0  0
   12.4602    2.0826    9.8435 S   0  0  0  0  0  0  0  0  0  0  0  0
   13.5214    2.5535    8.8763 O   0  0  0  0  0  0  0  0  0  0  0  0
   13.1665    1.5714   11.0530 O   0  0  0  0  0  0  0  0  0  0  0  0
   11.4911    0.8271    9.1055 C   0  0  0  0  0  0  0  0  0  0  0  0
   11.9562   -0.0525    8.1548 C   0  0  0  0  0  0  0  0  0  0  0  0
   11.1419   -1.0129    7.6051 C   0  0  0  0  0  0  0  0  0  0  0  0
    9.8107   -1.1150    8.0087 C   0  0  0  0  0  0  0  0  0  0  0  0
    9.3240   -0.2269    8.9742 C   0  0  0  0  0  0  0  0  0  0  0  0
   10.1603    0.7272    9.5108 C   0  0  0  0  0  0  0  0  0  0  0  0
    8.7893   -2.3393    7.3031 Cl  0  0  0  0  0  0  0  0  0  0  0  0
   10.9893    7.1785   13.8637 C   0  0  0  0  0  0  0  0  0  0  0  0
    9.4128    6.8187   14.6266 S   0  0  0  0  0  0  0  0  0  0  0  0
    8.0688    7.8359   14.0423 C   0  0  0  0  0  0  0  0  0  0  0  0
    7.7779    8.9935   14.6217 N   0  0  0  0  0  0  0  0  0  0  0  0
    6.7948    9.7995   14.2116 C   0  0  0  0  0  0  0  0  0  0  0  0
    6.0454    9.4078   13.1348 N   0  0  0  0  0  0  0  0  0  0  0  0
    6.3124    8.2464   12.5287 C   0  0  0  0  0  0  0  0  0  0  0  0
    5.7342    7.6400   11.4513 N   0  0  0  0  0  0  0  0  0  0  0  0
    6.3608    6.5027   11.2304 N   0  0  0  0  0  0  0  0  0  0  0  0
    7.3380    6.3289   12.1231 C   0  0  0  0  0  0  0  0  0  0  0  0
    7.3311    7.4154   12.9569 C   0  0  0  0  0  0  0  0  0  0  0  0
    4.6388    8.1631   10.6889 C   0  0  0  0  0  0  0  0  0  0  0  0
  9 10  2  0  0  0
  9 11  2  0  0  0
  9  1  1  0  0  0
  9 12  1  0  0  0
  1  2  1  0  0  0
  1  6  1  0  0  0
  2  3  1  0  0  0
  3  4  1  0  0  0
  4  5  1  0  0  0
  4  7  1  0  0  0
  5  6  1  0  0  0
  7  8  2  0  0  0
  7 19  1  0  0  0
 19 20  1  0  0  0
 20 21  1  0  0  0
 21 22  2  0  0  0
 21 29  1  0  0  0
 22 23  1  0  0  0
 23 24  2  0  0  0
 24 25  1  0  0  0
 25 26  1  0  0  0
 25 29  2  0  0  0
 26 27  1  0  0  0
 26 30  1  0  0  0
 27 28  2  0  0  0
 28 29  1  0  0  0
 12 13  2  0  0  0
 12 17  1  0  0  0
 13 14  1  0  0  0
 14 15  2  0  0  0
 15 16  1  0  0  0
 15 18  1  0  0  0
 16 17  2  0  0  0
M  END
> <minimizedAffinity>
-9.48788

$$$$
2043


 32 35  0  0  0  0  0  0  0  0999 V2000
    9.1316    7.2102   11.9663 N   0  0  0  0  0  0  0  0  0  0  0  0
    9.6859    7.0133   10.6496 C   0  0  0  0  0  0  0  0  0  0  0  0
   11.0952    6.4486   10.8156 C   0  0  0  0  0  0  0  0  0  0  0  0
   11.0987    5.4792   11.8451 N   0  0  0  0  0  0  0  0  0  0  0  0
   11.0114    6.1622   13.2116 C   0  0  0  0  0  0  0  0  0  0  0  0
   10.0693    7.2967   13.0237 C   0  0  0  0  0  0  0  0  0  0  0  0
   11.1115    4.1149   11.8261 C   0  0  0  0  0  0  0  0  0  0  0  0
   11.2856    3.6371   13.1060 O   0  0  0  0  0  0  0  0  0  0  0  0
   11.0087    3.0262   10.9359 C   0  0  0  0  0  0  0  0  0  0  0  0
   11.7012    2.3638   10.0694 C   0  0  0  0  0  0  0  0  0  0  0  0
   13.0308    2.6626    9.7361 N   0  0  0  0  0  0  0  0  0  0  0  0
   13.8235    1.9148    8.8369 N   0  0  0  0  0  0  0  0  0  0  0  0
   13.2674    0.7908    8.2182 C   0  0  0  0  0  0  0  0  0  0  0  0
   13.9620    0.1156    7.4145 O   0  0  0  0  0  0  0  0  0  0  0  0
   11.8731    0.4279    8.5276 C   0  0  0  0  0  0  0  0  0  0  0  0
   11.1035    1.1638    9.4092 C   0  0  0  0  0  0  0  0  0  0  0  0
    9.8278    0.7592    9.6382 C   0  0  0  0  0  0  0  0  0  0  0  0
    9.3271   -0.3742    8.9895 C   0  0  0  0  0  0  0  0  0  0  0  0
   10.0858   -1.1083    8.1130 C   0  0  0  0  0  0  0  0  0  0  0  0
   11.3800   -0.6936    7.8839 C   0  0  0  0  0  0  0  0  0  0  0  0
   13.4925    3.4920   10.1153 H   0  0  0  0  0  0  0  0  0  0  0  0
   14.8211    2.2399    8.6651 H   0  0  0  0  0  0  0  0  0  0  0  0
    7.6906    6.4038   12.2727 S   0  0  0  0  0  0  0  0  0  0  0  0
    7.2841    5.6781   10.9967 O   0  0  0  0  0  0  0  0  0  0  0  0
    7.9729    5.2893   13.2737 O   0  0  0  0  0  0  0  0  0  0  0  0
    6.4118    7.3664   12.9000 C   0  0  0  0  0  0  0  0  0  0  0  0
    5.6882    8.2094   12.0944 C   0  0  0  0  0  0  0  0  0  0  0  0
    4.6634    8.9740   12.6219 C   0  0  0  0  0  0  0  0  0  0  0  0
    4.3309    8.9251   13.9572 C   0  0  0  0  0  0  0  0  0  0  0  0
    5.0582    8.0765   14.7762 C   0  0  0  0  0  0  0  0  0  0  0  0
    6.0872    7.3112   14.2315 C   0  0  0  0  0  0  0  0  0  0  0  0
    3.0244    9.9153   14.5760 Cl  0  0  0  0  0  0  0  0  0  0  0  0
 23 24  2  0  0  0
 23 25  2  0  0  0
 23  1  1  0  0  0
 23 26  1  0  0  0
  1  2  1  0  0  0
  1  6  1  0  0  0
  2  3  1  0  0  0
  3  4  1  0  0  0
  4  5  1  0  0  0
  4  7  1  0  0  0
  5  6  1  0  0  0
  7  8  2  0  0  0
  7  9  1  0  0  0
  9 10  2  0  0  0
 10 11  1  0  0  0
 10 16  1  0  0  0
 11 12  1  0  0  0
 12 13  1  0  0  0
 13 14  2  0  0  0
 13 15  1  0  0  0
 15 16  2  0  0  0
 15 20  1  0  0  0
 16 17  1  0  0  0
 17 18  2  0  0  0
 18 19  1  0  0  0
 19 20  2  0  0  0
 26 27  2  0  0  0
 26 31  1  0  0  0
 27 28  1  0  0  0
 28 29  2  0  0  0
 29 30  1  0  0  0
 29 32  1  0  0  0
 30 31  2  0  0  0
 11 21  1  0  0  0
 12 22  1  0  0  0
M  END
> <minimizedAffinity>
-10.16892

$$$$
2046


 26 29  0  0  0  0  0  0  0  0999 V2000
    7.4585   10.9607   12.4798 Cl  0  0  0  0  0  0  0  0  0  0  0  0
    8.1187    9.3573   12.5688 C   0  0  0  0  0  0  0  0  0  0  0  0
    7.3657    8.2597   12.2385 C   0  0  0  0  0  0  0  0  0  0  0  0
    7.9461    7.0148   12.3307 C   0  0  0  0  0  0  0  0  0  0  0  0
    9.2472    6.8131   12.7378 C   0  0  0  0  0  0  0  0  0  0  0  0
    9.9884    7.9256   13.0654 C   0  0  0  0  0  0  0  0  0  0  0  0
    9.4157    9.1760   12.9770 C   0  0  0  0  0  0  0  0  0  0  0  0
    6.0269    8.3594   11.8211 N   0  0  0  0  0  0  0  0  0  0  0  0
    5.6157    8.1953   10.5802 N   0  0  0  0  0  0  0  0  0  0  0  0
    4.3058    8.3410   10.5127 N   0  0  0  0  0  0  0  0  0  0  0  0
    3.8979    8.6024   11.7381 N   0  0  0  0  0  0  0  0  0  0  0  0
    4.9723    8.6179   12.5828 C   0  0  0  0  0  0  0  0  0  0  0  0
    4.8434    8.8913   14.0132 C   0  0  0  0  0  0  0  0  0  0  0  0
    3.7052    8.5305   14.8495 C   0  0  0  0  0  0  0  0  0  0  0  0
    4.9535    7.6358   14.9273 C   0  0  0  0  0  0  0  0  0  0  0  0
    9.8320    5.4896   12.8246 N   0  0  0  0  0  0  0  0  0  0  0  0
    9.7977    4.9482   13.6936 H   0  0  0  0  0  0  0  0  0  0  0  0
   10.4488    4.9916   11.6447 C   0  0  0  0  0  0  0  0  0  0  0  0
   11.8261    4.5150   11.7284 C   0  0  0  0  0  0  0  0  0  0  0  0
   12.6544    5.4478   12.1300 O   0  0  0  0  0  0  0  0  0  0  0  0
   12.3979    3.2943   11.4696 N   0  0  0  0  0  0  0  0  0  0  0  0
   11.7092    2.0934   11.1193 C   0  0  0  0  0  0  0  0  0  0  0  0
   12.2235    1.6230    9.7617 C   0  0  0  0  0  0  0  0  0  0  0  0
   13.5854    1.3200    9.9803 O   0  0  0  0  0  0  0  0  0  0  0  0
   14.2654    2.5029   10.1728 C   0  0  0  0  0  0  0  0  0  0  0  0
   13.8697    3.1497   11.5047 C   0  0  0  0  0  0  0  0  0  0  0  0
  1  2  1  0  0  0
  2  3  2  0  0  0
  2  7  1  0  0  0
  3  4  1  0  0  0
  3  8  1  0  0  0
  4  5  2  0  0  0
  5  6  1  0  0  0
  5 16  1  0  0  0
  6  7  2  0  0  0
 16 18  1  0  0  0
 18 19  1  0  0  0
 19 20  2  0  0  0
 19 21  1  0  0  0
 21 22  1  0  0  0
 21 26  1  0  0  0
 22 23  1  0  0  0
 23 24  1  0  0  0
 24 25  1  0  0  0
 25 26  1  0  0  0
  8  9  1  0  0  0
  8 12  1  0  0  0
  9 10  2  0  0  0
 10 11  1  0  0  0
 11 12  2  0  0  0
 12 13  1  0  0  0
 13 14  1  0  0  0
 13 15  1  0  0  0
 14 15  1  0  0  0
 16 17  1  0  0  0
M  END
> <minimizedAffinity>
-7.91975

$$$$
2063


 34 37  0  0  0  0  0  0  0  0999 V2000
    7.8241    6.6733   13.2757 C   0  0  0  0  0  0  0  0  0  0  0  0
    8.9413    6.5633   14.0984 C   0  0  0  0  0  0  0  0  0  0  0  0
   10.0347    5.9420   13.7246 O   0  0  0  0  0  0  0  0  0  0  0  0
   10.1642    5.3743   12.5488 C   0  0  0  0  0  0  0  0  0  0  0  0
    9.1114    5.4310   11.6660 C   0  0  0  0  0  0  0  0  0  0  0  0
    9.2909    4.8241   10.4470 C   0  0  0  0  0  0  0  0  0  0  0  0
   10.4477    4.1808   10.0870 C   0  0  0  0  0  0  0  0  0  0  0  0
   11.5393    4.1118   10.9765 C   0  0  0  0  0  0  0  0  0  0  0  0
   11.3519    4.7212   12.1946 C   0  0  0  0  0  0  0  0  0  0  0  0
    7.9482    6.0760   12.0269 C   0  0  0  0  0  0  0  0  0  0  0  0
    6.9827    6.1288   11.2193 O   0  0  0  0  0  0  0  0  0  0  0  0
    2.6982    9.4853   15.2725 Br  0  0  0  0  0  0  0  0  0  0  0  0
    4.2870    8.6285   14.6396 C   0  0  0  0  0  0  0  0  0  0  0  0
    4.9847    9.1087   13.5556 C   0  0  0  0  0  0  0  0  0  0  0  0
    6.1402    8.4942   13.0874 C   0  0  0  0  0  0  0  0  0  0  0  0
    6.6274    7.3637   13.7097 C   0  0  0  0  0  0  0  0  0  0  0  0
    5.9238    6.8826   14.8007 C   0  0  0  0  0  0  0  0  0  0  0  0
    4.7769    7.4920   15.2666 C   0  0  0  0  0  0  0  0  0  0  0  0
   12.6852    3.4561   10.5763 O   0  0  0  0  0  0  0  0  0  0  0  0
   12.7611    2.4065    9.7086 C   0  0  0  0  0  0  0  0  0  0  0  0
   11.9799    1.2899   10.1100 O   0  0  0  0  0  0  0  0  0  0  0  0
   11.7353    0.5787    8.9555 C   0  0  0  0  0  0  0  0  0  0  0  0
   12.9574    0.0046    8.3089 C   0  0  0  0  0  0  0  0  0  0  0  0
   14.1084    0.9813    8.2818 C   0  0  0  0  0  0  0  0  0  0  0  0
   14.1555    1.8333    9.5332 C   0  0  0  0  0  0  0  0  0  0  0  0
   15.1010    2.8326    9.3366 O   0  0  0  0  0  0  0  0  0  0  0  0
   15.2956    0.2950    8.0623 O   0  0  0  0  0  0  0  0  0  0  0  0
   12.6298   -0.2648    6.9702 O   0  0  0  0  0  0  0  0  0  0  0  0
   15.9444    2.6144    9.7985 H   0  0  0  0  0  0  0  0  0  0  0  0
   15.1360   -0.6585    7.7835 H   0  0  0  0  0  0  0  0  0  0  0  0
   12.1380    0.4956    6.5710 H   0  0  0  0  0  0  0  0  0  0  0  0
   10.6984   -0.5010    9.1368 C   0  0  0  0  0  0  0  0  0  0  0  0
    9.9554   -0.7127    7.9776 O   0  0  0  0  0  0  0  0  0  0  0  0
    9.4113   -1.5417    8.1584 H   0  0  0  0  0  0  0  0  0  0  0  0
 12 13  1  0  0  0
 13 14  2  0  0  0
 13 18  1  0  0  0
 14 15  1  0  0  0
 15 16  2  0  0  0
 16 17  1  0  0  0
 16  1  1  0  0  0
 17 18  2  0  0  0
  1  2  2  0  0  0
  1 10  1  0  0  0
  2  3  1  0  0  0
  3  4  1  0  0  0
  4  5  2  0  0  0
  4  9  1  0  0  0
  5  6  1  0  0  0
  5 10  1  0  0  0
  6  7  2  0  0  0
  7  8  1  0  0  0
  8  9  2  0  0  0
  8 19  1  0  0  0
 19 20  1  0  0  0
 20 21  1  0  0  0
 20 25  1  0  0  0
 21 22  1  0  0  0
 22 23  1  0  0  0
 22 32  1  0  0  0
 23 24  1  0  0  0
 23 28  1  0  0  0
 24 25  1  0  0  0
 24 27  1  0  0  0
 25 26  1  0  0  0
 32 33  1  0  0  0
 10 11  2  0  0  0
 26 29  1  0  0  0
 27 30  1  0  0  0
 28 31  1  0  0  0
 33 34  1  0  0  0
M  END
> <minimizedAffinity>
-9.48964

$$$$
2072


 27 30  0  0  0  0  0  0  0  0999 V2000
    7.8752    7.5056   12.3909 N   0  0  0  0  0  0  0  0  0  0  0  0
    8.9480    8.2252   11.8079 C   0  0  0  0  0  0  0  0  0  0  0  0
   10.1003    7.4318   11.2607 C   0  0  0  0  0  0  0  0  0  0  0  0
    9.6167    6.1867   10.7622 N   0  0  0  0  0  0  0  0  0  0  0  0
    9.1349    5.4451   11.9271 C   0  0  0  0  0  0  0  0  0  0  0  0
    7.9015    6.1037   12.4210 C   0  0  0  0  0  0  0  0  0  0  0  0
    6.3896    8.0506   11.7098 S   0  0  0  0  0  0  0  0  0  0  0  0
    6.6720    9.2689   10.8594 O   0  0  0  0  0  0  0  0  0  0  0  0
    5.7708    7.0224   10.8389 O   0  0  0  0  0  0  0  0  0  0  0  0
    5.2366    8.4430   12.9942 C   0  0  0  0  0  0  0  0  0  0  0  0
    5.4129    8.3037   14.6840 S   0  0  0  0  0  0  0  0  0  0  0  0
    3.8852    8.8768   15.1691 C   0  0  0  0  0  0  0  0  0  0  0  0
    3.2702    9.1657   13.9803 C   0  0  0  0  0  0  0  0  0  0  0  0
    3.9667    8.9422   12.8595 C   0  0  0  0  0  0  0  0  0  0  0  0
    3.1642    9.0831   16.9447 Br  0  0  0  0  0  0  0  0  0  0  0  0
   10.5591    5.4232   10.0182 C   0  0  0  0  0  0  0  0  0  0  0  0
   11.1967    4.3611   10.8471 C   0  0  0  0  0  0  0  0  0  0  0  0
   11.1617    3.0639   10.2053 N   0  0  0  0  0  0  0  0  0  0  0  0
   10.1219    2.2361   10.1127 N   0  0  0  0  0  0  0  0  0  0  0  0
   10.4628    1.1315    9.4344 C   0  0  0  0  0  0  0  0  0  0  0  0
   11.7495    1.2612    9.0892 N   0  0  0  0  0  0  0  0  0  0  0  0
   12.3898    0.2952    8.3875 C   0  0  0  0  0  0  0  0  0  0  0  0
   11.7592   -0.8630    7.9928 C   0  0  0  0  0  0  0  0  0  0  0  0
   10.4310   -1.0234    8.3355 C   0  0  0  0  0  0  0  0  0  0  0  0
    9.8071   -0.0235    9.0493 C   0  0  0  0  0  0  0  0  0  0  0  0
   12.1729    2.4654    9.5739 C   0  0  0  0  0  0  0  0  0  0  0  0
   13.3506    2.8614    9.4039 O   0  0  0  0  0  0  0  0  0  0  0  0
  7  8  2  0  0  0
  7  9  2  0  0  0
  7  1  1  0  0  0
  7 10  1  0  0  0
  1  2  1  0  0  0
  1  6  1  0  0  0
  2  3  1  0  0  0
  3  4  1  0  0  0
  4  5  1  0  0  0
  4 16  1  0  0  0
  5  6  1  0  0  0
 16 17  1  0  0  0
 17 18  1  0  0  0
 18 19  1  0  0  0
 18 26  1  0  0  0
 19 20  2  0  0  0
 20 21  1  0  0  0
 20 25  1  0  0  0
 21 22  1  0  0  0
 21 26  1  0  0  0
 22 23  2  0  0  0
 23 24  1  0  0  0
 24 25  2  0  0  0
 26 27  2  0  0  0
 10 11  1  0  0  0
 10 14  2  0  0  0
 11 12  1  0  0  0
 12 13  2  0  0  0
 12 15  1  0  0  0
 13 14  1  0  0  0
M  END
> <minimizedAffinity>
-9.29331

$$$$
2079


 31 34  0  0  0  0  0  0  0  0999 V2000
   12.3393    1.7130    9.6701 C   0  0  0  0  0  0  0  0  0  0  0  0
   13.6956    1.4900    9.6079 C   0  0  0  0  0  0  0  0  0  0  0  0
   14.5542    2.3669   10.2858 C   0  0  0  0  0  0  0  0  0  0  0  0
   14.0675    3.4389   11.0009 C   0  0  0  0  0  0  0  0  0  0  0  0
   14.8402    4.3611   11.7075 C   0  0  0  0  0  0  0  0  0  0  0  0
   16.2312    4.0957   11.6417 C   0  0  0  0  0  0  0  0  0  0  0  0
   16.7619    3.0210   10.9345 C   0  0  0  0  0  0  0  0  0  0  0  0
   15.9100    2.1599   10.2615 C   0  0  0  0  0  0  0  0  0  0  0  0
   17.1739    4.8823   12.2740 O   0  0  0  0  0  0  0  0  0  0  0  0
   12.8074    3.6070   11.0304 O   0  0  0  0  0  0  0  0  0  0  0  0
   11.9104    2.8267   10.4214 C   0  0  0  0  0  0  0  0  0  0  0  0
   10.6968    3.0547   10.4877 O   0  0  0  0  0  0  0  0  0  0  0  0
    8.6288   -2.4563    7.2695 Cl  0  0  0  0  0  0  0  0  0  0  0  0
    9.6938   -1.1821    7.9117 C   0  0  0  0  0  0  0  0  0  0  0  0
   11.0197   -1.0429    7.5186 C   0  0  0  0  0  0  0  0  0  0  0  0
   11.8559   -0.0938    8.0788 C   0  0  0  0  0  0  0  0  0  0  0  0
   11.3705    0.7665    9.0821 C   0  0  0  0  0  0  0  0  0  0  0  0
   10.0784    0.6131    9.4379 C   0  0  0  0  0  0  0  0  0  0  0  0
    9.2236   -0.3290    8.8944 C   0  0  0  0  0  0  0  0  0  0  0  0
   14.4063    5.3852   12.5914 C   0  0  0  0  0  0  0  0  0  0  0  0
   14.9966    6.6959   12.6838 N   0  0  0  0  0  0  0  0  0  0  0  0
   14.6895    7.5211   11.4821 C   0  0  0  0  0  0  0  0  0  0  0  0
   13.2809    7.2967   11.0608 C   0  0  0  0  0  0  0  0  0  0  0  0
   12.2794    7.6435   12.0428 N   0  0  0  0  0  0  0  0  0  0  0  0
   12.7436    7.5145   13.3823 C   0  0  0  0  0  0  0  0  0  0  0  0
   14.1699    7.4647   13.6692 C   0  0  0  0  0  0  0  0  0  0  0  0
   15.9342    6.8076   12.9943 H   0  0  0  0  0  0  0  0  0  0  0  0
   11.0687    6.8326   11.8425 C   0  0  0  0  0  0  0  0  0  0  0  0
   10.6571    6.1036   13.1007 C   0  0  0  0  0  0  0  0  0  0  0  0
   10.8695    4.7354   13.0208 O   0  0  0  0  0  0  0  0  0  0  0  0
   11.7988    4.5422   13.3647 H   0  0  0  0  0  0  0  0  0  0  0  0
 13 14  1  0  0  0
 14 15  2  0  0  0
 14 19  1  0  0  0
 15 16  1  0  0  0
 16 17  2  0  0  0
 17 18  1  0  0  0
 17  1  1  0  0  0
 18 19  2  0  0  0
  1  2  2  0  0  0
  1 11  1  0  0  0
  2  3  1  0  0  0
  3  4  2  0  0  0
  3  8  1  0  0  0
  4  5  1  0  0  0
  4 10  1  0  0  0
  5  6  2  0  0  0
  5 20  1  0  0  0
  6  7  1  0  0  0
  6  9  1  0  0  0
  7  8  2  0  0  0
 20 21  1  0  0  0
 21 22  1  0  0  0
 21 26  1  0  0  0
 22 23  1  0  0  0
 23 24  1  0  0  0
 24 25  1  0  0  0
 24 28  1  0  0  0
 25 26  1  0  0  0
 28 29  1  0  0  0
 29 30  1  0  0  0
 10 11  1  0  0  0
 11 12  2  0  0  0
 21 27  1  0  0  0
 30 31  1  0  0  0
M  CHG 1   9  -1
M  CHG 1  21   1
M  END
> <minimizedAffinity>
-9.37786

$$$$
2087


 32 35  0  0  0  0  0  0  0  0999 V2000
   11.2896    7.1858   12.6363 N   0  0  0  0  0  0  0  0  0  0  0  0
   12.2066    7.8386   13.4226 C   0  0  0  0  0  0  0  0  0  0  0  0
   11.7240    7.9326   14.7129 C   0  0  0  0  0  0  0  0  0  0  0  0
   10.5267    7.3396   14.6850 N   0  0  0  0  0  0  0  0  0  0  0  0
   10.2546    6.8846   13.4208 C   0  0  0  0  0  0  0  0  0  0  0  0
   12.4392    8.5409   15.6789 N   0  0  0  0  0  0  0  0  0  0  0  0
   13.6339    9.0554   15.3549 C   0  0  0  0  0  0  0  0  0  0  0  0
   14.2920    9.6206   16.2642 O   0  0  0  0  0  0  0  0  0  0  0  0
   14.1338    8.9861   14.1165 N   0  0  0  0  0  0  0  0  0  0  0  0
   13.4375    8.3761   13.1108 C   0  0  0  0  0  0  0  0  0  0  0  0
   13.9330    8.3305   11.9592 O   0  0  0  0  0  0  0  0  0  0  0  0
   11.8973    8.6122   17.0235 C   0  0  0  0  0  0  0  0  0  0  0  0
   15.0723    9.3978   13.8793 H   0  0  0  0  0  0  0  0  0  0  0  0
    9.0167    6.3079   13.0952 N   0  0  0  0  0  0  0  0  0  0  0  0
    8.4551    6.0082   11.8268 C   0  0  0  0  0  0  0  0  0  0  0  0
    6.9229    6.0409   11.8486 C   0  0  0  0  0  0  0  0  0  0  0  0
    6.3454    6.8328   12.8549 N   0  0  0  0  0  0  0  0  0  0  0  0
    6.8469    6.6878   14.1645 C   0  0  0  0  0  0  0  0  0  0  0  0
    8.1477    5.9216   14.2405 C   0  0  0  0  0  0  0  0  0  0  0  0
    5.6376    7.9983   12.5195 C   0  0  0  0  0  0  0  0  0  0  0  0
    5.8151    8.5329   11.1610 C   0  0  0  0  0  0  0  0  0  0  0  0
    5.0433    8.2406   10.2090 O   0  0  0  0  0  0  0  0  0  0  0  0
    6.8612    9.3897   10.8938 O   0  0  0  0  0  0  0  0  0  0  0  0
    7.5371   10.0943   11.8989 C   0  0  0  0  0  0  0  0  0  0  0  0
   11.4917    6.8915   11.2407 C   0  0  0  0  0  0  0  0  0  0  0  0
   13.7763    1.2335   10.2884 Br  0  0  0  0  0  0  0  0  0  0  0  0
   13.0608    2.9755   10.5899 C   0  0  0  0  0  0  0  0  0  0  0  0
   11.9419    3.4108    9.9152 C   0  0  0  0  0  0  0  0  0  0  0  0
   11.4327    4.6892   10.1475 C   0  0  0  0  0  0  0  0  0  0  0  0
   12.0596    5.4968   11.0502 C   0  0  0  0  0  0  0  0  0  0  0  0
   13.1695    5.0807   11.7271 C   0  0  0  0  0  0  0  0  0  0  0  0
   13.6709    3.8227   11.4998 C   0  0  0  0  0  0  0  0  0  0  0  0
 26 27  1  0  0  0
 27 28  2  0  0  0
 27 32  1  0  0  0
 28 29  1  0  0  0
 29 30  2  0  0  0
 30 31  1  0  0  0
 30 25  1  0  0  0
 31 32  2  0  0  0
 25  1  1  0  0  0
  1  2  1  0  0  0
  1  5  1  0  0  0
  2  3  2  0  0  0
  2 10  1  0  0  0
  3  4  1  0  0  0
  3  6  1  0  0  0
  4  5  2  0  0  0
  5 14  1  0  0  0
 14 15  1  0  0  0
 14 19  1  0  0  0
 15 16  1  0  0  0
 16 17  1  0  0  0
 17 18  1  0  0  0
 17 20  1  0  0  0
 18 19  1  0  0  0
 20 21  1  0  0  0
 21 22  2  0  0  0
 21 23  1  0  0  0
 23 24  1  0  0  0
  6  7  1  0  0  0
  6 12  1  0  0  0
  7  8  2  0  0  0
  7  9  1  0  0  0
  9 10  1  0  0  0
 10 11  2  0  0  0
  9 13  1  0  0  0
M  END
> <minimizedAffinity>
-7.45455

$$$$
2091


 28 31  0  0  0  0  0  0  0  0999 V2000
   10.7926    6.0294   11.6085 N   0  0  0  0  0  0  0  0  0  0  0  0
    9.6768    6.1710   12.3387 C   0  0  0  0  0  0  0  0  0  0  0  0
   10.0160    6.6492   13.5848 C   0  0  0  0  0  0  0  0  0  0  0  0
   11.3331    6.7846   13.5741 N   0  0  0  0  0  0  0  0  0  0  0  0
   11.8339    6.4166   12.3865 C   0  0  0  0  0  0  0  0  0  0  0  0
    9.1109    6.9108   14.5609 N   0  0  0  0  0  0  0  0  0  0  0  0
    7.8203    6.6846   14.2677 C   0  0  0  0  0  0  0  0  0  0  0  0
    6.9956    6.9308   15.1836 O   0  0  0  0  0  0  0  0  0  0  0  0
    7.4253    6.2219   13.0689 N   0  0  0  0  0  0  0  0  0  0  0  0
    8.3151    5.9583   12.0939 C   0  0  0  0  0  0  0  0  0  0  0  0
    7.9842    5.5338   10.9784 O   0  0  0  0  0  0  0  0  0  0  0  0
    9.5625    7.4089   15.8429 C   0  0  0  0  0  0  0  0  0  0  0  0
    6.4203    6.0518   12.8495 H   0  0  0  0  0  0  0  0  0  0  0  0
   13.2132    6.4218   11.9951 N   0  0  0  0  0  0  0  0  0  0  0  0
   14.0402    5.3172   12.4280 C   0  0  0  0  0  0  0  0  0  0  0  0
   15.0967    5.8702   13.3731 C   0  0  0  0  0  0  0  0  0  0  0  0
   15.3486    7.2583   13.1732 N   0  0  0  0  0  0  0  0  0  0  0  0
   15.1853    7.7402   11.8420 C   0  0  0  0  0  0  0  0  0  0  0  0
   13.8454    7.4522   11.2148 C   0  0  0  0  0  0  0  0  0  0  0  0
   15.0163    8.1428   14.2245 C   0  0  0  0  0  0  0  0  0  0  0  0
   10.8805    5.5461   10.2521 C   0  0  0  0  0  0  0  0  0  0  0  0
   12.1776   -0.3873    9.1524 Br  0  0  0  0  0  0  0  0  0  0  0  0
   11.7238    1.4257    9.5262 C   0  0  0  0  0  0  0  0  0  0  0  0
   10.4358    1.7993    9.8967 C   0  0  0  0  0  0  0  0  0  0  0  0
   10.1649    3.1434   10.1465 C   0  0  0  0  0  0  0  0  0  0  0  0
   11.0983    4.1280   10.0483 C   0  0  0  0  0  0  0  0  0  0  0  0
   12.3867    3.7022    9.6711 C   0  0  0  0  0  0  0  0  0  0  0  0
   12.6998    2.3880    9.4138 C   0  0  0  0  0  0  0  0  0  0  0  0
 22 23  1  0  0  0
 23 24  2  0  0  0
 23 28  1  0  0  0
 24 25  1  0  0  0
 25 26  2  0  0  0
 26 27  1  0  0  0
 26 21  1  0  0  0
 27 28  2  0  0  0
 21  1  1  0  0  0
  1  2  1  0  0  0
  1  5  1  0  0  0
  2  3  2  0  0  0
  2 10  1  0  0  0
  3  4  1  0  0  0
  3  6  1  0  0  0
  4  5  2  0  0  0
  5 14  1  0  0  0
 14 15  1  0  0  0
 14 19  1  0  0  0
 15 16  1  0  0  0
 16 17  1  0  0  0
 17 18  1  0  0  0
 17 20  1  0  0  0
 18 19  1  0  0  0
  6  7  1  0  0  0
  6 12  1  0  0  0
  7  8  2  0  0  0
  7  9  1  0  0  0
  9 10  1  0  0  0
 10 11  2  0  0  0
  9 13  1  0  0  0
M  END
> <minimizedAffinity>
-7.30882

$$$$
2103


 29 32  0  0  0  0  0  0  0  0999 V2000
   12.2497    3.1810   11.2728 C   0  0  0  0  0  0  0  0  0  0  0  0
   11.5501    2.2798   10.3938 C   0  0  0  0  0  0  0  0  0  0  0  0
   12.2389    1.5405    9.5037 C   0  0  0  0  0  0  0  0  0  0  0  0
   13.6400    1.6299    9.4136 C   0  0  0  0  0  0  0  0  0  0  0  0
   14.3231    2.4858   10.2429 C   0  0  0  0  0  0  0  0  0  0  0  0
   13.6154    3.2638   11.1731 C   0  0  0  0  0  0  0  0  0  0  0  0
   14.3274    4.2628   12.0109 C   0  0  0  0  0  0  0  0  0  0  0  0
   15.7092    4.6314   11.4813 C   0  0  0  0  0  0  0  0  0  0  0  0
   16.4664    3.4611   11.1039 N   0  0  0  0  0  0  0  0  0  0  0  0
   15.7791    2.5817   10.2030 C   0  0  0  0  0  0  0  0  0  0  0  0
   16.4905    1.9283    9.4123 O   0  0  0  0  0  0  0  0  0  0  0  0
   17.8026    3.2000   11.5945 C   0  0  0  0  0  0  0  0  0  0  0  0
   14.2545    0.8575    8.4997 O   0  0  0  0  0  0  0  0  0  0  0  0
   11.3043    0.7694    8.7954 O   0  0  0  0  0  0  0  0  0  0  0  0
   10.0430    0.8464    9.4250 C   0  0  0  0  0  0  0  0  0  0  0  0
   10.1913    1.9816   10.2549 O   0  0  0  0  0  0  0  0  0  0  0  0
   15.1821    0.7575    8.2666 H   0  0  0  0  0  0  0  0  0  0  0  0
   11.3350    3.8697   12.1582 C   0  0  0  0  0  0  0  0  0  0  0  0
    9.8444    5.7293   12.6427 C   0  0  0  0  0  0  0  0  0  0  0  0
   10.5422    5.9483   13.6471 O   0  0  0  0  0  0  0  0  0  0  0  0
   10.2122    4.6008   11.7629 N   0  0  0  0  0  0  0  0  0  0  0  0
    9.5862    4.5446   10.9464 H   0  0  0  0  0  0  0  0  0  0  0  0
    7.4479   10.4915   12.5421 Br  0  0  0  0  0  0  0  0  0  0  0  0
    7.5151    8.6081   12.2331 C   0  0  0  0  0  0  0  0  0  0  0  0
    6.4513    7.9581   11.6925 C   0  0  0  0  0  0  0  0  0  0  0  0
    6.4839    6.6448   11.4713 N   0  0  0  0  0  0  0  0  0  0  0  0
    7.5836    5.9451   11.7857 C   0  0  0  0  0  0  0  0  0  0  0  0
    8.7014    6.5579   12.3410 C   0  0  0  0  0  0  0  0  0  0  0  0
    8.6758    7.9142   12.5722 C   0  0  0  0  0  0  0  0  0  0  0  0
 23 24  1  0  0  0
 24 25  2  0  0  0
 24 29  1  0  0  0
 25 26  1  0  0  0
 26 27  2  0  0  0
 27 28  1  0  0  0
 28 29  2  0  0  0
 28 19  1  0  0  0
 19 20  2  0  0  0
 19 21  1  0  0  0
 21 18  1  0  0  0
 18  1  1  0  0  0
  1  2  2  0  0  0
  1  6  1  0  0  0
  2  3  1  0  0  0
  2 16  1  0  0  0
  3  4  2  0  0  0
  3 14  1  0  0  0
  4  5  1  0  0  0
  4 13  1  0  0  0
  5  6  2  0  0  0
  5 10  1  0  0  0
  6  7  1  0  0  0
  7  8  1  0  0  0
  8  9  1  0  0  0
  9 10  1  0  0  0
  9 12  1  0  0  0
 10 11  2  0  0  0
 14 15  1  0  0  0
 15 16  1  0  0  0
 21 22  1  0  0  0
 13 17  1  0  0  0
M  END
> <minimizedAffinity>
-9.21428

$$$$
2105


 29 32  0  0  0  0  0  0  0  0999 V2000
   11.8987   10.7963   15.3487 Cl  0  0  0  0  0  0  0  0  0  0  0  0
   10.6924    9.5286   15.4169 C   0  0  0  0  0  0  0  0  0  0  0  0
    9.5116    9.6316   14.6811 C   0  0  0  0  0  0  0  0  0  0  0  0
    8.5480    8.6675   14.7073 C   0  0  0  0  0  0  0  0  0  0  0  0
    8.7990    7.5624   15.5092 C   0  0  0  0  0  0  0  0  0  0  0  0
    9.9594    7.4419   16.2423 C   0  0  0  0  0  0  0  0  0  0  0  0
   10.9204    8.4269   16.2031 C   0  0  0  0  0  0  0  0  0  0  0  0
    7.4339    9.0773   13.8278 C   0  0  0  0  0  0  0  0  0  0  0  0
    6.1721    9.2567   14.6335 C   0  0  0  0  0  0  0  0  0  0  0  0
    5.0580    8.6310   14.3739 C   0  0  0  0  0  0  0  0  0  0  0  0
    4.9478    7.7121   13.2892 N   0  0  0  0  0  0  0  0  0  0  0  0
    6.0876    7.4837   12.4801 C   0  0  0  0  0  0  0  0  0  0  0  0
    7.2150    8.1091   12.7318 C   0  0  0  0  0  0  0  0  0  0  0  0
    6.0543    6.5774   11.3734 N   0  0  0  0  0  0  0  0  0  0  0  0
    4.0370    9.0453   15.3575 C   0  0  0  0  0  0  0  0  0  0  0  0
    4.6589    9.9473   16.1864 O   0  0  0  0  0  0  0  0  0  0  0  0
    5.9657   10.1168   15.7919 C   0  0  0  0  0  0  0  0  0  0  0  0
    6.8546   10.8739   16.3175 O   0  0  0  0  0  0  0  0  0  0  0  0
    3.5050    7.8171   16.0621 C   0  0  0  0  0  0  0  0  0  0  0  0
    2.8596    9.7355   14.6932 C   0  0  0  0  0  0  0  0  0  0  0  0
    7.8566   10.3898   13.2855 C   0  0  0  0  0  0  0  0  0  0  0  0
    7.1964   11.1276   12.4695 O   0  0  0  0  0  0  0  0  0  0  0  0
    9.1221   10.6937   13.8269 N   0  0  0  0  0  0  0  0  0  0  0  0
    4.0608    7.2085   13.0765 H   0  0  0  0  0  0  0  0  0  0  0  0
    5.6996    5.6189   11.4887 H   0  0  0  0  0  0  0  0  0  0  0  0
    6.3932    6.9067   10.4617 H   0  0  0  0  0  0  0  0  0  0  0  0
    9.6631   11.5838   13.6037 H   0  0  0  0  0  0  0  0  0  0  0  0
    8.3626    7.8450   11.8750 C   0  0  0  0  0  0  0  0  0  0  0  0
    9.2639    7.6277   11.1829 N   0  0  0  0  0  0  0  0  0  0  0  0
  1  2  1  0  0  0
  2  3  2  0  0  0
  2  7  1  0  0  0
  3  4  1  0  0  0
  3 23  1  0  0  0
  4  5  2  0  0  0
  4  8  1  0  0  0
  5  6  1  0  0  0
  6  7  2  0  0  0
  8  9  1  0  0  0
  8 13  1  0  0  0
  8 21  1  0  0  0
  9 10  2  0  0  0
  9 17  1  0  0  0
 10 11  1  0  0  0
 10 15  1  0  0  0
 11 12  1  0  0  0
 12 13  2  0  0  0
 12 14  1  0  0  0
 13 28  1  0  0  0
 28 29  3  0  0  0
 15 16  1  0  0  0
 15 19  1  0  0  0
 15 20  1  0  0  0
 16 17  1  0  0  0
 17 18  2  0  0  0
 21 22  2  0  0  0
 21 23  1  0  0  0
 11 24  1  0  0  0
 14 25  1  0  0  0
 14 26  1  0  0  0
 23 27  1  0  0  0
M  END
> <minimizedAffinity>
-7.61910

$$$$
2109


 21 24  0  0  0  0  0  0  0  0999 V2000
   11.1720    4.7146   10.5915 N   0  0  0  0  0  0  0  0  0  0  0  0
   10.4480    5.7659    9.9352 C   0  0  0  0  0  0  0  0  0  0  0  0
    9.8762    5.6883    8.8196 O   0  0  0  0  0  0  0  0  0  0  0  0
   10.4672    6.9886   10.7704 C   0  0  0  0  0  0  0  0  0  0  0  0
    9.1979    7.5200   10.9698 O   0  0  0  0  0  0  0  0  0  0  0  0
    8.5040    6.6623   11.6996 N   0  0  0  0  0  0  0  0  0  0  0  0
    9.3443    5.8452   12.4584 C   0  0  0  0  0  0  0  0  0  0  0  0
   10.7396    6.3881   12.1455 C   0  0  0  0  0  0  0  0  0  0  0  0
   11.6760    5.2938   11.7945 C   0  0  0  0  0  0  0  0  0  0  0  0
   12.7220    4.9008   12.3922 O   0  0  0  0  0  0  0  0  0  0  0  0
    9.0991    5.6958   13.8994 C   0  0  0  0  0  0  0  0  0  0  0  0
    7.9193    6.3722   14.4783 C   0  0  0  0  0  0  0  0  0  0  0  0
    6.8093    6.3802   13.4503 C   0  0  0  0  0  0  0  0  0  0  0  0
    7.3247    7.1653   12.2722 C   0  0  0  0  0  0  0  0  0  0  0  0
   11.8890   -0.9652    8.7598 Cl  0  0  0  0  0  0  0  0  0  0  0  0
   11.6816    0.6933    9.2942 C   0  0  0  0  0  0  0  0  0  0  0  0
   12.7448    1.5722    9.2881 C   0  0  0  0  0  0  0  0  0  0  0  0
   12.5716    2.8792    9.7121 C   0  0  0  0  0  0  0  0  0  0  0  0
   11.3605    3.3683   10.1524 C   0  0  0  0  0  0  0  0  0  0  0  0
   10.2972    2.4769   10.1549 C   0  0  0  0  0  0  0  0  0  0  0  0
   10.4644    1.1716    9.7326 C   0  0  0  0  0  0  0  0  0  0  0  0
 15 16  1  0  0  0
 16 17  2  0  0  0
 16 21  1  0  0  0
 17 18  1  0  0  0
 18 19  2  0  0  0
 19 20  1  0  0  0
 19  1  1  0  0  0
 20 21  2  0  0  0
  1  2  1  0  0  0
  1  9  1  0  0  0
  2  3  2  0  0  0
  2  4  1  0  0  0
  4  5  1  0  0  0
  4  8  1  0  0  0
  5  6  1  0  0  0
  6  7  1  0  0  0
  6 14  1  0  0  0
  7  8  1  0  0  0
  7 11  1  0  0  0
  8  9  1  0  0  0
  9 10  2  0  0  0
 11 12  1  0  0  0
 12 13  1  0  0  0
 13 14  1  0  0  0
M  END
> <minimizedAffinity>
-8.17052

$$$$
2116


 33 36  0  0  0  0  0  0  0  0999 V2000
   11.7196    4.9215    9.8763 C   0  0  0  0  0  0  0  0  0  0  0  0
   11.2788    3.7222    9.5312 N   0  0  0  0  0  0  0  0  0  0  0  0
   11.9000    2.5697    9.8364 C   0  0  0  0  0  0  0  0  0  0  0  0
   13.0472    2.6689   10.5428 N   0  0  0  0  0  0  0  0  0  0  0  0
   13.5505    3.8723   10.9273 C   0  0  0  0  0  0  0  0  0  0  0  0
   12.8677    4.9924   10.5829 N   0  0  0  0  0  0  0  0  0  0  0  0
   14.7569    3.9621   11.6503 N   0  0  0  0  0  0  0  0  0  0  0  0
   15.9267    3.2219   11.2521 C   0  0  0  0  0  0  0  0  0  0  0  0
   17.0489    4.2648   11.1455 C   0  0  0  0  0  0  0  0  0  0  0  0
   17.1146    4.9751   12.3269 O   0  0  0  0  0  0  0  0  0  0  0  0
   15.9979    5.7984   12.4648 C   0  0  0  0  0  0  0  0  0  0  0  0
   14.8473    4.8252   12.8005 C   0  0  0  0  0  0  0  0  0  0  0  0
   11.3843    1.2896    9.4352 N   0  0  0  0  0  0  0  0  0  0  0  0
    9.9999    0.9537    9.6096 C   0  0  0  0  0  0  0  0  0  0  0  0
    9.5245   -0.2757    8.9390 C   0  0  0  0  0  0  0  0  0  0  0  0
   10.5327   -1.1392    8.5337 O   0  0  0  0  0  0  0  0  0  0  0  0
   11.5380   -0.4802    7.8393 C   0  0  0  0  0  0  0  0  0  0  0  0
   12.2929    0.3478    8.8502 C   0  0  0  0  0  0  0  0  0  0  0  0
   11.0104    6.0888    9.4799 N   0  0  0  0  0  0  0  0  0  0  0  0
   11.2932    6.5848    8.6265 H   0  0  0  0  0  0  0  0  0  0  0  0
    9.9651    6.6605   11.5202 C   0  0  0  0  0  0  0  0  0  0  0  0
    9.9489    6.5575   10.2358 N   0  0  0  0  0  0  0  0  0  0  0  0
    7.8892   10.0346   15.1390 Br  0  0  0  0  0  0  0  0  0  0  0  0
    7.7586    8.6265   13.8682 C   0  0  0  0  0  0  0  0  0  0  0  0
    6.5129    8.0627   13.6419 C   0  0  0  0  0  0  0  0  0  0  0  0
    6.4444    7.0374   12.7181 C   0  0  0  0  0  0  0  0  0  0  0  0
    7.5637    6.6006   12.0580 C   0  0  0  0  0  0  0  0  0  0  0  0
    8.8265    7.1538   12.2674 C   0  0  0  0  0  0  0  0  0  0  0  0
    8.8757    8.1741   13.1919 C   0  0  0  0  0  0  0  0  0  0  0  0
    7.4873    5.5610   11.1251 O   0  0  0  0  0  0  0  0  0  0  0  0
    5.3691    8.4981   14.3076 O   0  0  0  0  0  0  0  0  0  0  0  0
    6.5810    5.1368   10.9516 H   0  0  0  0  0  0  0  0  0  0  0  0
    5.3654    9.2453   14.9854 H   0  0  0  0  0  0  0  0  0  0  0  0
 23 24  1  0  0  0
 24 25  2  0  0  0
 24 29  1  0  0  0
 25 26  1  0  0  0
 25 31  1  0  0  0
 26 27  2  0  0  0
 27 28  1  0  0  0
 27 30  1  0  0  0
 28 29  2  0  0  0
 28 21  1  0  0  0
 21 22  2  0  0  0
 22 19  1  0  0  0
 19  1  1  0  0  0
  1  2  2  0  0  0
  1  6  1  0  0  0
  2  3  1  0  0  0
  3  4  2  0  0  0
  3 13  1  0  0  0
  4  5  1  0  0  0
  5  6  2  0  0  0
  5  7  1  0  0  0
  7  8  1  0  0  0
  7 12  1  0  0  0
  8  9  1  0  0  0
  9 10  1  0  0  0
 10 11  1  0  0  0
 11 12  1  0  0  0
 13 14  1  0  0  0
 13 18  1  0  0  0
 14 15  1  0  0  0
 15 16  1  0  0  0
 16 17  1  0  0  0
 17 18  1  0  0  0
 19 20  1  0  0  0
 30 32  1  0  0  0
 31 33  1  0  0  0
M  END
> <minimizedAffinity>
-8.99635

$$$$
2121


 31 34  0  0  0  0  0  0  0  0999 V2000
   16.4611    5.2918   12.5222 C   0  0  0  0  0  0  0  0  0  0  0  0
   16.7435    4.8621   13.7594 O   0  0  0  0  0  0  0  0  0  0  0  0
   16.7066    6.6368   12.3453 N   0  0  0  0  0  0  0  0  0  0  0  0
   17.2684    7.2537   13.5798 C   0  0  0  0  0  0  0  0  0  0  0  0
   18.7810    7.1543   13.5363 C   0  0  0  0  0  0  0  0  0  0  0  0
   19.1844    6.9850   12.1215 C   0  0  0  0  0  0  0  0  0  0  0  0
   18.7250    8.1353   11.2857 C   0  0  0  0  0  0  0  0  0  0  0  0
   17.7057    7.5553   10.2897 C   0  0  0  0  0  0  0  0  0  0  0  0
   16.4404    7.3485   11.1434 C   0  0  0  0  0  0  0  0  0  0  0  0
   19.7541    8.8004   10.6223 O   0  0  0  0  0  0  0  0  0  0  0  0
   20.5573    8.7337   11.2338 H   0  0  0  0  0  0  0  0  0  0  0  0
   12.1834    0.1157    8.9637 Cl  0  0  0  0  0  0  0  0  0  0  0  0
   13.5619    1.1280    9.4026 C   0  0  0  0  0  0  0  0  0  0  0  0
   13.4250    1.9913   10.4413 C   0  0  0  0  0  0  0  0  0  0  0  0
   14.5337    2.7816   10.7637 C   0  0  0  0  0  0  0  0  0  0  0  0
   15.6995    2.7048   10.0843 C   0  0  0  0  0  0  0  0  0  0  0  0
   16.5560    3.6078   10.6518 N   0  0  0  0  0  0  0  0  0  0  0  0
   15.9680    4.2494   11.6641 C   0  0  0  0  0  0  0  0  0  0  0  0
   14.6753    3.7355   11.7521 C   0  0  0  0  0  0  0  0  0  0  0  0
   15.8215    1.8292    9.0395 C   0  0  0  0  0  0  0  0  0  0  0  0
   14.7417    1.0312    8.6933 C   0  0  0  0  0  0  0  0  0  0  0  0
   17.5166    3.7094   10.3005 H   0  0  0  0  0  0  0  0  0  0  0  0
   20.5521    6.6822   11.8422 N   0  0  0  0  0  0  0  0  0  0  0  0
   20.7602    5.5500   10.9752 C   0  0  0  0  0  0  0  0  0  0  0  0
   20.2864    4.2876   11.5893 C   0  0  0  0  0  0  0  0  0  0  0  0
   20.9786    4.1642   12.8770 N   0  0  0  0  0  0  0  0  0  0  0  0
   21.9119    5.2148   13.1902 C   0  0  0  0  0  0  0  0  0  0  0  0
   21.3783    6.6056   13.0164 C   0  0  0  0  0  0  0  0  0  0  0  0
   20.7215    3.0411   13.7208 C   0  0  0  0  0  0  0  0  0  0  0  0
   21.3005    2.9534   14.8116 O   0  0  0  0  0  0  0  0  0  0  0  0
   19.7528    2.0020   13.2485 C   0  0  0  0  0  0  0  0  0  0  0  0
 12 13  1  0  0  0
 13 14  2  0  0  0
 13 21  1  0  0  0
 14 15  1  0  0  0
 15 16  2  0  0  0
 15 19  1  0  0  0
 16 17  1  0  0  0
 16 20  1  0  0  0
 17 18  1  0  0  0
 18 19  2  0  0  0
 18  1  1  0  0  0
  1  2  2  0  0  0
  1  3  1  0  0  0
  3  4  1  0  0  0
  3  9  1  0  0  0
  4  5  1  0  0  0
  5  6  1  0  0  0
  6  7  1  0  0  0
  6 23  1  0  0  0
  7  8  1  0  0  0
  7 10  1  0  0  0
  8  9  1  0  0  0
 23 24  1  0  0  0
 23 28  1  0  0  0
 24 25  1  0  0  0
 25 26  1  0  0  0
 26 27  1  0  0  0
 26 29  1  0  0  0
 27 28  1  0  0  0
 29 30  2  0  0  0
 29 31  1  0  0  0
 20 21  2  0  0  0
 17 22  1  0  0  0
 10 11  1  0  0  0
M  END
> <minimizedAffinity>
-7.86937

$$$$
2122


 29 32  0  0  0  0  0  0  0  0999 V2000
   12.3626    3.7424   10.4151 C   0  0  0  0  0  0  0  0  0  0  0  0
   12.0271    4.5062    9.3611 N   0  0  0  0  0  0  0  0  0  0  0  0
   10.9118    5.1385    9.5925 O   0  0  0  0  0  0  0  0  0  0  0  0
   10.5115    4.7899   10.7987 C   0  0  0  0  0  0  0  0  0  0  0  0
   11.3923    3.9309   11.3192 N   0  0  0  0  0  0  0  0  0  0  0  0
    9.2474    5.3406   11.3932 C   0  0  0  0  0  0  0  0  0  0  0  0
    8.2907    5.2861   10.5452 O   0  0  0  0  0  0  0  0  0  0  0  0
    9.2329    5.8002   12.6577 N   0  0  0  0  0  0  0  0  0  0  0  0
    7.8867    6.0394   12.5459 H   0  0  0  0  0  0  0  0  0  0  0  0
    9.2002    6.2757   13.9548 C   0  0  0  0  0  0  0  0  0  0  0  0
    8.3392    7.5334   14.1216 C   0  0  0  0  0  0  0  0  0  0  0  0
    7.6625    7.9498   12.9578 N   0  0  0  0  0  0  0  0  0  0  0  0
    8.2126    9.1422   12.4429 C   0  0  0  0  0  0  0  0  0  0  0  0
    7.2373    9.9502   11.6548 C   0  0  0  0  0  0  0  0  0  0  0  0
    6.4852    9.1082   10.8765 O   0  0  0  0  0  0  0  0  0  0  0  0
    5.6499    8.2746   11.5953 C   0  0  0  0  0  0  0  0  0  0  0  0
    6.2815    7.7197   12.8376 C   0  0  0  0  0  0  0  0  0  0  0  0
   13.5900    2.9062   10.5174 C   0  0  0  0  0  0  0  0  0  0  0  0
    8.9679   -0.3555    9.2141 Cl  0  0  0  0  0  0  0  0  0  0  0  0
   10.6294   -0.0703    8.7206 C   0  0  0  0  0  0  0  0  0  0  0  0
   11.3717    0.8884    9.4040 C   0  0  0  0  0  0  0  0  0  0  0  0
   12.6844    1.1094    9.0111 C   0  0  0  0  0  0  0  0  0  0  0  0
   13.1931    0.3572    7.9495 C   0  0  0  0  0  0  0  0  0  0  0  0
   12.4515   -0.5789    7.2893 C   0  0  0  0  0  0  0  0  0  0  0  0
   11.1639   -0.7976    7.6723 C   0  0  0  0  0  0  0  0  0  0  0  0
   14.4131    0.7786    7.8159 O   0  0  0  0  0  0  0  0  0  0  0  0
   14.7064    1.7127    8.6842 C   0  0  0  0  0  0  0  0  0  0  0  0
   15.8309    2.2775    8.7512 O   0  0  0  0  0  0  0  0  0  0  0  0
   13.6294    1.9423    9.4559 N   0  0  0  0  0  0  0  0  0  0  0  0
 19 20  1  0  0  0
 20 21  2  0  0  0
 20 25  1  0  0  0
 21 22  1  0  0  0
 22 23  2  0  0  0
 22 29  1  0  0  0
 23 24  1  0  0  0
 23 26  1  0  0  0
 24 25  2  0  0  0
 26 27  1  0  0  0
 27 28  2  0  0  0
 27 29  1  0  0  0
 29 18  1  0  0  0
 18  1  1  0  0  0
  1  2  2  0  0  0
  1  5  1  0  0  0
  2  3  1  0  0  0
  3  4  1  0  0  0
  4  5  2  0  0  0
  4  6  1  0  0  0
  6  7  2  0  0  0
  6  8  1  0  0  0
  8 10  1  0  0  0
 10 11  1  0  0  0
 11 12  1  0  0  0
 12 13  1  0  0  0
 12 17  1  0  0  0
 13 14  1  0  0  0
 14 15  1  0  0  0
 15 16  1  0  0  0
 16 17  1  0  0  0
  8  9  1  0  0  0
M  END
> <minimizedAffinity>
-9.19693

$$$$
2124


 25 29  0  0  0  0  0  0  0  0999 V2000
    8.3841    6.9307   12.6208 N   0  0  0  0  0  0  0  0  0  0  0  0
    8.1260    7.9315   13.5945 C   0  0  0  0  0  0  0  0  0  0  0  0
    9.0050    8.5834   14.2178 O   0  0  0  0  0  0  0  0  0  0  0  0
    6.6479    8.1101   13.7848 C   0  0  0  0  0  0  0  0  0  0  0  0
    6.2399    9.5235   13.5357 C   0  0  0  0  0  0  0  0  0  0  0  0
    5.1608    9.4281   12.6224 O   0  0  0  0  0  0  0  0  0  0  0  0
    5.8384    8.6329   11.6629 C   0  0  0  0  0  0  0  0  0  0  0  0
    6.0918    7.4086   12.5369 C   0  0  0  0  0  0  0  0  0  0  0  0
    7.1469    6.5378   12.0402 C   0  0  0  0  0  0  0  0  0  0  0  0
    6.9656    5.5955   11.2271 O   0  0  0  0  0  0  0  0  0  0  0  0
    7.0649    9.4405   11.4628 C   0  0  0  0  0  0  0  0  0  0  0  0
    7.2618   10.1152   12.6141 C   0  0  0  0  0  0  0  0  0  0  0  0
    5.0599    8.3611   10.4441 C   0  0  0  0  0  0  0  0  0  0  0  0
   13.5871    4.3912   11.0057 Cl  0  0  0  0  0  0  0  0  0  0  0  0
   12.0634    5.1586   11.4636 C   0  0  0  0  0  0  0  0  0  0  0  0
   11.5959    6.2745   10.8123 C   0  0  0  0  0  0  0  0  0  0  0  0
   10.3959    6.8477   11.1946 C   0  0  0  0  0  0  0  0  0  0  0  0
    9.6268    6.3484   12.2179 C   0  0  0  0  0  0  0  0  0  0  0  0
   10.0947    5.2250   12.8743 C   0  0  0  0  0  0  0  0  0  0  0  0
   11.3023    4.6461   12.4901 C   0  0  0  0  0  0  0  0  0  0  0  0
    5.9335   10.3494   14.7102 C   0  0  0  0  0  0  0  0  0  0  0  0
    4.7000   10.9710   14.5056 O   0  0  0  0  0  0  0  0  0  0  0  0
    3.7153   10.1289   14.9572 C   0  0  0  0  0  0  0  0  0  0  0  0
    4.4235    9.3282   16.0176 C   0  0  0  0  0  0  0  0  0  0  0  0
    5.7722    9.5310   15.8284 O   0  0  0  0  0  0  0  0  0  0  0  0
 14 15  1  0  0  0
 15 16  2  0  0  0
 15 20  1  0  0  0
 16 17  1  0  0  0
 17 18  2  0  0  0
 18 19  1  0  0  0
 18  1  1  0  0  0
 19 20  2  0  0  0
  1  2  1  0  0  0
  1  9  1  0  0  0
  2  3  2  0  0  0
  2  4  1  0  0  0
  4  5  1  0  0  0
  4  8  1  0  0  0
  5  6  1  0  0  0
  5 12  1  0  0  0
  5 21  1  0  0  0
  6  7  1  0  0  0
  7  8  1  0  0  0
  7 11  1  0  0  0
  7 13  1  0  0  0
  8  9  1  0  0  0
  9 10  2  0  0  0
 11 12  2  0  0  0
 21 22  1  0  0  0
 21 25  1  0  0  0
 22 23  1  0  0  0
 23 24  1  0  0  0
 24 25  1  0  0  0
M  END
> <minimizedAffinity>
-8.29060

$$$$
2134


 36 39  0  0  0  0  0  0  0  0999 V2000
   13.1451    1.9719    9.6776 C   0  0  0  0  0  0  0  0  0  0  0  0
   14.3817    2.0705   10.1011 N   0  0  0  0  0  0  0  0  0  0  0  0
   14.5760    3.1594   10.9123 N   0  0  0  0  0  0  0  0  0  0  0  0
   13.3068    3.8082   11.0011 C   0  0  0  0  0  0  0  0  0  0  0  0
   12.9011    4.8729   11.6273 N   0  0  0  0  0  0  0  0  0  0  0  0
   11.5558    5.3203   11.5508 N   0  0  0  0  0  0  0  0  0  0  0  0
   10.5860    4.6384   10.7939 C   0  0  0  0  0  0  0  0  0  0  0  0
    9.3280    5.0491   10.7059 C   0  0  0  0  0  0  0  0  0  0  0  0
   11.0201    3.4395   10.0850 C   0  0  0  0  0  0  0  0  0  0  0  0
   10.1845    2.8245    9.4151 O   0  0  0  0  0  0  0  0  0  0  0  0
   12.3892    3.0526   10.2124 N   0  0  0  0  0  0  0  0  0  0  0  0
   11.3358    6.1865   12.0922 H   0  0  0  0  0  0  0  0  0  0  0  0
   15.8100    3.5716   11.4926 C   0  0  0  0  0  0  0  0  0  0  0  0
   17.0017    2.9952   11.1272 C   0  0  0  0  0  0  0  0  0  0  0  0
   18.2351    3.3868   11.6299 C   0  0  0  0  0  0  0  0  0  0  0  0
   18.3072    4.4113   12.5522 C   0  0  0  0  0  0  0  0  0  0  0  0
   17.1231    5.0038   12.9373 C   0  0  0  0  0  0  0  0  0  0  0  0
   15.8986    4.5889   12.4154 C   0  0  0  0  0  0  0  0  0  0  0  0
   19.6169    4.8899   13.0906 C   0  0  0  0  0  0  0  0  0  0  0  0
   11.5152    0.1751    9.1931 N   0  0  0  0  0  0  0  0  0  0  0  0
   12.6536    0.9221    8.8069 C   0  0  0  0  0  0  0  0  0  0  0  0
   13.2292    0.6531    7.7046 O   0  0  0  0  0  0  0  0  0  0  0  0
   10.9938    0.3607   10.0626 H   0  0  0  0  0  0  0  0  0  0  0  0
    9.3662   -2.2034    7.1728 N   0  0  0  0  0  0  0  0  0  0  0  0
    9.7418   -1.1537    8.0291 C   0  0  0  0  0  0  0  0  0  0  0  0
    8.8233   -0.4474    8.5265 O   0  0  0  0  0  0  0  0  0  0  0  0
   11.0761   -0.8457    8.3575 N   0  0  0  0  0  0  0  0  0  0  0  0
   10.1082   -2.8145    6.7490 H   0  0  0  0  0  0  0  0  0  0  0  0
   11.8696   -1.4403    7.9506 H   0  0  0  0  0  0  0  0  0  0  0  0
    3.8118   -3.6234    5.6564 Cl  0  0  0  0  0  0  0  0  0  0  0  0
    5.4607   -3.1505    6.0855 C   0  0  0  0  0  0  0  0  0  0  0  0
    5.9675   -1.9433    5.6793 C   0  0  0  0  0  0  0  0  0  0  0  0
    7.2614   -1.6506    6.0498 C   0  0  0  0  0  0  0  0  0  0  0  0
    8.0311   -2.5331    6.8040 C   0  0  0  0  0  0  0  0  0  0  0  0
    7.4732   -3.7431    7.1913 C   0  0  0  0  0  0  0  0  0  0  0  0
    6.1814   -4.0478    6.8267 C   0  0  0  0  0  0  0  0  0  0  0  0
 30 31  1  0  0  0
 31 32  2  0  0  0
 31 36  1  0  0  0
 32 33  1  0  0  0
 33 34  2  0  0  0
 34 35  1  0  0  0
 34 24  1  0  0  0
 35 36  2  0  0  0
 24 25  1  0  0  0
 25 26  2  0  0  0
 25 27  1  0  0  0
 27 20  1  0  0  0
 20 21  1  0  0  0
 21 22  2  0  0  0
 21  1  1  0  0  0
  1  2  2  0  0  0
  1 11  1  0  0  0
  2  3  1  0  0  0
  3  4  1  0  0  0
  3 13  1  0  0  0
  4  5  2  0  0  0
  4 11  1  0  0  0
  5  6  1  0  0  0
  6  7  1  0  0  0
  7  8  2  0  0  0
  7  9  1  0  0  0
  9 10  2  0  0  0
  9 11  1  0  0  0
 13 14  2  0  0  0
 13 18  1  0  0  0
 14 15  1  0  0  0
 15 16  2  0  0  0
 16 17  1  0  0  0
 16 19  1  0  0  0
 17 18  2  0  0  0
 24 28  1  0  0  0
 27 29  1  0  0  0
 20 23  1  0  0  0
  6 12  1  0  0  0
M  END
> <minimizedAffinity>
-10.32867

$$$$
2136


 33 37  0  0  0  0  0  0  0  0999 V2000
    7.5479    9.8428   11.0144 Cl  0  0  0  0  0  0  0  0  0  0  0  0
    7.7148    8.2985   11.8230 C   0  0  0  0  0  0  0  0  0  0  0  0
    8.7429    7.4202   11.5481 C   0  0  0  0  0  0  0  0  0  0  0  0
    8.8451    6.2009   12.2089 C   0  0  0  0  0  0  0  0  0  0  0  0
    7.8804    5.9232   13.1379 C   0  0  0  0  0  0  0  0  0  0  0  0
    6.8494    6.7857   13.4258 C   0  0  0  0  0  0  0  0  0  0  0  0
    6.7529    7.9795   12.7759 C   0  0  0  0  0  0  0  0  0  0  0  0
   10.0323    5.5050   11.6984 C   0  0  0  0  0  0  0  0  0  0  0  0
    9.7134    4.2113   11.1216 N   0  0  0  0  0  0  0  0  0  0  0  0
   11.0330    3.5794   11.0477 C   0  0  0  0  0  0  0  0  0  0  0  0
   11.7891    4.0269   12.2403 C   0  0  0  0  0  0  0  0  0  0  0  0
   10.9637    5.1305   12.8206 C   0  0  0  0  0  0  0  0  0  0  0  0
   11.8573    6.2227   13.2164 C   0  0  0  0  0  0  0  0  0  0  0  0
   11.5153    7.1721   13.9651 O   0  0  0  0  0  0  0  0  0  0  0  0
   13.1126    5.9704   12.5977 N   0  0  0  0  0  0  0  0  0  0  0  0
   13.0560    4.7562   11.8612 C   0  0  0  0  0  0  0  0  0  0  0  0
   13.8803    4.3004   11.0225 O   0  0  0  0  0  0  0  0  0  0  0  0
   10.6330    6.3856   10.6837 C   0  0  0  0  0  0  0  0  0  0  0  0
   11.6464    6.1987    9.9952 O   0  0  0  0  0  0  0  0  0  0  0  0
    9.8145    7.5450   10.6252 N   0  0  0  0  0  0  0  0  0  0  0  0
    9.2848    4.3040   10.1602 H   0  0  0  0  0  0  0  0  0  0  0  0
    9.9558    8.3852   10.0022 H   0  0  0  0  0  0  0  0  0  0  0  0
   14.2803    6.8407   12.7109 C   0  0  0  0  0  0  0  0  0  0  0  0
   14.3940    7.6402   11.4209 C   0  0  0  0  0  0  0  0  0  0  0  0
   15.5894    8.3400   11.3770 O   0  0  0  0  0  0  0  0  0  0  0  0
   16.6156    7.4774   11.0446 C   0  0  0  0  0  0  0  0  0  0  0  0
   10.9178    2.0855   10.9997 C   0  0  0  0  0  0  0  0  0  0  0  0
   11.6388    1.4502    9.8844 C   0  0  0  0  0  0  0  0  0  0  0  0
   10.9108    0.6202    9.0345 C   0  0  0  0  0  0  0  0  0  0  0  0
   11.5490    0.0306    7.9741 C   0  0  0  0  0  0  0  0  0  0  0  0
   12.8837    0.2203    7.7065 C   0  0  0  0  0  0  0  0  0  0  0  0
   13.5688    1.0477    8.5696 C   0  0  0  0  0  0  0  0  0  0  0  0
   12.9763    1.6662    9.6504 C   0  0  0  0  0  0  0  0  0  0  0  0
  1  2  1  0  0  0
  2  3  2  0  0  0
  2  7  1  0  0  0
  3  4  1  0  0  0
  3 20  1  0  0  0
  4  5  2  0  0  0
  4  8  1  0  0  0
  5  6  1  0  0  0
  6  7  2  0  0  0
  8  9  1  0  0  0
  8 12  1  0  0  0
  8 18  1  0  0  0
  9 10  1  0  0  0
 10 11  1  0  0  0
 10 27  1  0  0  0
 11 12  1  0  0  0
 11 16  1  0  0  0
 12 13  1  0  0  0
 13 14  2  0  0  0
 13 15  1  0  0  0
 15 16  1  0  0  0
 15 23  1  0  0  0
 16 17  2  0  0  0
 23 24  1  0  0  0
 24 25  1  0  0  0
 25 26  1  0  0  0
 27 28  1  0  0  0
 28 29  2  0  0  0
 28 33  1  0  0  0
 29 30  1  0  0  0
 30 31  2  0  0  0
 31 32  1  0  0  0
 32 33  2  0  0  0
 18 19  2  0  0  0
 18 20  1  0  0  0
  9 21  1  0  0  0
 20 22  1  0  0  0
M  END
> <minimizedAffinity>
-8.44555

$$$$
2139


 27 30  0  0  0  0  0  0  0  0999 V2000
   12.4823    4.3128   11.0376 N   0  0  0  0  0  0  0  0  0  0  0  0
   11.8462    4.7728    9.8680 C   0  0  0  0  0  0  0  0  0  0  0  0
   10.5980    5.5904   10.0611 C   0  0  0  0  0  0  0  0  0  0  0  0
   10.6810    6.1437   11.4383 N   0  0  0  0  0  0  0  0  0  0  0  0
   11.9829    6.5481   11.8128 C   0  0  0  0  0  0  0  0  0  0  0  0
   12.8028    5.2954   12.0341 C   0  0  0  0  0  0  0  0  0  0  0  0
    9.4714    6.2202   12.1607 C   0  0  0  0  0  0  0  0  0  0  0  0
    8.2866    6.0829   11.4926 N   0  0  0  0  0  0  0  0  0  0  0  0
    7.0836    6.1698   12.0456 C   0  0  0  0  0  0  0  0  0  0  0  0
    7.0015    6.4100   13.3651 N   0  0  0  0  0  0  0  0  0  0  0  0
    8.1404    6.5541   14.0795 C   0  0  0  0  0  0  0  0  0  0  0  0
    8.3645    6.7832   15.3866 N   0  0  0  0  0  0  0  0  0  0  0  0
    9.6788    6.8307   15.6052 C   0  0  0  0  0  0  0  0  0  0  0  0
   10.3425    6.6339   14.4523 N   0  0  0  0  0  0  0  0  0  0  0  0
    9.4088    6.4639   13.5028 C   0  0  0  0  0  0  0  0  0  0  0  0
    5.8707    6.0139   11.2793 N   0  0  0  0  0  0  0  0  0  0  0  0
   11.3817    6.6169   14.3716 H   0  0  0  0  0  0  0  0  0  0  0  0
    5.1758    6.7687   11.1966 H   0  0  0  0  0  0  0  0  0  0  0  0
    5.6826    5.1162   10.7905 H   0  0  0  0  0  0  0  0  0  0  0  0
   12.1435    3.0280   11.5152 C   0  0  0  0  0  0  0  0  0  0  0  0
   11.1020   -1.1787    7.3763 Cl  0  0  0  0  0  0  0  0  0  0  0  0
   11.3958    0.0531    8.5868 C   0  0  0  0  0  0  0  0  0  0  0  0
   10.3301    0.6841    9.1929 C   0  0  0  0  0  0  0  0  0  0  0  0
   10.6262    1.6521   10.1461 C   0  0  0  0  0  0  0  0  0  0  0  0
   11.9043    2.0006   10.5034 C   0  0  0  0  0  0  0  0  0  0  0  0
   12.9502    1.3594    9.8891 C   0  0  0  0  0  0  0  0  0  0  0  0
   12.6789    0.3995    8.9444 C   0  0  0  0  0  0  0  0  0  0  0  0
 21 22  1  0  0  0
 22 23  2  0  0  0
 22 27  1  0  0  0
 23 24  1  0  0  0
 24 25  2  0  0  0
 25 26  1  0  0  0
 25 20  1  0  0  0
 26 27  2  0  0  0
 20  1  1  0  0  0
  1  2  1  0  0  0
  1  6  1  0  0  0
  2  3  1  0  0  0
  3  4  1  0  0  0
  4  5  1  0  0  0
  4  7  1  0  0  0
  5  6  1  0  0  0
  7  8  2  0  0  0
  7 15  1  0  0  0
  8  9  1  0  0  0
  9 10  2  0  0  0
  9 16  1  0  0  0
 10 11  1  0  0  0
 11 12  1  0  0  0
 11 15  2  0  0  0
 12 13  2  0  0  0
 13 14  1  0  0  0
 14 15  1  0  0  0
 14 17  1  0  0  0
 16 18  1  0  0  0
 16 19  1  0  0  0
M  END
> <minimizedAffinity>
-8.60830

$$$$
2149


 24 27  0  0  0  0  0  0  0  0999 V2000
   11.9944    3.0709   11.1795 N   0  0  0  0  0  0  0  0  0  0  0  0
   11.6905    2.9249   12.4555 N   0  0  0  0  0  0  0  0  0  0  0  0
   10.9047    3.9000   12.8735 N   0  0  0  0  0  0  0  0  0  0  0  0
   10.6730    4.7250   11.8529 C   0  0  0  0  0  0  0  0  0  0  0  0
   11.3613    4.2024   10.7795 C   0  0  0  0  0  0  0  0  0  0  0  0
   11.2898    4.8570    9.6116 N   0  0  0  0  0  0  0  0  0  0  0  0
   10.5691    5.9855    9.4943 C   0  0  0  0  0  0  0  0  0  0  0  0
    9.9058    6.4767   10.5561 N   0  0  0  0  0  0  0  0  0  0  0  0
    9.9155    5.8878   11.7806 C   0  0  0  0  0  0  0  0  0  0  0  0
    9.2233    6.3972   12.8936 N   0  0  0  0  0  0  0  0  0  0  0  0
    9.7285    7.3223   13.8726 C   0  0  0  0  0  0  0  0  0  0  0  0
    8.8672    8.5302   13.8619 C   0  0  0  0  0  0  0  0  0  0  0  0
    7.6005    8.4366   13.2686 N   0  0  0  0  0  0  0  0  0  0  0  0
    6.9965    7.1883   13.0721 C   0  0  0  0  0  0  0  0  0  0  0  0
    7.8620    5.9862   13.1331 C   0  0  0  0  0  0  0  0  0  0  0  0
    7.6009    9.1747   12.0182 C   0  0  0  0  0  0  0  0  0  0  0  0
   12.8314    2.2201   10.3356 C   0  0  0  0  0  0  0  0  0  0  0  0
    9.4355   -1.8904    7.5527 Cl  0  0  0  0  0  0  0  0  0  0  0  0
   10.4120   -0.6787    8.3759 C   0  0  0  0  0  0  0  0  0  0  0  0
   11.7754   -0.6764    8.2217 C   0  0  0  0  0  0  0  0  0  0  0  0
   12.5286    0.2843    8.8769 C   0  0  0  0  0  0  0  0  0  0  0  0
   11.9439    1.2303    9.6731 C   0  0  0  0  0  0  0  0  0  0  0  0
   10.5782    1.2309    9.8293 C   0  0  0  0  0  0  0  0  0  0  0  0
    9.8314    0.2798    9.1814 C   0  0  0  0  0  0  0  0  0  0  0  0
 18 19  1  0  0  0
 19 20  2  0  0  0
 19 24  1  0  0  0
 20 21  1  0  0  0
 21 22  2  0  0  0
 22 23  1  0  0  0
 22 17  1  0  0  0
 23 24  2  0  0  0
 17  1  1  0  0  0
  1  2  1  0  0  0
  1  5  1  0  0  0
  2  3  2  0  0  0
  3  4  1  0  0  0
  4  5  2  0  0  0
  4  9  1  0  0  0
  5  6  1  0  0  0
  6  7  2  0  0  0
  7  8  1  0  0  0
  8  9  2  0  0  0
  9 10  1  0  0  0
 10 11  1  0  0  0
 10 15  1  0  0  0
 11 12  1  0  0  0
 12 13  1  0  0  0
 13 14  1  0  0  0
 13 16  1  0  0  0
 14 15  1  0  0  0
M  END
> <minimizedAffinity>
-8.29379

$$$$
2163


 31 34  0  0  0  0  0  0  0  0999 V2000
    9.7116    5.7872   11.1991 C   0  0  0  0  0  0  0  0  0  0  0  0
   10.9639    6.2552   11.3906 N   0  0  0  0  0  0  0  0  0  0  0  0
   11.1886    7.4808   11.8779 C   0  0  0  0  0  0  0  0  0  0  0  0
   10.1326    8.2526   12.1787 N   0  0  0  0  0  0  0  0  0  0  0  0
    8.8456    7.8462   12.0121 C   0  0  0  0  0  0  0  0  0  0  0  0
    8.6933    6.5890   11.5121 N   0  0  0  0  0  0  0  0  0  0  0  0
   12.5061    7.9735   12.0784 N   0  0  0  0  0  0  0  0  0  0  0  0
   13.5483    7.8248   11.0868 C   0  0  0  0  0  0  0  0  0  0  0  0
   14.8713    7.4401   11.7315 C   0  0  0  0  0  0  0  0  0  0  0  0
   15.1112    8.2253   12.8648 O   0  0  0  0  0  0  0  0  0  0  0  0
   14.1401    8.0490   13.8211 C   0  0  0  0  0  0  0  0  0  0  0  0
   12.8514    8.6533   13.3069 C   0  0  0  0  0  0  0  0  0  0  0  0
    7.7431    8.6600   12.3292 N   0  0  0  0  0  0  0  0  0  0  0  0
    7.3351    9.7313   11.4701 C   0  0  0  0  0  0  0  0  0  0  0  0
    7.2595   10.9900   12.3317 C   0  0  0  0  0  0  0  0  0  0  0  0
    6.3956   10.7137   13.3772 O   0  0  0  0  0  0  0  0  0  0  0  0
    6.8904    9.7735   14.2499 C   0  0  0  0  0  0  0  0  0  0  0  0
    7.0035    8.4268   13.5349 C   0  0  0  0  0  0  0  0  0  0  0  0
    9.4370    4.4902   10.6838 N   0  0  0  0  0  0  0  0  0  0  0  0
    8.4842    4.0498   10.8000 H   0  0  0  0  0  0  0  0  0  0  0  0
   10.5528    2.4722   10.1703 C   0  0  0  0  0  0  0  0  0  0  0  0
   10.3908    3.7305   10.0046 N   0  0  0  0  0  0  0  0  0  0  0  0
   15.6703    1.7632    8.8378 Br  0  0  0  0  0  0  0  0  0  0  0  0
   13.8241    1.2912    8.7976 C   0  0  0  0  0  0  0  0  0  0  0  0
   12.8863    2.0333    9.4807 C   0  0  0  0  0  0  0  0  0  0  0  0
   11.5554    1.6941    9.4514 C   0  0  0  0  0  0  0  0  0  0  0  0
   11.1837    0.5885    8.7177 C   0  0  0  0  0  0  0  0  0  0  0  0
   12.1248   -0.1734    8.0208 C   0  0  0  0  0  0  0  0  0  0  0  0
   13.4656    0.1741    8.0538 C   0  0  0  0  0  0  0  0  0  0  0  0
    9.8314    0.2674    8.7057 O   0  0  0  0  0  0  0  0  0  0  0  0
    9.3302   -1.0025    8.3587 C   0  0  0  0  0  0  0  0  0  0  0  0
 23 24  1  0  0  0
 24 25  2  0  0  0
 24 29  1  0  0  0
 25 26  1  0  0  0
 26 27  2  0  0  0
 26 21  1  0  0  0
 27 28  1  0  0  0
 27 30  1  0  0  0
 28 29  2  0  0  0
 30 31  1  0  0  0
 21 22  2  0  0  0
 22 19  1  0  0  0
 19  1  1  0  0  0
  1  2  2  0  0  0
  1  6  1  0  0  0
  2  3  1  0  0  0
  3  4  2  0  0  0
  3  7  1  0  0  0
  4  5  1  0  0  0
  5  6  2  0  0  0
  5 13  1  0  0  0
 13 14  1  0  0  0
 13 18  1  0  0  0
 14 15  1  0  0  0
 15 16  1  0  0  0
 16 17  1  0  0  0
 17 18  1  0  0  0
  7  8  1  0  0  0
  7 12  1  0  0  0
  8  9  1  0  0  0
  9 10  1  0  0  0
 10 11  1  0  0  0
 11 12  1  0  0  0
 19 20  1  0  0  0
M  END
> <minimizedAffinity>
-8.63674

$$$$
2164


 25 28  0  0  0  0  0  0  0  0999 V2000
   12.1278    4.9552   11.6049 C   0  0  0  0  0  0  0  0  0  0  0  0
   10.9690    4.8279   12.5593 C   0  0  0  0  0  0  0  0  0  0  0  0
   10.2718    5.9466   11.9076 N   0  0  0  0  0  0  0  0  0  0  0  0
   11.5572    6.3188   11.3461 C   0  0  0  0  0  0  0  0  0  0  0  0
    8.9208    6.3897   11.8949 C   0  0  0  0  0  0  0  0  0  0  0  0
    7.9219    5.6464   11.3517 N   0  0  0  0  0  0  0  0  0  0  0  0
    6.6322    6.0944   11.3529 C   0  0  0  0  0  0  0  0  0  0  0  0
    6.3102    7.2765   11.8871 N   0  0  0  0  0  0  0  0  0  0  0  0
    7.2409    8.0581   12.4374 C   0  0  0  0  0  0  0  0  0  0  0  0
    7.1745    9.2677   13.0284 N   0  0  0  0  0  0  0  0  0  0  0  0
    8.4018    9.5713   13.3911 N   0  0  0  0  0  0  0  0  0  0  0  0
    9.2473    8.5925   13.0490 N   0  0  0  0  0  0  0  0  0  0  0  0
    8.5439    7.6034   12.4350 C   0  0  0  0  0  0  0  0  0  0  0  0
    5.9951   10.1027   13.2419 C   0  0  0  0  0  0  0  0  0  0  0  0
   12.3985    2.6668   10.6159 N   0  0  0  0  0  0  0  0  0  0  0  0
   12.0572    4.0157   10.4320 C   0  0  0  0  0  0  0  0  0  0  0  0
   11.6920    4.5320    9.3658 O   0  0  0  0  0  0  0  0  0  0  0  0
   12.7044    2.3391   11.6044 H   0  0  0  0  0  0  0  0  0  0  0  0
    9.5834   -1.2078    8.3795 Br  0  0  0  0  0  0  0  0  0  0  0  0
   11.1442   -0.1247    8.5273 C   0  0  0  0  0  0  0  0  0  0  0  0
   11.2455    0.8638    9.4781 C   0  0  0  0  0  0  0  0  0  0  0  0
   12.3801    1.6779    9.6134 C   0  0  0  0  0  0  0  0  0  0  0  0
   13.4015    1.4382    8.7375 C   0  0  0  0  0  0  0  0  0  0  0  0
   13.2895    0.4314    7.7757 C   0  0  0  0  0  0  0  0  0  0  0  0
   12.1786   -0.3426    7.6667 C   0  0  0  0  0  0  0  0  0  0  0  0
 19 20  1  0  0  0
 20 21  2  0  0  0
 20 25  1  0  0  0
 21 22  1  0  0  0
 22 23  2  0  0  0
 22 15  1  0  0  0
 23 24  1  0  0  0
 24 25  2  0  0  0
 15 16  1  0  0  0
 16 17  2  0  0  0
 16  1  1  0  0  0
  1  2  1  0  0  0
  1  4  1  0  0  0
  2  3  1  0  0  0
  3  4  1  0  0  0
  3  5  1  0  0  0
  5  6  2  0  0  0
  5 13  1  0  0  0
  6  7  1  0  0  0
  7  8  2  0  0  0
  8  9  1  0  0  0
  9 10  1  0  0  0
  9 13  2  0  0  0
 10 11  1  0  0  0
 10 14  1  0  0  0
 11 12  2  0  0  0
 12 13  1  0  0  0
 15 18  1  0  0  0
M  END
> <minimizedAffinity>
-8.59800

$$$$
2170


 32 36  0  0  0  0  0  0  0  0999 V2000
   12.8658    5.9869   12.0090 N   0  0  0  0  0  0  0  0  0  0  0  0
   14.1062    6.4265   12.0116 N   0  0  0  0  0  0  0  0  0  0  0  0
   14.1640    7.7535   12.1938 C   0  0  0  0  0  0  0  0  0  0  0  0
   15.4363    8.1815   12.1918 N   0  0  0  0  0  0  0  0  0  0  0  0
   16.2539    7.1231   12.0032 C   0  0  0  0  0  0  0  0  0  0  0  0
   15.3989    6.0211   11.8912 C   0  0  0  0  0  0  0  0  0  0  0  0
   16.0276    4.8118   11.6826 C   0  0  0  0  0  0  0  0  0  0  0  0
   15.2933    3.7846   11.5712 O   0  0  0  0  0  0  0  0  0  0  0  0
   17.3768    4.6690   11.5911 N   0  0  0  0  0  0  0  0  0  0  0  0
   18.1269    5.7748   11.7113 C   0  0  0  0  0  0  0  0  0  0  0  0
   19.3893    5.6195   11.6225 O   0  0  0  0  0  0  0  0  0  0  0  0
   17.5870    6.9848   11.9129 N   0  0  0  0  0  0  0  0  0  0  0  0
   18.4476    8.1310   12.0313 C   0  0  0  0  0  0  0  0  0  0  0  0
   17.9574    3.3636   11.3734 C   0  0  0  0  0  0  0  0  0  0  0  0
   12.8716    8.1516   12.3079 N   0  0  0  0  0  0  0  0  0  0  0  0
   12.0697    7.0841   12.1959 C   0  0  0  0  0  0  0  0  0  0  0  0
   10.6470    7.0381   12.2529 N   0  0  0  0  0  0  0  0  0  0  0  0
    9.8215    7.4855   11.1439 C   0  0  0  0  0  0  0  0  0  0  0  0
    8.6272    8.2040   11.7220 C   0  0  0  0  0  0  0  0  0  0  0  0
    7.9525    7.3656   12.6238 O   0  0  0  0  0  0  0  0  0  0  0  0
    8.6905    7.1435   13.7656 C   0  0  0  0  0  0  0  0  0  0  0  0
   10.0054    6.5297   13.4364 C   0  0  0  0  0  0  0  0  0  0  0  0
   12.3499    4.6479   11.8432 C   0  0  0  0  0  0  0  0  0  0  0  0
   12.0538    4.2970   10.4431 C   0  0  0  0  0  0  0  0  0  0  0  0
   11.9687    5.1538    9.5352 O   0  0  0  0  0  0  0  0  0  0  0  0
   11.1509   -1.5145    9.0954 Cl  0  0  0  0  0  0  0  0  0  0  0  0
   11.4264    0.1742    9.4875 C   0  0  0  0  0  0  0  0  0  0  0  0
   12.7032    0.6645    9.7266 C   0  0  0  0  0  0  0  0  0  0  0  0
   12.8986    1.9962   10.0336 C   0  0  0  0  0  0  0  0  0  0  0  0
   11.8529    2.8908   10.1179 C   0  0  0  0  0  0  0  0  0  0  0  0
   10.5715    2.3822    9.8739 C   0  0  0  0  0  0  0  0  0  0  0  0
   10.3669    1.0539    9.5660 C   0  0  0  0  0  0  0  0  0  0  0  0
 26 27  1  0  0  0
 27 28  2  0  0  0
 27 32  1  0  0  0
 28 29  1  0  0  0
 29 30  2  0  0  0
 30 31  1  0  0  0
 30 24  1  0  0  0
 31 32  2  0  0  0
 24 25  2  0  0  0
 24 23  1  0  0  0
 23  1  1  0  0  0
  1  2  1  0  0  0
  1 16  1  0  0  0
  2  3  1  0  0  0
  2  6  1  0  0  0
  3  4  2  0  0  0
  3 15  1  0  0  0
  4  5  1  0  0  0
  5  6  2  0  0  0
  5 12  1  0  0  0
  6  7  1  0  0  0
  7  8  2  0  0  0
  7  9  1  0  0  0
  9 10  1  0  0  0
  9 14  1  0  0  0
 10 11  2  0  0  0
 10 12  1  0  0  0
 12 13  1  0  0  0
 15 16  2  0  0  0
 16 17  1  0  0  0
 17 18  1  0  0  0
 17 22  1  0  0  0
 18 19  1  0  0  0
 19 20  1  0  0  0
 20 21  1  0  0  0
 21 22  1  0  0  0
M  END
> <minimizedAffinity>
-8.82694

$$$$
2177


 31 35  0  0  0  0  0  0  0  0999 V2000
   10.7008    6.6361   12.7442 N   0  0  0  0  0  0  0  0  0  0  0  0
   10.4342    7.8993   12.0983 C   0  0  0  0  0  0  0  0  0  0  0  0
    9.1625    7.7614   11.3022 C   0  0  0  0  0  0  0  0  0  0  0  0
    8.1037    7.0855   12.0257 N   0  0  0  0  0  0  0  0  0  0  0  0
    8.4048    5.8377   12.6985 C   0  0  0  0  0  0  0  0  0  0  0  0
    9.6473    6.0320   13.5279 C   0  0  0  0  0  0  0  0  0  0  0  0
   12.4907   -0.7680    8.1791 Cl  0  0  0  0  0  0  0  0  0  0  0  0
   12.0706    0.6973    9.0719 C   0  0  0  0  0  0  0  0  0  0  0  0
   13.0614    1.4154    9.7039 C   0  0  0  0  0  0  0  0  0  0  0  0
   12.7680    2.5588   10.4066 C   0  0  0  0  0  0  0  0  0  0  0  0
   11.4731    3.0269   10.5020 C   0  0  0  0  0  0  0  0  0  0  0  0
   10.4944    2.2950    9.8635 C   0  0  0  0  0  0  0  0  0  0  0  0
   10.7726    1.1478    9.1564 C   0  0  0  0  0  0  0  0  0  0  0  0
   11.2326    4.2140   11.2416 N   0  0  0  0  0  0  0  0  0  0  0  0
   12.2458    4.9668   11.9005 C   0  0  0  0  0  0  0  0  0  0  0  0
   11.9901    6.0625   12.5767 C   0  0  0  0  0  0  0  0  0  0  0  0
   13.5808    4.4936   11.8066 N   0  0  0  0  0  0  0  0  0  0  0  0
   13.8422    3.3179   11.0779 C   0  0  0  0  0  0  0  0  0  0  0  0
   15.0141    2.8341   10.9517 O   0  0  0  0  0  0  0  0  0  0  0  0
   10.2580    4.5747   11.3193 H   0  0  0  0  0  0  0  0  0  0  0  0
   14.3794    4.9906   12.2622 H   0  0  0  0  0  0  0  0  0  0  0  0
    6.7923    7.6519   12.0643 C   0  0  0  0  0  0  0  0  0  0  0  0
    6.0379    7.6203   10.9481 N   0  0  0  0  0  0  0  0  0  0  0  0
    4.7820    8.1489   10.9408 C   0  0  0  0  0  0  0  0  0  0  0  0
    4.2661    8.7172   12.0528 N   0  0  0  0  0  0  0  0  0  0  0  0
    4.9660    8.7784   13.1904 C   0  0  0  0  0  0  0  0  0  0  0  0
    4.7031    9.2746   14.4130 N   0  0  0  0  0  0  0  0  0  0  0  0
    5.7688    9.0599   15.1636 N   0  0  0  0  0  0  0  0  0  0  0  0
    6.7315    8.4240   14.4382 C   0  0  0  0  0  0  0  0  0  0  0  0
    6.2507    8.2322   13.1808 C   0  0  0  0  0  0  0  0  0  0  0  0
    3.4736    9.9356   14.8612 C   0  0  0  0  0  0  0  0  0  0  0  0
  7  8  1  0  0  0
  8  9  2  0  0  0
  8 13  1  0  0  0
  9 10  1  0  0  0
 10 11  2  0  0  0
 10 18  1  0  0  0
 11 12  1  0  0  0
 11 14  1  0  0  0
 12 13  2  0  0  0
 14 15  1  0  0  0
 15 16  2  0  0  0
 15 17  1  0  0  0
 16  1  1  0  0  0
  1  2  1  0  0  0
  1  6  1  0  0  0
  2  3  1  0  0  0
  3  4  1  0  0  0
  4  5  1  0  0  0
  4 22  1  0  0  0
  5  6  1  0  0  0
 22 23  2  0  0  0
 22 30  1  0  0  0
 23 24  1  0  0  0
 24 25  2  0  0  0
 25 26  1  0  0  0
 26 27  1  0  0  0
 26 30  2  0  0  0
 27 28  1  0  0  0
 27 31  1  0  0  0
 28 29  2  0  0  0
 29 30  1  0  0  0
 17 18  1  0  0  0
 18 19  2  0  0  0
 14 20  1  0  0  0
 17 21  1  0  0  0
M  END
> <minimizedAffinity>
-9.96692

$$$$
2184


 29 32  0  0  0  0  0  0  0  0999 V2000
   12.3685    4.5878   11.4564 N   0  0  0  0  0  0  0  0  0  0  0  0
   11.7316    5.2833   12.4665 C   0  0  0  0  0  0  0  0  0  0  0  0
   11.3768    6.7358   11.9950 C   0  0  0  0  0  0  0  0  0  0  0  0
   10.2483    6.3683   11.0124 N   0  0  0  0  0  0  0  0  0  0  0  0
   10.7320    5.7076    9.9010 C   0  0  0  0  0  0  0  0  0  0  0  0
   12.2112    5.3761   10.1995 C   0  0  0  0  0  0  0  0  0  0  0  0
   13.4226    4.6782   11.6231 H   0  0  0  0  0  0  0  0  0  0  0  0
    8.9721    6.7242   11.4998 C   0  0  0  0  0  0  0  0  0  0  0  0
    7.9764    5.8784   11.8443 C   0  0  0  0  0  0  0  0  0  0  0  0
    6.8259    6.3237   12.5562 C   0  0  0  0  0  0  0  0  0  0  0  0
    6.6742    7.6333   12.9260 C   0  0  0  0  0  0  0  0  0  0  0  0
    7.6901    8.5142   12.5686 C   0  0  0  0  0  0  0  0  0  0  0  0
    8.8046    8.0718   11.8717 C   0  0  0  0  0  0  0  0  0  0  0  0
    5.5330    8.0198   13.6176 O   0  0  0  0  0  0  0  0  0  0  0  0
    4.5650    8.8928   13.0152 C   0  0  0  0  0  0  0  0  0  0  0  0
   12.1503    3.2474   11.1276 C   0  0  0  0  0  0  0  0  0  0  0  0
    8.7873   -0.1184    9.1219 Cl  0  0  0  0  0  0  0  0  0  0  0  0
   10.5035    0.2660    8.9507 C   0  0  0  0  0  0  0  0  0  0  0  0
   11.1397    1.2400    9.6728 C   0  0  0  0  0  0  0  0  0  0  0  0
   12.4662    1.4562    9.5351 C   0  0  0  0  0  0  0  0  0  0  0  0
   13.2183    0.7090    8.6716 C   0  0  0  0  0  0  0  0  0  0  0  0
   12.5635   -0.2971    7.9212 C   0  0  0  0  0  0  0  0  0  0  0  0
   11.2217   -0.5235    8.0463 C   0  0  0  0  0  0  0  0  0  0  0  0
   10.5943   -1.5197    7.2648 O   0  0  0  0  0  0  0  0  0  0  0  0
   14.5031    0.8713    8.5314 O   0  0  0  0  0  0  0  0  0  0  0  0
   15.1396    1.7933    9.2448 C   0  0  0  0  0  0  0  0  0  0  0  0
   16.3603    1.9296    9.0956 O   0  0  0  0  0  0  0  0  0  0  0  0
   14.4381    2.6048   10.1592 C   0  0  0  0  0  0  0  0  0  0  0  0
   13.1043    2.4638   10.3259 C   0  0  0  0  0  0  0  0  0  0  0  0
 17 18  1  0  0  0
 18 19  2  0  0  0
 18 23  1  0  0  0
 19 20  1  0  0  0
 20 21  2  0  0  0
 20 29  1  0  0  0
 21 22  1  0  0  0
 21 25  1  0  0  0
 22 23  2  0  0  0
 23 24  1  0  0  0
 25 26  1  0  0  0
 26 27  2  0  0  0
 26 28  1  0  0  0
 28 29  2  0  0  0
 29 16  1  0  0  0
 16  1  1  0  0  0
  1  2  1  0  0  0
  1  6  1  0  0  0
  2  3  1  0  0  0
  3  4  1  0  0  0
  4  5  1  0  0  0
  4  8  1  0  0  0
  5  6  1  0  0  0
  8  9  2  0  0  0
  8 13  1  0  0  0
  9 10  1  0  0  0
 10 11  2  0  0  0
 11 12  1  0  0  0
 11 14  1  0  0  0
 12 13  2  0  0  0
 14 15  1  0  0  0
  1  7  1  0  0  0
M  CHG 1   1   1
M  CHG 1  24  -1
M  END
> <minimizedAffinity>
-9.66574

$$$$
2195


 29 32  0  0  0  0  0  0  0  0999 V2000
   13.1473    5.8889   12.0143 C   0  0  0  0  0  0  0  0  0  0  0  0
   13.0662    4.6456   11.5449 N   0  0  0  0  0  0  0  0  0  0  0  0
   12.0553    4.2508   10.7515 C   0  0  0  0  0  0  0  0  0  0  0  0
   11.7368    3.0726   10.1484 N   0  0  0  0  0  0  0  0  0  0  0  0
   10.6181    3.2836    9.4879 N   0  0  0  0  0  0  0  0  0  0  0  0
   10.2002    4.5271    9.6307 N   0  0  0  0  0  0  0  0  0  0  0  0
   11.0710    5.1706   10.4161 C   0  0  0  0  0  0  0  0  0  0  0  0
   11.1428    6.4669   10.8969 C   0  0  0  0  0  0  0  0  0  0  0  0
   12.1894    6.7592   11.6804 N   0  0  0  0  0  0  0  0  0  0  0  0
   10.1686    7.4008   10.5730 O   0  0  0  0  0  0  0  0  0  0  0  0
   10.0141    7.6575    9.6099 H   0  0  0  0  0  0  0  0  0  0  0  0
   16.6269    6.0044   12.2293 N   0  0  0  0  0  0  0  0  0  0  0  0
   15.4694    5.5463   12.8543 C   0  0  0  0  0  0  0  0  0  0  0  0
   14.2549    6.3633   12.8884 C   0  0  0  0  0  0  0  0  0  0  0  0
   14.5539    7.7996   12.5446 C   0  0  0  0  0  0  0  0  0  0  0  0
   15.2990    7.8342   11.2585 C   0  0  0  0  0  0  0  0  0  0  0  0
   16.6145    7.1275   11.4138 C   0  0  0  0  0  0  0  0  0  0  0  0
   17.7772    4.8037   11.9020 S   0  0  0  0  0  0  0  0  0  0  0  0
   18.5698    4.4055   13.0973 O   0  0  0  0  0  0  0  0  0  0  0  0
   18.6890    5.3135   10.8046 O   0  0  0  0  0  0  0  0  0  0  0  0
   16.9964    3.3324   11.2219 C   0  0  0  0  0  0  0  0  0  0  0  0
   12.4789    1.8530   10.2251 C   0  0  0  0  0  0  0  0  0  0  0  0
   11.9893    0.8001    9.3029 C   0  0  0  0  0  0  0  0  0  0  0  0
   12.7704    0.4560    8.2286 C   0  0  0  0  0  0  0  0  0  0  0  0
   12.3859   -0.5219    7.3140 C   0  0  0  0  0  0  0  0  0  0  0  0
   11.1846   -1.1786    7.4738 C   0  0  0  0  0  0  0  0  0  0  0  0
   10.3955   -0.8390    8.5501 C   0  0  0  0  0  0  0  0  0  0  0  0
   10.7903    0.1408    9.4585 C   0  0  0  0  0  0  0  0  0  0  0  0
   14.3083    1.2517    7.9667 Cl  0  0  0  0  0  0  0  0  0  0  0  0
 18 19  2  0  0  0
 18 20  2  0  0  0
 18 12  1  0  0  0
 18 21  1  0  0  0
 12 13  1  0  0  0
 12 17  1  0  0  0
 13 14  1  0  0  0
 14 15  1  0  0  0
 14  1  1  0  0  0
 15 16  1  0  0  0
 16 17  1  0  0  0
  1  2  2  0  0  0
  1  9  1  0  0  0
  2  3  1  0  0  0
  3  4  1  0  0  0
  3  7  2  0  0  0
  4  5  1  0  0  0
  4 22  1  0  0  0
  5  6  2  0  0  0
  6  7  1  0  0  0
  7  8  1  0  0  0
  8  9  2  0  0  0
  8 10  1  0  0  0
 22 23  1  0  0  0
 23 24  2  0  0  0
 23 28  1  0  0  0
 24 25  1  0  0  0
 24 29  1  0  0  0
 25 26  2  0  0  0
 26 27  1  0  0  0
 27 28  2  0  0  0
 10 11  1  0  0  0
M  END
> <minimizedAffinity>
-9.19789

$$$$
2197


 28 31  0  0  0  0  0  0  0  0999 V2000
   12.0561    2.9394   11.6514 N   0  0  0  0  0  0  0  0  0  0  0  0
   11.5110    4.0176   12.5018 C   0  0  0  0  0  0  0  0  0  0  0  0
   11.9432    5.3066   11.9075 C   0  0  0  0  0  0  0  0  0  0  0  0
   13.2323    5.4596   11.5538 O   0  0  0  0  0  0  0  0  0  0  0  0
   14.0287    4.3892   11.4165 C   0  0  0  0  0  0  0  0  0  0  0  0
   13.4617    3.0602   11.7786 C   0  0  0  0  0  0  0  0  0  0  0  0
   11.5739    6.3797   12.8767 C   0  0  0  0  0  0  0  0  0  0  0  0
   12.5176    7.0277   13.4031 O   0  0  0  0  0  0  0  0  0  0  0  0
   10.2569    6.7160   13.2408 N   0  0  0  0  0  0  0  0  0  0  0  0
    9.0727    6.0597   12.7196 C   0  0  0  0  0  0  0  0  0  0  0  0
    7.8795    6.6369   13.4550 C   0  0  0  0  0  0  0  0  0  0  0  0
    7.7320    8.0654   13.2479 N   0  0  0  0  0  0  0  0  0  0  0  0
    8.9846    8.7115   13.4791 C   0  0  0  0  0  0  0  0  0  0  0  0
    9.9746    7.7908   14.2042 C   0  0  0  0  0  0  0  0  0  0  0  0
    7.1667    8.2751   11.9543 C   0  0  0  0  0  0  0  0  0  0  0  0
    5.7536    7.7777   11.8190 C   0  0  0  0  0  0  0  0  0  0  0  0
    5.0160    8.3823   10.6252 C   0  0  0  0  0  0  0  0  0  0  0  0
    4.5891    8.6381   12.0369 C   0  0  0  0  0  0  0  0  0  0  0  0
   11.3602    2.9481   10.1185 S   0  0  0  0  0  0  0  0  0  0  0  0
    9.9566    3.5528   10.2571 O   0  0  0  0  0  0  0  0  0  0  0  0
   12.0583    3.8661    9.1447 O   0  0  0  0  0  0  0  0  0  0  0  0
   11.1209    1.3669    9.4466 C   0  0  0  0  0  0  0  0  0  0  0  0
   12.1261    0.6988    8.7824 C   0  0  0  0  0  0  0  0  0  0  0  0
   11.9275   -0.5355    8.1939 C   0  0  0  0  0  0  0  0  0  0  0  0
   10.6927   -1.1298    8.2684 C   0  0  0  0  0  0  0  0  0  0  0  0
    9.6689   -0.4731    8.9354 C   0  0  0  0  0  0  0  0  0  0  0  0
    9.8710    0.7483    9.5138 C   0  0  0  0  0  0  0  0  0  0  0  0
   13.7693    1.3646    8.7244 Cl  0  0  0  0  0  0  0  0  0  0  0  0
 19 20  2  0  0  0
 19 21  2  0  0  0
 19  1  1  0  0  0
 19 22  1  0  0  0
  1  2  1  0  0  0
  1  6  1  0  0  0
  2  3  1  0  0  0
  3  4  1  0  0  0
  3  7  1  0  0  0
  4  5  1  0  0  0
  5  6  1  0  0  0
  7  8  2  0  0  0
  7  9  1  0  0  0
  9 10  1  0  0  0
  9 14  1  0  0  0
 10 11  1  0  0  0
 11 12  1  0  0  0
 12 13  1  0  0  0
 12 15  1  0  0  0
 13 14  1  0  0  0
 15 16  1  0  0  0
 16 17  1  0  0  0
 16 18  1  0  0  0
 17 18  1  0  0  0
 22 23  2  0  0  0
 22 27  1  0  0  0
 23 24  1  0  0  0
 23 28  1  0  0  0
 24 25  2  0  0  0
 25 26  1  0  0  0
 26 27  2  0  0  0
M  END
> <minimizedAffinity>
-8.32665

$$$$
2210


 33 36  0  0  0  0  0  0  0  0999 V2000
   16.9388    2.8365   10.3447 C   0  0  0  0  0  0  0  0  0  0  0  0
   15.6790    2.4092   10.1893 C   0  0  0  0  0  0  0  0  0  0  0  0
   14.5840    2.9606   10.8445 O   0  0  0  0  0  0  0  0  0  0  0  0
   13.4256    2.2924   10.4245 C   0  0  0  0  0  0  0  0  0  0  0  0
   13.6912    1.3114    9.5191 C   0  0  0  0  0  0  0  0  0  0  0  0
   12.6939    0.5473    8.9596 C   0  0  0  0  0  0  0  0  0  0  0  0
   11.3687    0.7702    9.3179 C   0  0  0  0  0  0  0  0  0  0  0  0
   11.1034    1.7762   10.2485 C   0  0  0  0  0  0  0  0  0  0  0  0
   12.0917    2.5257   10.8002 C   0  0  0  0  0  0  0  0  0  0  0  0
    9.7523    1.9358   10.5550 O   0  0  0  0  0  0  0  0  0  0  0  0
   15.1725    1.3518    9.3399 C   0  0  0  0  0  0  0  0  0  0  0  0
   15.8470    0.6165    8.6071 O   0  0  0  0  0  0  0  0  0  0  0  0
   15.7073    7.8419   11.5905 Br  0  0  0  0  0  0  0  0  0  0  0  0
   16.6569    6.2163   11.8821 C   0  0  0  0  0  0  0  0  0  0  0  0
   16.4196    5.1122   11.0456 C   0  0  0  0  0  0  0  0  0  0  0  0
   17.1023    3.9705   11.2707 C   0  0  0  0  0  0  0  0  0  0  0  0
   18.0222    3.8636   12.2899 C   0  0  0  0  0  0  0  0  0  0  0  0
   18.2458    4.9790   13.1102 C   0  0  0  0  0  0  0  0  0  0  0  0
   17.5617    6.1619   12.9129 C   0  0  0  0  0  0  0  0  0  0  0  0
   18.7095    2.6747   12.4856 O   0  0  0  0  0  0  0  0  0  0  0  0
   20.0773    2.5311   12.6493 C   0  0  0  0  0  0  0  0  0  0  0  0
   11.9068    3.4689   11.9238 C   0  0  0  0  0  0  0  0  0  0  0  0
   11.8950    4.8021   11.5421 N   0  0  0  0  0  0  0  0  0  0  0  0
   11.7019    4.9654   10.0667 C   0  0  0  0  0  0  0  0  0  0  0  0
   10.5801    6.0276    9.9516 C   0  0  0  0  0  0  0  0  0  0  0  0
   10.4273    6.6905   11.2080 N   0  0  0  0  0  0  0  0  0  0  0  0
   11.6213    7.1323   11.8144 C   0  0  0  0  0  0  0  0  0  0  0  0
   12.6083    5.8988   12.0020 C   0  0  0  0  0  0  0  0  0  0  0  0
   10.8127    5.0335   11.8434 H   0  0  0  0  0  0  0  0  0  0  0  0
    9.1667    6.8393   11.7418 C   0  0  0  0  0  0  0  0  0  0  0  0
    8.2140    5.6869   11.7721 C   0  0  0  0  0  0  0  0  0  0  0  0
    7.0908    5.9406   10.9683 O   0  0  0  0  0  0  0  0  0  0  0  0
    6.8678    5.1002   10.4485 H   0  0  0  0  0  0  0  0  0  0  0  0
 13 14  1  0  0  0
 14 15  2  0  0  0
 14 19  1  0  0  0
 15 16  1  0  0  0
 16 17  2  0  0  0
 16  1  1  0  0  0
 17 18  1  0  0  0
 17 20  1  0  0  0
 18 19  2  0  0  0
 20 21  1  0  0  0
  1  2  2  0  0  0
  2  3  1  0  0  0
  2 11  1  0  0  0
  3  4  1  0  0  0
  4  5  2  0  0  0
  4  9  1  0  0  0
  5  6  1  0  0  0
  5 11  1  0  0  0
  6  7  2  0  0  0
  7  8  1  0  0  0
  8  9  2  0  0  0
  8 10  1  0  0  0
  9 22  1  0  0  0
 22 23  1  0  0  0
 23 24  1  0  0  0
 23 28  1  0  0  0
 24 25  1  0  0  0
 25 26  1  0  0  0
 26 27  1  0  0  0
 26 30  1  0  0  0
 27 28  1  0  0  0
 30 31  1  0  0  0
 31 32  1  0  0  0
 11 12  2  0  0  0
 23 29  1  0  0  0
 32 33  1  0  0  0
M  CHG 1  10  -1
M  CHG 1  23   1
M  END
> <minimizedAffinity>
-8.42936

$$$$
2213


 31 34  0  0  0  0  0  0  0  0999 V2000
    2.8061    9.7355   14.9951 Cl  0  0  0  0  0  0  0  0  0  0  0  0
    4.0892    8.9842   14.0723 C   0  0  0  0  0  0  0  0  0  0  0  0
    5.1592    8.4092   14.7740 C   0  0  0  0  0  0  0  0  0  0  0  0
    6.1796    7.8140   14.0797 C   0  0  0  0  0  0  0  0  0  0  0  0
    6.0887    7.8156   12.6833 C   0  0  0  0  0  0  0  0  0  0  0  0
    5.0333    8.3836   12.0053 C   0  0  0  0  0  0  0  0  0  0  0  0
    4.0013    8.9855   12.7017 C   0  0  0  0  0  0  0  0  0  0  0  0
    4.9422    8.3728   10.2484 Cl  0  0  0  0  0  0  0  0  0  0  0  0
    7.3392    7.1872   14.7319 C   0  0  0  0  0  0  0  0  0  0  0  0
    7.2425    7.2912   16.1977 C   0  0  0  0  0  0  0  0  0  0  0  0
    6.2205    7.8869   16.8675 C   0  0  0  0  0  0  0  0  0  0  0  0
    6.1796    7.9564   18.2301 N   0  0  0  0  0  0  0  0  0  0  0  0
    7.1904    7.4138   18.9044 C   0  0  0  0  0  0  0  0  0  0  0  0
    7.1965    7.4543   20.1753 O   0  0  0  0  0  0  0  0  0  0  0  0
    8.2242    6.8132   18.2809 N   0  0  0  0  0  0  0  0  0  0  0  0
    8.2741    6.7384   16.9463 C   0  0  0  0  0  0  0  0  0  0  0  0
    9.2377    6.1783   16.3639 O   0  0  0  0  0  0  0  0  0  0  0  0
    9.2992    6.2361   19.0757 C   0  0  0  0  0  0  0  0  0  0  0  0
    5.0766    8.5988   18.9118 C   0  0  0  0  0  0  0  0  0  0  0  0
    5.1907    8.4391   16.1556 O   0  0  0  0  0  0  0  0  0  0  0  0
    8.6292    7.7614   14.2234 C   0  0  0  0  0  0  0  0  0  0  0  0
    9.0312    9.0369   14.5373 C   0  0  0  0  0  0  0  0  0  0  0  0
   10.1734    9.5813   14.0895 N   0  0  0  0  0  0  0  0  0  0  0  0
   10.9613    8.8354   13.2913 C   0  0  0  0  0  0  0  0  0  0  0  0
   12.0355    9.3590   12.8736 O   0  0  0  0  0  0  0  0  0  0  0  0
   10.6064    7.5821   12.9579 N   0  0  0  0  0  0  0  0  0  0  0  0
    9.4710    7.0202   13.3958 C   0  0  0  0  0  0  0  0  0  0  0  0
    9.1141    5.8541   13.1024 O   0  0  0  0  0  0  0  0  0  0  0  0
   11.4849    6.8232   12.0977 C   0  0  0  0  0  0  0  0  0  0  0  0
   10.5725   10.9305   14.4424 C   0  0  0  0  0  0  0  0  0  0  0  0
    8.2228    9.8000   15.3547 O   0  0  0  0  0  0  0  0  0  0  0  0
  1  2  1  0  0  0
  2  3  2  0  0  0
  2  7  1  0  0  0
  3  4  1  0  0  0
  3 20  1  0  0  0
  4  5  2  0  0  0
  4  9  1  0  0  0
  5  6  1  0  0  0
  6  7  2  0  0  0
  6  8  1  0  0  0
  9 10  1  0  0  0
  9 21  1  0  0  0
 10 11  2  0  0  0
 10 16  1  0  0  0
 11 12  1  0  0  0
 11 20  1  0  0  0
 12 13  1  0  0  0
 12 19  1  0  0  0
 13 14  2  0  0  0
 13 15  1  0  0  0
 15 16  1  0  0  0
 15 18  1  0  0  0
 16 17  2  0  0  0
 21 22  2  0  0  0
 21 27  1  0  0  0
 22 23  1  0  0  0
 22 31  1  0  0  0
 23 24  1  0  0  0
 23 30  1  0  0  0
 24 25  2  0  0  0
 24 26  1  0  0  0
 26 27  1  0  0  0
 26 29  1  0  0  0
 27 28  2  0  0  0
M  CHG 1  31  -1
M  END
> <minimizedAffinity>
-7.69778

$$$$
2214


 34 38  0  0  0  0  0  0  0  0999 V2000
   14.8592    0.9977    7.5853 Cl  0  0  0  0  0  0  0  0  0  0  0  0
   13.6310    1.4571    8.7452 C   0  0  0  0  0  0  0  0  0  0  0  0
   13.6412    2.6698    9.3790 C   0  0  0  0  0  0  0  0  0  0  0  0
   12.6409    2.9956   10.2986 C   0  0  0  0  0  0  0  0  0  0  0  0
   11.6667    2.0728   10.5380 C   0  0  0  0  0  0  0  0  0  0  0  0
   11.6537    0.8272    9.8889 C   0  0  0  0  0  0  0  0  0  0  0  0
   12.6319    0.5085    8.9902 C   0  0  0  0  0  0  0  0  0  0  0  0
   10.7607    2.6050   11.4993 N   0  0  0  0  0  0  0  0  0  0  0  0
   11.1767    3.8962   11.8732 C   0  0  0  0  0  0  0  0  0  0  0  0
   10.5667    4.6231   12.7197 O   0  0  0  0  0  0  0  0  0  0  0  0
   12.3953    4.1966   11.1146 C   0  0  0  0  0  0  0  0  0  0  0  0
   13.5512    4.3633   11.9675 N   0  0  0  0  0  0  0  0  0  0  0  0
   14.0374    5.7033   11.8764 C   0  0  0  0  0  0  0  0  0  0  0  0
   13.0141    6.4457   11.1122 C   0  0  0  0  0  0  0  0  0  0  0  0
   12.2666    5.4452   10.2750 C   0  0  0  0  0  0  0  0  0  0  0  0
   10.8918    5.9916   10.2699 C   0  0  0  0  0  0  0  0  0  0  0  0
    9.9546    5.7407    9.4715 O   0  0  0  0  0  0  0  0  0  0  0  0
   10.7302    6.9158   11.3671 N   0  0  0  0  0  0  0  0  0  0  0  0
   11.9635    6.9268   12.0763 C   0  0  0  0  0  0  0  0  0  0  0  0
   12.1022    7.2784   13.2712 O   0  0  0  0  0  0  0  0  0  0  0  0
    9.8964    2.1208   11.8886 H   0  0  0  0  0  0  0  0  0  0  0  0
   14.3369    3.7218   11.7202 H   0  0  0  0  0  0  0  0  0  0  0  0
    9.5329    7.6715   11.6693 C   0  0  0  0  0  0  0  0  0  0  0  0
    8.6106    6.9631   12.6237 C   0  0  0  0  0  0  0  0  0  0  0  0
    8.1467    7.8638   13.5789 O   0  0  0  0  0  0  0  0  0  0  0  0
    6.9680    8.3912   13.1029 C   0  0  0  0  0  0  0  0  0  0  0  0
    6.3288    7.3663   12.1917 C   0  0  0  0  0  0  0  0  0  0  0  0
    7.4215    6.3355   11.9862 C   0  0  0  0  0  0  0  0  0  0  0  0
   15.4267    5.7835   11.3023 C   0  0  0  0  0  0  0  0  0  0  0  0
   16.2741    4.6411   11.5884 C   0  0  0  0  0  0  0  0  0  0  0  0
   16.6227    4.3959   12.7626 O   0  0  0  0  0  0  0  0  0  0  0  0
   16.7204    3.7887   10.5545 N   0  0  0  0  0  0  0  0  0  0  0  0
   16.5681    2.7566   10.6393 H   0  0  0  0  0  0  0  0  0  0  0  0
   17.2007    4.1142    9.6948 H   0  0  0  0  0  0  0  0  0  0  0  0
  1  2  1  0  0  0
  2  3  2  0  0  0
  2  7  1  0  0  0
  3  4  1  0  0  0
  4  5  2  0  0  0
  4 11  1  0  0  0
  5  6  1  0  0  0
  5  8  1  0  0  0
  6  7  2  0  0  0
  8  9  1  0  0  0
  9 10  2  0  0  0
  9 11  1  0  0  0
 11 12  1  0  0  0
 11 15  1  0  0  0
 12 13  1  0  0  0
 13 14  1  0  0  0
 13 29  1  0  0  0
 14 15  1  0  0  0
 14 19  1  0  0  0
 15 16  1  0  0  0
 16 17  2  0  0  0
 16 18  1  0  0  0
 18 19  1  0  0  0
 18 23  1  0  0  0
 19 20  2  0  0  0
 23 24  1  0  0  0
 24 25  1  0  0  0
 24 28  1  0  0  0
 25 26  1  0  0  0
 26 27  1  0  0  0
 27 28  1  0  0  0
 29 30  1  0  0  0
 30 31  2  0  0  0
 30 32  1  0  0  0
  8 21  1  0  0  0
 12 22  1  0  0  0
 32 33  1  0  0  0
 32 34  1  0  0  0
M  END
> <minimizedAffinity>
-8.86979

$$$$
2225


 29 32  0  0  0  0  0  0  0  0999 V2000
   15.6385    5.2591   12.5099 C   0  0  0  0  0  0  0  0  0  0  0  0
   15.3808    4.5926   13.6010 O   0  0  0  0  0  0  0  0  0  0  0  0
   15.2707    6.5951   12.5177 N   0  0  0  0  0  0  0  0  0  0  0  0
   14.6113    7.1244   13.7507 C   0  0  0  0  0  0  0  0  0  0  0  0
   13.5037    8.0274   13.2697 C   0  0  0  0  0  0  0  0  0  0  0  0
   13.0996    7.7558   11.9021 N   0  0  0  0  0  0  0  0  0  0  0  0
   14.0913    7.9332   10.8755 C   0  0  0  0  0  0  0  0  0  0  0  0
   15.4371    7.5957   11.4966 C   0  0  0  0  0  0  0  0  0  0  0  0
   11.7829    7.3327   11.6228 C   0  0  0  0  0  0  0  0  0  0  0  0
   10.7064    7.9749   12.1556 N   0  0  0  0  0  0  0  0  0  0  0  0
    9.4516    7.6173   11.9204 C   0  0  0  0  0  0  0  0  0  0  0  0
    9.2495    6.5516   11.1030 N   0  0  0  0  0  0  0  0  0  0  0  0
   10.2416    5.8785   10.5491 C   0  0  0  0  0  0  0  0  0  0  0  0
   11.5561    6.2587   10.8004 C   0  0  0  0  0  0  0  0  0  0  0  0
    8.3218    8.2741   12.4670 N   0  0  0  0  0  0  0  0  0  0  0  0
    6.9961    7.6828   12.3213 C   0  0  0  0  0  0  0  0  0  0  0  0
    6.1284    8.7908   11.7165 C   0  0  0  0  0  0  0  0  0  0  0  0
    6.0919    9.8710   12.5573 O   0  0  0  0  0  0  0  0  0  0  0  0
    7.3037   10.4851   12.7651 C   0  0  0  0  0  0  0  0  0  0  0  0
    8.3984    9.5268   13.1773 C   0  0  0  0  0  0  0  0  0  0  0  0
   16.2850    4.4521   11.4569 C   0  0  0  0  0  0  0  0  0  0  0  0
   15.6896    3.5482   10.7652 O   0  0  0  0  0  0  0  0  0  0  0  0
   12.6991   -0.5101    7.7409 Cl  0  0  0  0  0  0  0  0  0  0  0  0
   13.5988    0.6963    8.6257 C   0  0  0  0  0  0  0  0  0  0  0  0
   14.7327    1.2782    8.1079 C   0  0  0  0  0  0  0  0  0  0  0  0
   15.4430    2.2213    8.7867 C   0  0  0  0  0  0  0  0  0  0  0  0
   15.0558    2.6586   10.0720 C   0  0  0  0  0  0  0  0  0  0  0  0
   13.8912    2.0502   10.5860 C   0  0  0  0  0  0  0  0  0  0  0  0
   13.2043    1.1097    9.8778 C   0  0  0  0  0  0  0  0  0  0  0  0
 23 24  1  0  0  0
 24 25  2  0  0  0
 24 29  1  0  0  0
 25 26  1  0  0  0
 26 27  2  0  0  0
 27 28  1  0  0  0
 27 22  1  0  0  0
 28 29  2  0  0  0
 22 21  1  0  0  0
 21  1  1  0  0  0
  1  2  2  0  0  0
  1  3  1  0  0  0
  3  4  1  0  0  0
  3  8  1  0  0  0
  4  5  1  0  0  0
  5  6  1  0  0  0
  6  7  1  0  0  0
  6  9  1  0  0  0
  7  8  1  0  0  0
  9 10  2  0  0  0
  9 14  1  0  0  0
 10 11  1  0  0  0
 11 12  2  0  0  0
 11 15  1  0  0  0
 12 13  1  0  0  0
 13 14  2  0  0  0
 15 16  1  0  0  0
 15 20  1  0  0  0
 16 17  1  0  0  0
 17 18  1  0  0  0
 18 19  1  0  0  0
 19 20  1  0  0  0
M  END
> <minimizedAffinity>
-8.18057

$$$$
2231


 27 31  0  0  0  0  0  0  0  0999 V2000
   13.4345    1.2998    9.2667 N   0  0  0  0  0  0  0  0  0  0  0  0
   14.6585    1.2951    8.7691 N   0  0  0  0  0  0  0  0  0  0  0  0
   15.4443    2.1487    9.3964 N   0  0  0  0  0  0  0  0  0  0  0  0
   14.7429    2.7664   10.3620 C   0  0  0  0  0  0  0  0  0  0  0  0
   13.4794    2.2187   10.2644 C   0  0  0  0  0  0  0  0  0  0  0  0
   12.5360    2.6571   11.1280 N   0  0  0  0  0  0  0  0  0  0  0  0
   12.8579    3.5961   12.0370 C   0  0  0  0  0  0  0  0  0  0  0  0
   14.1006    4.1308   12.1274 N   0  0  0  0  0  0  0  0  0  0  0  0
   15.0768    3.7301   11.2922 C   0  0  0  0  0  0  0  0  0  0  0  0
   16.3912    4.2812   11.3736 N   0  0  0  0  0  0  0  0  0  0  0  0
   16.4949    5.7247   11.2733 C   0  0  0  0  0  0  0  0  0  0  0  0
   17.7711    6.2268   11.9444 C   0  0  0  0  0  0  0  0  0  0  0  0
   18.8464    5.3204   11.7585 N   0  0  0  0  0  0  0  0  0  0  0  0
   18.5986    3.9855   12.3854 C   0  0  0  0  0  0  0  0  0  0  0  0
   17.4885    3.3816   11.5458 C   0  0  0  0  0  0  0  0  0  0  0  0
   20.0261    5.5646   11.0764 C   0  0  0  0  0  0  0  0  0  0  0  0
   20.8616    4.5398   11.0578 O   0  0  0  0  0  0  0  0  0  0  0  0
   20.5387    6.7275   10.3681 C   0  0  0  0  0  0  0  0  0  0  0  0
   20.7575    7.9828   11.1238 C   0  0  0  0  0  0  0  0  0  0  0  0
   21.8899    7.2758   10.4162 C   0  0  0  0  0  0  0  0  0  0  0  0
    8.9180   -2.0571    7.3520 Cl  0  0  0  0  0  0  0  0  0  0  0  0
   10.2327   -1.0735    7.9178 C   0  0  0  0  0  0  0  0  0  0  0  0
   10.0616   -0.2718    9.0181 C   0  0  0  0  0  0  0  0  0  0  0  0
   11.1009    0.5106    9.4698 C   0  0  0  0  0  0  0  0  0  0  0  0
   12.3273    0.5167    8.8471 C   0  0  0  0  0  0  0  0  0  0  0  0
   12.4690   -0.2975    7.7456 C   0  0  0  0  0  0  0  0  0  0  0  0
   11.4374   -1.0894    7.2770 C   0  0  0  0  0  0  0  0  0  0  0  0
 21 22  1  0  0  0
 22 23  2  0  0  0
 22 27  1  0  0  0
 23 24  1  0  0  0
 24 25  2  0  0  0
 25 26  1  0  0  0
 25  1  1  0  0  0
 26 27  2  0  0  0
  1  2  1  0  0  0
  1  5  1  0  0  0
  2  3  2  0  0  0
  3  4  1  0  0  0
  4  5  2  0  0  0
  4  9  1  0  0  0
  5  6  1  0  0  0
  6  7  2  0  0  0
  7  8  1  0  0  0
  8  9  2  0  0  0
  9 10  1  0  0  0
 10 11  1  0  0  0
 10 15  1  0  0  0
 11 12  1  0  0  0
 12 13  1  0  0  0
 13 14  1  0  0  0
 13 16  1  0  0  0
 14 15  1  0  0  0
 16 17  2  0  0  0
 16 18  1  0  0  0
 18 19  1  0  0  0
 18 20  1  0  0  0
 19 20  1  0  0  0
M  END
> <minimizedAffinity>
-8.72498

$$$$
2242


 32 35  0  0  0  0  0  0  0  0999 V2000
   10.0078    6.0081   12.2352 N   0  0  0  0  0  0  0  0  0  0  0  0
   10.4369    5.6924   10.9438 C   0  0  0  0  0  0  0  0  0  0  0  0
   10.1095    6.3464    9.9432 O   0  0  0  0  0  0  0  0  0  0  0  0
   10.3412    5.3836   13.0358 H   0  0  0  0  0  0  0  0  0  0  0  0
   11.5093    8.4758   12.7227 Cl  0  0  0  0  0  0  0  0  0  0  0  0
    9.7683    8.3202   12.8154 C   0  0  0  0  0  0  0  0  0  0  0  0
    9.0319    9.4257   13.1357 C   0  0  0  0  0  0  0  0  0  0  0  0
    7.6691    9.3808   13.2270 C   0  0  0  0  0  0  0  0  0  0  0  0
    7.0458    8.1851   12.9874 C   0  0  0  0  0  0  0  0  0  0  0  0
    7.8082    7.0510   12.6584 C   0  0  0  0  0  0  0  0  0  0  0  0
    9.1713    7.0818   12.5646 C   0  0  0  0  0  0  0  0  0  0  0  0
    5.6618    8.0521   13.0602 O   0  0  0  0  0  0  0  0  0  0  0  0
    4.7806    9.1843   13.0173 C   0  0  0  0  0  0  0  0  0  0  0  0
    5.4578   10.3756   13.6096 C   0  0  0  0  0  0  0  0  0  0  0  0
    4.7508   11.2478   14.1651 O   0  0  0  0  0  0  0  0  0  0  0  0
    6.8725   10.5266   13.5506 N   0  0  0  0  0  0  0  0  0  0  0  0
    7.3180   11.4461   13.7386 H   0  0  0  0  0  0  0  0  0  0  0  0
   11.3320    4.5256   10.7094 C   0  0  0  0  0  0  0  0  0  0  0  0
   10.8363    3.4637   10.1539 N   0  0  0  0  0  0  0  0  0  0  0  0
   11.6043    2.3291    9.8995 N   0  0  0  0  0  0  0  0  0  0  0  0
   12.9682    2.3339   10.2564 C   0  0  0  0  0  0  0  0  0  0  0  0
   13.6517    1.3067    9.9241 O   0  0  0  0  0  0  0  0  0  0  0  0
   13.6000    3.4567   10.9786 C   0  0  0  0  0  0  0  0  0  0  0  0
   12.7010    4.5528   11.0770 N   0  0  0  0  0  0  0  0  0  0  0  0
   13.0632    5.4673   11.4537 H   0  0  0  0  0  0  0  0  0  0  0  0
   11.0146    1.1591    9.2820 C   0  0  0  0  0  0  0  0  0  0  0  0
   11.6959    0.4198    8.3460 C   0  0  0  0  0  0  0  0  0  0  0  0
   11.1063   -0.7088    7.7672 C   0  0  0  0  0  0  0  0  0  0  0  0
    9.8314   -1.1015    8.1210 C   0  0  0  0  0  0  0  0  0  0  0  0
    9.1618   -0.3500    9.0591 C   0  0  0  0  0  0  0  0  0  0  0  0
    9.7430    0.7486    9.6196 C   0  0  0  0  0  0  0  0  0  0  0  0
    9.1587   -2.2998    7.5361 C   0  0  0  0  0  0  0  0  0  0  0  0
  5  6  1  0  0  0
  6  7  2  0  0  0
  6 11  1  0  0  0
  7  8  1  0  0  0
  8  9  2  0  0  0
  8 16  1  0  0  0
  9 10  1  0  0  0
  9 12  1  0  0  0
 10 11  2  0  0  0
 11  1  1  0  0  0
  1  2  1  0  0  0
  2  3  2  0  0  0
  2 18  1  0  0  0
 18 19  2  0  0  0
 18 24  1  0  0  0
 19 20  1  0  0  0
 20 21  1  0  0  0
 20 26  1  0  0  0
 21 22  2  0  0  0
 21 23  1  0  0  0
 23 24  1  0  0  0
 26 27  2  0  0  0
 26 31  1  0  0  0
 27 28  1  0  0  0
 28 29  2  0  0  0
 29 30  1  0  0  0
 29 32  1  0  0  0
 30 31  2  0  0  0
 12 13  1  0  0  0
 13 14  1  0  0  0
 14 15  2  0  0  0
 14 16  1  0  0  0
  1  4  1  0  0  0
 24 25  1  0  0  0
 16 17  1  0  0  0
M  END
> <minimizedAffinity>
-10.61088

$$$$
2266


 27 30  0  0  0  0  0  0  0  0999 V2000
   11.9356    4.2165   10.5010 N   0  0  0  0  0  0  0  0  0  0  0  0
   12.6803    5.2263   11.1392 C   0  0  0  0  0  0  0  0  0  0  0  0
   12.1601    6.6274   10.8850 C   0  0  0  0  0  0  0  0  0  0  0  0
   10.7080    6.5966   11.2335 C   0  0  0  0  0  0  0  0  0  0  0  0
    9.9763    5.5382   10.7360 C   0  0  0  0  0  0  0  0  0  0  0  0
    8.6746    5.4531   11.0110 N   0  0  0  0  0  0  0  0  0  0  0  0
    8.1169    6.4151   11.7736 C   0  0  0  0  0  0  0  0  0  0  0  0
    8.8076    7.4559   12.2710 N   0  0  0  0  0  0  0  0  0  0  0  0
    7.9931    8.2506   12.9903 N   0  0  0  0  0  0  0  0  0  0  0  0
    6.7471    7.7551   12.9862 C   0  0  0  0  0  0  0  0  0  0  0  0
    6.8060    6.6079   12.2308 C   0  0  0  0  0  0  0  0  0  0  0  0
   10.1288    7.5741   12.0120 C   0  0  0  0  0  0  0  0  0  0  0  0
   10.8275    8.5244   12.4483 O   0  0  0  0  0  0  0  0  0  0  0  0
   10.7054    4.5467    9.9096 C   0  0  0  0  0  0  0  0  0  0  0  0
    8.3143    9.1213   13.4716 H   0  0  0  0  0  0  0  0  0  0  0  0
   12.2416    2.6229   10.9261 S   0  0  0  0  0  0  0  0  0  0  0  0
   13.5729    2.4726   11.6484 O   0  0  0  0  0  0  0  0  0  0  0  0
   11.2032    2.2075   11.9636 O   0  0  0  0  0  0  0  0  0  0  0  0
   12.2222    1.4653    9.6521 C   0  0  0  0  0  0  0  0  0  0  0  0
   13.2523    1.4180    8.7156 C   0  0  0  0  0  0  0  0  0  0  0  0
   13.2040    0.4808    7.7070 C   0  0  0  0  0  0  0  0  0  0  0  0
   12.1839   -0.4060    7.5901 C   0  0  0  0  0  0  0  0  0  0  0  0
   11.1584   -0.3854    8.4931 C   0  0  0  0  0  0  0  0  0  0  0  0
   11.2053    0.5525    9.5030 C   0  0  0  0  0  0  0  0  0  0  0  0
    9.8173   -1.5289    8.3648 Cl  0  0  0  0  0  0  0  0  0  0  0  0
   14.3226    2.2798    8.7621 O   0  0  0  0  0  0  0  0  0  0  0  0
   15.6182    1.7550    8.9436 C   0  0  0  0  0  0  0  0  0  0  0  0
 16 17  2  0  0  0
 16 18  2  0  0  0
 16  1  1  0  0  0
 16 19  1  0  0  0
  1  2  1  0  0  0
  1 14  1  0  0  0
  2  3  1  0  0  0
  3  4  1  0  0  0
  4  5  2  0  0  0
  4 12  1  0  0  0
  5  6  1  0  0  0
  5 14  1  0  0  0
  6  7  2  0  0  0
  7  8  1  0  0  0
  7 11  1  0  0  0
  8  9  1  0  0  0
  8 12  1  0  0  0
  9 10  1  0  0  0
 10 11  2  0  0  0
 12 13  2  0  0  0
 19 20  2  0  0  0
 19 24  1  0  0  0
 20 21  1  0  0  0
 20 26  1  0  0  0
 21 22  2  0  0  0
 22 23  1  0  0  0
 23 24  2  0  0  0
 23 25  1  0  0  0
 26 27  1  0  0  0
  9 15  1  0  0  0
M  END
> <minimizedAffinity>
-8.90681

$$$$
2267


 27 30  0  0  0  0  0  0  0  0999 V2000
   11.9298    4.0722   11.6257 N   0  0  0  0  0  0  0  0  0  0  0  0
   13.3182    4.1910   11.6420 C   0  0  0  0  0  0  0  0  0  0  0  0
   14.0424    2.9073   11.3102 C   0  0  0  0  0  0  0  0  0  0  0  0
   13.2647    1.9971   10.4377 C   0  0  0  0  0  0  0  0  0  0  0  0
   11.9072    1.9472   10.6429 C   0  0  0  0  0  0  0  0  0  0  0  0
   11.1244    1.1525    9.9038 N   0  0  0  0  0  0  0  0  0  0  0  0
   11.6898    0.3747    8.9234 C   0  0  0  0  0  0  0  0  0  0  0  0
   13.0244    0.4371    8.7365 N   0  0  0  0  0  0  0  0  0  0  0  0
   13.3191   -0.4021    7.7399 N   0  0  0  0  0  0  0  0  0  0  0  0
   12.2168   -0.9907    7.2928 C   0  0  0  0  0  0  0  0  0  0  0  0
   11.1340   -0.5168    8.0313 C   0  0  0  0  0  0  0  0  0  0  0  0
   13.8538    1.2132    9.4460 C   0  0  0  0  0  0  0  0  0  0  0  0
   15.0948    1.2702    9.2705 O   0  0  0  0  0  0  0  0  0  0  0  0
   11.3264    2.7940   11.6980 C   0  0  0  0  0  0  0  0  0  0  0  0
   14.2753   -0.5801    7.3564 H   0  0  0  0  0  0  0  0  0  0  0  0
   11.0050    5.3445   11.0700 S   0  0  0  0  0  0  0  0  0  0  0  0
   11.8446    6.6013   11.0391 O   0  0  0  0  0  0  0  0  0  0  0  0
   10.5330    5.1064    9.6664 O   0  0  0  0  0  0  0  0  0  0  0  0
    9.6015    5.7047   12.0508 C   0  0  0  0  0  0  0  0  0  0  0  0
    9.6796    5.9580   13.4095 C   0  0  0  0  0  0  0  0  0  0  0  0
    8.5333    6.2377   14.1377 C   0  0  0  0  0  0  0  0  0  0  0  0
    7.2858    6.2781   13.5587 C   0  0  0  0  0  0  0  0  0  0  0  0
    7.2070    6.0262   12.2060 C   0  0  0  0  0  0  0  0  0  0  0  0
    8.3456    5.7484   11.4825 C   0  0  0  0  0  0  0  0  0  0  0  0
    8.6505    6.5557   15.8571 Cl  0  0  0  0  0  0  0  0  0  0  0  0
    6.1381    6.5642   14.3154 O   0  0  0  0  0  0  0  0  0  0  0  0
    5.6041    7.8746   14.3098 C   0  0  0  0  0  0  0  0  0  0  0  0
 16 17  2  0  0  0
 16 18  2  0  0  0
 16  1  1  0  0  0
 16 19  1  0  0  0
  1  2  1  0  0  0
  1 14  1  0  0  0
  2  3  1  0  0  0
  3  4  1  0  0  0
  4  5  2  0  0  0
  4 12  1  0  0  0
  5  6  1  0  0  0
  5 14  1  0  0  0
  6  7  2  0  0  0
  7  8  1  0  0  0
  7 11  1  0  0  0
  8  9  1  0  0  0
  8 12  1  0  0  0
  9 10  1  0  0  0
 10 11  2  0  0  0
 12 13  2  0  0  0
 19 20  2  0  0  0
 19 24  1  0  0  0
 20 21  1  0  0  0
 21 22  2  0  0  0
 21 25  1  0  0  0
 22 23  1  0  0  0
 22 26  1  0  0  0
 23 24  2  0  0  0
 26 27  1  0  0  0
  9 15  1  0  0  0
M  END
> <minimizedAffinity>
-8.93968

$$$$
2270


 22 24  0  0  0  0  0  0  0  0999 V2000
   11.2647    3.1298   11.7122 C   0  0  0  0  0  0  0  0  0  0  0  0
   11.3350    2.7424   12.9129 O   0  0  0  0  0  0  0  0  0  0  0  0
   11.0501    4.5040   11.3856 N   0  0  0  0  0  0  0  0  0  0  0  0
   11.0007    4.7675   10.4020 H   0  0  0  0  0  0  0  0  0  0  0  0
   12.2042   -0.8426    7.3172 Cl  0  0  0  0  0  0  0  0  0  0  0  0
   11.8953    0.3173    8.6068 C   0  0  0  0  0  0  0  0  0  0  0  0
   12.9549    0.9812    9.1873 C   0  0  0  0  0  0  0  0  0  0  0  0
   12.6938    1.8838   10.1932 C   0  0  0  0  0  0  0  0  0  0  0  0
   11.4027    2.1607   10.6550 C   0  0  0  0  0  0  0  0  0  0  0  0
   10.3601    1.4987   10.0741 C   0  0  0  0  0  0  0  0  0  0  0  0
   10.6067    0.5773    9.0498 C   0  0  0  0  0  0  0  0  0  0  0  0
   14.2476    0.7275    8.7496 O   0  0  0  0  0  0  0  0  0  0  0  0
   15.0734    1.7624    8.2515 C   0  0  0  0  0  0  0  0  0  0  0  0
   10.9187    5.4367   12.4656 C   0  0  0  0  0  0  0  0  0  0  0  0
    9.7432    6.3300   12.4475 C   0  0  0  0  0  0  0  0  0  0  0  0
    9.1598    6.6767   13.7070 N   0  0  0  0  0  0  0  0  0  0  0  0
    8.7407    8.0920   13.5613 C   0  0  0  0  0  0  0  0  0  0  0  0
    8.0178    8.1232   12.2089 C   0  0  0  0  0  0  0  0  0  0  0  0
    7.5185    6.8178   11.8268 N   0  0  0  0  0  0  0  0  0  0  0  0
    8.6045    5.8744   11.5496 C   0  0  0  0  0  0  0  0  0  0  0  0
    6.8315    6.2761   12.9864 C   0  0  0  0  0  0  0  0  0  0  0  0
    7.9199    5.9936   14.0148 C   0  0  0  0  0  0  0  0  0  0  0  0
  5  6  1  0  0  0
  6  7  2  0  0  0
  6 11  1  0  0  0
  7  8  1  0  0  0
  7 12  1  0  0  0
  8  9  2  0  0  0
  9 10  1  0  0  0
  9  1  1  0  0  0
 10 11  2  0  0  0
  1  2  2  0  0  0
  1  3  1  0  0  0
  3 14  1  0  0  0
 14 15  1  0  0  0
 15 16  1  0  0  0
 15 20  1  0  0  0
 16 17  1  0  0  0
 16 22  1  0  0  0
 17 18  1  0  0  0
 18 19  1  0  0  0
 19 20  1  0  0  0
 19 21  1  0  0  0
 21 22  1  0  0  0
 12 13  1  0  0  0
  3  4  1  0  0  0
M  END
> <minimizedAffinity>
-7.38200

$$$$
2271


 27 30  0  0  0  0  0  0  0  0999 V2000
   11.2628    5.8311   10.4561 C   0  0  0  0  0  0  0  0  0  0  0  0
   12.1835    4.8265   10.2572 N   0  0  0  0  0  0  0  0  0  0  0  0
   13.2017    5.0454   11.2635 C   0  0  0  0  0  0  0  0  0  0  0  0
   13.8791    4.3011   12.0759 C   0  0  0  0  0  0  0  0  0  0  0  0
   14.8858    4.8166   13.0213 C   0  0  0  0  0  0  0  0  0  0  0  0
   15.0824    6.2908   13.0148 C   0  0  0  0  0  0  0  0  0  0  0  0
   14.6480    6.9700   11.7600 C   0  0  0  0  0  0  0  0  0  0  0  0
   13.4002    6.4478   11.2450 N   0  0  0  0  0  0  0  0  0  0  0  0
   12.2031    7.0525   10.6674 C   0  0  0  0  0  0  0  0  0  0  0  0
   10.5833    6.1734    9.2528 O   0  0  0  0  0  0  0  0  0  0  0  0
   12.7282    5.0934    9.3571 H   0  0  0  0  0  0  0  0  0  0  0  0
   11.2878    6.4957    8.6337 H   0  0  0  0  0  0  0  0  0  0  0  0
    7.3415    6.0642   14.9892 Cl  0  0  0  0  0  0  0  0  0  0  0  0
    8.4730    5.9890   13.6623 C   0  0  0  0  0  0  0  0  0  0  0  0
    8.0766    5.8640   12.3368 C   0  0  0  0  0  0  0  0  0  0  0  0
    8.9773    5.8068   11.3144 C   0  0  0  0  0  0  0  0  0  0  0  0
   10.3340    5.8721   11.5673 C   0  0  0  0  0  0  0  0  0  0  0  0
   10.7325    5.9960   12.8749 C   0  0  0  0  0  0  0  0  0  0  0  0
    9.8164    6.0535   13.9109 C   0  0  0  0  0  0  0  0  0  0  0  0
   11.8610    3.4884   10.0914 C   0  0  0  0  0  0  0  0  0  0  0  0
   10.7188    2.8698   10.4719 C   0  0  0  0  0  0  0  0  0  0  0  0
   10.5347    1.5108   10.2229 C   0  0  0  0  0  0  0  0  0  0  0  0
   11.4884    0.7353    9.5856 C   0  0  0  0  0  0  0  0  0  0  0  0
   12.6408    1.3929    9.2097 C   0  0  0  0  0  0  0  0  0  0  0  0
   12.8521    2.7263    9.4403 C   0  0  0  0  0  0  0  0  0  0  0  0
   11.2654   -0.6130    9.3583 O   0  0  0  0  0  0  0  0  0  0  0  0
   10.0647   -1.0206    8.7548 C   0  0  0  0  0  0  0  0  0  0  0  0
 13 14  1  0  0  0
 14 15  2  0  0  0
 14 19  1  0  0  0
 15 16  1  0  0  0
 16 17  2  0  0  0
 17 18  1  0  0  0
 17  1  1  0  0  0
 18 19  2  0  0  0
  1  2  1  0  0  0
  1  9  1  0  0  0
  1 10  1  0  0  0
  2  3  1  0  0  0
  2 20  1  0  0  0
  3  4  2  0  0  0
  3  8  1  0  0  0
  4  5  1  0  0  0
  5  6  1  0  0  0
  6  7  1  0  0  0
  7  8  1  0  0  0
  8  9  1  0  0  0
 20 21  2  0  0  0
 20 25  1  0  0  0
 21 22  1  0  0  0
 22 23  2  0  0  0
 23 24  1  0  0  0
 23 26  1  0  0  0
 24 25  2  0  0  0
 26 27  1  0  0  0
  2 11  1  0  0  0
 10 12  1  0  0  0
M  CHG 1   2   1
M  END
> <minimizedAffinity>
-7.75490

$$$$
2272


 29 32  0  0  0  0  0  0  0  0999 V2000
   12.6933    4.6840   10.9843 C   0  0  0  0  0  0  0  0  0  0  0  0
   13.3849    4.6417   12.0725 O   0  0  0  0  0  0  0  0  0  0  0  0
   11.6945    5.6587   10.9417 N   0  0  0  0  0  0  0  0  0  0  0  0
   10.6557    5.7456    9.8982 C   0  0  0  0  0  0  0  0  0  0  0  0
    9.4254    5.3211   10.7602 C   0  0  0  0  0  0  0  0  0  0  0  0
    9.1930    6.3731   11.7399 N   0  0  0  0  0  0  0  0  0  0  0  0
   10.2019    7.1900   12.1402 C   0  0  0  0  0  0  0  0  0  0  0  0
   11.6104    6.7262   11.9001 C   0  0  0  0  0  0  0  0  0  0  0  0
   13.0874    3.7254    9.9807 C   0  0  0  0  0  0  0  0  0  0  0  0
   13.3167    2.3183   10.2961 C   0  0  0  0  0  0  0  0  0  0  0  0
    8.8065   -2.1787    7.2974 Cl  0  0  0  0  0  0  0  0  0  0  0  0
   10.0378   -1.1151    7.9316 C   0  0  0  0  0  0  0  0  0  0  0  0
   11.2916   -1.1000    7.3856 C   0  0  0  0  0  0  0  0  0  0  0  0
   12.2557   -0.2274    7.9066 C   0  0  0  0  0  0  0  0  0  0  0  0
   11.9862    0.6202    8.9550 C   0  0  0  0  0  0  0  0  0  0  0  0
   10.7005    0.6164    9.5245 C   0  0  0  0  0  0  0  0  0  0  0  0
    9.7727   -0.2587    8.9844 C   0  0  0  0  0  0  0  0  0  0  0  0
   13.0613    1.3478    9.2459 N   0  0  0  0  0  0  0  0  0  0  0  0
   14.0231    0.9353    8.3528 C   0  0  0  0  0  0  0  0  0  0  0  0
   15.2045    1.3835    8.2971 O   0  0  0  0  0  0  0  0  0  0  0  0
   13.5006    0.0094    7.5873 O   0  0  0  0  0  0  0  0  0  0  0  0
    8.0221    6.0734   12.4171 C   0  0  0  0  0  0  0  0  0  0  0  0
    6.8548    6.9454   11.9525 C   0  0  0  0  0  0  0  0  0  0  0  0
    6.1067    6.3735   11.0706 O   0  0  0  0  0  0  0  0  0  0  0  0
    6.6732    8.1704   12.4318 N   0  0  0  0  0  0  0  0  0  0  0  0
    5.4681    8.2758   11.8142 H   0  0  0  0  0  0  0  0  0  0  0  0
    6.4808    9.4745   12.9419 C   0  0  0  0  0  0  0  0  0  0  0  0
    7.4069   10.5755   12.2974 C   0  0  0  0  0  0  0  0  0  0  0  0
    7.6382   10.1360   13.6604 C   0  0  0  0  0  0  0  0  0  0  0  0
 11 12  1  0  0  0
 12 13  2  0  0  0
 12 17  1  0  0  0
 13 14  1  0  0  0
 14 15  2  0  0  0
 14 21  1  0  0  0
 15 16  1  0  0  0
 15 18  1  0  0  0
 16 17  2  0  0  0
 18 19  1  0  0  0
 18 10  1  0  0  0
 19 20  2  0  0  0
 19 21  1  0  0  0
 10  9  1  0  0  0
  9  1  1  0  0  0
  1  2  2  0  0  0
  1  3  1  0  0  0
  3  4  1  0  0  0
  3  8  1  0  0  0
  4  5  1  0  0  0
  5  6  1  0  0  0
  6  7  1  0  0  0
  6 22  1  0  0  0
  7  8  1  0  0  0
 22 23  1  0  0  0
 23 24  2  0  0  0
 23 25  1  0  0  0
 25 27  1  0  0  0
 27 28  1  0  0  0
 27 29  1  0  0  0
 28 29  1  0  0  0
 25 26  1  0  0  0
M  END
> <minimizedAffinity>
-9.15062

$$$$
2275


 21 23  0  0  0  0  0  0  0  0999 V2000
   14.8360    1.1106   10.2478 Cl  0  0  0  0  0  0  0  0  0  0  0  0
   13.3964    2.0667   10.5223 C   0  0  0  0  0  0  0  0  0  0  0  0
   12.1533    1.5433   10.2326 C   0  0  0  0  0  0  0  0  0  0  0  0
   11.0644    2.3502   10.4782 C   0  0  0  0  0  0  0  0  0  0  0  0
    9.8764    1.9679   10.2481 O   0  0  0  0  0  0  0  0  0  0  0  0
   11.2422    3.5831   10.9758 N   0  0  0  0  0  0  0  0  0  0  0  0
   12.4093    4.1227   11.2672 N   0  0  0  0  0  0  0  0  0  0  0  0
   12.5561    5.4642   11.8064 C   0  0  0  0  0  0  0  0  0  0  0  0
   12.2797    6.5349   10.7721 C   0  0  0  0  0  0  0  0  0  0  0  0
   10.7851    6.7676   10.6343 C   0  0  0  0  0  0  0  0  0  0  0  0
   10.0725    5.5127   10.1849 C   0  0  0  0  0  0  0  0  0  0  0  0
   10.0642    4.4274   11.2288 C   0  0  0  0  0  0  0  0  0  0  0  0
   10.2872    5.0597   12.5563 C   0  0  0  0  0  0  0  0  0  0  0  0
   11.4653    5.6031   12.8420 C   0  0  0  0  0  0  0  0  0  0  0  0
   13.5057    3.3426   11.0323 C   0  0  0  0  0  0  0  0  0  0  0  0
   14.6508    3.8389   11.3048 O   0  0  0  0  0  0  0  0  0  0  0  0
   11.9646    0.2357    9.7000 N   0  0  0  0  0  0  0  0  0  0  0  0
   12.1104   -0.5463   10.4076 H   0  0  0  0  0  0  0  0  0  0  0  0
   11.6074   -0.0466    8.3365 C   0  0  0  0  0  0  0  0  0  0  0  0
   12.8217   -0.3933    7.4922 C   0  0  0  0  0  0  0  0  0  0  0  0
   10.6048   -1.1395    8.1725 C   0  0  0  0  0  0  0  0  0  0  0  0
  1  2  1  0  0  0
  2  3  2  0  0  0
  2 15  1  0  0  0
  3  4  1  0  0  0
  3 17  1  0  0  0
  4  5  2  0  0  0
  4  6  1  0  0  0
  6  7  1  0  0  0
  6 12  1  0  0  0
  7  8  1  0  0  0
  7 15  1  0  0  0
  8  9  1  0  0  0
  8 14  1  0  0  0
  9 10  1  0  0  0
 10 11  1  0  0  0
 11 12  1  0  0  0
 12 13  1  0  0  0
 13 14  2  0  0  0
 15 16  2  0  0  0
 17 19  1  0  0  0
 19 20  1  0  0  0
 19 21  1  0  0  0
 17 18  1  0  0  0
M  END
> <minimizedAffinity>
-6.72985

$$$$
2276


 21 24  0  0  0  0  0  0  0  0999 V2000
    7.9438    8.0103   14.9323 Cl  0  0  0  0  0  0  0  0  0  0  0  0
    8.5260    7.0703   13.5726 C   0  0  0  0  0  0  0  0  0  0  0  0
    7.6165    6.7053   12.6021 C   0  0  0  0  0  0  0  0  0  0  0  0
    8.1492    5.9515   11.5486 C   0  0  0  0  0  0  0  0  0  0  0  0
    7.3711    5.5943   10.6431 O   0  0  0  0  0  0  0  0  0  0  0  0
    9.4469    5.6259   11.5131 N   0  0  0  0  0  0  0  0  0  0  0  0
   10.3145    5.9799   12.4488 N   0  0  0  0  0  0  0  0  0  0  0  0
   11.6911    5.5479   12.2531 C   0  0  0  0  0  0  0  0  0  0  0  0
   11.6538    4.0363   12.1241 C   0  0  0  0  0  0  0  0  0  0  0  0
   10.6622    3.6234   11.1243 C   0  0  0  0  0  0  0  0  0  0  0  0
   10.0251    4.8325   10.4260 C   0  0  0  0  0  0  0  0  0  0  0  0
   11.1722    5.6688    9.9311 C   0  0  0  0  0  0  0  0  0  0  0  0
   12.0316    6.0393   10.8652 C   0  0  0  0  0  0  0  0  0  0  0  0
   12.1604    3.3835   10.8928 C   0  0  0  0  0  0  0  0  0  0  0  0
    9.8628    6.6961   13.4731 C   0  0  0  0  0  0  0  0  0  0  0  0
   10.6790    7.0375   14.3669 O   0  0  0  0  0  0  0  0  0  0  0  0
    6.2339    7.0486   12.6241 N   0  0  0  0  0  0  0  0  0  0  0  0
    5.6023    6.3205   13.0197 H   0  0  0  0  0  0  0  0  0  0  0  0
    5.6820    8.2687   12.1597 C   0  0  0  0  0  0  0  0  0  0  0  0
    4.9569    8.1704   10.8426 C   0  0  0  0  0  0  0  0  0  0  0  0
    4.7059    8.8984   13.1437 C   0  0  0  0  0  0  0  0  0  0  0  0
  1  2  1  0  0  0
  2  3  2  0  0  0
  2 15  1  0  0  0
  3  4  1  0  0  0
  3 17  1  0  0  0
  4  5  2  0  0  0
  4  6  1  0  0  0
  6  7  1  0  0  0
  6 11  1  0  0  0
  7  8  1  0  0  0
  7 15  1  0  0  0
  8  9  1  0  0  0
  8 13  1  0  0  0
  9 10  1  0  0  0
  9 14  1  0  0  0
 10 11  1  0  0  0
 10 14  1  0  0  0
 11 12  1  0  0  0
 12 13  2  0  0  0
 15 16  2  0  0  0
 17 19  1  0  0  0
 19 20  1  0  0  0
 19 21  1  0  0  0
 17 18  1  0  0  0
M  END
> <minimizedAffinity>
-6.85578

$$$$
2281


 34 37  0  0  0  0  0  0  0  0999 V2000
    6.8077    7.6102   13.0579 N   0  0  0  0  0  0  0  0  0  0  0  0
    6.7471    6.3153   12.5248 C   0  0  0  0  0  0  0  0  0  0  0  0
    8.1398    6.0302   11.8518 C   0  0  0  0  0  0  0  0  0  0  0  0
    9.1612    6.9171   12.1112 N   0  0  0  0  0  0  0  0  0  0  0  0
    8.8470    8.2814   12.4372 C   0  0  0  0  0  0  0  0  0  0  0  0
    7.3680    8.5955   12.0381 C   0  0  0  0  0  0  0  0  0  0  0  0
    8.1727    6.2373   15.4333 Cl  0  0  0  0  0  0  0  0  0  0  0  0
    6.9902    7.6063   15.4797 C   0  0  0  0  0  0  0  0  0  0  0  0
    6.6567    8.1590   14.3218 C   0  0  0  0  0  0  0  0  0  0  0  0
    5.7247    9.3081   14.4257 C   0  0  0  0  0  0  0  0  0  0  0  0
    5.3142    9.6380   15.5921 N   0  0  0  0  0  0  0  0  0  0  0  0
    5.6685    9.0314   16.7553 N   0  0  0  0  0  0  0  0  0  0  0  0
    6.4993    8.0263   16.7165 C   0  0  0  0  0  0  0  0  0  0  0  0
    6.8862    7.3805   17.7489 O   0  0  0  0  0  0  0  0  0  0  0  0
    4.8865    9.3760   17.9415 C   0  0  0  0  0  0  0  0  0  0  0  0
    5.3980   10.0884   18.9780 C   0  0  0  0  0  0  0  0  0  0  0  0
    4.6040   10.5020   20.0256 C   0  0  0  0  0  0  0  0  0  0  0  0
    3.2435   10.1994   20.0494 C   0  0  0  0  0  0  0  0  0  0  0  0
    2.7483    9.4597   18.9757 C   0  0  0  0  0  0  0  0  0  0  0  0
    3.5386    9.0670   17.9666 C   0  0  0  0  0  0  0  0  0  0  0  0
   10.1575    7.0834   11.0005 C   0  0  0  0  0  0  0  0  0  0  0  0
   11.1682    6.0398   11.0873 C   0  0  0  0  0  0  0  0  0  0  0  0
   11.8574    5.6593   11.8798 O   0  0  0  0  0  0  0  0  0  0  0  0
   11.2865    5.2230    9.5917 N   0  0  0  0  0  0  0  0  0  0  0  0
   12.0790    4.0701   10.1481 C   0  0  0  0  0  0  0  0  0  0  0  0
   12.8630    4.1327   11.0547 O   0  0  0  0  0  0  0  0  0  0  0  0
   11.7502    2.8532    9.4420 N   0  0  0  0  0  0  0  0  0  0  0  0
   10.8810    5.8186    9.3108 H   0  0  0  0  0  0  0  0  0  0  0  0
   11.0564    2.9707    8.6305 H   0  0  0  0  0  0  0  0  0  0  0  0
   12.2518    1.5531    9.6831 C   0  0  0  0  0  0  0  0  0  0  0  0
   11.4165    0.3782    9.3760 C   0  0  0  0  0  0  0  0  0  0  0  0
   11.7409   -0.0539    7.9425 C   0  0  0  0  0  0  0  0  0  0  0  0
   13.2100    0.2885    7.8590 C   0  0  0  0  0  0  0  0  0  0  0  0
   13.4732    1.4213    8.7497 C   0  0  0  0  0  0  0  0  0  0  0  0
  7  8  1  0  0  0
  8  9  2  0  0  0
  8 13  1  0  0  0
  9 10  1  0  0  0
  9  1  1  0  0  0
 10 11  2  0  0  0
 11 12  1  0  0  0
 12 13  1  0  0  0
 12 15  1  0  0  0
 13 14  2  0  0  0
 15 16  2  0  0  0
 15 20  1  0  0  0
 16 17  1  0  0  0
 17 18  2  0  0  0
 18 19  1  0  0  0
 19 20  2  0  0  0
  1  2  1  0  0  0
  1  6  1  0  0  0
  2  3  1  0  0  0
  3  4  1  0  0  0
  4  5  1  0  0  0
  4 21  1  0  0  0
  5  6  1  0  0  0
 21 22  1  0  0  0
 22 23  2  0  0  0
 22 24  1  0  0  0
 24 25  1  0  0  0
 25 26  2  0  0  0
 25 27  1  0  0  0
 27 30  1  0  0  0
 30 31  1  0  0  0
 30 34  1  0  0  0
 31 32  1  0  0  0
 32 33  1  0  0  0
 33 34  1  0  0  0
 24 28  1  0  0  0
 27 29  1  0  0  0
M  END
> <minimizedAffinity>
-9.06591

$$$$
2282


 31 34  0  0  0  0  0  0  0  0999 V2000
   11.3058    5.6460   12.0526 N   0  0  0  0  0  0  0  0  0  0  0  0
   10.6408    5.7978   13.3246 C   0  0  0  0  0  0  0  0  0  0  0  0
    9.9545    7.1264   13.3866 C   0  0  0  0  0  0  0  0  0  0  0  0
    9.9651    7.6779   12.0546 N   0  0  0  0  0  0  0  0  0  0  0  0
   11.2941    8.0442   11.7209 C   0  0  0  0  0  0  0  0  0  0  0  0
   12.0819    6.7440   11.5334 C   0  0  0  0  0  0  0  0  0  0  0  0
   13.5685    3.7715   12.4241 Cl  0  0  0  0  0  0  0  0  0  0  0  0
   12.2147    3.4712   11.3553 C   0  0  0  0  0  0  0  0  0  0  0  0
   11.2304    4.4531   11.2875 C   0  0  0  0  0  0  0  0  0  0  0  0
   10.1800    4.1848   10.4361 C   0  0  0  0  0  0  0  0  0  0  0  0
   10.1449    3.0381    9.7349 N   0  0  0  0  0  0  0  0  0  0  0  0
   11.0686    2.0945    9.7847 N   0  0  0  0  0  0  0  0  0  0  0  0
   12.1132    2.3163   10.6047 C   0  0  0  0  0  0  0  0  0  0  0  0
   13.0097    1.4290   10.6697 O   0  0  0  0  0  0  0  0  0  0  0  0
   10.9621    0.8939    9.0085 C   0  0  0  0  0  0  0  0  0  0  0  0
    9.8514    0.0909    9.1280 C   0  0  0  0  0  0  0  0  0  0  0  0
    9.7365   -1.0829    8.3750 C   0  0  0  0  0  0  0  0  0  0  0  0
   10.7236   -1.4689    7.4972 C   0  0  0  0  0  0  0  0  0  0  0  0
   11.8389   -0.6704    7.3707 C   0  0  0  0  0  0  0  0  0  0  0  0
   11.9418    0.4935    8.1252 C   0  0  0  0  0  0  0  0  0  0  0  0
    8.9185    8.5639   11.7344 C   0  0  0  0  0  0  0  0  0  0  0  0
    7.5755    8.0741   12.0625 C   0  0  0  0  0  0  0  0  0  0  0  0
    7.2271    6.9791   11.5040 O   0  0  0  0  0  0  0  0  0  0  0  0
    6.6462    8.6952   12.9313 N   0  0  0  0  0  0  0  0  0  0  0  0
    6.9376    9.5808   13.3921 H   0  0  0  0  0  0  0  0  0  0  0  0
    5.3352    8.1733   13.2239 C   0  0  0  0  0  0  0  0  0  0  0  0
    4.7828    8.8579   14.4358 C   0  0  0  0  0  0  0  0  0  0  0  0
    3.9498    9.8725   14.0458 O   0  0  0  0  0  0  0  0  0  0  0  0
    2.6977    9.7084   14.5720 C   0  0  0  0  0  0  0  0  0  0  0  0
    2.9545    8.9390   15.8504 C   0  0  0  0  0  0  0  0  0  0  0  0
    3.9532    7.9112   15.2913 C   0  0  0  0  0  0  0  0  0  0  0  0
  7  8  1  0  0  0
  8  9  2  0  0  0
  8 13  1  0  0  0
  9 10  1  0  0  0
  9  1  1  0  0  0
 10 11  2  0  0  0
 11 12  1  0  0  0
 12 13  1  0  0  0
 12 15  1  0  0  0
 13 14  2  0  0  0
 15 16  2  0  0  0
 15 20  1  0  0  0
 16 17  1  0  0  0
 17 18  2  0  0  0
 18 19  1  0  0  0
 19 20  2  0  0  0
  1  2  1  0  0  0
  1  6  1  0  0  0
  2  3  1  0  0  0
  3  4  1  0  0  0
  4  5  1  0  0  0
  4 21  1  0  0  0
  5  6  1  0  0  0
 21 22  1  0  0  0
 22 23  2  0  0  0
 22 24  1  0  0  0
 24 26  1  0  0  0
 26 27  1  0  0  0
 27 28  1  0  0  0
 27 31  1  0  0  0
 28 29  1  0  0  0
 29 30  1  0  0  0
 30 31  1  0  0  0
 24 25  1  0  0  0
M  END
> <minimizedAffinity>
-8.62698

$$$$
2284


 33 37  0  0  0  0  0  0  0  0999 V2000
   10.4882    7.2692   13.3136 C   0  0  0  0  0  0  0  0  0  0  0  0
    9.3755    7.0274   12.5325 C   0  0  0  0  0  0  0  0  0  0  0  0
    9.2612    5.9952   11.6365 C   0  0  0  0  0  0  0  0  0  0  0  0
    8.1812    5.8740   10.9704 O   0  0  0  0  0  0  0  0  0  0  0  0
   10.3009    5.1231   11.4783 N   0  0  0  0  0  0  0  0  0  0  0  0
   10.3227    4.1277   10.6844 N   0  0  0  0  0  0  0  0  0  0  0  0
   11.3483    3.3350   10.5838 C   0  0  0  0  0  0  0  0  0  0  0  0
   12.4002    4.0752   11.7364 S   0  0  0  0  0  0  0  0  0  0  0  0
   11.3747    5.3591   12.2348 C   0  0  0  0  0  0  0  0  0  0  0  0
   11.4834    6.3778   13.1158 N   0  0  0  0  0  0  0  0  0  0  0  0
   11.5951    2.1496    9.7541 C   0  0  0  0  0  0  0  0  0  0  0  0
   12.8687    1.9315    9.2742 C   0  0  0  0  0  0  0  0  0  0  0  0
   13.1666    0.8294    8.4848 C   0  0  0  0  0  0  0  0  0  0  0  0
   12.1736   -0.0745    8.1684 C   0  0  0  0  0  0  0  0  0  0  0  0
   10.8869    0.1235    8.6391 C   0  0  0  0  0  0  0  0  0  0  0  0
   10.6403    1.2312    9.4174 C   0  0  0  0  0  0  0  0  0  0  0  0
   12.5311   -1.4561    7.1834 Cl  0  0  0  0  0  0  0  0  0  0  0  0
   10.5604    8.4017   14.2675 C   0  0  0  0  0  0  0  0  0  0  0  0
    6.9857   10.4787   14.5913 N   0  0  0  0  0  0  0  0  0  0  0  0
    7.7636   10.6884   13.4494 C   0  0  0  0  0  0  0  0  0  0  0  0
    9.2312   10.3422   13.7211 C   0  0  0  0  0  0  0  0  0  0  0  0
    9.2930    9.0588   14.2974 N   0  0  0  0  0  0  0  0  0  0  0  0
    8.5540    8.9136   15.4934 C   0  0  0  0  0  0  0  0  0  0  0  0
    7.7190   10.1498   15.7412 C   0  0  0  0  0  0  0  0  0  0  0  0
    5.3690   10.1218   14.4837 S   0  0  0  0  0  0  0  0  0  0  0  0
    4.5959   11.4220   14.2865 O   0  0  0  0  0  0  0  0  0  0  0  0
    4.8507    9.4051   15.7037 O   0  0  0  0  0  0  0  0  0  0  0  0
    5.0256    9.1584   13.0643 C   0  0  0  0  0  0  0  0  0  0  0  0
    5.9341    8.5474   12.2541 N   0  0  0  0  0  0  0  0  0  0  0  0
    5.3115    7.9030   11.2656 C   0  0  0  0  0  0  0  0  0  0  0  0
    3.9868    8.0646   11.3907 N   0  0  0  0  0  0  0  0  0  0  0  0
    3.8155    8.8373   12.4981 C   0  0  0  0  0  0  0  0  0  0  0  0
    3.2534    7.6810   10.7725 H   0  0  0  0  0  0  0  0  0  0  0  0
 25 26  2  0  0  0
 25 27  2  0  0  0
 25 19  1  0  0  0
 25 28  1  0  0  0
 19 20  1  0  0  0
 19 24  1  0  0  0
 20 21  1  0  0  0
 21 22  1  0  0  0
 22 23  1  0  0  0
 22 18  1  0  0  0
 23 24  1  0  0  0
 18  1  1  0  0  0
  1  2  2  0  0  0
  1 10  1  0  0  0
  2  3  1  0  0  0
  3  4  2  0  0  0
  3  5  1  0  0  0
  5  6  1  0  0  0
  5  9  1  0  0  0
  6  7  2  0  0  0
  7  8  1  0  0  0
  7 11  1  0  0  0
  8  9  1  0  0  0
  9 10  2  0  0  0
 11 12  2  0  0  0
 11 16  1  0  0  0
 12 13  1  0  0  0
 13 14  2  0  0  0
 14 15  1  0  0  0
 14 17  1  0  0  0
 15 16  2  0  0  0
 28 29  1  0  0  0
 28 32  2  0  0  0
 29 30  2  0  0  0
 30 31  1  0  0  0
 31 32  1  0  0  0
 31 33  1  0  0  0
M  END
> <minimizedAffinity>
-9.73233

$$$$
2285


 32 35  0  0  0  0  0  0  0  0999 V2000
    7.6812    7.5290   12.4161 N   0  0  0  0  0  0  0  0  0  0  0  0
    7.4997    6.2885   11.7227 C   0  0  0  0  0  0  0  0  0  0  0  0
    8.8053    5.5099   11.4770 C   0  0  0  0  0  0  0  0  0  0  0  0
    9.6829    6.3980   10.7812 N   0  0  0  0  0  0  0  0  0  0  0  0
   10.0521    7.4512   11.6859 C   0  0  0  0  0  0  0  0  0  0  0  0
    8.8142    8.2985   11.7917 C   0  0  0  0  0  0  0  0  0  0  0  0
    6.2731    8.5265   11.9819 S   0  0  0  0  0  0  0  0  0  0  0  0
    6.7796    9.9425   11.7833 O   0  0  0  0  0  0  0  0  0  0  0  0
    5.7059    8.0128   10.7067 O   0  0  0  0  0  0  0  0  0  0  0  0
    5.0790    8.5311   13.2196 C   0  0  0  0  0  0  0  0  0  0  0  0
    5.5208    8.0897   14.4740 C   0  0  0  0  0  0  0  0  0  0  0  0
    4.7244    8.1124   15.6220 C   0  0  0  0  0  0  0  0  0  0  0  0
    3.4260    8.6004   15.5090 C   0  0  0  0  0  0  0  0  0  0  0  0
    3.0029    9.0260   14.2631 C   0  0  0  0  0  0  0  0  0  0  0  0
    3.8052    9.0020   13.1295 C   0  0  0  0  0  0  0  0  0  0  0  0
    2.6969    8.5996   16.6836 O   0  0  0  0  0  0  0  0  0  0  0  0
    3.4002    8.9531   17.9050 C   0  0  0  0  0  0  0  0  0  0  0  0
    4.7528    8.3291   18.0016 C   0  0  0  0  0  0  0  0  0  0  0  0
    5.1946    7.6629   16.8441 O   0  0  0  0  0  0  0  0  0  0  0  0
   10.5407    5.8918    9.8204 C   0  0  0  0  0  0  0  0  0  0  0  0
   11.2982    4.6839   10.1553 C   0  0  0  0  0  0  0  0  0  0  0  0
   12.3231    4.9306   10.9318 O   0  0  0  0  0  0  0  0  0  0  0  0
   11.1276    3.3717    9.8189 N   0  0  0  0  0  0  0  0  0  0  0  0
   10.3618    3.0091    9.1595 H   0  0  0  0  0  0  0  0  0  0  0  0
   11.9259    2.2610   10.3423 C   0  0  0  0  0  0  0  0  0  0  0  0
   11.7423    1.0840    9.4695 C   0  0  0  0  0  0  0  0  0  0  0  0
   12.7683    0.6607    8.5934 C   0  0  0  0  0  0  0  0  0  0  0  0
   12.5969   -0.3148    7.6874 C   0  0  0  0  0  0  0  0  0  0  0  0
   11.3375   -0.9827    7.5735 C   0  0  0  0  0  0  0  0  0  0  0  0
   10.3537   -0.5885    8.3878 C   0  0  0  0  0  0  0  0  0  0  0  0
   10.5043    0.4286    9.3385 C   0  0  0  0  0  0  0  0  0  0  0  0
   14.3569    1.4549    8.7267 Cl  0  0  0  0  0  0  0  0  0  0  0  0
  7  8  2  0  0  0
  7  9  2  0  0  0
  7  1  1  0  0  0
  7 10  1  0  0  0
  1  2  1  0  0  0
  1  6  1  0  0  0
  2  3  1  0  0  0
  3  4  1  0  0  0
  4  5  1  0  0  0
  4 20  1  0  0  0
  5  6  1  0  0  0
 20 21  1  0  0  0
 21 22  2  0  0  0
 21 23  1  0  0  0
 23 25  1  0  0  0
 25 26  1  0  0  0
 26 27  2  0  0  0
 26 31  1  0  0  0
 27 28  1  0  0  0
 27 32  1  0  0  0
 28 29  2  0  0  0
 29 30  1  0  0  0
 30 31  2  0  0  0
 10 11  2  0  0  0
 10 15  1  0  0  0
 11 12  1  0  0  0
 12 13  2  0  0  0
 12 19  1  0  0  0
 13 14  1  0  0  0
 13 16  1  0  0  0
 14 15  2  0  0  0
 16 17  1  0  0  0
 17 18  1  0  0  0
 18 19  1  0  0  0
 23 24  1  0  0  0
M  END
> <minimizedAffinity>
-9.90203

$$$$
2286


 31 34  0  0  0  0  0  0  0  0999 V2000
   11.8705    5.1198   10.6490 N   0  0  0  0  0  0  0  0  0  0  0  0
   10.7729    5.1038    9.7516 C   0  0  0  0  0  0  0  0  0  0  0  0
    9.4381    5.3484   10.4039 C   0  0  0  0  0  0  0  0  0  0  0  0
    9.5125    6.3568   11.4400 N   0  0  0  0  0  0  0  0  0  0  0  0
   10.7401    7.1276   11.4951 C   0  0  0  0  0  0  0  0  0  0  0  0
   11.9572    6.2361   11.5215 C   0  0  0  0  0  0  0  0  0  0  0  0
    8.4334    6.5372   12.3140 C   0  0  0  0  0  0  0  0  0  0  0  0
    7.4142    5.8186   12.1822 O   0  0  0  0  0  0  0  0  0  0  0  0
   12.2148    3.6176   11.3924 S   0  0  0  0  0  0  0  0  0  0  0  0
   11.3876    3.4796   12.6335 O   0  0  0  0  0  0  0  0  0  0  0  0
   13.6600    3.5190   11.7823 O   0  0  0  0  0  0  0  0  0  0  0  0
   11.8939    2.2610   10.2991 C   0  0  0  0  0  0  0  0  0  0  0  0
   12.9640    1.4756    9.2387 S   0  0  0  0  0  0  0  0  0  0  0  0
   11.9027    0.3229    8.5778 C   0  0  0  0  0  0  0  0  0  0  0  0
   10.7175    0.5836    9.2121 C   0  0  0  0  0  0  0  0  0  0  0  0
   10.7138    1.5947   10.1103 C   0  0  0  0  0  0  0  0  0  0  0  0
   12.2179   -0.9304    7.3584 Cl  0  0  0  0  0  0  0  0  0  0  0  0
    8.4473    7.5540   13.3972 C   0  0  0  0  0  0  0  0  0  0  0  0
    7.1262    7.8540   13.8753 N   0  0  0  0  0  0  0  0  0  0  0  0
    6.1435    8.5586   13.1318 C   0  0  0  0  0  0  0  0  0  0  0  0
    6.3133    9.0119   11.9500 O   0  0  0  0  0  0  0  0  0  0  0  0
    4.9347    8.7037   13.8660 N   0  0  0  0  0  0  0  0  0  0  0  0
    5.2147    8.2703   15.2222 C   0  0  0  0  0  0  0  0  0  0  0  0
    4.1860    7.3048   15.7356 C   0  0  0  0  0  0  0  0  0  0  0  0
    2.9740    7.9661   16.3224 C   0  0  0  0  0  0  0  0  0  0  0  0
    3.2951    9.0343   17.3260 C   0  0  0  0  0  0  0  0  0  0  0  0
    4.7828    9.2775   17.4564 C   0  0  0  0  0  0  0  0  0  0  0  0
    5.3353    9.5153   16.0685 C   0  0  0  0  0  0  0  0  0  0  0  0
    6.5071    7.5477   15.1175 C   0  0  0  0  0  0  0  0  0  0  0  0
    7.0098    6.7786   15.9707 O   0  0  0  0  0  0  0  0  0  0  0  0
    3.6656    9.1962   13.3313 C   0  0  0  0  0  0  0  0  0  0  0  0
  9 10  2  0  0  0
  9 11  2  0  0  0
  9  1  1  0  0  0
  9 12  1  0  0  0
  1  2  1  0  0  0
  1  6  1  0  0  0
  2  3  1  0  0  0
  3  4  1  0  0  0
  4  5  1  0  0  0
  4  7  1  0  0  0
  5  6  1  0  0  0
  7  8  2  0  0  0
  7 18  1  0  0  0
 18 19  1  0  0  0
 19 20  1  0  0  0
 19 29  1  0  0  0
 20 21  2  0  0  0
 20 22  1  0  0  0
 22 23  1  0  0  0
 22 31  1  0  0  0
 23 24  1  0  0  0
 23 28  1  0  0  0
 23 29  1  0  0  0
 24 25  1  0  0  0
 25 26  1  0  0  0
 26 27  1  0  0  0
 27 28  1  0  0  0
 29 30  2  0  0  0
 12 13  1  0  0  0
 12 16  2  0  0  0
 13 14  1  0  0  0
 14 15  2  0  0  0
 14 17  1  0  0  0
 15 16  1  0  0  0
M  END
> <minimizedAffinity>
-9.28610

$$$$
2298


 34 37  0  0  0  0  0  0  0  0999 V2000
   10.3808    4.1437   11.1115 C   0  0  0  0  0  0  0  0  0  0  0  0
   13.5404    2.7978   10.3819 N   0  0  0  0  0  0  0  0  0  0  0  0
   13.4653    2.5677   11.7397 C   0  0  0  0  0  0  0  0  0  0  0  0
   12.1236    2.9858   12.2780 C   0  0  0  0  0  0  0  0  0  0  0  0
   11.6309    4.2310   11.8087 N   0  0  0  0  0  0  0  0  0  0  0  0
   12.6207    4.9393   11.0624 C   0  0  0  0  0  0  0  0  0  0  0  0
   13.1556    4.0651    9.9320 C   0  0  0  0  0  0  0  0  0  0  0  0
   14.0520    1.6590    9.2846 S   0  0  0  0  0  0  0  0  0  0  0  0
   14.6060    2.2482    8.0108 O   0  0  0  0  0  0  0  0  0  0  0  0
   15.1324    0.7379    9.8058 O   0  0  0  0  0  0  0  0  0  0  0  0
   12.6946    0.6503    8.7929 C   0  0  0  0  0  0  0  0  0  0  0  0
   12.7873   -0.1904    7.7185 C   0  0  0  0  0  0  0  0  0  0  0  0
   11.7343   -0.9771    7.3321 C   0  0  0  0  0  0  0  0  0  0  0  0
   10.5576   -0.9134    8.0458 C   0  0  0  0  0  0  0  0  0  0  0  0
   10.4602   -0.0643    9.1319 C   0  0  0  0  0  0  0  0  0  0  0  0
   11.5213    0.7182    9.5102 C   0  0  0  0  0  0  0  0  0  0  0  0
    9.2276   -1.9330    7.5256 Cl  0  0  0  0  0  0  0  0  0  0  0  0
    9.6554    5.4585   11.1335 C   0  0  0  0  0  0  0  0  0  0  0  0
    9.3840    5.9732   10.0269 O   0  0  0  0  0  0  0  0  0  0  0  0
    9.2965    6.0827   12.3546 N   0  0  0  0  0  0  0  0  0  0  0  0
    9.5534    5.5933   13.2532 H   0  0  0  0  0  0  0  0  0  0  0  0
    8.6062    7.3375   12.2808 C   0  0  0  0  0  0  0  0  0  0  0  0
    7.5692    7.5873   13.3070 C   0  0  0  0  0  0  0  0  0  0  0  0
    8.0346    8.6816   14.2361 C   0  0  0  0  0  0  0  0  0  0  0  0
    8.7810    8.1278   15.4541 C   0  0  0  0  0  0  0  0  0  0  0  0
    7.8269    7.3604   16.3475 C   0  0  0  0  0  0  0  0  0  0  0  0
    6.7774    6.7292   15.4510 C   0  0  0  0  0  0  0  0  0  0  0  0
    7.5001    6.3217   14.1843 C   0  0  0  0  0  0  0  0  0  0  0  0
    6.2494    7.8386   12.8719 N   0  0  0  0  0  0  0  0  0  0  0  0
    5.7482    9.1638   12.9639 C   0  0  0  0  0  0  0  0  0  0  0  0
    4.2171    9.0450   12.8531 C   0  0  0  0  0  0  0  0  0  0  0  0
    3.8711    8.5381   11.6237 O   0  0  0  0  0  0  0  0  0  0  0  0
    4.9367    8.2216   10.8194 C   0  0  0  0  0  0  0  0  0  0  0  0
    5.9622    7.3470   11.5416 C   0  0  0  0  0  0  0  0  0  0  0  0
  8  9  2  0  0  0
  8 10  2  0  0  0
  8  2  1  0  0  0
  8 11  1  0  0  0
  2  3  1  0  0  0
  2  7  1  0  0  0
  3  4  1  0  0  0
  4  5  1  0  0  0
  5  6  1  0  0  0
  5  1  1  0  0  0
  6  7  1  0  0  0
  1 18  1  0  0  0
 18 19  2  0  0  0
 18 20  1  0  0  0
 20 22  1  0  0  0
 22 23  1  0  0  0
 23 24  1  0  0  0
 23 28  1  0  0  0
 23 29  1  0  0  0
 24 25  1  0  0  0
 25 26  1  0  0  0
 26 27  1  0  0  0
 27 28  1  0  0  0
 29 30  1  0  0  0
 29 34  1  0  0  0
 30 31  1  0  0  0
 31 32  1  0  0  0
 32 33  1  0  0  0
 33 34  1  0  0  0
 11 12  2  0  0  0
 11 16  1  0  0  0
 12 13  1  0  0  0
 13 14  2  0  0  0
 14 15  1  0  0  0
 14 17  1  0  0  0
 15 16  2  0  0  0
 20 21  1  0  0  0
M  END
> <minimizedAffinity>
-9.12425

$$$$
2301


 24 27  0  0  0  0  0  0  0  0999 V2000
   10.9398    6.2603   12.6096 C   0  0  0  0  0  0  0  0  0  0  0  0
    9.7539    5.9464   13.4604 C   0  0  0  0  0  0  0  0  0  0  0  0
    8.4636    5.9876   12.6230 C   0  0  0  0  0  0  0  0  0  0  0  0
    8.3783    7.4018   12.2305 N   0  0  0  0  0  0  0  0  0  0  0  0
    9.4136    7.8349   11.3462 C   0  0  0  0  0  0  0  0  0  0  0  0
   10.7965    7.5166   11.8351 C   0  0  0  0  0  0  0  0  0  0  0  0
   12.0190    6.4433   13.5118 O   0  0  0  0  0  0  0  0  0  0  0  0
   11.9699    7.3978   13.8279 H   0  0  0  0  0  0  0  0  0  0  0  0
    7.3190    8.1889   12.7428 C   0  0  0  0  0  0  0  0  0  0  0  0
    6.0680    7.9902   12.2935 N   0  0  0  0  0  0  0  0  0  0  0  0
    4.9998    8.6484   12.6991 N   0  0  0  0  0  0  0  0  0  0  0  0
    3.6981    8.6138   12.4018 N   0  0  0  0  0  0  0  0  0  0  0  0
    3.0378    9.5016   13.1109 N   0  0  0  0  0  0  0  0  0  0  0  0
    3.9022   10.1145   13.8723 N   0  0  0  0  0  0  0  0  0  0  0  0
    5.1300    9.5946   13.6271 C   0  0  0  0  0  0  0  0  0  0  0  0
    6.3896    9.8563   14.1384 C   0  0  0  0  0  0  0  0  0  0  0  0
    7.4956    9.1582   13.7018 C   0  0  0  0  0  0  0  0  0  0  0  0
   12.4159    1.1685    9.7331 Cl  0  0  0  0  0  0  0  0  0  0  0  0
   11.9833    2.6568   10.5490 C   0  0  0  0  0  0  0  0  0  0  0  0
   11.9628    3.8803    9.8928 C   0  0  0  0  0  0  0  0  0  0  0  0
   11.6388    5.0626   10.4983 C   0  0  0  0  0  0  0  0  0  0  0  0
   11.3106    5.0723   11.8233 C   0  0  0  0  0  0  0  0  0  0  0  0
   11.3196    3.8591   12.5098 C   0  0  0  0  0  0  0  0  0  0  0  0
   11.6510    2.6747   11.8805 C   0  0  0  0  0  0  0  0  0  0  0  0
 18 19  1  0  0  0
 19 20  2  0  0  0
 19 24  1  0  0  0
 20 21  1  0  0  0
 21 22  2  0  0  0
 22 23  1  0  0  0
 22  1  1  0  0  0
 23 24  2  0  0  0
  1  2  1  0  0  0
  1  6  1  0  0  0
  1  7  1  0  0  0
  2  3  1  0  0  0
  3  4  1  0  0  0
  4  5  1  0  0  0
  4  9  1  0  0  0
  5  6  1  0  0  0
  9 10  2  0  0  0
  9 17  1  0  0  0
 10 11  1  0  0  0
 11 12  1  0  0  0
 11 15  1  0  0  0
 12 13  2  0  0  0
 13 14  1  0  0  0
 14 15  2  0  0  0
 15 16  1  0  0  0
 16 17  2  0  0  0
  7  8  1  0  0  0
M  END
> <minimizedAffinity>
-8.33182

$$$$
2304


 28 31  0  0  0  0  0  0  0  0999 V2000
   11.6680    4.6626   11.2145 N   0  0  0  0  0  0  0  0  0  0  0  0
   12.3741    5.7602   11.7574 C   0  0  0  0  0  0  0  0  0  0  0  0
   11.5537    7.0070   11.9587 C   0  0  0  0  0  0  0  0  0  0  0  0
   10.2516    6.7439   12.5042 N   0  0  0  0  0  0  0  0  0  0  0  0
    9.8166    5.3698   12.5238 C   0  0  0  0  0  0  0  0  0  0  0  0
   10.2501    4.7534   11.1967 C   0  0  0  0  0  0  0  0  0  0  0  0
    9.4607    7.8013   12.9831 C   0  0  0  0  0  0  0  0  0  0  0  0
    9.9427    8.9665   12.9017 O   0  0  0  0  0  0  0  0  0  0  0  0
    8.1048    7.6329   13.5743 C   0  0  0  0  0  0  0  0  0  0  0  0
    7.0817    7.8760   12.6248 N   0  0  0  0  0  0  0  0  0  0  0  0
    6.6123    9.2195   12.5234 C   0  0  0  0  0  0  0  0  0  0  0  0
    6.8180    9.8417   14.2050 S   0  0  0  0  0  0  0  0  0  0  0  0
    7.9025    8.4816   14.7940 C   0  0  0  0  0  0  0  0  0  0  0  0
    5.1243    9.0371   12.2936 C   0  0  0  0  0  0  0  0  0  0  0  0
    5.1816    7.9579   11.2043 C   0  0  0  0  0  0  0  0  0  0  0  0
    6.3069    7.1401   11.6499 C   0  0  0  0  0  0  0  0  0  0  0  0
    6.5348    5.9684   11.2227 O   0  0  0  0  0  0  0  0  0  0  0  0
    7.2457   10.0595   11.4873 C   0  0  0  0  0  0  0  0  0  0  0  0
   12.3036    3.1290   11.5656 S   0  0  0  0  0  0  0  0  0  0  0  0
   13.7867    3.1932   11.7539 O   0  0  0  0  0  0  0  0  0  0  0  0
   11.7208    2.6618   12.8765 O   0  0  0  0  0  0  0  0  0  0  0  0
   11.8740    1.9145   10.3646 C   0  0  0  0  0  0  0  0  0  0  0  0
   12.8506    1.2922    9.6192 C   0  0  0  0  0  0  0  0  0  0  0  0
   12.5493    0.3411    8.6728 C   0  0  0  0  0  0  0  0  0  0  0  0
   11.2419   -0.0368    8.4250 C   0  0  0  0  0  0  0  0  0  0  0  0
   10.2832    0.6063    9.1899 C   0  0  0  0  0  0  0  0  0  0  0  0
   10.5692    1.5567   10.1381 C   0  0  0  0  0  0  0  0  0  0  0  0
   10.8225   -1.2438    7.2275 Cl  0  0  0  0  0  0  0  0  0  0  0  0
 19 20  2  0  0  0
 19 21  2  0  0  0
 19  1  1  0  0  0
 19 22  1  0  0  0
  1  2  1  0  0  0
  1  6  1  0  0  0
  2  3  1  0  0  0
  3  4  1  0  0  0
  4  5  1  0  0  0
  4  7  1  0  0  0
  5  6  1  0  0  0
  7  8  2  0  0  0
  7  9  1  0  0  0
  9 10  1  0  0  0
  9 13  1  0  0  0
 10 11  1  0  0  0
 10 16  1  0  0  0
 11 12  1  0  0  0
 11 14  1  0  0  0
 11 18  1  0  0  0
 12 13  1  0  0  0
 14 15  1  0  0  0
 15 16  1  0  0  0
 16 17  2  0  0  0
 22 23  2  0  0  0
 22 27  1  0  0  0
 23 24  1  0  0  0
 24 25  2  0  0  0
 25 26  1  0  0  0
 25 28  1  0  0  0
 26 27  2  0  0  0
M  END
> <minimizedAffinity>
-9.65712

$$$$
2319


 33 36  0  0  0  0  0  0  0  0999 V2000
   10.1354    5.8474   11.8610 N   0  0  0  0  0  0  0  0  0  0  0  0
    8.9540    6.6219   11.8648 C   0  0  0  0  0  0  0  0  0  0  0  0
    7.9116    6.1894   11.3308 O   0  0  0  0  0  0  0  0  0  0  0  0
   11.0394    6.1444   12.2862 H   0  0  0  0  0  0  0  0  0  0  0  0
   14.8263    1.0544    8.6094 Br  0  0  0  0  0  0  0  0  0  0  0  0
   12.9999    1.3565    9.0956 C   0  0  0  0  0  0  0  0  0  0  0  0
   12.6034    2.5073    9.7456 C   0  0  0  0  0  0  0  0  0  0  0  0
   11.2851    2.7377   10.1001 C   0  0  0  0  0  0  0  0  0  0  0  0
   10.3792    1.7533    9.7704 C   0  0  0  0  0  0  0  0  0  0  0  0
   10.7367    0.5919    9.1234 C   0  0  0  0  0  0  0  0  0  0  0  0
   12.0600    0.3768    8.7750 C   0  0  0  0  0  0  0  0  0  0  0  0
    9.4289   -0.7345    8.6940 Br  0  0  0  0  0  0  0  0  0  0  0  0
   11.1397    4.0224   10.7683 C   0  0  0  0  0  0  0  0  0  0  0  0
   10.0971    4.5941   11.2426 N   0  0  0  0  0  0  0  0  0  0  0  0
   12.4873    4.6005   10.8115 C   0  0  0  0  0  0  0  0  0  0  0  0
   12.7546    5.7210   11.3227 O   0  0  0  0  0  0  0  0  0  0  0  0
   13.3273    3.6516   10.1850 N   0  0  0  0  0  0  0  0  0  0  0  0
   14.3467    3.7713   10.0597 H   0  0  0  0  0  0  0  0  0  0  0  0
    8.8876    7.9777   12.4965 C   0  0  0  0  0  0  0  0  0  0  0  0
    7.5397    8.3519   12.8256 N   0  0  0  0  0  0  0  0  0  0  0  0
    7.1118    9.7050   12.9052 C   0  0  0  0  0  0  0  0  0  0  0  0
    7.9481   10.6062   12.6776 O   0  0  0  0  0  0  0  0  0  0  0  0
    6.8076    7.6295   13.0217 H   0  0  0  0  0  0  0  0  0  0  0  0
    5.7155   10.1094   13.2488 C   0  0  0  0  0  0  0  0  0  0  0  0
    5.6039   10.5217   14.5787 O   0  0  0  0  0  0  0  0  0  0  0  0
    4.9402    9.8144   15.5788 C   0  0  0  0  0  0  0  0  0  0  0  0
    4.0426    8.8617   15.1746 C   0  0  0  0  0  0  0  0  0  0  0  0
    3.3625    8.1387   16.1547 C   0  0  0  0  0  0  0  0  0  0  0  0
    3.5609    8.3497   17.5001 C   0  0  0  0  0  0  0  0  0  0  0  0
    4.4735    9.3187   17.8695 C   0  0  0  0  0  0  0  0  0  0  0  0
    5.1472   10.0345   16.9077 C   0  0  0  0  0  0  0  0  0  0  0  0
    3.8379    8.6446   13.8400 O   0  0  0  0  0  0  0  0  0  0  0  0
    4.7085    9.0930   12.8383 C   0  0  0  0  0  0  0  0  0  0  0  0
  5  6  1  0  0  0
  6  7  2  0  0  0
  6 11  1  0  0  0
  7  8  1  0  0  0
  7 17  1  0  0  0
  8  9  2  0  0  0
  8 13  1  0  0  0
  9 10  1  0  0  0
 10 11  2  0  0  0
 10 12  1  0  0  0
 13 14  2  0  0  0
 13 15  1  0  0  0
 14  1  1  0  0  0
  1  2  1  0  0  0
  2  3  2  0  0  0
  2 19  1  0  0  0
 19 20  1  0  0  0
 20 21  1  0  0  0
 21 22  2  0  0  0
 21 24  1  0  0  0
 24 25  1  0  0  0
 24 33  1  0  0  0
 25 26  1  0  0  0
 26 27  2  0  0  0
 26 31  1  0  0  0
 27 28  1  0  0  0
 27 32  1  0  0  0
 28 29  2  0  0  0
 29 30  1  0  0  0
 30 31  2  0  0  0
 32 33  1  0  0  0
 15 16  2  0  0  0
 15 17  1  0  0  0
  1  4  1  0  0  0
 20 23  1  0  0  0
 17 18  1  0  0  0
M  END
> <minimizedAffinity>
-9.93606

$$$$
2330


 28 31  0  0  0  0  0  0  0  0999 V2000
   11.2753    4.6438   11.4550 C   0  0  0  0  0  0  0  0  0  0  0  0
   11.2680    5.6205   10.6711 O   0  0  0  0  0  0  0  0  0  0  0  0
   10.7469    4.7923   12.7385 N   0  0  0  0  0  0  0  0  0  0  0  0
   10.7924    3.8862   13.3285 H   0  0  0  0  0  0  0  0  0  0  0  0
   14.1657    4.1906   12.0642 Cl  0  0  0  0  0  0  0  0  0  0  0  0
   13.1749    3.0508   11.1656 C   0  0  0  0  0  0  0  0  0  0  0  0
   11.8529    3.3831   10.9540 C   0  0  0  0  0  0  0  0  0  0  0  0
   11.0930    2.4759   10.2469 C   0  0  0  0  0  0  0  0  0  0  0  0
   11.5676    1.2885    9.7541 C   0  0  0  0  0  0  0  0  0  0  0  0
   12.9150    0.9977    9.9948 C   0  0  0  0  0  0  0  0  0  0  0  0
   13.7202    1.8599   10.6916 C   0  0  0  0  0  0  0  0  0  0  0  0
   10.7470    0.3447    9.0088 C   0  0  0  0  0  0  0  0  0  0  0  0
   11.0820   -0.4541    7.9913 N   0  0  0  0  0  0  0  0  0  0  0  0
   10.0018   -1.1573    7.6148 N   0  0  0  0  0  0  0  0  0  0  0  0
    8.9904   -0.8053    8.3887 N   0  0  0  0  0  0  0  0  0  0  0  0
    9.4459    0.1133    9.2433 N   0  0  0  0  0  0  0  0  0  0  0  0
    9.9481   -1.8643    6.8459 H   0  0  0  0  0  0  0  0  0  0  0  0
   10.1760    5.9033   13.3833 C   0  0  0  0  0  0  0  0  0  0  0  0
    8.7572    5.9149   13.7621 C   0  0  0  0  0  0  0  0  0  0  0  0
    7.7443    6.2324   12.7591 C   0  0  0  0  0  0  0  0  0  0  0  0
    6.8206    7.1982   12.8060 N   0  0  0  0  0  0  0  0  0  0  0  0
    6.1311    7.1698   11.6767 C   0  0  0  0  0  0  0  0  0  0  0  0
    6.6270    6.1807   10.9215 N   0  0  0  0  0  0  0  0  0  0  0  0
    7.6026    5.6165   11.5800 N   0  0  0  0  0  0  0  0  0  0  0  0
    5.0999    8.0468   11.4156 C   0  0  0  0  0  0  0  0  0  0  0  0
    4.7982    8.9800   12.3904 C   0  0  0  0  0  0  0  0  0  0  0  0
    5.5164    9.0015   13.5550 C   0  0  0  0  0  0  0  0  0  0  0  0
    6.5269    8.1081   13.7556 C   0  0  0  0  0  0  0  0  0  0  0  0
  5  6  1  0  0  0
  6  7  2  0  0  0
  6 11  1  0  0  0
  7  8  1  0  0  0
  7  1  1  0  0  0
  8  9  2  0  0  0
  9 10  1  0  0  0
  9 12  1  0  0  0
 10 11  2  0  0  0
 12 13  2  0  0  0
 12 16  1  0  0  0
 13 14  1  0  0  0
 14 15  1  0  0  0
 15 16  2  0  0  0
  1  2  2  0  0  0
  1  3  1  0  0  0
  3 18  1  0  0  0
 18 19  1  0  0  0
 19 20  1  0  0  0
 20 21  1  0  0  0
 20 24  2  0  0  0
 21 22  1  0  0  0
 21 28  1  0  0  0
 22 23  2  0  0  0
 22 25  1  0  0  0
 23 24  1  0  0  0
 25 26  2  0  0  0
 26 27  1  0  0  0
 27 28  2  0  0  0
 14 17  1  0  0  0
  3  4  1  0  0  0
M  END
> <minimizedAffinity>
-9.40348

$$$$
2334


 30 33  0  0  0  0  0  0  0  0999 V2000
   11.1360    5.9843   10.5547 S   0  0  0  0  0  0  0  0  0  0  0  0
   12.5556    6.5220   10.3588 O   0  0  0  0  0  0  0  0  0  0  0  0
   10.4432    6.2709    9.2174 O   0  0  0  0  0  0  0  0  0  0  0  0
   10.3332    6.8866   11.7695 C   0  0  0  0  0  0  0  0  0  0  0  0
   10.9878    7.4224   12.8514 C   0  0  0  0  0  0  0  0  0  0  0  0
   10.2931    8.1990   13.7667 C   0  0  0  0  0  0  0  0  0  0  0  0
    8.9268    8.4523   13.6176 C   0  0  0  0  0  0  0  0  0  0  0  0
    8.2575    7.9190   12.5391 C   0  0  0  0  0  0  0  0  0  0  0  0
    8.9639    7.1523   11.6426 C   0  0  0  0  0  0  0  0  0  0  0  0
   12.6747    7.1162   13.2056 Cl  0  0  0  0  0  0  0  0  0  0  0  0
    6.8330    8.1657   12.3604 C   0  0  0  0  0  0  0  0  0  0  0  0
    6.1533    8.0831   11.2043 N   0  0  0  0  0  0  0  0  0  0  0  0
    4.8966    8.3684   11.4066 O   0  0  0  0  0  0  0  0  0  0  0  0
    4.7206    8.6397   12.6724 C   0  0  0  0  0  0  0  0  0  0  0  0
    5.9175    8.5178   13.2775 N   0  0  0  0  0  0  0  0  0  0  0  0
    3.4289    9.0200   13.3428 C   0  0  0  0  0  0  0  0  0  0  0  0
   11.2819    4.3124   10.7882 N   0  0  0  0  0  0  0  0  0  0  0  0
   11.9700    3.5849    9.7819 C   0  0  0  0  0  0  0  0  0  0  0  0
   12.0835    2.1088   10.0840 C   0  0  0  0  0  0  0  0  0  0  0  0
   12.7251    1.8970   11.4120 C   0  0  0  0  0  0  0  0  0  0  0  0
   12.0688    2.7369   12.4942 C   0  0  0  0  0  0  0  0  0  0  0  0
   12.0368    4.1572   12.0489 C   0  0  0  0  0  0  0  0  0  0  0  0
   10.8365    1.3489    9.8641 C   0  0  0  0  0  0  0  0  0  0  0  0
    9.7656    1.9278   10.2797 O   0  0  0  0  0  0  0  0  0  0  0  0
   10.6978    0.1040    9.2664 N   0  0  0  0  0  0  0  0  0  0  0  0
    9.4180   -0.5053    9.0819 C   0  0  0  0  0  0  0  0  0  0  0  0
    9.2993   -1.2885    7.8043 C   0  0  0  0  0  0  0  0  0  0  0  0
   10.4708   -1.7404    7.2822 O   0  0  0  0  0  0  0  0  0  0  0  0
   11.5432   -0.8737    7.3183 C   0  0  0  0  0  0  0  0  0  0  0  0
   11.8378   -0.6540    8.8117 C   0  0  0  0  0  0  0  0  0  0  0  0
  1  2  2  0  0  0
  1  3  2  0  0  0
  1 17  1  0  0  0
  1  4  1  0  0  0
 17 18  1  0  0  0
 17 22  1  0  0  0
 18 19  1  0  0  0
 19 20  1  0  0  0
 19 23  1  0  0  0
 20 21  1  0  0  0
 21 22  1  0  0  0
 23 24  2  0  0  0
 23 25  1  0  0  0
 25 26  1  0  0  0
 25 30  1  0  0  0
 26 27  1  0  0  0
 27 28  1  0  0  0
 28 29  1  0  0  0
 29 30  1  0  0  0
  4  5  2  0  0  0
  4  9  1  0  0  0
  5  6  1  0  0  0
  5 10  1  0  0  0
  6  7  2  0  0  0
  7  8  1  0  0  0
  8  9  2  0  0  0
  8 11  1  0  0  0
 11 12  2  0  0  0
 11 15  1  0  0  0
 12 13  1  0  0  0
 13 14  1  0  0  0
 14 15  2  0  0  0
 14 16  1  0  0  0
M  END
> <minimizedAffinity>
-9.42452

$$$$
2335


 35 38  0  0  0  0  0  0  0  0999 V2000
    8.7568    7.0326   13.0109 N   0  0  0  0  0  0  0  0  0  0  0  0
    7.6557    7.9078   13.0926 C   0  0  0  0  0  0  0  0  0  0  0  0
    7.9486    9.1816   13.8553 C   0  0  0  0  0  0  0  0  0  0  0  0
    9.0094    9.0459   14.8793 C   0  0  0  0  0  0  0  0  0  0  0  0
    9.3743    7.6681   15.2962 C   0  0  0  0  0  0  0  0  0  0  0  0
    9.3654    6.6316   14.2016 C   0  0  0  0  0  0  0  0  0  0  0  0
    6.7117    9.7281   14.4697 C   0  0  0  0  0  0  0  0  0  0  0  0
    6.8318   10.4723   15.4736 O   0  0  0  0  0  0  0  0  0  0  0  0
    5.4157    9.4058   13.9169 N   0  0  0  0  0  0  0  0  0  0  0  0
    5.4295    8.7840   13.1046 H   0  0  0  0  0  0  0  0  0  0  0  0
    4.2788    9.9642   14.5530 C   0  0  0  0  0  0  0  0  0  0  0  0
    3.0768    9.1201   14.7468 C   0  0  0  0  0  0  0  0  0  0  0  0
    2.8452    8.5256   16.0104 N   0  0  0  0  0  0  0  0  0  0  0  0
    2.6989    9.3556   17.1154 C   0  0  0  0  0  0  0  0  0  0  0  0
    3.7648    9.2677   18.1692 C   0  0  0  0  0  0  0  0  0  0  0  0
    4.1889    7.9660   18.3916 O   0  0  0  0  0  0  0  0  0  0  0  0
    4.7673    7.5302   17.1998 C   0  0  0  0  0  0  0  0  0  0  0  0
    3.6407    7.3368   16.2112 C   0  0  0  0  0  0  0  0  0  0  0  0
    9.3384    6.5639   11.5262 S   0  0  0  0  0  0  0  0  0  0  0  0
    9.3707    7.7839   10.6072 O   0  0  0  0  0  0  0  0  0  0  0  0
    8.3082    5.6529   10.8701 O   0  0  0  0  0  0  0  0  0  0  0  0
   10.8637    5.7588   11.5047 C   0  0  0  0  0  0  0  0  0  0  0  0
   10.9378    4.4128   11.1804 C   0  0  0  0  0  0  0  0  0  0  0  0
   12.1284    3.7287   11.1355 C   0  0  0  0  0  0  0  0  0  0  0  0
   13.3127    4.4149   11.4294 C   0  0  0  0  0  0  0  0  0  0  0  0
   13.2298    5.7311   11.7458 C   0  0  0  0  0  0  0  0  0  0  0  0
   12.0286    6.4194   11.7899 C   0  0  0  0  0  0  0  0  0  0  0  0
   12.0349    8.2917   12.2579 Br  0  0  0  0  0  0  0  0  0  0  0  0
   14.4809    3.4989   11.3261 C   0  0  0  0  0  0  0  0  0  0  0  0
   13.8201    2.1444   11.4807 C   0  0  0  0  0  0  0  0  0  0  0  0
   12.5252    2.3974   10.8381 N   0  0  0  0  0  0  0  0  0  0  0  0
   11.8516    1.4467   10.0741 C   0  0  0  0  0  0  0  0  0  0  0  0
   12.3868    0.3027    9.8703 O   0  0  0  0  0  0  0  0  0  0  0  0
   10.5400    1.6640    9.4673 C   0  0  0  0  0  0  0  0  0  0  0  0
    9.8375    0.3494    9.1369 C   0  0  0  0  0  0  0  0  0  0  0  0
 19 20  2  0  0  0
 19 21  2  0  0  0
 19  1  1  0  0  0
 19 22  1  0  0  0
  1  2  1  0  0  0
  1  6  1  0  0  0
  2  3  1  0  0  0
  3  4  1  0  0  0
  3  7  1  0  0  0
  4  5  1  0  0  0
  5  6  1  0  0  0
  7  8  2  0  0  0
  7  9  1  0  0  0
  9 11  1  0  0  0
 11 12  1  0  0  0
 12 13  1  0  0  0
 13 14  1  0  0  0
 13 18  1  0  0  0
 14 15  1  0  0  0
 15 16  1  0  0  0
 16 17  1  0  0  0
 17 18  1  0  0  0
 22 23  2  0  0  0
 22 27  1  0  0  0
 23 24  1  0  0  0
 24 25  2  0  0  0
 24 31  1  0  0  0
 25 26  1  0  0  0
 25 29  1  0  0  0
 26 27  2  0  0  0
 27 28  1  0  0  0
 29 30  1  0  0  0
 30 31  1  0  0  0
 31 32  1  0  0  0
 32 33  2  0  0  0
 32 34  1  0  0  0
 34 35  1  0  0  0
  9 10  1  0  0  0
M  END
> <minimizedAffinity>
-8.39470

$$$$
2345


 27 30  0  0  0  0  0  0  0  0999 V2000
   11.0931    4.8029   12.1988 C   0  0  0  0  0  0  0  0  0  0  0  0
   11.0264    3.7765   12.9732 O   0  0  0  0  0  0  0  0  0  0  0  0
   10.5496    5.9905   12.7000 N   0  0  0  0  0  0  0  0  0  0  0  0
    9.9415    6.0181   14.0204 C   0  0  0  0  0  0  0  0  0  0  0  0
    8.4976    6.5028   13.9346 C   0  0  0  0  0  0  0  0  0  0  0  0
    8.3973    7.4878   12.8985 N   0  0  0  0  0  0  0  0  0  0  0  0
    9.5614    8.2465   12.5556 C   0  0  0  0  0  0  0  0  0  0  0  0
   10.5585    7.2316   11.9626 C   0  0  0  0  0  0  0  0  0  0  0  0
   11.5503    2.5886    9.6519 N   0  0  0  0  0  0  0  0  0  0  0  0
   10.8888    3.8670    9.8829 C   0  0  0  0  0  0  0  0  0  0  0  0
   11.7272    4.6034   10.8901 C   0  0  0  0  0  0  0  0  0  0  0  0
   13.0665    3.9454   10.9122 C   0  0  0  0  0  0  0  0  0  0  0  0
   12.9429    2.8209    9.9556 C   0  0  0  0  0  0  0  0  0  0  0  0
   13.8523    2.1044    9.4236 O   0  0  0  0  0  0  0  0  0  0  0  0
    9.0794   -2.5651    7.8336 Cl  0  0  0  0  0  0  0  0  0  0  0  0
    9.8113   -1.0519    8.3660 C   0  0  0  0  0  0  0  0  0  0  0  0
   11.0383   -0.6637    7.8977 C   0  0  0  0  0  0  0  0  0  0  0  0
   11.6008    0.5255    8.3232 C   0  0  0  0  0  0  0  0  0  0  0  0
   10.9702    1.3623    9.2186 C   0  0  0  0  0  0  0  0  0  0  0  0
    9.7353    0.9592    9.6808 C   0  0  0  0  0  0  0  0  0  0  0  0
    9.1570   -0.2455    9.2556 C   0  0  0  0  0  0  0  0  0  0  0  0
    7.1794    7.7047   12.2195 C   0  0  0  0  0  0  0  0  0  0  0  0
    6.3867    8.8089   12.3019 N   0  0  0  0  0  0  0  0  0  0  0  0
    5.3228    8.6415   11.5052 C   0  0  0  0  0  0  0  0  0  0  0  0
    5.4280    7.4114   10.9004 C   0  0  0  0  0  0  0  0  0  0  0  0
    6.5512    6.8841   11.3546 N   0  0  0  0  0  0  0  0  0  0  0  0
    6.6561    9.9895   13.1335 C   0  0  0  0  0  0  0  0  0  0  0  0
 15 16  1  0  0  0
 16 17  2  0  0  0
 16 21  1  0  0  0
 17 18  1  0  0  0
 18 19  2  0  0  0
 19 20  1  0  0  0
 19  9  1  0  0  0
 20 21  2  0  0  0
  9 10  1  0  0  0
  9 13  1  0  0  0
 10 11  1  0  0  0
 11 12  1  0  0  0
 11  1  1  0  0  0
 12 13  1  0  0  0
 13 14  2  0  0  0
  1  2  2  0  0  0
  1  3  1  0  0  0
  3  4  1  0  0  0
  3  8  1  0  0  0
  4  5  1  0  0  0
  5  6  1  0  0  0
  6  7  1  0  0  0
  6 22  1  0  0  0
  7  8  1  0  0  0
 22 23  1  0  0  0
 22 26  2  0  0  0
 23 24  1  0  0  0
 23 27  1  0  0  0
 24 25  2  0  0  0
 25 26  1  0  0  0
M  END
> <minimizedAffinity>
-8.70316

$$$$
2349


 28 31  0  0  0  0  0  0  0  0999 V2000
    6.3718    7.9709   12.6546 N   0  0  0  0  0  0  0  0  0  0  0  0
    5.2927    8.2330   11.7458 C   0  0  0  0  0  0  0  0  0  0  0  0
    5.4321    7.9208   10.5297 O   0  0  0  0  0  0  0  0  0  0  0  0
    4.1301    8.8326   12.2906 N   0  0  0  0  0  0  0  0  0  0  0  0
    3.9765    9.1582   13.4972 C   0  0  0  0  0  0  0  0  0  0  0  0
    4.9946    8.9823   14.5897 C   0  0  0  0  0  0  0  0  0  0  0  0
    5.3614   10.3828   14.9926 C   0  0  0  0  0  0  0  0  0  0  0  0
    5.8733   10.5720   16.2944 N   0  0  0  0  0  0  0  0  0  0  0  0
    5.2557    9.8230   17.3238 C   0  0  0  0  0  0  0  0  0  0  0  0
    4.5455    8.7061   17.0209 C   0  0  0  0  0  0  0  0  0  0  0  0
    3.9537    7.9944   18.0609 C   0  0  0  0  0  0  0  0  0  0  0  0
    4.0958    8.4306   19.3626 C   0  0  0  0  0  0  0  0  0  0  0  0
    4.8207    9.5719   19.6705 C   0  0  0  0  0  0  0  0  0  0  0  0
    5.4080   10.2746   18.6199 C   0  0  0  0  0  0  0  0  0  0  0  0
    3.4626    7.6931   20.5018 C   0  0  0  0  0  0  0  0  0  0  0  0
    4.3536    8.1765   15.6533 C   0  0  0  0  0  0  0  0  0  0  0  0
    7.3195   10.4756   16.4183 C   0  0  0  0  0  0  0  0  0  0  0  0
    6.1902    8.3181   14.0156 C   0  0  0  0  0  0  0  0  0  0  0  0
    7.1804    8.0021   14.7683 O   0  0  0  0  0  0  0  0  0  0  0  0
    2.7704    9.7431   13.9260 O   0  0  0  0  0  0  0  0  0  0  0  0
    5.6679   11.5896   16.5562 H   0  0  0  0  0  0  0  0  0  0  0  0
   11.4477    5.6763   10.3721 Cl  0  0  0  0  0  0  0  0  0  0  0  0
    9.9543    6.3192   11.0292 C   0  0  0  0  0  0  0  0  0  0  0  0
    9.8095    7.6865   11.2662 C   0  0  0  0  0  0  0  0  0  0  0  0
    8.6541    8.2046   11.7860 C   0  0  0  0  0  0  0  0  0  0  0  0
    7.5519    7.4121   12.1129 C   0  0  0  0  0  0  0  0  0  0  0  0
    7.7055    6.0566   11.8727 C   0  0  0  0  0  0  0  0  0  0  0  0
    8.8646    5.5340   11.3513 C   0  0  0  0  0  0  0  0  0  0  0  0
 22 23  1  0  0  0
 23 24  2  0  0  0
 23 28  1  0  0  0
 24 25  1  0  0  0
 25 26  2  0  0  0
 26 27  1  0  0  0
 26  1  1  0  0  0
 27 28  2  0  0  0
  1  2  1  0  0  0
  1 18  1  0  0  0
  2  3  2  0  0  0
  2  4  1  0  0  0
  4  5  2  0  0  0
  5  6  1  0  0  0
  5 20  1  0  0  0
  6  7  1  0  0  0
  6 16  1  0  0  0
  6 18  1  0  0  0
  7  8  1  0  0  0
  8  9  1  0  0  0
  8 17  1  0  0  0
  9 10  2  0  0  0
  9 14  1  0  0  0
 10 11  1  0  0  0
 10 16  1  0  0  0
 11 12  2  0  0  0
 12 13  1  0  0  0
 12 15  1  0  0  0
 13 14  2  0  0  0
 18 19  2  0  0  0
  8 21  1  0  0  0
M  CHG 1   8   1
M  CHG 1  20  -1
M  END
> <minimizedAffinity>
-9.45249

$$$$
2350


 23 26  0  0  0  0  0  0  0  0999 V2000
    8.4362    8.5549   12.4517 N   0  0  0  0  0  0  0  0  0  0  0  0
    7.4650    9.4561   11.8955 C   0  0  0  0  0  0  0  0  0  0  0  0
    7.1780    9.4927   10.6726 O   0  0  0  0  0  0  0  0  0  0  0  0
    6.8728   10.3100   12.9553 C   0  0  0  0  0  0  0  0  0  0  0  0
    5.4100   10.0861   13.1617 C   0  0  0  0  0  0  0  0  0  0  0  0
    5.1219    8.6388   12.8219 C   0  0  0  0  0  0  0  0  0  0  0  0
    5.9002    7.9100   13.9163 C   0  0  0  0  0  0  0  0  0  0  0  0
    6.4268    8.9842   14.8393 C   0  0  0  0  0  0  0  0  0  0  0  0
    7.5343    9.7913   14.2383 C   0  0  0  0  0  0  0  0  0  0  0  0
    8.6929    8.9883   13.7780 C   0  0  0  0  0  0  0  0  0  0  0  0
    9.7121    8.7538   14.4724 O   0  0  0  0  0  0  0  0  0  0  0  0
    5.2719   10.0005   14.6911 C   0  0  0  0  0  0  0  0  0  0  0  0
    5.0517    7.1200   14.6892 O   0  0  0  0  0  0  0  0  0  0  0  0
    3.7808    8.4116   13.0433 O   0  0  0  0  0  0  0  0  0  0  0  0
    5.0479    6.2028   14.2808 H   0  0  0  0  0  0  0  0  0  0  0  0
    3.1761    9.1073   12.6954 H   0  0  0  0  0  0  0  0  0  0  0  0
   10.9903    3.7505    9.9346 Cl  0  0  0  0  0  0  0  0  0  0  0  0
   10.2506    5.1728   10.6668 C   0  0  0  0  0  0  0  0  0  0  0  0
    8.9622    5.1153   11.1634 C   0  0  0  0  0  0  0  0  0  0  0  0
    8.3671    6.2111   11.7412 C   0  0  0  0  0  0  0  0  0  0  0  0
    9.0529    7.4272   11.8457 C   0  0  0  0  0  0  0  0  0  0  0  0
   10.3322    7.4467   11.3411 C   0  0  0  0  0  0  0  0  0  0  0  0
   10.9518    6.3667   10.7588 C   0  0  0  0  0  0  0  0  0  0  0  0
 17 18  1  0  0  0
 18 19  2  0  0  0
 18 23  1  0  0  0
 19 20  1  0  0  0
 20 21  2  0  0  0
 21 22  1  0  0  0
 21  1  1  0  0  0
 22 23  2  0  0  0
  1  2  1  0  0  0
  1 10  1  0  0  0
  2  3  2  0  0  0
  2  4  1  0  0  0
  4  5  1  0  0  0
  4  9  1  0  0  0
  5  6  1  0  0  0
  5 12  1  0  0  0
  6  7  1  0  0  0
  6 14  1  0  0  0
  7  8  1  0  0  0
  7 13  1  0  0  0
  8  9  1  0  0  0
  8 12  1  0  0  0
  9 10  1  0  0  0
 10 11  2  0  0  0
 13 15  1  0  0  0
 14 16  1  0  0  0
M  END
> <minimizedAffinity>
-7.63764

$$$$
2357


 36 39  0  0  0  0  0  0  0  0999 V2000
    9.5411    6.4587   11.7752 C   0  0  0  0  0  0  0  0  0  0  0  0
    9.2171    6.5501   13.0502 C   0  0  0  0  0  0  0  0  0  0  0  0
    7.7694    6.2737   13.2273 C   0  0  0  0  0  0  0  0  0  0  0  0
    7.4289    5.5823   12.0153 N   0  0  0  0  0  0  0  0  0  0  0  0
    8.3406    6.1157   11.0916 N   0  0  0  0  0  0  0  0  0  0  0  0
    6.4536    5.6543   11.7306 H   0  0  0  0  0  0  0  0  0  0  0  0
    8.1517    6.2329   10.0761 H   0  0  0  0  0  0  0  0  0  0  0  0
   11.8092    4.3225   10.7798 N   0  0  0  0  0  0  0  0  0  0  0  0
   12.5106    4.4252   12.0107 C   0  0  0  0  0  0  0  0  0  0  0  0
   13.0795    3.3642   12.4468 O   0  0  0  0  0  0  0  0  0  0  0  0
   12.5693    5.6380   12.7041 N   0  0  0  0  0  0  0  0  0  0  0  0
   11.9311    6.7927   12.1963 C   0  0  0  0  0  0  0  0  0  0  0  0
   12.2321    7.9243   12.6224 O   0  0  0  0  0  0  0  0  0  0  0  0
   10.8935    6.6608   11.1491 C   0  0  0  0  0  0  0  0  0  0  0  0
   11.1731    5.4906   10.2830 C   0  0  0  0  0  0  0  0  0  0  0  0
   10.8388    5.5408    9.0867 O   0  0  0  0  0  0  0  0  0  0  0  0
   13.1082    5.6581   13.6178 H   0  0  0  0  0  0  0  0  0  0  0  0
   11.6686   -0.9043    7.8714 Cl  0  0  0  0  0  0  0  0  0  0  0  0
   11.7105    0.6413    8.7304 C   0  0  0  0  0  0  0  0  0  0  0  0
   12.8569    1.3944    8.7720 C   0  0  0  0  0  0  0  0  0  0  0  0
   12.8712    2.5982    9.4468 C   0  0  0  0  0  0  0  0  0  0  0  0
   11.7610    3.0806   10.0907 C   0  0  0  0  0  0  0  0  0  0  0  0
   10.6194    2.3300   10.0498 C   0  0  0  0  0  0  0  0  0  0  0  0
   10.5856    1.1058    9.3690 C   0  0  0  0  0  0  0  0  0  0  0  0
    7.0725    7.5394   13.4247 C   0  0  0  0  0  0  0  0  0  0  0  0
    7.7381    8.5627   14.0648 C   0  0  0  0  0  0  0  0  0  0  0  0
    7.1673    9.7978   14.2968 C   0  0  0  0  0  0  0  0  0  0  0  0
    5.8531   10.0014   13.8559 C   0  0  0  0  0  0  0  0  0  0  0  0
    5.1466    9.0089   13.2125 C   0  0  0  0  0  0  0  0  0  0  0  0
    5.7826    7.7994   13.0153 C   0  0  0  0  0  0  0  0  0  0  0  0
    5.2399   11.2163   14.0637 O   0  0  0  0  0  0  0  0  0  0  0  0
    5.7401   11.9586   14.5335 H   0  0  0  0  0  0  0  0  0  0  0  0
    3.8701    9.2581   12.8049 O   0  0  0  0  0  0  0  0  0  0  0  0
    2.6984    9.0011   13.5229 C   0  0  0  0  0  0  0  0  0  0  0  0
    7.8295   10.8355   14.9399 O   0  0  0  0  0  0  0  0  0  0  0  0
    8.1225   10.6528   16.3101 C   0  0  0  0  0  0  0  0  0  0  0  0
 18 19  1  0  0  0
 19 20  2  0  0  0
 19 24  1  0  0  0
 20 21  1  0  0  0
 21 22  2  0  0  0
 22 23  1  0  0  0
 22  8  1  0  0  0
 23 24  2  0  0  0
  8  9  1  0  0  0
  8 15  1  0  0  0
  9 10  2  0  0  0
  9 11  1  0  0  0
 11 12  1  0  0  0
 12 13  2  0  0  0
 12 14  1  0  0  0
 14 15  1  0  0  0
 14  1  1  0  0  0
 15 16  2  0  0  0
  1  2  2  0  0  0
  1  5  1  0  0  0
  2  3  1  0  0  0
  3  4  1  0  0  0
  3 25  1  0  0  0
  4  5  1  0  0  0
 25 26  2  0  0  0
 25 30  1  0  0  0
 26 27  1  0  0  0
 27 28  2  0  0  0
 27 35  1  0  0  0
 28 29  1  0  0  0
 28 31  1  0  0  0
 29 30  2  0  0  0
 29 33  1  0  0  0
 33 34  1  0  0  0
 35 36  1  0  0  0
 11 17  1  0  0  0
  4  6  1  0  0  0
  5  7  1  0  0  0
 31 32  1  0  0  0
M  END
> <minimizedAffinity>
-9.37101

$$$$
2358


 34 37  0  0  0  0  0  0  0  0999 V2000
   12.5858    3.1922   10.4050 N   0  0  0  0  0  0  0  0  0  0  0  0
   13.7858    3.0265   11.1474 C   0  0  0  0  0  0  0  0  0  0  0  0
   14.2305    1.8525   11.3112 O   0  0  0  0  0  0  0  0  0  0  0  0
   14.4759    4.1315   11.6948 N   0  0  0  0  0  0  0  0  0  0  0  0
   13.9850    5.4458   11.5160 C   0  0  0  0  0  0  0  0  0  0  0  0
   14.6818    6.4686   11.8449 O   0  0  0  0  0  0  0  0  0  0  0  0
   12.6614    5.6978   10.9472 C   0  0  0  0  0  0  0  0  0  0  0  0
   12.1225    4.5253   10.2462 C   0  0  0  0  0  0  0  0  0  0  0  0
   11.1591    4.6808    9.4186 O   0  0  0  0  0  0  0  0  0  0  0  0
   15.3638    3.9871   12.2425 H   0  0  0  0  0  0  0  0  0  0  0  0
    9.6330   -1.4007    8.0003 Cl  0  0  0  0  0  0  0  0  0  0  0  0
   10.4857   -0.0466    8.7181 C   0  0  0  0  0  0  0  0  0  0  0  0
    9.8724    0.7667    9.6598 C   0  0  0  0  0  0  0  0  0  0  0  0
   10.5610    1.8111   10.1988 C   0  0  0  0  0  0  0  0  0  0  0  0
   11.8719    2.1005    9.8399 C   0  0  0  0  0  0  0  0  0  0  0  0
   12.4769    1.2907    8.9047 C   0  0  0  0  0  0  0  0  0  0  0  0
   11.7921    0.2136    8.3374 C   0  0  0  0  0  0  0  0  0  0  0  0
   11.7325    6.2005   12.0024 C   0  0  0  0  0  0  0  0  0  0  0  0
   11.4717    7.4387   12.3271 C   0  0  0  0  0  0  0  0  0  0  0  0
   10.4842    7.4032   13.4335 C   0  0  0  0  0  0  0  0  0  0  0  0
   10.5856    6.0545   13.9486 N   0  0  0  0  0  0  0  0  0  0  0  0
   10.9775    5.3178   12.8252 N   0  0  0  0  0  0  0  0  0  0  0  0
   11.2933    5.9902   14.7184 H   0  0  0  0  0  0  0  0  0  0  0  0
   10.7296    4.3058   12.6736 H   0  0  0  0  0  0  0  0  0  0  0  0
    9.1100    7.6573   12.9195 C   0  0  0  0  0  0  0  0  0  0  0  0
    8.2248    6.6382   12.6519 C   0  0  0  0  0  0  0  0  0  0  0  0
    6.9473    6.8634   12.1733 C   0  0  0  0  0  0  0  0  0  0  0  0
    6.5151    8.1501   11.9462 C   0  0  0  0  0  0  0  0  0  0  0  0
    7.3832    9.1812   12.2077 C   0  0  0  0  0  0  0  0  0  0  0  0
    8.6540    8.9459   12.6842 C   0  0  0  0  0  0  0  0  0  0  0  0
    6.1035    5.7983   11.9232 O   0  0  0  0  0  0  0  0  0  0  0  0
    6.3963    4.8546   12.0806 H   0  0  0  0  0  0  0  0  0  0  0  0
    5.2435    8.3977   11.4687 O   0  0  0  0  0  0  0  0  0  0  0  0
    4.2241    8.7756   12.3652 C   0  0  0  0  0  0  0  0  0  0  0  0
 11 12  1  0  0  0
 12 13  2  0  0  0
 12 17  1  0  0  0
 13 14  1  0  0  0
 14 15  2  0  0  0
 15 16  1  0  0  0
 15  1  1  0  0  0
 16 17  2  0  0  0
  1  2  1  0  0  0
  1  8  1  0  0  0
  2  3  2  0  0  0
  2  4  1  0  0  0
  4  5  1  0  0  0
  5  6  2  0  0  0
  5  7  1  0  0  0
  7  8  1  0  0  0
  7 18  1  0  0  0
  8  9  2  0  0  0
 18 19  2  0  0  0
 18 22  1  0  0  0
 19 20  1  0  0  0
 20 21  1  0  0  0
 20 25  1  0  0  0
 21 22  1  0  0  0
 25 26  2  0  0  0
 25 30  1  0  0  0
 26 27  1  0  0  0
 27 28  2  0  0  0
 27 31  1  0  0  0
 28 29  1  0  0  0
 28 33  1  0  0  0
 29 30  2  0  0  0
 33 34  1  0  0  0
  4 10  1  0  0  0
 21 23  1  0  0  0
 22 24  1  0  0  0
 31 32  1  0  0  0
M  END
> <minimizedAffinity>
-9.90146

$$$$
2359


 32 35  0  0  0  0  0  0  0  0999 V2000
   10.1669    7.7569   12.8099 N   0  0  0  0  0  0  0  0  0  0  0  0
   11.3085    8.6054   13.0112 C   0  0  0  0  0  0  0  0  0  0  0  0
   11.1785    9.8129   13.3812 O   0  0  0  0  0  0  0  0  0  0  0  0
   12.5832    8.0264   12.7766 N   0  0  0  0  0  0  0  0  0  0  0  0
   12.7019    6.6488   12.3557 C   0  0  0  0  0  0  0  0  0  0  0  0
   13.7752    6.0828   12.5988 O   0  0  0  0  0  0  0  0  0  0  0  0
   11.5852    6.0112   11.6857 C   0  0  0  0  0  0  0  0  0  0  0  0
   10.3339    6.4097   12.3975 C   0  0  0  0  0  0  0  0  0  0  0  0
    9.3961    5.6151   12.6620 O   0  0  0  0  0  0  0  0  0  0  0  0
   13.4187    8.6215   12.9165 H   0  0  0  0  0  0  0  0  0  0  0  0
    4.7728   10.1514   13.8755 Cl  0  0  0  0  0  0  0  0  0  0  0  0
    6.3329    9.4684   13.5203 C   0  0  0  0  0  0  0  0  0  0  0  0
    7.0717    8.9399   14.5697 C   0  0  0  0  0  0  0  0  0  0  0  0
    8.3140    8.3915   14.3115 C   0  0  0  0  0  0  0  0  0  0  0  0
    8.8658    8.3407   13.0463 C   0  0  0  0  0  0  0  0  0  0  0  0
    8.1149    8.8713   12.0153 C   0  0  0  0  0  0  0  0  0  0  0  0
    6.8684    9.4283   12.2354 C   0  0  0  0  0  0  0  0  0  0  0  0
   11.6657    4.5899   11.4372 C   0  0  0  0  0  0  0  0  0  0  0  0
   11.5291    3.9349   10.3071 C   0  0  0  0  0  0  0  0  0  0  0  0
   11.6913    2.4739   10.5077 C   0  0  0  0  0  0  0  0  0  0  0  0
   12.2060    2.3933   11.8551 N   0  0  0  0  0  0  0  0  0  0  0  0
   11.9161    3.6107   12.4671 N   0  0  0  0  0  0  0  0  0  0  0  0
   13.2181    2.1446   11.8892 H   0  0  0  0  0  0  0  0  0  0  0  0
   11.8968    3.7302   13.5016 H   0  0  0  0  0  0  0  0  0  0  0  0
   12.6860    1.8745    9.6105 C   0  0  0  0  0  0  0  0  0  0  0  0
   13.9813    2.3678    9.6475 C   0  0  0  0  0  0  0  0  0  0  0  0
   14.9378    1.8277    8.8205 C   0  0  0  0  0  0  0  0  0  0  0  0
   14.6455    0.8034    7.9504 C   0  0  0  0  0  0  0  0  0  0  0  0
   13.3656    0.3033    7.9010 C   0  0  0  0  0  0  0  0  0  0  0  0
   12.3978    0.8547    8.7412 C   0  0  0  0  0  0  0  0  0  0  0  0
   16.2506    2.3164    8.8491 O   0  0  0  0  0  0  0  0  0  0  0  0
   16.4810    3.0641    9.4799 H   0  0  0  0  0  0  0  0  0  0  0  0
 11 12  1  0  0  0
 12 13  2  0  0  0
 12 17  1  0  0  0
 13 14  1  0  0  0
 14 15  2  0  0  0
 15 16  1  0  0  0
 15  1  1  0  0  0
 16 17  2  0  0  0
  1  2  1  0  0  0
  1  8  1  0  0  0
  2  3  2  0  0  0
  2  4  1  0  0  0
  4  5  1  0  0  0
  5  6  2  0  0  0
  5  7  1  0  0  0
  7  8  1  0  0  0
  7 18  1  0  0  0
  8  9  2  0  0  0
 18 19  2  0  0  0
 18 22  1  0  0  0
 19 20  1  0  0  0
 20 21  1  0  0  0
 20 25  1  0  0  0
 21 22  1  0  0  0
 25 26  2  0  0  0
 25 30  1  0  0  0
 26 27  1  0  0  0
 27 28  2  0  0  0
 27 31  1  0  0  0
 28 29  1  0  0  0
 29 30  2  0  0  0
  4 10  1  0  0  0
 21 23  1  0  0  0
 22 24  1  0  0  0
 31 32  1  0  0  0
M  END
> <minimizedAffinity>
-9.12176

$$$$
2361


 30 33  0  0  0  0  0  0  0  0999 V2000
   10.2235    6.6250   11.8777 N   0  0  0  0  0  0  0  0  0  0  0  0
   10.9989    6.5518   13.0600 C   0  0  0  0  0  0  0  0  0  0  0  0
   10.5084    6.9055   14.1612 O   0  0  0  0  0  0  0  0  0  0  0  0
   12.3500    6.0660   12.9757 N   0  0  0  0  0  0  0  0  0  0  0  0
   12.9070    5.6652   11.7315 C   0  0  0  0  0  0  0  0  0  0  0  0
   14.1544    5.5713   11.6145 O   0  0  0  0  0  0  0  0  0  0  0  0
   12.0125    5.3671   10.6015 C   0  0  0  0  0  0  0  0  0  0  0  0
   10.8110    6.2177   10.6543 C   0  0  0  0  0  0  0  0  0  0  0  0
   10.2651    6.6102    9.5655 O   0  0  0  0  0  0  0  0  0  0  0  0
   12.9566    5.9954   13.8209 H   0  0  0  0  0  0  0  0  0  0  0  0
    4.5350    8.5938   12.0410 Cl  0  0  0  0  0  0  0  0  0  0  0  0
    6.1956    8.0271   11.9938 C   0  0  0  0  0  0  0  0  0  0  0  0
    7.2513    8.9113   11.9259 C   0  0  0  0  0  0  0  0  0  0  0  0
    8.5649    8.4583   11.8874 C   0  0  0  0  0  0  0  0  0  0  0  0
    8.8607    7.1126   11.9161 C   0  0  0  0  0  0  0  0  0  0  0  0
    7.8035    6.2325   11.9846 C   0  0  0  0  0  0  0  0  0  0  0  0
    6.4962    6.6822   12.0233 C   0  0  0  0  0  0  0  0  0  0  0  0
   11.6184    3.9183   10.5988 C   0  0  0  0  0  0  0  0  0  0  0  0
   12.3270    2.8830   10.9673 C   0  0  0  0  0  0  0  0  0  0  0  0
   11.5280    1.6606   10.7879 C   0  0  0  0  0  0  0  0  0  0  0  0
   10.1865    2.1438   10.6207 N   0  0  0  0  0  0  0  0  0  0  0  0
   10.3434    3.4656   10.1746 N   0  0  0  0  0  0  0  0  0  0  0  0
    9.6389    2.0964   11.4850 H   0  0  0  0  0  0  0  0  0  0  0  0
    9.6020    3.9620    9.6296 H   0  0  0  0  0  0  0  0  0  0  0  0
   11.9988    1.0127    9.5367 C   0  0  0  0  0  0  0  0  0  0  0  0
   11.1299    0.2734    8.7705 C   0  0  0  0  0  0  0  0  0  0  0  0
   11.5552   -0.3235    7.6229 N   0  0  0  0  0  0  0  0  0  0  0  0
   12.8207   -0.2258    7.1849 C   0  0  0  0  0  0  0  0  0  0  0  0
   13.7176    0.5072    7.9285 C   0  0  0  0  0  0  0  0  0  0  0  0
   13.2959    1.1285    9.1130 C   0  0  0  0  0  0  0  0  0  0  0  0
 11 12  1  0  0  0
 12 13  2  0  0  0
 12 17  1  0  0  0
 13 14  1  0  0  0
 14 15  2  0  0  0
 15 16  1  0  0  0
 15  1  1  0  0  0
 16 17  2  0  0  0
  1  2  1  0  0  0
  1  8  1  0  0  0
  2  3  2  0  0  0
  2  4  1  0  0  0
  4  5  1  0  0  0
  5  6  2  0  0  0
  5  7  1  0  0  0
  7  8  1  0  0  0
  7 18  1  0  0  0
  8  9  2  0  0  0
 18 19  2  0  0  0
 18 22  1  0  0  0
 19 20  1  0  0  0
 20 21  1  0  0  0
 20 25  1  0  0  0
 21 22  1  0  0  0
 25 26  2  0  0  0
 25 30  1  0  0  0
 26 27  1  0  0  0
 27 28  2  0  0  0
 28 29  1  0  0  0
 29 30  2  0  0  0
  4 10  1  0  0  0
 21 23  1  0  0  0
 22 24  1  0  0  0
M  END
> <minimizedAffinity>
-9.08945

$$$$
2363


 33 36  0  0  0  0  0  0  0  0999 V2000
   13.9901    1.7048    9.7829 N   0  0  0  0  0  0  0  0  0  0  0  0
   13.5995    2.7130   10.7026 C   0  0  0  0  0  0  0  0  0  0  0  0
   14.6852    3.5603   11.1730 C   0  0  0  0  0  0  0  0  0  0  0  0
   15.9875    3.3452   10.8367 C   0  0  0  0  0  0  0  0  0  0  0  0
   16.9889    4.1925   11.3474 C   0  0  0  0  0  0  0  0  0  0  0  0
   16.7171    5.2463   12.1828 C   0  0  0  0  0  0  0  0  0  0  0  0
   15.3875    5.4504   12.5135 C   0  0  0  0  0  0  0  0  0  0  0  0
   14.4169    4.6370   12.0251 C   0  0  0  0  0  0  0  0  0  0  0  0
   16.3820    2.2869    9.9486 N   0  0  0  0  0  0  0  0  0  0  0  0
   15.3336    1.4844    9.4438 C   0  0  0  0  0  0  0  0  0  0  0  0
   15.6007    0.5232    8.6515 O   0  0  0  0  0  0  0  0  0  0  0  0
   13.1164    1.9816   11.8448 O   0  0  0  0  0  0  0  0  0  0  0  0
   17.3822    2.1517    9.7179 H   0  0  0  0  0  0  0  0  0  0  0  0
   12.4156    2.5134   12.3045 H   0  0  0  0  0  0  0  0  0  0  0  0
    9.7648   -1.7522    7.2746 Cl  0  0  0  0  0  0  0  0  0  0  0  0
   11.0040   -0.7359    8.0205 C   0  0  0  0  0  0  0  0  0  0  0  0
   12.0162   -0.2303    7.2366 C   0  0  0  0  0  0  0  0  0  0  0  0
   12.9949    0.5703    7.8175 C   0  0  0  0  0  0  0  0  0  0  0  0
   12.9639    0.8615    9.1554 C   0  0  0  0  0  0  0  0  0  0  0  0
   11.9389    0.3407    9.9143 C   0  0  0  0  0  0  0  0  0  0  0  0
   10.9496   -0.4586    9.3692 C   0  0  0  0  0  0  0  0  0  0  0  0
   12.4329    3.4968   10.2220 C   0  0  0  0  0  0  0  0  0  0  0  0
   12.4501    4.0075    9.1004 O   0  0  0  0  0  0  0  0  0  0  0  0
   11.3277    3.6295   11.0832 N   0  0  0  0  0  0  0  0  0  0  0  0
   11.3041    3.1948   12.0471 H   0  0  0  0  0  0  0  0  0  0  0  0
   10.1264    4.3784   10.7124 C   0  0  0  0  0  0  0  0  0  0  0  0
   10.2073    5.8083   11.0873 C   0  0  0  0  0  0  0  0  0  0  0  0
    8.9939    6.4927   11.3139 N   0  0  0  0  0  0  0  0  0  0  0  0
    7.8517    5.7525   11.6612 C   0  0  0  0  0  0  0  0  0  0  0  0
    6.7601    6.7248   12.1173 C   0  0  0  0  0  0  0  0  0  0  0  0
    6.8433    7.9261   11.3907 O   0  0  0  0  0  0  0  0  0  0  0  0
    7.9608    8.6677   11.7666 C   0  0  0  0  0  0  0  0  0  0  0  0
    9.0932    7.7147   12.0376 C   0  0  0  0  0  0  0  0  0  0  0  0
 15 16  1  0  0  0
 16 17  2  0  0  0
 16 21  1  0  0  0
 17 18  1  0  0  0
 18 19  2  0  0  0
 19 20  1  0  0  0
 19  1  1  0  0  0
 20 21  2  0  0  0
  1  2  1  0  0  0
  1 10  1  0  0  0
  2  3  1  0  0  0
  2 12  1  0  0  0
  2 22  1  0  0  0
  3  4  1  0  0  0
  3  8  2  0  0  0
  4  5  2  0  0  0
  4  9  1  0  0  0
  5  6  1  0  0  0
  6  7  2  0  0  0
  7  8  1  0  0  0
  9 10  1  0  0  0
 10 11  2  0  0  0
 22 23  2  0  0  0
 22 24  1  0  0  0
 24 26  1  0  0  0
 26 27  1  0  0  0
 27 28  1  0  0  0
 28 29  1  0  0  0
 28 33  1  0  0  0
 29 30  1  0  0  0
 30 31  1  0  0  0
 31 32  1  0  0  0
 32 33  1  0  0  0
  9 13  1  0  0  0
 12 14  1  0  0  0
 24 25  1  0  0  0
M  END
> <minimizedAffinity>
-9.98380

$$$$
2364


 33 37  0  0  0  0  0  0  0  0999 V2000
    8.9416    5.9945   12.7889 N   0  0  0  0  0  0  0  0  0  0  0  0
   10.0383    6.4247   13.5856 C   0  0  0  0  0  0  0  0  0  0  0  0
    9.8145    7.0733   14.6579 O   0  0  0  0  0  0  0  0  0  0  0  0
   11.4388    6.1602   13.2406 C   0  0  0  0  0  0  0  0  0  0  0  0
   11.6484    5.6435   11.9287 N   0  0  0  0  0  0  0  0  0  0  0  0
   10.6212    4.8040   11.4034 C   0  0  0  0  0  0  0  0  0  0  0  0
   10.7354    3.3355   11.7325 C   0  0  0  0  0  0  0  0  0  0  0  0
   11.0235    3.0559   10.3629 N   0  0  0  0  0  0  0  0  0  0  0  0
   10.9675    4.4102    9.9773 C   0  0  0  0  0  0  0  0  0  0  0  0
    9.2517    5.3609   11.5535 C   0  0  0  0  0  0  0  0  0  0  0  0
    8.3777    5.2943   10.6522 O   0  0  0  0  0  0  0  0  0  0  0  0
   11.8657    6.7484   11.0399 C   0  0  0  0  0  0  0  0  0  0  0  0
   11.8558    8.0108   11.8551 C   0  0  0  0  0  0  0  0  0  0  0  0
   12.1564    7.5174   13.2415 C   0  0  0  0  0  0  0  0  0  0  0  0
   12.7775    8.9492   11.4112 O   0  0  0  0  0  0  0  0  0  0  0  0
   12.3224    9.5129   10.7395 H   0  0  0  0  0  0  0  0  0  0  0  0
    7.5627    6.1879   13.2013 C   0  0  0  0  0  0  0  0  0  0  0  0
    4.8357   10.2754   14.9798 Cl  0  0  0  0  0  0  0  0  0  0  0  0
    5.9500    9.5566   13.8380 C   0  0  0  0  0  0  0  0  0  0  0  0
    6.3120    8.2293   13.9448 C   0  0  0  0  0  0  0  0  0  0  0  0
    7.1864    7.6372   13.0617 C   0  0  0  0  0  0  0  0  0  0  0  0
    7.7034    8.4119   12.0470 C   0  0  0  0  0  0  0  0  0  0  0  0
    7.3383    9.7180   11.9532 C   0  0  0  0  0  0  0  0  0  0  0  0
    6.4662   10.3291   12.8252 C   0  0  0  0  0  0  0  0  0  0  0  0
   12.1419    2.2480   10.0379 C   0  0  0  0  0  0  0  0  0  0  0  0
   11.8737    1.0862    9.1826 C   0  0  0  0  0  0  0  0  0  0  0  0
   10.6170    0.5342    9.1468 C   0  0  0  0  0  0  0  0  0  0  0  0
   10.3338   -0.5723    8.3411 C   0  0  0  0  0  0  0  0  0  0  0  0
   11.3383   -1.1141    7.5724 C   0  0  0  0  0  0  0  0  0  0  0  0
   12.6049   -0.5810    7.5887 C   0  0  0  0  0  0  0  0  0  0  0  0
   12.8529    0.5223    8.4029 C   0  0  0  0  0  0  0  0  0  0  0  0
    9.0714   -1.1302    8.3028 O   0  0  0  0  0  0  0  0  0  0  0  0
    8.7629   -2.0329    7.2572 C   0  0  0  0  0  0  0  0  0  0  0  0
 18 19  1  0  0  0
 19 20  2  0  0  0
 19 24  1  0  0  0
 20 21  1  0  0  0
 21 22  2  0  0  0
 21 17  1  0  0  0
 22 23  1  0  0  0
 23 24  2  0  0  0
 17  1  1  0  0  0
  1  2  1  0  0  0
  1 10  1  0  0  0
  2  3  2  0  0  0
  2  4  1  0  0  0
  4  5  1  0  0  0
  4 14  1  0  0  0
  5  6  1  0  0  0
  5 12  1  0  0  0
  6  7  1  0  0  0
  6  9  1  0  0  0
  6 10  1  0  0  0
  7  8  1  0  0  0
  8  9  1  0  0  0
  8 25  1  0  0  0
 25 26  1  0  0  0
 26 27  2  0  0  0
 26 31  1  0  0  0
 27 28  1  0  0  0
 28 29  2  0  0  0
 28 32  1  0  0  0
 29 30  1  0  0  0
 30 31  2  0  0  0
 32 33  1  0  0  0
 10 11  2  0  0  0
 12 13  1  0  0  0
 13 14  1  0  0  0
 13 15  1  0  0  0
 15 16  1  0  0  0
M  END
> <minimizedAffinity>
-9.68738

$$$$
2365


 32 36  0  0  0  0  0  0  0  0999 V2000
   11.3921    5.5541   13.0849 N   0  0  0  0  0  0  0  0  0  0  0  0
   10.3634    6.2386   12.4203 C   0  0  0  0  0  0  0  0  0  0  0  0
   10.0994    5.9114   11.2235 O   0  0  0  0  0  0  0  0  0  0  0  0
   11.6215    5.8124   14.0752 H   0  0  0  0  0  0  0  0  0  0  0  0
    9.5576    7.3264   13.0225 C   0  0  0  0  0  0  0  0  0  0  0  0
    8.1887    7.3982   12.3768 C   0  0  0  0  0  0  0  0  0  0  0  0
    7.3720    8.5082   12.9757 C   0  0  0  0  0  0  0  0  0  0  0  0
    7.1661    8.1666   14.4528 C   0  0  0  0  0  0  0  0  0  0  0  0
    8.4936    8.0688   15.1338 C   0  0  0  0  0  0  0  0  0  0  0  0
    9.3458    7.0025   14.4854 C   0  0  0  0  0  0  0  0  0  0  0  0
    9.1981    9.4022   15.0365 C   0  0  0  0  0  0  0  0  0  0  0  0
    9.3966    9.7159   13.5718 C   0  0  0  0  0  0  0  0  0  0  0  0
    8.0510    9.8405   12.9042 C   0  0  0  0  0  0  0  0  0  0  0  0
   10.2563    8.6644   12.9225 C   0  0  0  0  0  0  0  0  0  0  0  0
    6.0861    8.5054   12.3065 N   0  0  0  0  0  0  0  0  0  0  0  0
    4.8842    8.7927   12.7743 N   0  0  0  0  0  0  0  0  0  0  0  0
    3.9657    8.6756   11.8626 N   0  0  0  0  0  0  0  0  0  0  0  0
    4.5532    8.2974   10.7412 C   0  0  0  0  0  0  0  0  0  0  0  0
    5.8830    8.1904   11.0165 N   0  0  0  0  0  0  0  0  0  0  0  0
   13.3264    4.7335   11.7785 C   0  0  0  0  0  0  0  0  0  0  0  0
   13.8581    5.8689   11.6897 O   0  0  0  0  0  0  0  0  0  0  0  0
   12.1033    4.5503   12.4666 N   0  0  0  0  0  0  0  0  0  0  0  0
   11.7191    3.5645   12.4979 H   0  0  0  0  0  0  0  0  0  0  0  0
   14.0502    3.6031   11.1279 C   0  0  0  0  0  0  0  0  0  0  0  0
   15.5179    3.6402   11.3896 C   0  0  0  0  0  0  0  0  0  0  0  0
   13.4334    2.2974   11.5742 C   0  0  0  0  0  0  0  0  0  0  0  0
   11.5099   -0.8041    7.5184 Br  0  0  0  0  0  0  0  0  0  0  0  0
   11.7356    0.4743    8.9137 C   0  0  0  0  0  0  0  0  0  0  0  0
   12.8431    0.7229    9.6995 C   0  0  0  0  0  0  0  0  0  0  0  0
   12.5644    1.7233   10.5743 N   0  0  0  0  0  0  0  0  0  0  0  0
   11.3324    2.0926   10.3530 N   0  0  0  0  0  0  0  0  0  0  0  0
   10.7697    1.3790    9.3609 C   0  0  0  0  0  0  0  0  0  0  0  0
 27 28  1  0  0  0
 28 29  2  0  0  0
 28 32  1  0  0  0
 29 30  1  0  0  0
 30 31  1  0  0  0
 30 26  1  0  0  0
 31 32  2  0  0  0
 26 24  1  0  0  0
 24 25  1  0  0  0
 24 20  1  0  0  0
 20 21  2  0  0  0
 20 22  1  0  0  0
 22  1  1  0  0  0
  1  2  1  0  0  0
  2  3  2  0  0  0
  2  5  1  0  0  0
  5  6  1  0  0  0
  5 10  1  0  0  0
  5 14  1  0  0  0
  6  7  1  0  0  0
  7  8  1  0  0  0
  7 13  1  0  0  0
  7 15  1  0  0  0
  8  9  1  0  0  0
  9 10  1  0  0  0
  9 11  1  0  0  0
 11 12  1  0  0  0
 12 13  1  0  0  0
 12 14  1  0  0  0
 15 16  1  0  0  0
 15 19  1  0  0  0
 16 17  2  0  0  0
 17 18  1  0  0  0
 18 19  2  0  0  0
 22 23  1  0  0  0
  1  4  1  0  0  0
M  END
> <minimizedAffinity>
-8.91513

$$$$
2373


 28 31  0  0  0  0  0  0  0  0999 V2000
   12.1800    4.4315   10.4263 N   0  0  0  0  0  0  0  0  0  0  0  0
   12.7653    5.1924   11.3345 C   0  0  0  0  0  0  0  0  0  0  0  0
   11.8770    6.0624   11.8860 N   0  0  0  0  0  0  0  0  0  0  0  0
   10.7095    5.8568   11.3173 C   0  0  0  0  0  0  0  0  0  0  0  0
   10.9051    4.8136   10.3877 C   0  0  0  0  0  0  0  0  0  0  0  0
   12.2092    6.9825   12.9369 C   0  0  0  0  0  0  0  0  0  0  0  0
   13.0262    8.1485   12.3850 C   0  0  0  0  0  0  0  0  0  0  0  0
   13.9094    7.5256   11.2988 C   0  0  0  0  0  0  0  0  0  0  0  0
   14.7820    6.4884   11.9501 C   0  0  0  0  0  0  0  0  0  0  0  0
   14.2216    5.0875   11.6581 C   0  0  0  0  0  0  0  0  0  0  0  0
    9.4093    6.4944   11.5450 C   0  0  0  0  0  0  0  0  0  0  0  0
    9.1874    7.8227   11.7160 C   0  0  0  0  0  0  0  0  0  0  0  0
    7.9320    8.3593   11.9992 C   0  0  0  0  0  0  0  0  0  0  0  0
    6.8406    7.5432   12.1170 C   0  0  0  0  0  0  0  0  0  0  0  0
    7.0313    6.1933   11.9469 C   0  0  0  0  0  0  0  0  0  0  0  0
    8.2790    5.6788   11.6690 C   0  0  0  0  0  0  0  0  0  0  0  0
    5.5638    8.0570   12.4018 O   0  0  0  0  0  0  0  0  0  0  0  0
    5.3636    9.3422   12.9258 C   0  0  0  0  0  0  0  0  0  0  0  0
   12.7095    3.3657    9.5697 C   0  0  0  0  0  0  0  0  0  0  0  0
   12.3645    2.0662   10.1852 C   0  0  0  0  0  0  0  0  0  0  0  0
   12.8433    1.8262   11.3433 O   0  0  0  0  0  0  0  0  0  0  0  0
    9.0243   -2.1327    7.4755 Cl  0  0  0  0  0  0  0  0  0  0  0  0
   10.0250   -0.9300    8.2475 C   0  0  0  0  0  0  0  0  0  0  0  0
   11.3883   -0.8601    8.1041 C   0  0  0  0  0  0  0  0  0  0  0  0
   12.1298    0.1078    8.7341 C   0  0  0  0  0  0  0  0  0  0  0  0
   11.5277    1.0696    9.5539 C   0  0  0  0  0  0  0  0  0  0  0  0
   10.1734    1.0018    9.6969 C   0  0  0  0  0  0  0  0  0  0  0  0
    9.4384    0.0267    9.0610 C   0  0  0  0  0  0  0  0  0  0  0  0
 22 23  1  0  0  0
 23 24  2  0  0  0
 23 28  1  0  0  0
 24 25  1  0  0  0
 25 26  2  0  0  0
 26 27  1  0  0  0
 26 20  1  0  0  0
 27 28  2  0  0  0
 20 21  2  0  0  0
 20 19  1  0  0  0
 19  1  1  0  0  0
  1  2  2  0  0  0
  1  5  1  0  0  0
  2  3  1  0  0  0
  2 10  1  0  0  0
  3  4  1  0  0  0
  3  6  1  0  0  0
  4  5  2  0  0  0
  4 11  1  0  0  0
 11 12  2  0  0  0
 11 16  1  0  0  0
 12 13  1  0  0  0
 13 14  2  0  0  0
 14 15  1  0  0  0
 14 17  1  0  0  0
 15 16  2  0  0  0
 17 18  1  0  0  0
  6  7  1  0  0  0
  7  8  1  0  0  0
  8  9  1  0  0  0
  9 10  1  0  0  0
M  END
> <minimizedAffinity>
-9.12408

$$$$
2375


 37 40  0  0  0  0  0  0  0  0999 V2000
   12.9496    6.7124   11.6942 C   0  0  0  0  0  0  0  0  0  0  0  0
   13.4479    8.0060   11.3289 C   0  0  0  0  0  0  0  0  0  0  0  0
   11.8449    2.1054   10.6840 C   0  0  0  0  0  0  0  0  0  0  0  0
   13.2269    1.8564   11.1204 C   0  0  0  0  0  0  0  0  0  0  0  0
   14.1486    3.0458   11.2241 C   0  0  0  0  0  0  0  0  0  0  0  0
   13.5364    4.3214   11.0446 N   0  0  0  0  0  0  0  0  0  0  0  0
   12.6280    4.3934    9.8830 C   0  0  0  0  0  0  0  0  0  0  0  0
   11.6036    3.3693    9.8963 C   0  0  0  0  0  0  0  0  0  0  0  0
   13.9145    5.5351   11.6671 C   0  0  0  0  0  0  0  0  0  0  0  0
   15.0189    5.6650   12.1890 O   0  0  0  0  0  0  0  0  0  0  0  0
   11.0446    2.1848   11.8635 O   0  0  0  0  0  0  0  0  0  0  0  0
   10.3340    1.5218   11.8566 H   0  0  0  0  0  0  0  0  0  0  0  0
    9.0869   -2.1365    7.3220 Cl  0  0  0  0  0  0  0  0  0  0  0  0
    9.9250   -0.9184    8.3131 C   0  0  0  0  0  0  0  0  0  0  0  0
    9.2103   -0.0548    9.1102 C   0  0  0  0  0  0  0  0  0  0  0  0
    9.8833    0.9101    9.8741 C   0  0  0  0  0  0  0  0  0  0  0  0
   11.2657    1.0228    9.8561 C   0  0  0  0  0  0  0  0  0  0  0  0
   11.9466    0.1565    9.0638 C   0  0  0  0  0  0  0  0  0  0  0  0
   11.3043   -0.8054    8.2942 C   0  0  0  0  0  0  0  0  0  0  0  0
   11.9866    6.5215   12.7529 N   0  0  0  0  0  0  0  0  0  0  0  0
   10.6122    6.3773   12.5710 C   0  0  0  0  0  0  0  0  0  0  0  0
   10.3120    6.5131   11.2300 O   0  0  0  0  0  0  0  0  0  0  0  0
   12.4697    6.5708   13.7123 H   0  0  0  0  0  0  0  0  0  0  0  0
    9.4680    6.1159   13.3091 C   0  0  0  0  0  0  0  0  0  0  0  0
    8.2873    6.4758   13.7163 C   0  0  0  0  0  0  0  0  0  0  0  0
    7.5265    5.5733   14.5910 N   0  0  0  0  0  0  0  0  0  0  0  0
    6.3074    5.9066   15.1474 N   0  0  0  0  0  0  0  0  0  0  0  0
    5.7028    7.1322   14.9184 C   0  0  0  0  0  0  0  0  0  0  0  0
    4.5926    7.4750   15.3982 O   0  0  0  0  0  0  0  0  0  0  0  0
    6.3953    8.1116   14.0471 C   0  0  0  0  0  0  0  0  0  0  0  0
    7.6080    7.7409   13.5165 C   0  0  0  0  0  0  0  0  0  0  0  0
    8.2699    8.7334   12.7852 C   0  0  0  0  0  0  0  0  0  0  0  0
    7.7133    9.9925   12.6115 C   0  0  0  0  0  0  0  0  0  0  0  0
    6.4956   10.3141   13.1516 C   0  0  0  0  0  0  0  0  0  0  0  0
    5.8311    9.3535   13.8837 C   0  0  0  0  0  0  0  0  0  0  0  0
    7.9754    4.6355   14.7771 H   0  0  0  0  0  0  0  0  0  0  0  0
    5.8154    5.2061   15.7681 H   0  0  0  0  0  0  0  0  0  0  0  0
 13 14  1  0  0  0
 14 15  2  0  0  0
 14 19  1  0  0  0
 15 16  1  0  0  0
 16 17  2  0  0  0
 17 18  1  0  0  0
 17  3  1  0  0  0
 18 19  2  0  0  0
  3  4  1  0  0  0
  3  8  1  0  0  0
  3 11  1  0  0  0
  4  5  1  0  0  0
  5  6  1  0  0  0
  6  7  1  0  0  0
  6  9  1  0  0  0
  7  8  1  0  0  0
  9 10  2  0  0  0
  9  1  1  0  0  0
  1 20  1  0  0  0
  1  2  1  0  0  0
 20 21  1  0  0  0
 21 22  2  0  0  0
 21 24  1  0  0  0
 24 25  2  0  0  0
 25 26  1  0  0  0
 25 31  1  0  0  0
 26 27  1  0  0  0
 27 28  1  0  0  0
 28 29  2  0  0  0
 28 30  1  0  0  0
 30 31  2  0  0  0
 30 35  1  0  0  0
 31 32  1  0  0  0
 32 33  2  0  0  0
 33 34  1  0  0  0
 34 35  2  0  0  0
 20 23  1  0  0  0
 26 36  1  0  0  0
 27 37  1  0  0  0
 11 12  1  0  0  0
M  END
> <minimizedAffinity>
-10.52064

$$$$
2377


 33 36  0  0  0  0  0  0  0  0999 V2000
   10.7979    6.0284   12.1470 N   0  0  0  0  0  0  0  0  0  0  0  0
   10.6454    7.2971   11.4417 C   0  0  0  0  0  0  0  0  0  0  0  0
    9.2893    7.9208   11.6823 C   0  0  0  0  0  0  0  0  0  0  0  0
    8.7209    7.3061   12.8573 N   0  0  0  0  0  0  0  0  0  0  0  0
    9.6241    7.1365   13.9812 C   0  0  0  0  0  0  0  0  0  0  0  0
   10.5944    6.0185   13.6024 C   0  0  0  0  0  0  0  0  0  0  0  0
    7.3806    6.8800   12.9600 C   0  0  0  0  0  0  0  0  0  0  0  0
    6.9889    6.3583   14.0268 O   0  0  0  0  0  0  0  0  0  0  0  0
   13.5949    4.9595   12.4002 Cl  0  0  0  0  0  0  0  0  0  0  0  0
   12.3186    4.2227   11.4646 C   0  0  0  0  0  0  0  0  0  0  0  0
   11.0934    4.8531   11.4309 C   0  0  0  0  0  0  0  0  0  0  0  0
   10.1335    4.2026   10.6425 C   0  0  0  0  0  0  0  0  0  0  0  0
   10.4172    3.0614    9.9877 N   0  0  0  0  0  0  0  0  0  0  0  0
   11.5844    2.4538   10.0154 N   0  0  0  0  0  0  0  0  0  0  0  0
   12.5345    3.0374   10.7562 C   0  0  0  0  0  0  0  0  0  0  0  0
   13.6773    2.5212   10.8355 O   0  0  0  0  0  0  0  0  0  0  0  0
   11.7982    1.2463    9.2905 C   0  0  0  0  0  0  0  0  0  0  0  0
   12.8195    1.1151    8.3621 C   0  0  0  0  0  0  0  0  0  0  0  0
   13.0406   -0.0470    7.6515 C   0  0  0  0  0  0  0  0  0  0  0  0
   12.2043   -1.1197    7.8811 C   0  0  0  0  0  0  0  0  0  0  0  0
   11.1750   -1.0231    8.7996 C   0  0  0  0  0  0  0  0  0  0  0  0
   10.9767    0.1695    9.5047 C   0  0  0  0  0  0  0  0  0  0  0  0
    6.3949    7.0169   11.8606 C   0  0  0  0  0  0  0  0  0  0  0  0
    5.8150    8.4120   11.8300 C   0  0  0  0  0  0  0  0  0  0  0  0
    4.5317    8.5172   12.5989 C   0  0  0  0  0  0  0  0  0  0  0  0
    4.6886    9.0554   13.9320 N   0  0  0  0  0  0  0  0  0  0  0  0
    4.4322    8.3712   15.1449 C   0  0  0  0  0  0  0  0  0  0  0  0
    4.0189    7.1690   15.2656 O   0  0  0  0  0  0  0  0  0  0  0  0
    4.6935    9.1914   16.2626 N   0  0  0  0  0  0  0  0  0  0  0  0
    5.1307   10.4839   15.7835 C   0  0  0  0  0  0  0  0  0  0  0  0
    5.1299   10.3644   14.3086 C   0  0  0  0  0  0  0  0  0  0  0  0
    5.4608   11.2613   13.5044 O   0  0  0  0  0  0  0  0  0  0  0  0
    4.5535    8.8191   17.6557 C   0  0  0  0  0  0  0  0  0  0  0  0
  9 10  1  0  0  0
 10 11  2  0  0  0
 10 15  1  0  0  0
 11 12  1  0  0  0
 11  1  1  0  0  0
 12 13  2  0  0  0
 13 14  1  0  0  0
 14 15  1  0  0  0
 14 17  1  0  0  0
 15 16  2  0  0  0
 17 18  2  0  0  0
 17 22  1  0  0  0
 18 19  1  0  0  0
 19 20  2  0  0  0
 20 21  1  0  0  0
 21 22  2  0  0  0
  1  2  1  0  0  0
  1  6  1  0  0  0
  2  3  1  0  0  0
  3  4  1  0  0  0
  4  5  1  0  0  0
  4  7  1  0  0  0
  5  6  1  0  0  0
  7  8  2  0  0  0
  7 23  1  0  0  0
 23 24  1  0  0  0
 24 25  1  0  0  0
 25 26  1  0  0  0
 26 27  1  0  0  0
 26 31  1  0  0  0
 27 28  2  0  0  0
 27 29  1  0  0  0
 29 30  1  0  0  0
 29 33  1  0  0  0
 30 31  1  0  0  0
 31 32  2  0  0  0
M  END
> <minimizedAffinity>
-9.04953

$$$$
2380


 27 30  0  0  0  0  0  0  0  0999 V2000
   13.4782    4.7925   12.5166 Cl  0  0  0  0  0  0  0  0  0  0  0  0
   12.2959    4.1038   11.4086 C   0  0  0  0  0  0  0  0  0  0  0  0
   11.0860    4.7445   11.2858 C   0  0  0  0  0  0  0  0  0  0  0  0
   10.1778    4.1763   10.4068 C   0  0  0  0  0  0  0  0  0  0  0  0
   10.5011    3.0601    9.7306 N   0  0  0  0  0  0  0  0  0  0  0  0
   11.6614    2.4343    9.8394 N   0  0  0  0  0  0  0  0  0  0  0  0
   12.5658    2.9591   10.6848 C   0  0  0  0  0  0  0  0  0  0  0  0
   13.6966    2.4160   10.8401 O   0  0  0  0  0  0  0  0  0  0  0  0
   10.8293    5.9123   12.0352 N   0  0  0  0  0  0  0  0  0  0  0  0
   10.2694    5.8524   13.3806 C   0  0  0  0  0  0  0  0  0  0  0  0
    8.8591    6.4594   13.2490 C   0  0  0  0  0  0  0  0  0  0  0  0
    8.9264    7.7422   12.6218 N   0  0  0  0  0  0  0  0  0  0  0  0
   10.2732    8.2739   12.3243 C   0  0  0  0  0  0  0  0  0  0  0  0
   11.0907    7.2567   11.5539 C   0  0  0  0  0  0  0  0  0  0  0  0
    7.7839    8.5128   12.2824 C   0  0  0  0  0  0  0  0  0  0  0  0
    7.8931    9.6466   11.7265 O   0  0  0  0  0  0  0  0  0  0  0  0
    6.4073    8.0590   12.5473 C   0  0  0  0  0  0  0  0  0  0  0  0
    5.6057    9.1008   12.9003 O   0  0  0  0  0  0  0  0  0  0  0  0
    4.3183    8.8338   12.4519 C   0  0  0  0  0  0  0  0  0  0  0  0
    4.6010    8.2798   11.0627 C   0  0  0  0  0  0  0  0  0  0  0  0
    5.7860    7.3809   11.3470 C   0  0  0  0  0  0  0  0  0  0  0  0
   11.9471    1.2444    9.0890 C   0  0  0  0  0  0  0  0  0  0  0  0
   11.0918    0.1635    9.1477 C   0  0  0  0  0  0  0  0  0  0  0  0
   11.3571   -1.0014    8.4220 C   0  0  0  0  0  0  0  0  0  0  0  0
   12.4785   -1.0874    7.6367 C   0  0  0  0  0  0  0  0  0  0  0  0
   13.3383   -0.0209    7.5697 C   0  0  0  0  0  0  0  0  0  0  0  0
   13.0630    1.1170    8.2881 C   0  0  0  0  0  0  0  0  0  0  0  0
  1  2  1  0  0  0
  2  3  2  0  0  0
  2  7  1  0  0  0
  3  4  1  0  0  0
  3  9  1  0  0  0
  4  5  2  0  0  0
  5  6  1  0  0  0
  6  7  1  0  0  0
  6 22  1  0  0  0
  7  8  2  0  0  0
 22 23  2  0  0  0
 22 27  1  0  0  0
 23 24  1  0  0  0
 24 25  2  0  0  0
 25 26  1  0  0  0
 26 27  2  0  0  0
  9 10  1  0  0  0
  9 14  1  0  0  0
 10 11  1  0  0  0
 11 12  1  0  0  0
 12 13  1  0  0  0
 12 15  1  0  0  0
 13 14  1  0  0  0
 15 16  2  0  0  0
 15 17  1  0  0  0
 17 18  1  0  0  0
 17 21  1  0  0  0
 18 19  1  0  0  0
 19 20  1  0  0  0
 20 21  1  0  0  0
M  END
> <minimizedAffinity>
-8.78367

$$$$
2381


 30 33  0  0  0  0  0  0  0  0999 V2000
   12.3005    4.1934   11.9748 N   0  0  0  0  0  0  0  0  0  0  0  0
   13.6330    4.6000   12.3249 C   0  0  0  0  0  0  0  0  0  0  0  0
   14.6562    4.0299   11.3678 C   0  0  0  0  0  0  0  0  0  0  0  0
   14.2794    2.7225   10.8917 N   0  0  0  0  0  0  0  0  0  0  0  0
   13.2133    2.0207   11.5644 C   0  0  0  0  0  0  0  0  0  0  0  0
   11.9740    2.8735   11.4731 C   0  0  0  0  0  0  0  0  0  0  0  0
   14.9497    2.1463    9.7828 C   0  0  0  0  0  0  0  0  0  0  0  0
   15.8906    2.7607    9.1846 O   0  0  0  0  0  0  0  0  0  0  0  0
   11.7668    5.9887    9.6161 Cl  0  0  0  0  0  0  0  0  0  0  0  0
   10.8881    6.0230   11.1277 C   0  0  0  0  0  0  0  0  0  0  0  0
   11.2398    5.1380   12.1271 C   0  0  0  0  0  0  0  0  0  0  0  0
   10.5036    5.2163   13.2958 C   0  0  0  0  0  0  0  0  0  0  0  0
    9.5026    6.1029   13.4501 N   0  0  0  0  0  0  0  0  0  0  0  0
    9.1525    6.9585   12.5032 N   0  0  0  0  0  0  0  0  0  0  0  0
    9.8473    6.9105   11.3522 C   0  0  0  0  0  0  0  0  0  0  0  0
    9.5241    7.7151   10.4533 O   0  0  0  0  0  0  0  0  0  0  0  0
    8.0880    7.8982   12.6765 C   0  0  0  0  0  0  0  0  0  0  0  0
    6.7890    7.5628   12.3536 C   0  0  0  0  0  0  0  0  0  0  0  0
    5.7560    8.4633   12.5174 C   0  0  0  0  0  0  0  0  0  0  0  0
    5.9702    9.7348   13.0085 C   0  0  0  0  0  0  0  0  0  0  0  0
    7.2663   10.0758   13.3339 C   0  0  0  0  0  0  0  0  0  0  0  0
    8.2927    9.1741   13.1680 C   0  0  0  0  0  0  0  0  0  0  0  0
   14.6011    0.8018    9.2529 C   0  0  0  0  0  0  0  0  0  0  0  0
   13.8100    0.8824    8.0984 O   0  0  0  0  0  0  0  0  0  0  0  0
   12.6050    0.2107    8.0239 C   0  0  0  0  0  0  0  0  0  0  0  0
   12.2544   -0.8403    7.2745 N   0  0  0  0  0  0  0  0  0  0  0  0
   11.0246   -1.1659    7.5046 O   0  0  0  0  0  0  0  0  0  0  0  0
   10.4779   -0.3741    8.4038 C   0  0  0  0  0  0  0  0  0  0  0  0
   11.4679    0.5202    8.7569 C   0  0  0  0  0  0  0  0  0  0  0  0
    9.0852   -0.5033    8.8695 C   0  0  0  0  0  0  0  0  0  0  0  0
  9 10  1  0  0  0
 10 11  2  0  0  0
 10 15  1  0  0  0
 11 12  1  0  0  0
 11  1  1  0  0  0
 12 13  2  0  0  0
 13 14  1  0  0  0
 14 15  1  0  0  0
 14 17  1  0  0  0
 15 16  2  0  0  0
 17 18  2  0  0  0
 17 22  1  0  0  0
 18 19  1  0  0  0
 19 20  2  0  0  0
 20 21  1  0  0  0
 21 22  2  0  0  0
  1  2  1  0  0  0
  1  6  1  0  0  0
  2  3  1  0  0  0
  3  4  1  0  0  0
  4  5  1  0  0  0
  4  7  1  0  0  0
  5  6  1  0  0  0
  7  8  2  0  0  0
  7 23  1  0  0  0
 23 24  1  0  0  0
 24 25  1  0  0  0
 25 26  2  0  0  0
 25 29  1  0  0  0
 26 27  1  0  0  0
 27 28  1  0  0  0
 28 29  2  0  0  0
 28 30  1  0  0  0
M  END
> <minimizedAffinity>
-8.81329

$$$$
2386


 30 33  0  0  0  0  0  0  0  0999 V2000
   13.6623    9.5203   14.4815 Cl  0  0  0  0  0  0  0  0  0  0  0  0
   13.1590    8.2012   13.4298 C   0  0  0  0  0  0  0  0  0  0  0  0
   11.9841    7.5331   13.7674 C   0  0  0  0  0  0  0  0  0  0  0  0
   11.5772    6.4988   12.9550 C   0  0  0  0  0  0  0  0  0  0  0  0
   12.3255    6.1471   11.8395 C   0  0  0  0  0  0  0  0  0  0  0  0
   13.4965    6.8187   11.5098 C   0  0  0  0  0  0  0  0  0  0  0  0
   13.9050    7.8572   12.3271 C   0  0  0  0  0  0  0  0  0  0  0  0
   11.9828    5.1206   10.9756 O   0  0  0  0  0  0  0  0  0  0  0  0
   11.2592    3.9460   11.2174 C   0  0  0  0  0  0  0  0  0  0  0  0
    9.8637    4.1235   11.6938 C   0  0  0  0  0  0  0  0  0  0  0  0
    9.5573    5.3585   12.3399 N   0  0  0  0  0  0  0  0  0  0  0  0
   10.3110    5.9141   13.4718 C   0  0  0  0  0  0  0  0  0  0  0  0
    8.4462    6.1173   11.8798 C   0  0  0  0  0  0  0  0  0  0  0  0
    7.7921    5.6410   10.9241 O   0  0  0  0  0  0  0  0  0  0  0  0
   11.2342    3.1272    9.9128 C   0  0  0  0  0  0  0  0  0  0  0  0
   12.6594    3.0425    9.4374 C   0  0  0  0  0  0  0  0  0  0  0  0
   13.5570    3.5760   10.3454 O   0  0  0  0  0  0  0  0  0  0  0  0
   13.4718    2.9837   11.5930 C   0  0  0  0  0  0  0  0  0  0  0  0
   12.0757    3.0598   12.1717 C   0  0  0  0  0  0  0  0  0  0  0  0
    8.0647    7.3871   12.4782 C   0  0  0  0  0  0  0  0  0  0  0  0
    8.3097    8.6228   11.7132 C   0  0  0  0  0  0  0  0  0  0  0  0
    7.2043    9.5621   11.4637 C   0  0  0  0  0  0  0  0  0  0  0  0
    5.9041    9.2856   11.9497 N   0  0  0  0  0  0  0  0  0  0  0  0
    4.9308    8.4911   11.2961 C   0  0  0  0  0  0  0  0  0  0  0  0
    5.0231    7.8814   10.1895 O   0  0  0  0  0  0  0  0  0  0  0  0
    3.7779    8.4831   12.1195 N   0  0  0  0  0  0  0  0  0  0  0  0
    4.1501    8.9552   13.4513 C   0  0  0  0  0  0  0  0  0  0  0  0
    5.3543    9.7622   13.1622 C   0  0  0  0  0  0  0  0  0  0  0  0
    5.7964   10.7170   13.8973 O   0  0  0  0  0  0  0  0  0  0  0  0
    2.8128    8.1983   11.8607 H   0  0  0  0  0  0  0  0  0  0  0  0
  1  2  1  0  0  0
  2  3  2  0  0  0
  2  7  1  0  0  0
  3  4  1  0  0  0
  4  5  2  0  0  0
  4 12  1  0  0  0
  5  6  1  0  0  0
  5  8  1  0  0  0
  6  7  2  0  0  0
  8  9  1  0  0  0
  9 10  1  0  0  0
  9 15  1  0  0  0
  9 19  1  0  0  0
 10 11  1  0  0  0
 11 12  1  0  0  0
 11 13  1  0  0  0
 13 14  2  0  0  0
 13 20  1  0  0  0
 20 21  1  0  0  0
 21 22  1  0  0  0
 22 23  1  0  0  0
 23 24  1  0  0  0
 23 28  1  0  0  0
 24 25  2  0  0  0
 24 26  1  0  0  0
 26 27  1  0  0  0
 27 28  1  0  0  0
 28 29  2  0  0  0
 15 16  1  0  0  0
 16 17  1  0  0  0
 17 18  1  0  0  0
 18 19  1  0  0  0
 26 30  1  0  0  0
M  END
> <minimizedAffinity>
-8.55591

$$$$
2402


 33 36  0  0  0  0  0  0  0  0999 V2000
   12.0919    5.2291   12.1246 C   0  0  0  0  0  0  0  0  0  0  0  0
   11.7508    4.3072   11.0827 N   0  0  0  0  0  0  0  0  0  0  0  0
   10.5993    4.7488   10.3805 C   0  0  0  0  0  0  0  0  0  0  0  0
   10.0881    4.3381    9.3108 O   0  0  0  0  0  0  0  0  0  0  0  0
   10.0014    5.8740   11.1361 C   0  0  0  0  0  0  0  0  0  0  0  0
    8.9719    6.5258   10.8294 O   0  0  0  0  0  0  0  0  0  0  0  0
   10.8614    6.0502   12.2913 C   0  0  0  0  0  0  0  0  0  0  0  0
   10.5509    6.8606   13.3110 C   0  0  0  0  0  0  0  0  0  0  0  0
   11.5238    6.9202   14.3170 O   0  0  0  0  0  0  0  0  0  0  0  0
    9.3079    7.6194   13.3861 C   0  0  0  0  0  0  0  0  0  0  0  0
    8.1554    7.3058   13.8691 O   0  0  0  0  0  0  0  0  0  0  0  0
    7.2523    8.2348   13.7659 C   0  0  0  0  0  0  0  0  0  0  0  0
    7.8397    9.3234   13.1392 C   0  0  0  0  0  0  0  0  0  0  0  0
    9.1514    8.9051   12.9075 C   0  0  0  0  0  0  0  0  0  0  0  0
    7.0980   10.4563   12.9023 C   0  0  0  0  0  0  0  0  0  0  0  0
    5.7768   10.5256   13.2793 C   0  0  0  0  0  0  0  0  0  0  0  0
    5.1802    9.4399   13.9078 C   0  0  0  0  0  0  0  0  0  0  0  0
    5.9229    8.3255   14.1386 C   0  0  0  0  0  0  0  0  0  0  0  0
    5.3605    7.2306   14.7610 O   0  0  0  0  0  0  0  0  0  0  0  0
    4.2897    7.2941   15.6933 C   0  0  0  0  0  0  0  0  0  0  0  0
   17.4710    8.1508   11.3554 Br  0  0  0  0  0  0  0  0  0  0  0  0
   15.7648    7.3119   11.5574 C   0  0  0  0  0  0  0  0  0  0  0  0
   15.7197    6.0935   12.1710 C   0  0  0  0  0  0  0  0  0  0  0  0
   14.5206    5.4648   12.3318 C   0  0  0  0  0  0  0  0  0  0  0  0
   13.3132    5.9860   11.9071 C   0  0  0  0  0  0  0  0  0  0  0  0
   13.3871    7.2172   11.2916 C   0  0  0  0  0  0  0  0  0  0  0  0
   14.5973    7.8846   11.1118 C   0  0  0  0  0  0  0  0  0  0  0  0
   12.4535    3.0948   10.7624 C   0  0  0  0  0  0  0  0  0  0  0  0
   11.5092    1.9097   10.6746 C   0  0  0  0  0  0  0  0  0  0  0  0
   11.3332    1.4175    9.3516 N   0  0  0  0  0  0  0  0  0  0  0  0
   12.4513    0.7251    8.7874 C   0  0  0  0  0  0  0  0  0  0  0  0
   10.1260    0.6082    9.2529 C   0  0  0  0  0  0  0  0  0  0  0  0
   11.1612    2.2588    8.7240 H   0  0  0  0  0  0  0  0  0  0  0  0
 21 22  1  0  0  0
 22 23  2  0  0  0
 22 27  1  0  0  0
 23 24  1  0  0  0
 24 25  2  0  0  0
 25 26  1  0  0  0
 25  1  1  0  0  0
 26 27  2  0  0  0
  1  2  1  0  0  0
  1  7  1  0  0  0
  2  3  1  0  0  0
  2 28  1  0  0  0
  3  4  2  0  0  0
  3  5  1  0  0  0
  5  6  2  0  0  0
  5  7  1  0  0  0
  7  8  2  0  0  0
  8  9  1  0  0  0
  8 10  1  0  0  0
 10 11  1  0  0  0
 10 14  2  0  0  0
 11 12  1  0  0  0
 12 13  2  0  0  0
 12 18  1  0  0  0
 13 14  1  0  0  0
 13 15  1  0  0  0
 15 16  2  0  0  0
 16 17  1  0  0  0
 17 18  2  0  0  0
 18 19  1  0  0  0
 19 20  1  0  0  0
 28 29  1  0  0  0
 29 30  1  0  0  0
 30 31  1  0  0  0
 30 32  1  0  0  0
 30 33  1  0  0  0
M  CHG 1   9  -1
M  CHG 1  30   1
M  END
> <minimizedAffinity>
-8.12868

$$$$
2403


 26 29  0  0  0  0  0  0  0  0999 V2000
   10.8853    5.3449   13.1334 C   0  0  0  0  0  0  0  0  0  0  0  0
   10.0814    6.3604   12.4824 N   0  0  0  0  0  0  0  0  0  0  0  0
    8.8578    6.8210   12.7800 C   0  0  0  0  0  0  0  0  0  0  0  0
    8.4559    7.7878   11.8646 C   0  0  0  0  0  0  0  0  0  0  0  0
    9.4873    7.8976   10.9942 N   0  0  0  0  0  0  0  0  0  0  0  0
   10.4546    7.0520   11.3580 C   0  0  0  0  0  0  0  0  0  0  0  0
    7.2681    8.4239   11.9258 N   0  0  0  0  0  0  0  0  0  0  0  0
    6.4578    8.0772   12.9432 C   0  0  0  0  0  0  0  0  0  0  0  0
    5.3422    8.6619   13.0163 O   0  0  0  0  0  0  0  0  0  0  0  0
    6.7976    7.1521   13.8536 N   0  0  0  0  0  0  0  0  0  0  0  0
    7.9848    6.5136   13.7943 C   0  0  0  0  0  0  0  0  0  0  0  0
    8.3194    5.6532   14.6317 O   0  0  0  0  0  0  0  0  0  0  0  0
    5.9204    6.7811   14.9501 C   0  0  0  0  0  0  0  0  0  0  0  0
    6.9080    9.4227   10.9376 C   0  0  0  0  0  0  0  0  0  0  0  0
   12.5840   -0.5253    7.6028 Br  0  0  0  0  0  0  0  0  0  0  0  0
   11.9167    0.7457    8.8557 C   0  0  0  0  0  0  0  0  0  0  0  0
   12.8104    1.5908    9.4551 C   0  0  0  0  0  0  0  0  0  0  0  0
   12.3592    2.4989   10.3456 N   0  0  0  0  0  0  0  0  0  0  0  0
   11.0541    2.5800   10.6453 C   0  0  0  0  0  0  0  0  0  0  0  0
   10.5983    3.4990   11.5461 N   0  0  0  0  0  0  0  0  0  0  0  0
   11.4425    4.3483   12.1585 C   0  0  0  0  0  0  0  0  0  0  0  0
   12.7734    4.2485   11.8373 C   0  0  0  0  0  0  0  0  0  0  0  0
   13.2656    3.3329   10.9331 C   0  0  0  0  0  0  0  0  0  0  0  0
   14.4629    3.2245   10.6274 O   0  0  0  0  0  0  0  0  0  0  0  0
   10.1418    1.7286   10.0428 C   0  0  0  0  0  0  0  0  0  0  0  0
   10.5699    0.7938    9.1335 C   0  0  0  0  0  0  0  0  0  0  0  0
 15 16  1  0  0  0
 16 17  2  0  0  0
 16 26  1  0  0  0
 17 18  1  0  0  0
 18 19  1  0  0  0
 18 23  1  0  0  0
 19 20  2  0  0  0
 19 25  1  0  0  0
 20 21  1  0  0  0
 21 22  2  0  0  0
 21  1  1  0  0  0
 22 23  1  0  0  0
 23 24  2  0  0  0
  1  2  1  0  0  0
  2  3  1  0  0  0
  2  6  1  0  0  0
  3  4  2  0  0  0
  3 11  1  0  0  0
  4  5  1  0  0  0
  4  7  1  0  0  0
  5  6  2  0  0  0
  7  8  1  0  0  0
  7 14  1  0  0  0
  8  9  2  0  0  0
  8 10  1  0  0  0
 10 11  1  0  0  0
 10 13  1  0  0  0
 11 12  2  0  0  0
 25 26  2  0  0  0
M  END
> <minimizedAffinity>
-8.50303

$$$$
2416


 34 37  0  0  0  0  0  0  0  0999 V2000
   11.0587    4.8573   11.6564 N   0  0  0  0  0  0  0  0  0  0  0  0
   10.7656    4.8234   13.0161 C   0  0  0  0  0  0  0  0  0  0  0  0
    9.9786    6.0873   13.3880 C   0  0  0  0  0  0  0  0  0  0  0  0
    9.0078    6.3851   12.3338 N   0  0  0  0  0  0  0  0  0  0  0  0
    9.5493    6.5754   11.0026 C   0  0  0  0  0  0  0  0  0  0  0  0
   11.0179    6.1310   11.0681 C   0  0  0  0  0  0  0  0  0  0  0  0
    7.6188    6.4553   12.6344 C   0  0  0  0  0  0  0  0  0  0  0  0
    7.2735    6.2507   13.8216 O   0  0  0  0  0  0  0  0  0  0  0  0
   11.7171    3.5617   10.8592 S   0  0  0  0  0  0  0  0  0  0  0  0
   11.1649    2.2831   11.4620 O   0  0  0  0  0  0  0  0  0  0  0  0
   11.3677    3.4980    9.3870 O   0  0  0  0  0  0  0  0  0  0  0  0
   13.4757    3.4543   10.9950 C   0  0  0  0  0  0  0  0  0  0  0  0
   14.2039    2.5660   10.2379 C   0  0  0  0  0  0  0  0  0  0  0  0
   15.5731    2.5154   10.3825 C   0  0  0  0  0  0  0  0  0  0  0  0
   16.2727    3.3219   11.2608 C   0  0  0  0  0  0  0  0  0  0  0  0
   15.5348    4.2184   12.0241 C   0  0  0  0  0  0  0  0  0  0  0  0
   14.1671    4.2646   11.8762 C   0  0  0  0  0  0  0  0  0  0  0  0
   17.9945    3.2663   11.4476 Cl  0  0  0  0  0  0  0  0  0  0  0  0
    6.6410    6.7535   11.5885 C   0  0  0  0  0  0  0  0  0  0  0  0
    6.2518    8.2221   11.5014 C   0  0  0  0  0  0  0  0  0  0  0  0
    6.8556    9.0385   12.5212 N   0  0  0  0  0  0  0  0  0  0  0  0
    6.3190    9.7120   13.6509 C   0  0  0  0  0  0  0  0  0  0  0  0
    6.9459   10.6738   14.1687 O   0  0  0  0  0  0  0  0  0  0  0  0
    5.0441    9.4180   14.3406 C   0  0  0  0  0  0  0  0  0  0  0  0
    3.9178    8.7959   13.7908 C   0  0  0  0  0  0  0  0  0  0  0  0
    2.8156    8.5892   14.5707 C   0  0  0  0  0  0  0  0  0  0  0  0
    2.7593    8.9731   15.9118 C   0  0  0  0  0  0  0  0  0  0  0  0
    3.8983    9.5890   16.4315 C   0  0  0  0  0  0  0  0  0  0  0  0
    5.0163    9.8048   15.6559 C   0  0  0  0  0  0  0  0  0  0  0  0
    3.7903    8.3362   12.4537 N   0  0  0  0  0  0  0  0  0  0  0  0
    4.7797    8.3334   11.4199 C   0  0  0  0  0  0  0  0  0  0  0  0
    4.2633    8.4477   10.2525 O   0  0  0  0  0  0  0  0  0  0  0  0
    7.9101    9.1964   12.4567 H   0  0  0  0  0  0  0  0  0  0  0  0
    2.8735    7.9605   12.2130 H   0  0  0  0  0  0  0  0  0  0  0  0
  9 10  2  0  0  0
  9 11  2  0  0  0
  9  1  1  0  0  0
  9 12  1  0  0  0
  1  2  1  0  0  0
  1  6  1  0  0  0
  2  3  1  0  0  0
  3  4  1  0  0  0
  4  5  1  0  0  0
  4  7  1  0  0  0
  5  6  1  0  0  0
  7  8  2  0  0  0
  7 19  1  0  0  0
 19 20  1  0  0  0
 20 21  1  0  0  0
 20 31  1  0  0  0
 21 22  1  0  0  0
 22 23  2  0  0  0
 22 24  1  0  0  0
 24 25  2  0  0  0
 24 29  1  0  0  0
 25 26  1  0  0  0
 25 30  1  0  0  0
 26 27  2  0  0  0
 27 28  1  0  0  0
 28 29  2  0  0  0
 30 31  1  0  0  0
 31 32  2  0  0  0
 12 13  2  0  0  0
 12 17  1  0  0  0
 13 14  1  0  0  0
 14 15  2  0  0  0
 15 16  1  0  0  0
 15 18  1  0  0  0
 16 17  2  0  0  0
 21 33  1  0  0  0
 30 34  1  0  0  0
M  END
> <minimizedAffinity>
-10.38859

$$$$
2417


 27 30  0  0  0  0  0  0  0  0999 V2000
   11.6240    4.4076   11.1408 N   0  0  0  0  0  0  0  0  0  0  0  0
   10.7940    4.8077   12.3006 C   0  0  0  0  0  0  0  0  0  0  0  0
    9.7359    5.5988   11.6797 C   0  0  0  0  0  0  0  0  0  0  0  0
   10.5596    6.5696   10.8486 C   0  0  0  0  0  0  0  0  0  0  0  0
   11.5286    5.4715   10.2358 C   0  0  0  0  0  0  0  0  0  0  0  0
   11.4673    7.3990   11.7103 C   0  0  0  0  0  0  0  0  0  0  0  0
   12.7348    7.5096   11.0804 O   0  0  0  0  0  0  0  0  0  0  0  0
   12.5528    8.0075   10.1934 H   0  0  0  0  0  0  0  0  0  0  0  0
   11.1344    3.0829   10.7301 C   0  0  0  0  0  0  0  0  0  0  0  0
    9.1936    0.8483   10.0010 Cl  0  0  0  0  0  0  0  0  0  0  0  0
   10.5871    0.3930    9.0263 C   0  0  0  0  0  0  0  0  0  0  0  0
   11.7287    1.1471    9.1563 C   0  0  0  0  0  0  0  0  0  0  0  0
   12.8452    0.7303    8.4693 C   0  0  0  0  0  0  0  0  0  0  0  0
   13.7771    1.6778    8.7125 N   0  0  0  0  0  0  0  0  0  0  0  0
   13.2673    2.6106    9.4719 N   0  0  0  0  0  0  0  0  0  0  0  0
   11.9520    2.3423    9.8027 C   0  0  0  0  0  0  0  0  0  0  0  0
   15.1818    1.5845    8.2782 C   0  0  0  0  0  0  0  0  0  0  0  0
   12.8515   -0.3742    7.6731 C   0  0  0  0  0  0  0  0  0  0  0  0
   11.6796   -1.1263    7.5482 C   0  0  0  0  0  0  0  0  0  0  0  0
   10.5395   -0.7241    8.2366 C   0  0  0  0  0  0  0  0  0  0  0  0
    8.8358    6.3534   12.6264 C   0  0  0  0  0  0  0  0  0  0  0  0
    8.0015    7.2241   11.8594 N   0  0  0  0  0  0  0  0  0  0  0  0
    6.6083    6.8306   11.8734 C   0  0  0  0  0  0  0  0  0  0  0  0
    5.6827    7.8987   12.4082 C   0  0  0  0  0  0  0  0  0  0  0  0
    5.8117    9.1168   11.7814 O   0  0  0  0  0  0  0  0  0  0  0  0
    7.1250    9.4014   11.4187 C   0  0  0  0  0  0  0  0  0  0  0  0
    8.0604    8.6058   12.2769 C   0  0  0  0  0  0  0  0  0  0  0  0
 10 11  1  0  0  0
 11 12  2  0  0  0
 11 20  1  0  0  0
 12 13  1  0  0  0
 12 16  1  0  0  0
 13 14  1  0  0  0
 13 18  2  0  0  0
 14 15  1  0  0  0
 14 17  1  0  0  0
 15 16  2  0  0  0
 16  9  1  0  0  0
  9  1  1  0  0  0
  1  2  1  0  0  0
  1  5  1  0  0  0
  2  3  1  0  0  0
  3  4  1  0  0  0
  3 21  1  0  0  0
  4  5  1  0  0  0
  4  6  1  0  0  0
  6  7  1  0  0  0
 21 22  1  0  0  0
 22 23  1  0  0  0
 22 27  1  0  0  0
 23 24  1  0  0  0
 24 25  1  0  0  0
 25 26  1  0  0  0
 26 27  1  0  0  0
 18 19  1  0  0  0
 19 20  2  0  0  0
  7  8  1  0  0  0
M  END
> <minimizedAffinity>
-8.40220

$$$$
2419


 32 36  0  0  0  0  0  0  0  0999 V2000
   13.7194    2.8165   10.9602 C   0  0  0  0  0  0  0  0  0  0  0  0
   13.6544    1.5856   10.2865 C   0  0  0  0  0  0  0  0  0  0  0  0
   12.3707    1.3492   10.0477 N   0  0  0  0  0  0  0  0  0  0  0  0
   11.5842    0.3909    9.4686 C   0  0  0  0  0  0  0  0  0  0  0  0
   10.2972    0.8448    9.6109 C   0  0  0  0  0  0  0  0  0  0  0  0
   10.3556    2.0073   10.2426 N   0  0  0  0  0  0  0  0  0  0  0  0
   11.6492    2.3367   10.5224 C   0  0  0  0  0  0  0  0  0  0  0  0
   12.4676    3.2674   11.0968 N   0  0  0  0  0  0  0  0  0  0  0  0
    9.2089    0.1112    9.1298 C   0  0  0  0  0  0  0  0  0  0  0  0
    9.4253   -1.0936    8.4964 C   0  0  0  0  0  0  0  0  0  0  0  0
   10.7254   -1.5263    8.3661 C   0  0  0  0  0  0  0  0  0  0  0  0
   11.8128   -0.8034    8.8426 C   0  0  0  0  0  0  0  0  0  0  0  0
    9.5112    2.5590   10.4858 H   0  0  0  0  0  0  0  0  0  0  0  0
   19.1774    5.1658   12.6508 Br  0  0  0  0  0  0  0  0  0  0  0  0
   17.4672    4.4432   12.1384 C   0  0  0  0  0  0  0  0  0  0  0  0
   17.3610    3.4409   11.2238 C   0  0  0  0  0  0  0  0  0  0  0  0
   16.1462    2.9320   10.8642 C   0  0  0  0  0  0  0  0  0  0  0  0
   14.9658    3.4024   11.4032 C   0  0  0  0  0  0  0  0  0  0  0  0
   15.0695    4.3992   12.3128 C   0  0  0  0  0  0  0  0  0  0  0  0
   16.3218    4.9378   12.6964 C   0  0  0  0  0  0  0  0  0  0  0  0
   11.9377    4.4469   11.7097 C   0  0  0  0  0  0  0  0  0  0  0  0
   11.9065    5.6788   10.8987 C   0  0  0  0  0  0  0  0  0  0  0  0
   10.6097    6.1317   10.3317 C   0  0  0  0  0  0  0  0  0  0  0  0
   10.1770    7.3875   10.9037 N   0  0  0  0  0  0  0  0  0  0  0  0
   10.8925    7.9504   11.3569 H   0  0  0  0  0  0  0  0  0  0  0  0
    9.8784    7.9940   10.0552 H   0  0  0  0  0  0  0  0  0  0  0  0
    8.9916    7.2686   11.7000 C   0  0  0  0  0  0  0  0  0  0  0  0
    8.3742    5.8988   11.7213 C   0  0  0  0  0  0  0  0  0  0  0  0
    6.9228    6.0928   12.1847 C   0  0  0  0  0  0  0  0  0  0  0  0
    6.9371    6.6541   13.5642 C   0  0  0  0  0  0  0  0  0  0  0  0
    7.7801    7.9001   13.7070 C   0  0  0  0  0  0  0  0  0  0  0  0
    9.1913    7.6607   13.1583 C   0  0  0  0  0  0  0  0  0  0  0  0
 14 15  1  0  0  0
 15 16  2  0  0  0
 15 20  1  0  0  0
 16 17  1  0  0  0
 17 18  2  0  0  0
 18 19  1  0  0  0
 18  1  1  0  0  0
 19 20  2  0  0  0
  1  2  2  0  0  0
  1  8  1  0  0  0
  2  3  1  0  0  0
  3  4  1  0  0  0
  3  7  1  0  0  0
  4  5  2  0  0  0
  4 12  1  0  0  0
  5  6  1  0  0  0
  5  9  1  0  0  0
  6  7  2  0  0  0
  7  8  1  0  0  0
  8 21  1  0  0  0
 21 22  1  0  0  0
 22 23  1  0  0  0
 23 24  1  0  0  0
 24 27  1  0  0  0
 27 28  1  0  0  0
 27 32  1  0  0  0
 28 29  1  0  0  0
 29 30  1  0  0  0
 30 31  1  0  0  0
 31 32  1  0  0  0
  9 10  2  0  0  0
 10 11  1  0  0  0
 11 12  2  0  0  0
  6 13  1  0  0  0
 24 25  1  0  0  0
 24 26  1  0  0  0
M  CHG 1  24   1
M  END
> <minimizedAffinity>
-9.35767

$$$$
2420


 29 32  0  0  0  0  0  0  0  0999 V2000
   12.0142    2.6367   10.5563 N   0  0  0  0  0  0  0  0  0  0  0  0
   12.4225    2.5815   11.9587 C   0  0  0  0  0  0  0  0  0  0  0  0
   12.9062    3.9892   12.2266 C   0  0  0  0  0  0  0  0  0  0  0  0
   11.8465    4.8315   11.5262 C   0  0  0  0  0  0  0  0  0  0  0  0
   11.3897    3.9166   10.4215 C   0  0  0  0  0  0  0  0  0  0  0  0
   10.5739    4.2245    9.5023 O   0  0  0  0  0  0  0  0  0  0  0  0
    8.4866   -2.4654    7.1706 Br  0  0  0  0  0  0  0  0  0  0  0  0
    9.5912   -1.1430    7.9790 C   0  0  0  0  0  0  0  0  0  0  0  0
   10.9110   -1.0054    7.6118 C   0  0  0  0  0  0  0  0  0  0  0  0
   11.7163   -0.0637    8.1801 C   0  0  0  0  0  0  0  0  0  0  0  0
   13.0198    0.3077    8.0345 N   0  0  0  0  0  0  0  0  0  0  0  0
   13.2885    1.3092    8.8583 N   0  0  0  0  0  0  0  0  0  0  0  0
   12.2009    1.6364    9.5684 C   0  0  0  0  0  0  0  0  0  0  0  0
   11.2016    0.7694    9.1427 C   0  0  0  0  0  0  0  0  0  0  0  0
    9.8731    0.6522    9.5322 C   0  0  0  0  0  0  0  0  0  0  0  0
    9.0612   -0.2991    8.9570 C   0  0  0  0  0  0  0  0  0  0  0  0
   13.6336   -0.1911    7.3434 H   0  0  0  0  0  0  0  0  0  0  0  0
   14.2395    4.2390   11.6287 C   0  0  0  0  0  0  0  0  0  0  0  0
   14.6007    5.4304   11.4619 O   0  0  0  0  0  0  0  0  0  0  0  0
   15.1090    3.1937   11.2427 N   0  0  0  0  0  0  0  0  0  0  0  0
   14.7717    2.2092   11.3957 H   0  0  0  0  0  0  0  0  0  0  0  0
   16.4058    3.4291   10.6619 C   0  0  0  0  0  0  0  0  0  0  0  0
   17.4470    3.4935   11.7591 C   0  0  0  0  0  0  0  0  0  0  0  0
   17.9724    4.8218   11.9583 N   0  0  0  0  0  0  0  0  0  0  0  0
   19.3609    4.6822   12.3830 C   0  0  0  0  0  0  0  0  0  0  0  0
   20.2725    4.5224   11.1693 C   0  0  0  0  0  0  0  0  0  0  0  0
   20.3407    5.6629   10.4041 O   0  0  0  0  0  0  0  0  0  0  0  0
   19.2260    6.4359   10.6313 C   0  0  0  0  0  0  0  0  0  0  0  0
   17.9645    5.6040   10.7430 C   0  0  0  0  0  0  0  0  0  0  0  0
  7  8  1  0  0  0
  8  9  2  0  0  0
  8 16  1  0  0  0
  9 10  1  0  0  0
 10 11  1  0  0  0
 10 14  2  0  0  0
 11 12  1  0  0  0
 12 13  2  0  0  0
 13 14  1  0  0  0
 13  1  1  0  0  0
 14 15  1  0  0  0
 15 16  2  0  0  0
  1  2  1  0  0  0
  1  5  1  0  0  0
  2  3  1  0  0  0
  3  4  1  0  0  0
  3 18  1  0  0  0
  4  5  1  0  0  0
  5  6  2  0  0  0
 18 19  2  0  0  0
 18 20  1  0  0  0
 20 22  1  0  0  0
 22 23  1  0  0  0
 23 24  1  0  0  0
 24 25  1  0  0  0
 24 29  1  0  0  0
 25 26  1  0  0  0
 26 27  1  0  0  0
 27 28  1  0  0  0
 28 29  1  0  0  0
 11 17  1  0  0  0
 20 21  1  0  0  0
M  END
> <minimizedAffinity>
-8.12587

$$$$
2432


 26 29  0  0  0  0  0  0  0  0999 V2000
   11.6657    3.0660   11.3119 C   0  0  0  0  0  0  0  0  0  0  0  0
   11.8410    2.5990   12.5342 O   0  0  0  0  0  0  0  0  0  0  0  0
   11.8808    4.4216   11.1205 N   0  0  0  0  0  0  0  0  0  0  0  0
   12.2433    5.2380   12.3043 C   0  0  0  0  0  0  0  0  0  0  0  0
   11.1492    6.2613   12.4527 C   0  0  0  0  0  0  0  0  0  0  0  0
   10.1935    6.2728   11.3909 N   0  0  0  0  0  0  0  0  0  0  0  0
   10.5025    5.9433   10.0073 C   0  0  0  0  0  0  0  0  0  0  0  0
   11.8189    5.1853    9.9300 C   0  0  0  0  0  0  0  0  0  0  0  0
    8.8418    6.6209   11.6606 C   0  0  0  0  0  0  0  0  0  0  0  0
    7.8353    5.7719   11.3804 N   0  0  0  0  0  0  0  0  0  0  0  0
    6.5423    6.0878   11.6286 C   0  0  0  0  0  0  0  0  0  0  0  0
    6.2248    7.2762   12.1704 N   0  0  0  0  0  0  0  0  0  0  0  0
    7.1703    8.1783   12.4790 C   0  0  0  0  0  0  0  0  0  0  0  0
    7.1193    9.4105   13.0179 N   0  0  0  0  0  0  0  0  0  0  0  0
    8.3594    9.8489   13.1007 N   0  0  0  0  0  0  0  0  0  0  0  0
    9.2259    8.9240   12.6254 C   0  0  0  0  0  0  0  0  0  0  0  0
    8.5013    7.8358   12.2161 C   0  0  0  0  0  0  0  0  0  0  0  0
    5.9329   10.1545   13.4427 C   0  0  0  0  0  0  0  0  0  0  0  0
    8.8810   -0.5182    8.5831 Cl  0  0  0  0  0  0  0  0  0  0  0  0
   10.1577    0.5141    9.1898 C   0  0  0  0  0  0  0  0  0  0  0  0
   10.0984    1.4291   10.1971 N   0  0  0  0  0  0  0  0  0  0  0  0
   11.2710    2.0362   10.3861 C   0  0  0  0  0  0  0  0  0  0  0  0
   12.1098    1.4527    9.4277 C   0  0  0  0  0  0  0  0  0  0  0  0
   11.4305    0.5145    8.6870 C   0  0  0  0  0  0  0  0  0  0  0  0
   12.0391   -0.4776    7.3795 Cl  0  0  0  0  0  0  0  0  0  0  0  0
    9.1985    1.5524   10.7026 H   0  0  0  0  0  0  0  0  0  0  0  0
 19 20  1  0  0  0
 20 21  1  0  0  0
 20 24  2  0  0  0
 21 22  1  0  0  0
 22 23  2  0  0  0
 22  1  1  0  0  0
 23 24  1  0  0  0
 24 25  1  0  0  0
  1  2  2  0  0  0
  1  3  1  0  0  0
  3  4  1  0  0  0
  3  8  1  0  0  0
  4  5  1  0  0  0
  5  6  1  0  0  0
  6  7  1  0  0  0
  6  9  1  0  0  0
  7  8  1  0  0  0
  9 10  2  0  0  0
  9 17  1  0  0  0
 10 11  1  0  0  0
 11 12  2  0  0  0
 12 13  1  0  0  0
 13 14  1  0  0  0
 13 17  2  0  0  0
 14 15  1  0  0  0
 14 18  1  0  0  0
 15 16  2  0  0  0
 16 17  1  0  0  0
 21 26  1  0  0  0
M  END
> <minimizedAffinity>
-8.97159

$$$$
2439


 30 34  0  0  0  0  0  0  0  0999 V2000
   13.6122    2.8097   10.8711 C   0  0  0  0  0  0  0  0  0  0  0  0
   13.5356    1.4917   10.3862 C   0  0  0  0  0  0  0  0  0  0  0  0
   12.2766    1.2284   10.0432 N   0  0  0  0  0  0  0  0  0  0  0  0
   11.4775    0.2500    9.5436 C   0  0  0  0  0  0  0  0  0  0  0  0
   10.2268    0.7623    9.4840 C   0  0  0  0  0  0  0  0  0  0  0  0
   10.2924    2.0213    9.9413 N   0  0  0  0  0  0  0  0  0  0  0  0
   11.5616    2.3269   10.2925 C   0  0  0  0  0  0  0  0  0  0  0  0
   12.3712    3.3119   10.8029 N   0  0  0  0  0  0  0  0  0  0  0  0
    9.1746   -0.0016    9.0110 C   0  0  0  0  0  0  0  0  0  0  0  0
    9.3801   -1.3056    8.5907 C   0  0  0  0  0  0  0  0  0  0  0  0
   10.6639   -1.8311    8.6517 C   0  0  0  0  0  0  0  0  0  0  0  0
   11.6869   -1.0419    9.1272 C   0  0  0  0  0  0  0  0  0  0  0  0
    9.4775    2.6826   10.0288 H   0  0  0  0  0  0  0  0  0  0  0  0
   19.1304    5.0272   12.6301 Br  0  0  0  0  0  0  0  0  0  0  0  0
   17.4375    4.3542   12.1023 C   0  0  0  0  0  0  0  0  0  0  0  0
   17.3168    3.3514   11.1851 C   0  0  0  0  0  0  0  0  0  0  0  0
   16.0675    2.8859   10.8244 C   0  0  0  0  0  0  0  0  0  0  0  0
   14.8752    3.3835   11.3488 C   0  0  0  0  0  0  0  0  0  0  0  0
   15.0083    4.3824   12.2626 C   0  0  0  0  0  0  0  0  0  0  0  0
   16.2862    4.8647   12.6357 C   0  0  0  0  0  0  0  0  0  0  0  0
   11.9039    4.6004   11.1942 C   0  0  0  0  0  0  0  0  0  0  0  0
   11.1336    4.6484   12.4887 C   0  0  0  0  0  0  0  0  0  0  0  0
   10.2819    5.8169   12.7136 C   0  0  0  0  0  0  0  0  0  0  0  0
    9.5386    6.3746   11.6222 N   0  0  0  0  0  0  0  0  0  0  0  0
    8.2973    5.6635   11.3745 C   0  0  0  0  0  0  0  0  0  0  0  0
    7.1233    6.1188   12.1320 C   0  0  0  0  0  0  0  0  0  0  0  0
    7.2533    7.4059   12.8581 C   0  0  0  0  0  0  0  0  0  0  0  0
    8.1352    8.3525   12.1239 C   0  0  0  0  0  0  0  0  0  0  0  0
    9.4159    7.7890   11.6325 C   0  0  0  0  0  0  0  0  0  0  0  0
   10.0993    6.1309   10.7749 H   0  0  0  0  0  0  0  0  0  0  0  0
 14 15  1  0  0  0
 15 16  2  0  0  0
 15 20  1  0  0  0
 16 17  1  0  0  0
 17 18  2  0  0  0
 18 19  1  0  0  0
 18  1  1  0  0  0
 19 20  2  0  0  0
  1  2  2  0  0  0
  1  8  1  0  0  0
  2  3  1  0  0  0
  3  4  1  0  0  0
  3  7  1  0  0  0
  4  5  2  0  0  0
  4 12  1  0  0  0
  5  6  1  0  0  0
  5  9  1  0  0  0
  6  7  2  0  0  0
  7  8  1  0  0  0
  8 21  1  0  0  0
 21 22  1  0  0  0
 22 23  1  0  0  0
 23 24  1  0  0  0
 24 25  1  0  0  0
 24 29  1  0  0  0
 25 26  1  0  0  0
 26 27  1  0  0  0
 27 28  1  0  0  0
 28 29  1  0  0  0
  9 10  2  0  0  0
 10 11  1  0  0  0
 11 12  2  0  0  0
  6 13  1  0  0  0
 24 30  1  0  0  0
M  CHG 1  24   1
M  END
> <minimizedAffinity>
-9.24613

$$$$
2440


 33 36  0  0  0  0  0  0  0  0999 V2000
    8.1311    6.6406   13.2612 Cl  0  0  0  0  0  0  0  0  0  0  0  0
    9.7845    6.9597   12.7461 C   0  0  0  0  0  0  0  0  0  0  0  0
   10.6317    5.8527   12.5888 C   0  0  0  0  0  0  0  0  0  0  0  0
   11.9152    6.1052   12.1882 C   0  0  0  0  0  0  0  0  0  0  0  0
   12.3653    7.4200   11.9452 C   0  0  0  0  0  0  0  0  0  0  0  0
   11.5276    8.4948   12.1029 C   0  0  0  0  0  0  0  0  0  0  0  0
   10.2359    8.2348   12.5060 C   0  0  0  0  0  0  0  0  0  0  0  0
   12.6136    4.8174   12.0768 C   0  0  0  0  0  0  0  0  0  0  0  0
   13.8419    4.7469   12.7840 N   0  0  0  0  0  0  0  0  0  0  0  0
   14.7358    3.8617   12.1775 C   0  0  0  0  0  0  0  0  0  0  0  0
   14.2044    3.6673   10.7742 C   0  0  0  0  0  0  0  0  0  0  0  0
   13.0007    4.5395   10.6255 C   0  0  0  0  0  0  0  0  0  0  0  0
   11.9625    3.7543    9.9078 C   0  0  0  0  0  0  0  0  0  0  0  0
   10.8649    4.2259    9.5291 O   0  0  0  0  0  0  0  0  0  0  0  0
   12.4514    2.4218    9.7495 N   0  0  0  0  0  0  0  0  0  0  0  0
   13.6362    2.3193   10.5535 C   0  0  0  0  0  0  0  0  0  0  0  0
   14.0980    1.2522   10.9876 O   0  0  0  0  0  0  0  0  0  0  0  0
   11.6341    3.8066   12.4860 C   0  0  0  0  0  0  0  0  0  0  0  0
   11.7789    2.5481   12.5823 O   0  0  0  0  0  0  0  0  0  0  0  0
   10.4150    4.4603   12.7820 N   0  0  0  0  0  0  0  0  0  0  0  0
   13.7726    4.7343   13.8149 H   0  0  0  0  0  0  0  0  0  0  0  0
    9.5036    4.0439   13.0864 H   0  0  0  0  0  0  0  0  0  0  0  0
   11.9023    1.3695    8.9509 C   0  0  0  0  0  0  0  0  0  0  0  0
   10.5659    0.8656    9.3633 C   0  0  0  0  0  0  0  0  0  0  0  0
   10.1379   -0.4366    8.7858 C   0  0  0  0  0  0  0  0  0  0  0  0
   10.9737   -1.5952    9.3182 C   0  0  0  0  0  0  0  0  0  0  0  0
   16.1854    4.1536   12.2192 C   0  0  0  0  0  0  0  0  0  0  0  0
   17.0701    3.4535   11.2671 C   0  0  0  0  0  0  0  0  0  0  0  0
   18.4740    3.8737   11.2105 C   0  0  0  0  0  0  0  0  0  0  0  0
   18.7990    5.0379   11.5092 O   0  0  0  0  0  0  0  0  0  0  0  0
   19.5287    2.9974   10.8220 N   0  0  0  0  0  0  0  0  0  0  0  0
   19.8363    2.1868   11.3878 H   0  0  0  0  0  0  0  0  0  0  0  0
   20.0153    3.1758    9.9273 H   0  0  0  0  0  0  0  0  0  0  0  0
  1  2  1  0  0  0
  2  3  2  0  0  0
  2  7  1  0  0  0
  3  4  1  0  0  0
  3 20  1  0  0  0
  4  5  2  0  0  0
  4  8  1  0  0  0
  5  6  1  0  0  0
  6  7  2  0  0  0
  8  9  1  0  0  0
  8 12  1  0  0  0
  8 18  1  0  0  0
  9 10  1  0  0  0
 10 11  1  0  0  0
 10 27  1  0  0  0
 11 12  1  0  0  0
 11 16  1  0  0  0
 12 13  1  0  0  0
 13 14  2  0  0  0
 13 15  1  0  0  0
 15 16  1  0  0  0
 15 23  1  0  0  0
 16 17  2  0  0  0
 23 24  1  0  0  0
 24 25  1  0  0  0
 25 26  1  0  0  0
 27 28  1  0  0  0
 28 29  1  0  0  0
 29 30  2  0  0  0
 29 31  1  0  0  0
 18 19  2  0  0  0
 18 20  1  0  0  0
  9 21  1  0  0  0
 31 32  1  0  0  0
 31 33  1  0  0  0
 20 22  1  0  0  0
M  END
> <minimizedAffinity>
-8.23037

$$$$
2447


 33 36  0  0  0  0  0  0  0  0999 V2000
   10.4363    8.8553   13.3910 C   0  0  0  0  0  0  0  0  0  0  0  0
   11.8032    9.4490   13.3277 C   0  0  0  0  0  0  0  0  0  0  0  0
   12.2617   10.1875   14.2317 O   0  0  0  0  0  0  0  0  0  0  0  0
   12.5115    9.1069   12.1787 O   0  0  0  0  0  0  0  0  0  0  0  0
   12.3354    7.9391   11.4663 C   0  0  0  0  0  0  0  0  0  0  0  0
   11.4105    7.0617   11.9134 C   0  0  0  0  0  0  0  0  0  0  0  0
   10.6635    7.3927   13.1076 C   0  0  0  0  0  0  0  0  0  0  0  0
   10.2218    6.5266   13.8812 O   0  0  0  0  0  0  0  0  0  0  0  0
    9.7658    9.0621   14.7027 C   0  0  0  0  0  0  0  0  0  0  0  0
    5.8897    8.9919   13.2932 N   0  0  0  0  0  0  0  0  0  0  0  0
    6.6347    8.0335   14.0382 C   0  0  0  0  0  0  0  0  0  0  0  0
    7.4051    8.7560   15.1259 C   0  0  0  0  0  0  0  0  0  0  0  0
    8.4407    9.5231   14.4791 N   0  0  0  0  0  0  0  0  0  0  0  0
    8.1206   10.0075   13.1880 C   0  0  0  0  0  0  0  0  0  0  0  0
    6.6067   10.2141   13.1226 C   0  0  0  0  0  0  0  0  0  0  0  0
    4.2710    9.1686   13.7789 S   0  0  0  0  0  0  0  0  0  0  0  0
    3.9215   10.5808   14.1971 O   0  0  0  0  0  0  0  0  0  0  0  0
    3.3840    8.8593   12.5802 O   0  0  0  0  0  0  0  0  0  0  0  0
    3.7946    8.0814   15.0693 C   0  0  0  0  0  0  0  0  0  0  0  0
   11.1764    5.7879   11.2195 C   0  0  0  0  0  0  0  0  0  0  0  0
   12.0027    4.7231   11.6155 N   0  0  0  0  0  0  0  0  0  0  0  0
   13.1981    4.4451   10.9418 C   0  0  0  0  0  0  0  0  0  0  0  0
   13.6276    2.9810   11.1883 C   0  0  0  0  0  0  0  0  0  0  0  0
   12.4404    2.2018   10.9461 N   0  0  0  0  0  0  0  0  0  0  0  0
   11.3982    2.3694   11.9488 C   0  0  0  0  0  0  0  0  0  0  0  0
   11.4893    3.7725   12.5332 C   0  0  0  0  0  0  0  0  0  0  0  0
   12.2962    1.3591    9.8266 C   0  0  0  0  0  0  0  0  0  0  0  0
   11.1563    0.6383    9.5521 C   0  0  0  0  0  0  0  0  0  0  0  0
   11.0684   -0.1675    8.4410 C   0  0  0  0  0  0  0  0  0  0  0  0
   12.1046   -0.2999    7.5466 C   0  0  0  0  0  0  0  0  0  0  0  0
   13.2538    0.4056    7.7930 C   0  0  0  0  0  0  0  0  0  0  0  0
   13.3462    1.2191    8.9129 C   0  0  0  0  0  0  0  0  0  0  0  0
    9.5981   -1.0565    8.1482 Cl  0  0  0  0  0  0  0  0  0  0  0  0
 16 17  2  0  0  0
 16 18  2  0  0  0
 16 10  1  0  0  0
 16 19  1  0  0  0
 10 11  1  0  0  0
 10 15  1  0  0  0
 11 12  1  0  0  0
 12 13  1  0  0  0
 13 14  1  0  0  0
 13  9  1  0  0  0
 14 15  1  0  0  0
  9  1  1  0  0  0
  1  2  1  0  0  0
  1  7  1  0  0  0
  2  3  2  0  0  0
  2  4  1  0  0  0
  4  5  1  0  0  0
  5  6  2  0  0  0
  6  7  1  0  0  0
  6 20  1  0  0  0
  7  8  2  0  0  0
 20 21  1  0  0  0
 21 22  1  0  0  0
 21 26  1  0  0  0
 22 23  1  0  0  0
 23 24  1  0  0  0
 24 25  1  0  0  0
 24 27  1  0  0  0
 25 26  1  0  0  0
 27 28  2  0  0  0
 27 32  1  0  0  0
 28 29  1  0  0  0
 29 30  2  0  0  0
 29 33  1  0  0  0
 30 31  1  0  0  0
 31 32  2  0  0  0
M  END
> <minimizedAffinity>
-9.16991

$$$$
