3


 38 41  0  0  0  0  0  0  0  0999 V2000
    8.2039    7.2018   11.9224 C   0  0  0  0  0  0  0  0  0  0  0  0
    6.9839    6.7000   11.5439 N   0  0  0  0  0  0  0  0  0  0  0  0
    6.0361    7.4498   12.0341 N   0  0  0  0  0  0  0  0  0  0  0  0
    6.5300    8.4543   12.7372 N   0  0  0  0  0  0  0  0  0  0  0  0
    7.8665    8.3242   12.6864 C   0  0  0  0  0  0  0  0  0  0  0  0
    5.7387    9.4499   13.3613 C   0  0  0  0  0  0  0  0  0  0  0  0
    5.9100   10.7888   13.3890 N   0  0  0  0  0  0  0  0  0  0  0  0
    4.9425   11.3448   14.0689 O   0  0  0  0  0  0  0  0  0  0  0  0
    4.1127   10.4339   14.5096 N   0  0  0  0  0  0  0  0  0  0  0  0
    4.5759    9.2452   14.0885 C   0  0  0  0  0  0  0  0  0  0  0  0
    3.9529    8.0083   14.3613 N   0  0  0  0  0  0  0  0  0  0  0  0
    3.0548    7.7867   13.8944 H   0  0  0  0  0  0  0  0  0  0  0  0
    4.3576    7.3103   15.0110 H   0  0  0  0  0  0  0  0  0  0  0  0
   10.2918    5.7649   12.3016 N   0  0  0  0  0  0  0  0  0  0  0  0
    9.4897    6.6301   11.5699 C   0  0  0  0  0  0  0  0  0  0  0  0
    9.9329    6.9874   10.4141 O   0  0  0  0  0  0  0  0  0  0  0  0
   10.1001    5.3734   13.2542 H   0  0  0  0  0  0  0  0  0  0  0  0
   11.8504    4.1082   11.7168 C   0  0  0  0  0  0  0  0  0  0  0  0
   11.5296    5.3529   11.7006 N   0  0  0  0  0  0  0  0  0  0  0  0
   17.1499    3.9121   11.8606 Br  0  0  0  0  0  0  0  0  0  0  0  0
   15.4867    3.4167   11.1010 C   0  0  0  0  0  0  0  0  0  0  0  0
   15.4503    2.5815   10.0229 C   0  0  0  0  0  0  0  0  0  0  0  0
   14.2126    2.2364    9.4860 C   0  0  0  0  0  0  0  0  0  0  0  0
   13.0499    2.7465   10.0549 C   0  0  0  0  0  0  0  0  0  0  0  0
   13.0779    3.5854   11.1367 C   0  0  0  0  0  0  0  0  0  0  0  0
   14.3087    3.9181   11.6570 C   0  0  0  0  0  0  0  0  0  0  0  0
   14.3249    4.7678   12.7523 O   0  0  0  0  0  0  0  0  0  0  0  0
   14.1272    1.0773    7.9886 Br  0  0  0  0  0  0  0  0  0  0  0  0
   16.5974    2.0618    9.4411 O   0  0  0  0  0  0  0  0  0  0  0  0
   15.2047    5.0423   13.1711 H   0  0  0  0  0  0  0  0  0  0  0  0
   16.5436    1.4476    8.6450 H   0  0  0  0  0  0  0  0  0  0  0  0
    8.8616    9.2176   13.2867 C   0  0  0  0  0  0  0  0  0  0  0  0
    8.8596    9.2258   14.7520 N   0  0  0  0  0  0  0  0  0  0  0  0
   10.1561    9.7550   15.2186 C   0  0  0  0  0  0  0  0  0  0  0  0
   11.2663    9.0965   14.4767 C   0  0  0  0  0  0  0  0  0  0  0  0
   11.1484    7.7325   14.5840 O   0  0  0  0  0  0  0  0  0  0  0  0
   10.2023    7.3149   15.4827 C   0  0  0  0  0  0  0  0  0  0  0  0
    8.8078    7.8195   15.2177 C   0  0  0  0  0  0  0  0  0  0  0  0
 20 21  1  0  0  0
 21 22  2  0  0  0
 21 26  1  0  0  0
 22 23  1  0  0  0
 22 29  1  0  0  0
 23 24  2  0  0  0
 23 28  1  0  0  0
 24 25  1  0  0  0
 25 26  2  0  0  0
 25 18  1  0  0  0
 26 27  1  0  0  0
 18 19  2  0  0  0
 19 14  1  0  0  0
 14 15  1  0  0  0
 15 16  2  0  0  0
 15  1  1  0  0  0
  1  2  1  0  0  0
  1  5  2  0  0  0
  2  3  2  0  0  0
  3  4  1  0  0  0
  4  5  1  0  0  0
  4  6  1  0  0  0
  5 32  1  0  0  0
 32 33  1  0  0  0
 33 34  1  0  0  0
 33 38  1  0  0  0
 34 35  1  0  0  0
 35 36  1  0  0  0
 36 37  1  0  0  0
 37 38  1  0  0  0
  6  7  2  0  0  0
  6 10  1  0  0  0
  7  8  1  0  0  0
  8  9  1  0  0  0
  9 10  2  0  0  0
 10 11  1  0  0  0
 27 30  1  0  0  0
 14 17  1  0  0  0
 11 12  1  0  0  0
 11 13  1  0  0  0
 29 31  1  0  0  0
M  END
> <minimizedAffinity>
-9.57226

$$$$
708


 31 34  0  0  0  0  0  0  0  0999 V2000
    9.7051    7.9158   12.9851 C   0  0  0  0  0  0  0  0  0  0  0  0
   10.4721    7.8056   11.6999 C   0  0  0  0  0  0  0  0  0  0  0  0
   13.1994    8.1509   13.4404 Br  0  0  0  0  0  0  0  0  0  0  0  0
   12.6187    6.7061   12.3446 C   0  0  0  0  0  0  0  0  0  0  0  0
   11.4247    6.7148   11.6769 N   0  0  0  0  0  0  0  0  0  0  0  0
   11.3880    5.5344   11.0271 C   0  0  0  0  0  0  0  0  0  0  0  0
   12.5323    4.7952   11.2794 C   0  0  0  0  0  0  0  0  0  0  0  0
   13.2758    5.5617   12.1062 N   0  0  0  0  0  0  0  0  0  0  0  0
   12.7763    3.5790   10.7617 N   0  0  0  0  0  0  0  0  0  0  0  0
   11.8327    3.0719    9.9482 C   0  0  0  0  0  0  0  0  0  0  0  0
   12.0169    1.9187    9.4318 O   0  0  0  0  0  0  0  0  0  0  0  0
   10.7066    3.7562    9.6750 N   0  0  0  0  0  0  0  0  0  0  0  0
   10.4564    4.9889   10.1981 C   0  0  0  0  0  0  0  0  0  0  0  0
    9.4075    5.6115    9.9331 O   0  0  0  0  0  0  0  0  0  0  0  0
   13.9742    2.8131   11.0320 C   0  0  0  0  0  0  0  0  0  0  0  0
    9.9658    3.3774    9.0473 H   0  0  0  0  0  0  0  0  0  0  0  0
    8.6665    6.8502   13.1878 C   0  0  0  0  0  0  0  0  0  0  0  0
    7.5523    7.3804   13.9614 N   0  0  0  0  0  0  0  0  0  0  0  0
    6.3609    7.8379   13.5133 C   0  0  0  0  0  0  0  0  0  0  0  0
    5.5814    8.2515   14.5686 C   0  0  0  0  0  0  0  0  0  0  0  0
    6.3229    8.0370   15.6715 N   0  0  0  0  0  0  0  0  0  0  0  0
    7.5094    7.5123   15.2969 C   0  0  0  0  0  0  0  0  0  0  0  0
    8.9505    7.0097   16.4449 Br  0  0  0  0  0  0  0  0  0  0  0  0
    4.3414    8.7557   14.4277 N   0  0  0  0  0  0  0  0  0  0  0  0
    3.8659    8.8467   13.1614 C   0  0  0  0  0  0  0  0  0  0  0  0
    2.6968    9.3204   13.0245 O   0  0  0  0  0  0  0  0  0  0  0  0
    4.5976    8.4522   12.0982 N   0  0  0  0  0  0  0  0  0  0  0  0
    5.8392    7.9481   12.2513 C   0  0  0  0  0  0  0  0  0  0  0  0
    6.5450    7.5724   11.2839 O   0  0  0  0  0  0  0  0  0  0  0  0
    3.5499    9.1828   15.5789 C   0  0  0  0  0  0  0  0  0  0  0  0
    4.1804    8.5448   11.1508 H   0  0  0  0  0  0  0  0  0  0  0  0
  3  4  1  0  0  0
  4  5  1  0  0  0
  4  8  2  0  0  0
  5  6  1  0  0  0
  5  2  1  0  0  0
  6  7  2  0  0  0
  6 13  1  0  0  0
  7  8  1  0  0  0
  7  9  1  0  0  0
  9 10  1  0  0  0
  9 15  1  0  0  0
 10 11  2  0  0  0
 10 12  1  0  0  0
 12 13  1  0  0  0
 13 14  2  0  0  0
  2  1  1  0  0  0
  1 17  1  0  0  0
 17 18  1  0  0  0
 18 19  1  0  0  0
 18 22  1  0  0  0
 19 20  2  0  0  0
 19 28  1  0  0  0
 20 21  1  0  0  0
 20 24  1  0  0  0
 21 22  2  0  0  0
 22 23  1  0  0  0
 24 25  1  0  0  0
 24 30  1  0  0  0
 25 26  2  0  0  0
 25 27  1  0  0  0
 27 28  1  0  0  0
 28 29  2  0  0  0
 12 16  1  0  0  0
 27 31  1  0  0  0
M  END
> <minimizedAffinity>
-8.39227

$$$$
1808


 24 28  0  0  0  0  0  0  0  0999 V2000
    5.2486    8.0989   13.9703 N   0  0  0  0  0  0  0  0  0  0  0  0
    6.2251    7.0961   13.7368 C   0  0  0  0  0  0  0  0  0  0  0  0
    6.5533    6.2235   14.5762 O   0  0  0  0  0  0  0  0  0  0  0  0
    6.7711    7.2596   12.3628 C   0  0  0  0  0  0  0  0  0  0  0  0
    8.0256    8.0774   12.3459 C   0  0  0  0  0  0  0  0  0  0  0  0
    7.9099    8.6959   11.0812 O   0  0  0  0  0  0  0  0  0  0  0  0
    6.6838    9.3629   11.3294 C   0  0  0  0  0  0  0  0  0  0  0  0
    5.7976    8.2151   11.6714 C   0  0  0  0  0  0  0  0  0  0  0  0
    4.8132    8.6146   12.7127 C   0  0  0  0  0  0  0  0  0  0  0  0
    3.7965    9.2810   12.5013 O   0  0  0  0  0  0  0  0  0  0  0  0
    7.0439   10.0709   12.5855 C   0  0  0  0  0  0  0  0  0  0  0  0
    7.8344    9.2279   13.2431 C   0  0  0  0  0  0  0  0  0  0  0  0
    3.4110    9.6741   19.5617 Br  0  0  0  0  0  0  0  0  0  0  0  0
    3.9904    9.1907   17.8215 C   0  0  0  0  0  0  0  0  0  0  0  0
    5.1493    9.7313   17.3193 C   0  0  0  0  0  0  0  0  0  0  0  0
    5.5469    9.3617   16.0533 C   0  0  0  0  0  0  0  0  0  0  0  0
    4.8224    8.4771   15.2854 C   0  0  0  0  0  0  0  0  0  0  0  0
    3.6517    7.9294   15.7918 C   0  0  0  0  0  0  0  0  0  0  0  0
    3.2525    8.3058   17.0759 C   0  0  0  0  0  0  0  0  0  0  0  0
    9.2765    7.3251   12.5031 C   0  0  0  0  0  0  0  0  0  0  0  0
   10.2492    7.6669   11.6040 O   0  0  0  0  0  0  0  0  0  0  0  0
   10.4310    6.6229   10.7319 C   0  0  0  0  0  0  0  0  0  0  0  0
    9.4828    5.5494   11.1544 C   0  0  0  0  0  0  0  0  0  0  0  0
    9.0714    5.9599   12.4174 O   0  0  0  0  0  0  0  0  0  0  0  0
 13 14  1  0  0  0
 14 15  2  0  0  0
 14 19  1  0  0  0
 15 16  1  0  0  0
 16 17  2  0  0  0
 17 18  1  0  0  0
 17  1  1  0  0  0
 18 19  2  0  0  0
  1  2  1  0  0  0
  1  9  1  0  0  0
  2  3  2  0  0  0
  2  4  1  0  0  0
  4  5  1  0  0  0
  4  8  1  0  0  0
  5  6  1  0  0  0
  5 12  1  0  0  0
  5 20  1  0  0  0
  6  7  1  0  0  0
  7  8  1  0  0  0
  7 11  1  0  0  0
  8  9  1  0  0  0
  9 10  2  0  0  0
 11 12  2  0  0  0
 20 21  1  0  0  0
 20 24  1  0  0  0
 21 22  1  0  0  0
 22 23  1  0  0  0
 23 24  1  0  0  0
M  END
> <minimizedAffinity>
-7.94506

$$$$
