
 OpenBabel03212208413D

 50 53  0  0  0  0  0  0  0  0999 V2000
   13.2070   35.1670   70.1480 B   0  0  0  0  0  0  0  0  0  0  0  0
   14.2410   33.7690   70.9000 C   0  0  0  0  0  0  0  0  0  0  0  0
   13.6340   32.7820   71.6200 C   0  0  0  0  0  0  0  0  0  0  0  0
   14.4200   31.7690   72.1610 C   0  0  0  0  0  0  0  0  0  0  0  0
   15.7970   31.7840   71.9580 C   0  0  0  0  0  0  0  0  0  0  0  0
   16.4140   32.7710   71.2370 C   0  0  0  0  0  0  0  0  0  0  0  0
   15.6240   33.7670   70.7080 C   0  0  0  0  0  0  0  0  0  0  0  0
   16.2590   34.7600   69.9790 O   0  0  0  0  0  0  0  0  0  0  0  0
   17.8550   32.7690   71.0370 C   0  0  0  0  0  0  0  0  0  0  0  0
   18.4260   33.2030   69.9700 N   0  0  0  0  0  0  0  0  0  0  0  0
   19.8580   33.1570   69.8730 N   0  0  0  0  0  0  0  0  0  0  0  0
   20.5800   33.5110   71.0040 C   0  0  0  0  0  0  0  0  0  0  0  0
   20.5950   34.7630   71.3090 O   0  0  0  0  0  0  0  0  0  0  0  0
   21.3360   32.6650   71.9090 C   0  0  0  0  0  0  0  0  0  0  0  0
   20.9910   32.3890   73.2080 N   0  0  0  0  0  0  0  0  0  0  0  0
   21.8820   31.5930   73.7330 N   0  0  0  0  0  0  0  0  0  0  0  0
   22.8360   31.2990   72.8670 N   0  0  0  0  0  0  0  0  0  0  0  0
   22.5220   31.9460   71.7310 C   0  0  0  0  0  0  0  0  0  0  0  0
   23.2940   31.9610   70.4850 C   0  0  0  0  0  0  0  0  0  0  0  0
   24.1570   33.1350   70.3240 N   0  0  0  0  0  0  0  0  0  0  0  0
   23.3520   34.2320   69.7520 C   0  0  0  0  0  0  0  0  0  0  0  0
   22.5560   33.7260   68.6000 C   0  0  0  0  0  0  0  0  0  0  0  0
   23.3890   33.1150   67.6960 O   0  0  0  0  0  0  0  0  0  0  0  0
   24.7250   33.2880   67.9490 C   0  0  0  0  0  0  0  0  0  0  0  0
   25.1820   32.8130   69.3030 C   0  0  0  0  0  0  0  0  0  0  0  0
   23.9540   30.4820   73.1660 C   0  0  0  0  0  0  0  0  0  0  0  0
   24.2900   29.2730   72.6680 N   0  0  0  0  0  0  0  0  0  0  0  0
   25.4100   28.8690   73.2060 O   0  0  0  0  0  0  0  0  0  0  0  0
   25.8550   29.7580   74.0560 N   0  0  0  0  0  0  0  0  0  0  0  0
   24.9750   30.7740   74.0570 C   0  0  0  0  0  0  0  0  0  0  0  0
   25.1030   31.9350   74.8500 N   0  0  0  0  0  0  0  0  0  0  0  0
   13.6070   30.3820   73.1660 B   0  0  0  0  0  0  0  0  0  0  0  0
   12.2630   32.7480   71.8330 O   0  0  0  0  0  0  0  0  0  0  0  0
   16.4010   31.0040   72.3750 H   0  0  0  0  0  0  0  0  0  0  0  0
   16.0870   34.8530   68.9860 H   0  0  0  0  0  0  0  0  0  0  0  0
   18.5020   32.3830   71.8200 H   0  0  0  0  0  0  0  0  0  0  0  0
   20.2390   32.8580   68.9440 H   0  0  0  0  0  0  0  0  0  0  0  0
   22.6480   31.9320   69.6050 H   0  0  0  0  0  0  0  0  0  0  0  0
   23.9820   31.1050   70.4670 H   0  0  0  0  0  0  0  0  0  0  0  0
   22.7350   34.7120   70.5270 H   0  0  0  0  0  0  0  0  0  0  0  0
   24.0800   34.9810   69.3900 H   0  0  0  0  0  0  0  0  0  0  0  0
   21.7540   33.0260   68.8890 H   0  0  0  0  0  0  0  0  0  0  0  0
   22.1130   34.6180   68.0660 H   0  0  0  0  0  0  0  0  0  0  0  0
   25.2680   32.6390   67.1970 H   0  0  0  0  0  0  0  0  0  0  0  0
   25.0390   34.3300   67.7300 H   0  0  0  0  0  0  0  0  0  0  0  0
   26.0790   33.3940   69.5540 H   0  0  0  0  0  0  0  0  0  0  0  0
   25.4020   31.7510   69.2560 H   0  0  0  0  0  0  0  0  0  0  0  0
   25.8930   32.0000   75.5180 H   0  0  0  0  0  0  0  0  0  0  0  0
   24.4390   32.7270   74.7910 H   0  0  0  0  0  0  0  0  0  0  0  0
   11.8450   32.0370   72.4100 H   0  0  0  0  0  0  0  0  0  0  0  0
  1  2  1  0  0  0  0
  2  3  1  0  0  0  0
  3 33  1  0  0  0  0
  3  4  2  0  0  0  0
  4 32  1  0  0  0  0
  5  4  1  0  0  0  0
  5 34  1  0  0  0  0
  6  5  2  0  0  0  0
  7  2  2  0  0  0  0
  7  6  1  0  0  0  0
  8  7  1  0  0  0  0
  9  6  1  0  0  0  0
  9 36  1  0  0  0  0
 10  9  2  0  0  0  0
 11 10  1  0  0  0  0
 11 12  1  0  0  0  0
 12 13  2  0  0  0  0
 12 14  1  0  0  0  0
 14 15  1  0  0  0  0
 15 16  2  0  0  0  0
 17 26  1  0  0  0  0
 17 16  1  0  0  0  0
 18 14  2  0  0  0  0
 18 17  1  0  0  0  0
 19 18  1  0  0  0  0
 20 19  1  0  0  0  0
 21 20  1  0  0  0  0
 21 40  1  0  0  0  0
 22 42  1  0  0  0  0
 22 21  1  0  0  0  0
 23 24  1  0  0  0  0
 23 22  1  0  0  0  0
 24 25  1  0  0  0  0
 25 46  1  0  0  0  0
 25 20  1  0  0  0  0
 26 30  1  0  0  0  0
 27 26  2  0  0  0  0
 27 28  1  0  0  0  0
 28 29  1  0  0  0  0
 29 30  2  0  0  0  0
 30 31  1  0  0  0  0
 31 48  1  0  0  0  0
 33 50  1  0  0  0  0
 35  8  1  0  0  0  0
 37 11  1  0  0  0  0
 38 19  1  0  0  0  0
 39 19  1  0  0  0  0
 41 21  1  0  0  0  0
 43 22  1  0  0  0  0
 44 24  1  0  0  0  0
 45 24  1  0  0  0  0
 47 25  1  0  0  0  0
 49 31  1  0  0  0  0
M  END
>  <Pose>
1

>  <Score>
-8.10

$$$$
