
 OpenBabel03162216083D

 50 53  0  0  0  0  0  0  0  0999 V2000
   13.3450   30.1390   73.3660 B   0  0  0  0  0  0  0  0  0  0  0  0
   14.4930   31.4730   72.6650 C   0  0  0  0  0  0  0  0  0  0  0  0
   13.9930   32.4390   71.8420 C   0  0  0  0  0  0  0  0  0  0  0  0
   14.8620   33.4060   71.3410 C   0  0  0  0  0  0  0  0  0  0  0  0
   16.2090   33.3660   71.6880 C   0  0  0  0  0  0  0  0  0  0  0  0
   16.7180   32.4000   72.5140 C   0  0  0  0  0  0  0  0  0  0  0  0
   15.8470   31.4510   73.0020 C   0  0  0  0  0  0  0  0  0  0  0  0
   16.3740   30.4780   73.8370 O   0  0  0  0  0  0  0  0  0  0  0  0
   18.1290   32.3760   72.8650 C   0  0  0  0  0  0  0  0  0  0  0  0
   19.0780   32.4780   72.0040 N   0  0  0  0  0  0  0  0  0  0  0  0
   20.4410   32.4440   72.4570 N   0  0  0  0  0  0  0  0  0  0  0  0
   21.4100   32.0970   71.5250 C   0  0  0  0  0  0  0  0  0  0  0  0
   21.4160   30.8700   71.1310 O   0  0  0  0  0  0  0  0  0  0  0  0
   22.4330   32.9270   70.9190 C   0  0  0  0  0  0  0  0  0  0  0  0
   23.7860   32.7550   71.0740 N   0  0  0  0  0  0  0  0  0  0  0  0
   24.4200   33.6680   70.3920 N   0  0  0  0  0  0  0  0  0  0  0  0
   23.5790   34.4740   69.7670 N   0  0  0  0  0  0  0  0  0  0  0  0
   22.3460   34.0380   70.0730 C   0  0  0  0  0  0  0  0  0  0  0  0
   21.0730   34.6260   69.6470 C   0  0  0  0  0  0  0  0  0  0  0  0
   20.2110   35.0650   70.7480 N   0  0  0  0  0  0  0  0  0  0  0  0
   19.2810   36.0890   70.2340 C   0  0  0  0  0  0  0  0  0  0  0  0
   20.0290   37.0910   69.4260 C   0  0  0  0  0  0  0  0  0  0  0  0
   21.0660   37.6000   70.1670 O   0  0  0  0  0  0  0  0  0  0  0  0
   21.0470   37.2420   71.4890 C   0  0  0  0  0  0  0  0  0  0  0  0
   21.0610   35.7580   71.7460 C   0  0  0  0  0  0  0  0  0  0  0  0
   23.9800   35.5790   68.9760 C   0  0  0  0  0  0  0  0  0  0  0  0
   24.6800   36.6780   69.3300 N   0  0  0  0  0  0  0  0  0  0  0  0
   24.8450   37.4510   68.2900 O   0  0  0  0  0  0  0  0  0  0  0  0
   24.2830   36.9220   67.2330 N   0  0  0  0  0  0  0  0  0  0  0  0
   23.7370   35.7580   67.6220 C   0  0  0  0  0  0  0  0  0  0  0  0
   23.0350   34.8840   66.7640 N   0  0  0  0  0  0  0  0  0  0  0  0
   14.1990   34.7620   70.1950 B   0  0  0  0  0  0  0  0  0  0  0  0
   12.6540   32.4970   71.4830 O   0  0  0  0  0  0  0  0  0  0  0  0
   16.8760   34.1100   71.3040 H   0  0  0  0  0  0  0  0  0  0  0  0
   16.9590   30.7410   74.6200 H   0  0  0  0  0  0  0  0  0  0  0  0
   18.4190   32.2660   73.9080 H   0  0  0  0  0  0  0  0  0  0  0  0
   20.5880   32.6850   73.4660 H   0  0  0  0  0  0  0  0  0  0  0  0
   20.4790   33.9270   69.0530 H   0  0  0  0  0  0  0  0  0  0  0  0
   21.2650   35.5360   69.0630 H   0  0  0  0  0  0  0  0  0  0  0  0
   18.4480   35.6230   69.6840 H   0  0  0  0  0  0  0  0  0  0  0  0
   18.8570   36.5850   71.1270 H   0  0  0  0  0  0  0  0  0  0  0  0
   20.4210   36.6890   68.4760 H   0  0  0  0  0  0  0  0  0  0  0  0
   19.3350   37.9580   69.2190 H   0  0  0  0  0  0  0  0  0  0  0  0
   22.0120   37.6370   71.9310 H   0  0  0  0  0  0  0  0  0  0  0  0
   20.2320   37.7640   72.0320 H   0  0  0  0  0  0  0  0  0  0  0  0
   20.5950   35.6030   72.7270 H   0  0  0  0  0  0  0  0  0  0  0  0
   22.0860   35.4000   71.7370 H   0  0  0  0  0  0  0  0  0  0  0  0
   23.4460   33.9580   66.5480 H   0  0  0  0  0  0  0  0  0  0  0  0
   22.1220   35.1310   66.3400 H   0  0  0  0  0  0  0  0  0  0  0  0
   11.9990   31.8060   71.8100 H   0  0  0  0  0  0  0  0  0  0  0  0
  2  7  1  0  0  0  0
  2  1  1  0  0  0  0
  3  2  2  0  0  0  0
  4  5  2  0  0  0  0
  4  3  1  0  0  0  0
  5  6  1  0  0  0  0
  6  9  1  0  0  0  0
  6  7  2  0  0  0  0
  7  8  1  0  0  0  0
  8 35  1  0  0  0  0
  9 36  1  0  0  0  0
 10 11  1  0  0  0  0
 10  9  2  0  0  0  0
 11 37  1  0  0  0  0
 12 11  1  0  0  0  0
 13 12  2  0  0  0  0
 14 15  1  0  0  0  0
 14 12  1  0  0  0  0
 16 15  2  0  0  0  0
 17 18  1  0  0  0  0
 17 16  1  0  0  0  0
 18 14  2  0  0  0  0
 19 18  1  0  0  0  0
 19 20  1  0  0  0  0
 20 25  1  0  0  0  0
 21 20  1  0  0  0  0
 21 41  1  0  0  0  0
 22 23  1  0  0  0  0
 22 21  1  0  0  0  0
 23 24  1  0  0  0  0
 24 25  1  0  0  0  0
 24 44  1  0  0  0  0
 24 45  1  0  0  0  0
 25 46  1  0  0  0  0
 26 27  2  0  0  0  0
 26 17  1  0  0  0  0
 28 27  1  0  0  0  0
 29 30  2  0  0  0  0
 29 28  1  0  0  0  0
 30 26  1  0  0  0  0
 31 30  1  0  0  0  0
 32  4  1  0  0  0  0
 33 50  1  0  0  0  0
 33  3  1  0  0  0  0
 34  5  1  0  0  0  0
 38 19  1  0  0  0  0
 39 19  1  0  0  0  0
 40 21  1  0  0  0  0
 42 22  1  0  0  0  0
 43 22  1  0  0  0  0
 47 25  1  0  0  0  0
 48 31  1  0  0  0  0
 49 31  1  0  0  0  0
M  END
>  <Pose>
1

>  <Score>
-8.56

$$$$
