
 OpenBabel03212208413D

 60 63  0  0  1  0  0  0  0  0999 V2000
   12.2660   29.9070   74.5930 B   0  0  0  0  0  0  0  0  0  0  0  0
   13.8380   29.2480   75.4640 C   0  0  0  0  0  0  0  0  0  0  0  0
   14.8850   28.7850   74.6530 C   0  0  0  0  0  0  0  0  0  0  0  0
   15.9930   28.3200   75.2850 C   0  0  0  0  0  0  0  0  0  0  0  0
   16.1010   28.2960   76.6810 C   0  0  0  0  0  0  0  0  0  0  0  0
   15.0610   28.7550   77.4550 C   0  0  0  0  0  0  0  0  0  0  0  0
   13.9270   29.2310   76.8330 C   0  0  0  0  0  0  0  0  0  0  0  0
   15.0950   28.7710   79.3600 B   0  0  0  0  0  0  0  0  0  0  0  0
   17.4750   27.6910   74.3090 B   0  0  0  0  0  0  0  0  0  0  0  0
   14.7440   28.8250   73.3100 O   0  0  0  0  0  0  0  0  0  0  0  0
   15.7130   29.2810   72.3690 C   0  0  0  0  0  0  0  0  0  0  0  0
   15.2610   30.5210   71.7230 C   0  0  1  0  0  0  0  0  0  0  0  0
   14.3720   30.1320   70.7050 O   0  0  0  0  0  0  0  0  0  0  0  0
   15.0420   31.7930   72.3920 C   0  0  0  0  0  0  0  0  0  0  0  0
   15.2410   33.0410   71.7460 N   0  0  0  0  0  0  0  0  0  0  0  0
   14.2610   33.8560   71.2740 C   0  0  0  0  0  0  0  0  0  0  0  0
   14.8250   34.9720   70.7140 C   0  0  0  0  0  0  0  0  0  0  0  0
   16.1250   34.8120   70.8540 N   0  0  0  0  0  0  0  0  0  0  0  0
   16.4180   33.6380   71.4790 C   0  0  0  0  0  0  0  0  0  0  0  0
   17.7710   33.1760   71.6440 N   0  0  0  0  0  0  0  0  0  0  0  0
   18.6770   33.5120   72.6740 C   0  0  0  0  0  0  0  0  0  0  0  0
   19.9700   32.6800   72.4530 C   0  0  0  0  0  0  0  0  0  0  0  0
   20.4780   33.1280   71.1710 N   0  0  0  0  0  4  0  0  0  0  0  0
   19.6490   32.3820   70.2040 C   0  0  0  0  0  0  0  0  0  0  0  0
   18.2520   32.2080   70.6500 C   0  0  0  0  0  0  0  0  0  0  0  0
   21.8720   32.7710   70.9930 C   0  0  0  0  0  0  0  0  0  0  0  0
   22.1220   31.4370   71.6620 C   0  0  0  0  0  0  0  0  0  0  0  0
   23.2020   31.5630   72.5440 O   0  0  0  0  0  0  0  0  0  0  0  0
   14.1150   35.9870   70.1320 N   0  0  0  0  0  0  0  0  0  0  0  0
   12.7830   35.8540   70.1190 C   0  0  0  0  0  0  0  0  0  0  0  0
   12.1310   36.7930   69.5820 O   0  0  0  0  0  0  0  0  0  0  0  0
   12.1800   34.7740   70.6530 N   0  0  0  0  0  0  0  0  0  0  0  0
   12.8640   33.7720   71.2270 C   0  0  0  0  0  0  0  0  0  0  0  0
   12.2230   32.6770   71.7600 O   0  0  0  0  0  0  0  0  0  0  0  0
   14.8220   37.1320   69.5770 C   0  0  0  0  0  0  0  0  0  0  0  0
   16.9870   27.9230   77.1550 H   0  0  0  0  0  0  0  0  0  0  0  0
   13.0750   29.6070   77.4150 H   0  0  0  0  0  0  0  0  0  0  0  0
   15.6500   28.4720   71.5600 H   0  0  0  0  0  0  0  0  0  0  0  0
   16.7390   29.2160   72.7030 H   0  0  0  0  0  0  0  0  0  0  0  0
   16.2090   30.7760   71.0000 H   0  0  0  0  0  0  0  0  0  0  0  0
   14.7880   29.5260   70.0670 H   0  0  0  0  0  0  0  0  0  0  0  0
   14.0960   31.7950   73.0310 H   0  0  0  0  0  0  0  0  0  0  0  0
   15.8020   31.7530   73.2740 H   0  0  0  0  0  0  0  0  0  0  0  0
   18.3630   33.1540   73.6880 H   0  0  0  0  0  0  0  0  0  0  0  0
   19.0490   34.5410   72.6470 H   0  0  0  0  0  0  0  0  0  0  0  0
   19.7260   31.6020   72.4250 H   0  0  0  0  0  0  0  0  0  0  0  0
   20.7220   32.8920   73.2140 H   0  0  0  0  0  0  0  0  0  0  0  0
   20.2970   34.1350   70.9750 H   0  0  0  0  0  0  0  0  0  0  0  0
   19.8080   32.7110   69.1740 H   0  0  0  0  0  0  0  0  0  0  0  0
   20.1180   31.3460   70.2360 H   0  0  0  0  0  0  0  0  0  0  0  0
   17.5890   32.2560   69.7660 H   0  0  0  0  0  0  0  0  0  0  0  0
   18.0520   31.2150   71.1200 H   0  0  0  0  0  0  0  0  0  0  0  0
   22.5470   33.5160   71.4900 H   0  0  0  0  0  0  0  0  0  0  0  0
   22.1420   32.6500   69.9260 H   0  0  0  0  0  0  0  0  0  0  0  0
   21.2500   31.1360   72.2830 H   0  0  0  0  0  0  0  0  0  0  0  0
   22.3770   30.6360   70.9120 H   0  0  0  0  0  0  0  0  0  0  0  0
   23.3270   32.5140   72.8150 H   0  0  0  0  0  0  0  0  0  0  0  0
   14.6860   37.9530   70.3410 H   0  0  0  0  0  0  0  0  0  0  0  0
   15.9080   36.9180   69.6010 H   0  0  0  0  0  0  0  0  0  0  0  0
   14.4500   37.4690   68.6120 H   0  0  0  0  0  0  0  0  0  0  0  0
  1  2  1  0  0  0  0
  2  7  1  0  0  0  0
  3  4  1  0  0  0  0
  3  2  2  0  0  0  0
  4  5  2  0  0  0  0
  5 36  1  0  0  0  0
  5  6  1  0  0  0  0
  6  8  1  0  0  0  0
  7 37  1  0  0  0  0
  7  6  2  0  0  0  0
  9  4  1  0  0  0  0
 10  3  1  0  0  0  0
 11 39  1  0  0  0  0
 11 10  1  0  0  0  0
 12 40  1  6  0  0  0
 12 11  1  0  0  0  0
 12 14  1  0  0  0  0
 13 12  1  0  0  0  0
 14 42  1  0  0  0  0
 14 43  1  0  0  0  0
 15 14  1  0  0  0  0
 16 15  1  0  0  0  0
 17 18  1  0  0  0  0
 17 16  2  0  0  0  0
 18 19  2  0  0  0  0
 19 20  1  0  0  0  0
 19 15  1  0  0  0  0
 20 21  1  0  0  0  0
 21 44  1  0  0  0  0
 22 21  1  0  0  0  0
 22 47  1  0  0  0  0
 23 22  1  0  0  0  0
 24 50  1  0  0  0  0
 24 25  1  0  0  0  0
 24 23  1  0  0  0  0
 25 52  1  0  0  0  0
 25 20  1  0  0  0  0
 26 23  1  0  0  0  0
 26 53  1  0  0  0  0
 26 27  1  0  0  0  0
 27 55  1  0  0  0  0
 27 28  1  0  0  0  0
 28 57  1  0  0  0  0
 29 17  1  0  0  0  0
 30 29  1  0  0  0  0
 30 32  1  0  0  0  0
 31 30  2  0  0  0  0
 32 33  1  0  0  0  0
 33 16  1  0  0  0  0
 33 34  2  0  0  0  0
 35 59  1  0  0  0  0
 35 29  1  0  0  0  0
 35 58  1  0  0  0  0
 38 11  1  0  0  0  0
 41 13  1  0  0  0  0
 45 21  1  0  0  0  0
 46 22  1  0  0  0  0
 48 23  1  0  0  0  0
 49 24  1  0  0  0  0
 51 25  1  0  0  0  0
 54 26  1  0  0  0  0
 56 27  1  0  0  0  0
 60 35  1  0  0  0  0
M  END
>  <Pose>
1

>  <Score>
-8.84

$$$$
