
 OpenBabel03212208413D

 50 53  0  0  0  0  0  0  0  0999 V2000
   24.8180   33.7010   69.1900 B   0  0  0  0  0  0  0  0  0  0  0  0
   22.9530   34.0120   69.3600 C   0  0  0  0  0  0  0  0  0  0  0  0
   22.4540   35.2940   69.2930 C   0  0  0  0  0  0  0  0  0  0  0  0
   21.0620   35.5040   69.4450 C   0  0  0  0  0  0  0  0  0  0  0  0
   20.2790   34.4060   69.6540 C   0  0  0  0  0  0  0  0  0  0  0  0
   20.7440   33.0850   69.7310 C   0  0  0  0  0  0  0  0  0  0  0  0
   22.1050   32.9440   69.5750 C   0  0  0  0  0  0  0  0  0  0  0  0
   19.8320   32.0200   69.9710 C   0  0  0  0  0  0  0  0  0  0  0  0
   18.9190   31.8580   70.7010 N   0  0  0  0  0  0  0  0  0  0  0  0
   17.9800   31.7750   71.4970 N   0  0  0  0  0  0  0  0  0  0  0  0
   16.9450   31.6820   72.3690 C   0  0  0  0  0  0  0  0  0  0  0  0
   16.6680   32.1490   73.4720 O   0  0  0  0  0  0  0  0  0  0  0  0
   15.8440   30.7460   71.8230 C   0  0  0  0  0  0  0  0  0  0  0  0
   14.6120   30.9470   72.4670 N   0  0  0  0  0  0  0  0  0  0  0  0
   14.1900   30.0540   73.4410 C   0  0  0  0  0  0  0  0  0  0  0  0
   12.9830   30.4690   73.8620 C   0  0  0  0  0  0  0  0  0  0  0  0
   12.6870   31.5610   73.1740 N   0  0  0  0  0  0  0  0  0  0  0  0
   13.7100   31.8740   72.2900 C   0  0  0  0  0  0  0  0  0  0  0  0
   13.5020   33.0450   71.4580 C   0  0  0  0  0  0  0  0  0  0  0  0
   12.2640   33.6760   71.3560 N   0  0  0  0  0  0  0  0  0  0  0  0
   12.3400   34.6880   70.5900 O   0  0  0  0  0  0  0  0  0  0  0  0
   13.5250   34.8210   70.1450 N   0  0  0  0  0  0  0  0  0  0  0  0
   14.2900   33.8040   70.6710 C   0  0  0  0  0  0  0  0  0  0  0  0
   15.6660   33.6840   70.3870 N   0  0  0  0  0  4  0  0  0  0  0  0
   12.2600   29.8020   74.8380 C   0  0  0  0  0  0  0  0  0  0  0  0
   12.8410   28.6760   75.3690 C   0  0  0  0  0  0  0  0  0  0  0  0
   14.0800   28.2070   74.9750 C   0  0  0  0  0  0  0  0  0  0  0  0
   14.7630   28.9160   73.9890 C   0  0  0  0  0  0  0  0  0  0  0  0
   20.5900   36.8010   69.3750 O   0  0  0  0  0  0  0  0  0  0  0  0
   19.2840   37.1470   69.6850 C   0  0  0  0  0  0  0  0  0  0  0  0
   18.4590   37.7000   68.5570 C   0  0  0  0  0  0  0  0  0  0  0  0
   23.2330   36.3960   69.0900 O   0  0  0  0  0  0  0  0  0  0  0  0
   19.2180   34.5270   69.7820 H   0  0  0  0  0  0  0  0  0  0  0  0
   22.5400   31.9240   69.6080 H   0  0  0  0  0  0  0  0  0  0  0  0
   19.9390   31.0620   69.3460 H   0  0  0  0  0  0  0  0  0  0  0  0
   17.1020   31.3560   70.4810 H   0  0  0  0  0  0  0  0  0  0  0  0
   16.2060   29.6970   72.1030 H   0  0  0  0  0  0  0  0  0  0  0  0
   15.8620   30.8380   70.7530 H   0  0  0  0  0  0  0  0  0  0  0  0
   16.0130   32.7340   70.7910 H   0  0  0  0  0  0  0  0  0  0  0  0
   16.2000   34.3770   70.9240 H   0  0  0  0  0  0  0  0  0  0  0  0
   15.8390   33.5730   69.3910 H   0  0  0  0  0  0  0  0  0  0  0  0
   11.2930   30.1990   75.1320 H   0  0  0  0  0  0  0  0  0  0  0  0
   12.2980   28.1140   76.1530 H   0  0  0  0  0  0  0  0  0  0  0  0
   14.4910   27.3150   75.4200 H   0  0  0  0  0  0  0  0  0  0  0  0
   15.7300   28.5990   73.6470 H   0  0  0  0  0  0  0  0  0  0  0  0
   18.7430   36.2440   70.1350 H   0  0  0  0  0  0  0  0  0  0  0  0
   19.2370   37.9050   70.5260 H   0  0  0  0  0  0  0  0  0  0  0  0
   18.0450   38.6710   68.8640 H   0  0  0  0  0  0  0  0  0  0  0  0
   19.0560   37.7860   67.6570 H   0  0  0  0  0  0  0  0  0  0  0  0
   17.5480   37.0450   68.4030 H   0  0  0  0  0  0  0  0  0  0  0  0
  1  2  1  0  0  0  0
  2  7  1  0  0  0  0
  3  2  2  0  0  0  0
  3  4  1  0  0  0  0
  4  5  2  0  0  0  0
  5  6  1  0  0  0  0
  5 33  1  0  0  0  0
  6  8  1  0  0  0  0
  7 34  1  0  0  0  0
  7  6  2  0  0  0  0
  8  9  1  0  0  0  0
  9 10  1  0  0  0  0
 10 11  1  0  0  0  0
 11 12  2  0  0  0  0
 13 37  1  0  0  0  0
 13 11  1  0  0  0  0
 13 14  1  0  0  0  0
 14 15  1  0  0  0  0
 15 16  2  0  0  0  0
 15 28  1  0  0  0  0
 16 25  1  0  0  0  0
 17 16  1  0  0  0  0
 18 14  1  0  0  0  0
 18 17  2  0  0  0  0
 19 18  1  0  0  0  0
 20 19  2  0  0  0  0
 21 20  1  0  0  0  0
 22 21  1  0  0  0  0
 22 23  2  0  0  0  0
 23 19  1  0  0  0  0
 24 23  1  0  0  0  0
 24 39  1  0  0  0  0
 24 40  1  0  0  0  0
 25 42  1  0  0  0  0
 25 26  2  0  0  0  0
 26 43  1  0  0  0  0
 27 26  1  0  0  0  0
 27 44  1  0  0  0  0
 28 27  2  0  0  0  0
 29  4  1  0  0  0  0
 29 30  1  0  0  0  0
 30 46  1  0  0  0  0
 30 47  1  0  0  0  0
 31 48  1  0  0  0  0
 31 30  1  0  0  0  0
 32  3  1  0  0  0  0
 35  8  1  0  0  0  0
 36 10  1  0  0  0  0
 38 13  1  0  0  0  0
 41 24  1  0  0  0  0
 45 28  1  0  0  0  0
 49 31  1  0  0  0  0
 50 31  1  0  0  0  0
M  END
>  <Pose>
1

>  <Score>
-7.70

$$$$
