
 OpenBabel03212208413D

 56 59  0  0  0  0  0  0  0  0999 V2000
   22.5890   40.5150   65.5290 B   0  0  0  0  0  0  0  0  0  0  0  0
   22.4360   38.6810   66.0250 C   0  0  0  0  0  0  0  0  0  0  0  0
   23.1920   37.6930   65.4050 C   0  0  0  0  0  0  0  0  0  0  0  0
   23.0860   36.3670   65.7580 C   0  0  0  0  0  0  0  0  0  0  0  0
   22.1970   36.0440   66.7560 C   0  0  0  0  0  0  0  0  0  0  0  0
   21.4280   37.0030   67.3950 C   0  0  0  0  0  0  0  0  0  0  0  0
   21.5660   38.3180   67.0100 C   0  0  0  0  0  0  0  0  0  0  0  0
   20.4800   36.6920   68.4530 C   0  0  0  0  0  0  0  0  0  0  0  0
   19.8410   37.6090   69.0810 N   0  0  0  0  0  0  0  0  0  0  0  0
   18.9320   37.4070   70.0890 N   0  0  0  0  0  0  0  0  0  0  0  0
   17.8380   36.5140   70.0210 C   0  0  0  0  0  0  0  0  0  0  0  0
   16.7840   36.8880   69.4690 O   0  0  0  0  0  0  0  0  0  0  0  0
   17.9080   35.1700   70.5780 C   0  0  0  0  0  0  0  0  0  0  0  0
   18.9480   34.5500   71.1500 N   0  0  0  0  0  0  0  0  0  0  0  0
   18.5910   33.3450   71.5200 N   0  0  0  0  0  0  0  0  0  0  0  0
   17.3030   33.1150   71.2100 N   0  0  0  0  0  0  0  0  0  0  0  0
   16.8590   34.2310   70.6260 C   0  0  0  0  0  0  0  0  0  0  0  0
   15.5210   34.5390   70.1190 C   0  0  0  0  0  0  0  0  0  0  0  0
   14.4820   34.7410   71.0970 N   0  0  0  0  0  0  0  0  0  0  0  0
   14.1110   36.1540   70.9540 C   0  0  0  0  0  0  0  0  0  0  0  0
   13.5830   36.5290   69.6260 C   0  0  0  0  0  0  0  0  0  0  0  0
   12.8830   35.4840   69.0440 O   0  0  0  0  0  0  0  0  0  0  0  0
   12.2700   34.7620   70.0450 C   0  0  0  0  0  0  0  0  0  0  0  0
   13.3190   33.9220   70.7480 C   0  0  0  0  0  0  0  0  0  0  0  0
   16.6320   31.8870   71.5160 C   0  0  0  0  0  0  0  0  0  0  0  0
   15.6700   31.2560   70.8230 N   0  0  0  0  0  0  0  0  0  0  0  0
   15.3380   30.1550   71.4550 O   0  0  0  0  0  0  0  0  0  0  0  0
   16.0450   30.0260   72.5520 N   0  0  0  0  0  0  0  0  0  0  0  0
   16.8600   31.0940   72.6140 C   0  0  0  0  0  0  0  0  0  0  0  0
   17.7880   31.3090   73.6650 N   0  0  0  0  0  0  0  0  0  0  0  0
   23.8650   35.4440   65.1020 O   0  0  0  0  0  0  0  0  0  0  0  0
   24.8740   34.6600   65.6500 C   0  0  0  0  0  0  0  0  0  0  0  0
   26.2580   35.0130   65.2120 C   0  0  0  0  0  0  0  0  0  0  0  0
   24.0750   38.0790   64.4010 O   0  0  0  0  0  0  0  0  0  0  0  0
   22.0990   35.0110   67.0480 H   0  0  0  0  0  0  0  0  0  0  0  0
   20.9650   39.0880   67.5050 H   0  0  0  0  0  0  0  0  0  0  0  0
   20.3030   35.6600   68.7260 H   0  0  0  0  0  0  0  0  0  0  0  0
   19.0670   37.9650   70.9810 H   0  0  0  0  0  0  0  0  0  0  0  0
   15.1790   33.7090   69.4440 H   0  0  0  0  0  0  0  0  0  0  0  0
   15.5600   35.4280   69.4150 H   0  0  0  0  0  0  0  0  0  0  0  0
   13.3830   36.3650   71.7380 H   0  0  0  0  0  0  0  0  0  0  0  0
   15.0810   36.7050   71.1100 H   0  0  0  0  0  0  0  0  0  0  0  0
   14.4660   36.7130   68.9460 H   0  0  0  0  0  0  0  0  0  0  0  0
   13.0090   37.4790   69.6180 H   0  0  0  0  0  0  0  0  0  0  0  0
   11.5090   34.0500   69.6650 H   0  0  0  0  0  0  0  0  0  0  0  0
   11.8320   35.4760   70.7690 H   0  0  0  0  0  0  0  0  0  0  0  0
   13.6040   33.1230   70.0510 H   0  0  0  0  0  0  0  0  0  0  0  0
   12.8390   33.5590   71.6710 H   0  0  0  0  0  0  0  0  0  0  0  0
   18.8010   31.0760   73.6040 H   0  0  0  0  0  0  0  0  0  0  0  0
   17.4780   31.7280   74.5800 H   0  0  0  0  0  0  0  0  0  0  0  0
   24.8410   34.6720   66.7700 H   0  0  0  0  0  0  0  0  0  0  0  0
   24.6800   33.6010   65.3440 H   0  0  0  0  0  0  0  0  0  0  0  0
   26.7650   34.1590   64.6800 H   0  0  0  0  0  0  0  0  0  0  0  0
   26.9290   35.3250   66.0450 H   0  0  0  0  0  0  0  0  0  0  0  0
   26.2030   35.8300   64.4580 H   0  0  0  0  0  0  0  0  0  0  0  0
   23.7150   38.4500   63.5300 H   0  0  0  0  0  0  0  0  0  0  0  0
  1  2  1  0  0  0  0
  2  7  1  0  0  0  0
  3  4  1  0  0  0  0
  3  2  2  0  0  0  0
  4  5  2  0  0  0  0
  5 35  1  0  0  0  0
  5  6  1  0  0  0  0
  6  8  1  0  0  0  0
  7  6  2  0  0  0  0
  7 36  1  0  0  0  0
  8 37  1  0  0  0  0
  8  9  2  0  0  0  0
  9 10  1  0  0  0  0
 10 38  1  0  0  0  0
 11 10  1  0  0  0  0
 11 13  1  0  0  0  0
 12 11  2  0  0  0  0
 13 17  2  0  0  0  0
 13 14  1  0  0  0  0
 14 15  2  0  0  0  0
 16 25  1  0  0  0  0
 16 15  1  0  0  0  0
 17 16  1  0  0  0  0
 18 17  1  0  0  0  0
 18 19  1  0  0  0  0
 20 19  1  0  0  0  0
 20 42  1  0  0  0  0
 20 41  1  0  0  0  0
 21 20  1  0  0  0  0
 22 21  1  0  0  0  0
 22 23  1  0  0  0  0
 23 24  1  0  0  0  0
 23 46  1  0  0  0  0
 24 19  1  0  0  0  0
 24 48  1  0  0  0  0
 25 29  1  0  0  0  0
 26 27  1  0  0  0  0
 26 25  2  0  0  0  0
 27 28  1  0  0  0  0
 28 29  2  0  0  0  0
 29 30  1  0  0  0  0
 30 50  1  0  0  0  0
 31 32  1  0  0  0  0
 31  4  1  0  0  0  0
 32 51  1  0  0  0  0
 33 32  1  0  0  0  0
 33 54  1  0  0  0  0
 34  3  1  0  0  0  0
 39 18  1  0  0  0  0
 40 18  1  0  0  0  0
 43 21  1  0  0  0  0
 44 21  1  0  0  0  0
 45 23  1  0  0  0  0
 47 24  1  0  0  0  0
 49 30  1  0  0  0  0
 52 32  1  0  0  0  0
 53 33  1  0  0  0  0
 55 33  1  0  0  0  0
 56 34  1  0  0  0  0
M  END
>  <Pose>
1

>  <Score>
-8.25

$$$$
