
 OpenBabel03212208413D

 64 67  0  0  1  0  0  0  0  0999 V2000
   20.4990   35.8440   71.2600 B   0  0  0  0  0  0  0  0  0  0  0  0
   20.1220   34.0020   71.5080 C   0  0  0  0  0  0  0  0  0  0  0  0
   20.9600   33.0530   70.9060 C   0  0  0  0  0  0  0  0  0  0  0  0
   20.6840   31.7040   71.0870 C   0  0  0  0  0  0  0  0  0  0  0  0
   19.6130   31.3540   71.8400 C   0  0  0  0  0  0  0  0  0  0  0  0
   18.7860   32.2930   72.4330 C   0  0  0  0  0  0  0  0  0  0  0  0
   19.0330   33.6340   72.2730 C   0  0  0  0  0  0  0  0  0  0  0  0
   17.6450   31.7600   73.2220 C   0  0  1  0  0  0  0  0  0  0  0  0
   16.4360   32.0800   72.4950 N   0  0  0  0  0  0  0  0  0  0  0  0
   15.8860   30.9480   71.8850 C   0  0  0  0  0  0  0  0  0  0  0  0
   14.9280   30.9310   71.0970 O   0  0  0  0  0  0  0  0  0  0  0  0
   16.6460   29.7850   72.3430 C   0  0  0  0  0  0  0  0  0  0  0  0
   16.3900   28.6140   71.9630 O   0  0  0  0  0  0  0  0  0  0  0  0
   17.6710   30.2510   73.2530 C   0  0  0  0  0  0  0  0  0  0  0  0
   18.4870   29.4860   73.9260 C   0  0  0  0  0  0  0  0  0  0  0  0
   19.4700   30.0600   74.7160 O   0  0  0  0  0  0  0  0  0  0  0  0
   18.3990   28.0470   73.8840 C   0  0  0  0  0  0  0  0  0  0  0  0
   17.3270   27.5050   74.6050 C   0  0  0  0  0  0  0  0  0  0  0  0
   17.0980   26.1510   74.6240 C   0  0  0  0  0  0  0  0  0  0  0  0
   17.9280   25.3010   73.9310 C   0  0  0  0  0  0  0  0  0  0  0  0
   18.9790   25.8590   73.2280 C   0  0  0  0  0  0  0  0  0  0  0  0
   19.2230   27.2150   73.1950 C   0  0  0  0  0  0  0  0  0  0  0  0
   17.4650   23.9820   74.1250 O   0  0  0  0  0  0  0  0  0  0  0  0
   16.5880   23.9750   75.2470 C   0  0  2  0  0  0  0  0  0  0  0  0
   16.0270   25.3760   75.3300 C   0  0  0  0  0  0  0  0  0  0  0  0
   17.3240   23.6980   76.5440 C   0  0  0  0  0  0  0  0  0  0  0  0
   15.9240   33.4340   72.4450 C   0  0  0  0  0  0  0  0  0  0  0  0
   16.2300   34.2110   71.2350 C   0  0  0  0  0  0  0  0  0  0  0  0
   15.1380   34.4440   70.2580 C   0  0  0  0  0  0  0  0  0  0  0  0
   14.0500   35.2430   70.7640 N   0  0  0  0  0  4  0  0  0  0  0  0
   12.7780   34.6580   70.3150 C   0  0  0  0  0  0  0  0  0  0  0  0
   14.1560   36.5530   70.1470 C   0  0  0  0  0  0  0  0  0  0  0  0
   21.5170   30.7530   70.4900 O   0  0  0  0  0  0  0  0  0  0  0  0
   22.5540   30.1020   71.1720 C   0  0  0  0  0  0  0  0  0  0  0  0
   22.0420   33.4210   70.1470 O   0  0  0  0  0  0  0  0  0  0  0  0
   19.4240   30.2780   71.9620 H   0  0  0  0  0  0  0  0  0  0  0  0
   18.3750   34.3540   72.7480 H   0  0  0  0  0  0  0  0  0  0  0  0
   17.6070   32.1820   74.2460 H   0  0  0  0  0  0  0  0  0  0  0  0
   16.6410   28.1580   75.1700 H   0  0  0  0  0  0  0  0  0  0  0  0
   19.6580   25.2030   72.6650 H   0  0  0  0  0  0  0  0  0  0  0  0
   20.0350   27.6480   72.6240 H   0  0  0  0  0  0  0  0  0  0  0  0
   15.7500   23.2720   75.1400 H   0  0  0  0  0  0  0  0  0  0  0  0
   15.9260   25.7220   76.4010 H   0  0  0  0  0  0  0  0  0  0  0  0
   15.0400   25.4920   74.8720 H   0  0  0  0  0  0  0  0  0  0  0  0
   18.4130   23.8980   76.3950 H   0  0  0  0  0  0  0  0  0  0  0  0
   17.1250   22.6670   76.9090 H   0  0  0  0  0  0  0  0  0  0  0  0
   16.9740   24.3930   77.3170 H   0  0  0  0  0  0  0  0  0  0  0  0
   14.8240   33.3820   72.5750 H   0  0  0  0  0  0  0  0  0  0  0  0
   16.2600   33.9900   73.3750 H   0  0  0  0  0  0  0  0  0  0  0  0
   17.0570   33.6790   70.6810 H   0  0  0  0  0  0  0  0  0  0  0  0
   16.6720   35.1890   71.5020 H   0  0  0  0  0  0  0  0  0  0  0  0
   15.4450   34.8550   69.2880 H   0  0  0  0  0  0  0  0  0  0  0  0
   14.6910   33.4380   70.0250 H   0  0  0  0  0  0  0  0  0  0  0  0
   14.0430   35.3800   71.7790 H   0  0  0  0  0  0  0  0  0  0  0  0
   12.5690   33.6990   70.8610 H   0  0  0  0  0  0  0  0  0  0  0  0
   11.9250   35.3360   70.5140 H   0  0  0  0  0  0  0  0  0  0  0  0
   12.8470   34.4780   69.2140 H   0  0  0  0  0  0  0  0  0  0  0  0
   14.1600   37.3660   70.8960 H   0  0  0  0  0  0  0  0  0  0  0  0
   13.3480   36.7110   69.3980 H   0  0  0  0  0  0  0  0  0  0  0  0
   15.1190   36.6590   69.5720 H   0  0  0  0  0  0  0  0  0  0  0  0
   23.2700   30.8220   71.6460 H   0  0  0  0  0  0  0  0  0  0  0  0
   22.0740   29.4440   71.9540 H   0  0  0  0  0  0  0  0  0  0  0  0
   23.0840   29.4540   70.4680 H   0  0  0  0  0  0  0  0  0  0  0  0
   22.4580   32.7790   69.5190 H   0  0  0  0  0  0  0  0  0  0  0  0
  1  2  1  0  0  0  0
  2  7  1  0  0  0  0
  3  4  1  0  0  0  0
  3  2  2  0  0  0  0
  4  5  2  0  0  0  0
  5 36  1  0  0  0  0
  5  6  1  0  0  0  0
  6  8  1  0  0  0  0
  7  6  2  0  0  0  0
  7 37  1  0  0  0  0
  8 14  1  0  0  0  0
  8 38  1  1  0  0  0
  9  8  1  0  0  0  0
 10 12  1  0  0  0  0
 10  9  1  0  0  0  0
 11 10  2  0  0  0  0
 12 14  1  0  0  0  0
 13 12  2  0  0  0  0
 14 15  2  0  0  0  0
 15 16  1  0  0  0  0
 17 15  1  0  0  0  0
 17 18  1  0  0  0  0
 18 19  2  0  0  0  0
 18 39  1  0  0  0  0
 19 25  1  0  0  0  0
 20 23  1  0  0  0  0
 20 19  1  0  0  0  0
 21 20  2  0  0  0  0
 22 21  1  0  0  0  0
 22 17  2  0  0  0  0
 23 24  1  0  0  0  0
 24 42  1  6  0  0  0
 24 25  1  0  0  0  0
 24 26  1  0  0  0  0
 25 43  1  0  0  0  0
 26 46  1  0  0  0  0
 26 47  1  0  0  0  0
 27  9  1  0  0  0  0
 27 48  1  0  0  0  0
 27 49  1  0  0  0  0
 28 51  1  0  0  0  0
 28 27  1  0  0  0  0
 29 30  1  0  0  0  0
 29 28  1  0  0  0  0
 30 54  1  0  0  0  0
 31 56  1  0  0  0  0
 31 30  1  0  0  0  0
 31 55  1  0  0  0  0
 32 30  1  0  0  0  0
 32 58  1  0  0  0  0
 33  4  1  0  0  0  0
 33 34  1  0  0  0  0
 34 61  1  0  0  0  0
 34 62  1  0  0  0  0
 35  3  1  0  0  0  0
 40 21  1  0  0  0  0
 41 22  1  0  0  0  0
 44 25  1  0  0  0  0
 45 26  1  0  0  0  0
 50 28  1  0  0  0  0
 52 29  1  0  0  0  0
 53 29  1  0  0  0  0
 57 31  1  0  0  0  0
 59 32  1  0  0  0  0
 60 32  1  0  0  0  0
 63 34  1  0  0  0  0
 64 35  1  0  0  0  0
M  END
>  <Pose>
1

>  <Score>
-6.11

$$$$
