
 OpenBabel03212208413D

 39 42  0  0  1  0  0  0  0  0999 V2000
   20.5170   36.4560   71.0930 B   0  0  0  0  0  0  0  0  0  0  0  0
   20.1520   34.7160   71.7660 C   0  0  0  0  0  0  0  0  0  0  0  0
   21.1450   33.7660   71.7900 C   0  0  0  0  0  0  0  0  0  0  0  0
   20.8520   32.5130   72.2840 C   0  0  0  0  0  0  0  0  0  0  0  0
   19.6110   32.1480   72.7590 C   0  0  0  0  0  0  0  0  0  0  0  0
   18.6200   33.1050   72.7330 C   0  0  0  0  0  0  0  0  0  0  0  0
   18.8860   34.3660   72.2450 C   0  0  0  0  0  0  0  0  0  0  0  0
   17.2390   32.8350   73.2230 C   0  0  2  0  0  0  0  0  0  0  0  0
   17.0510   31.4500   73.3440 N   0  0  0  0  0  4  0  0  0  0  0  0
   15.8500   30.8650   72.8820 C   0  0  1  0  0  0  0  0  0  0  0  0
   14.6860   31.8070   72.7340 C   0  0  0  0  0  0  0  0  0  0  0  0
   15.0780   33.0740   72.0730 C   0  0  0  0  0  0  0  0  0  0  0  0
   14.4170   33.9100   71.2140 C   0  0  0  0  0  0  0  0  0  0  0  0
   15.3130   34.9300   70.9470 C   0  0  0  0  0  0  0  0  0  0  0  0
   16.4660   34.6980   71.6300 N   0  0  0  0  0  0  0  0  0  0  0  0
   16.3250   33.5600   72.3220 C   0  0  0  0  0  0  0  0  0  0  0  0
   14.8870   35.9240   70.0920 C   0  0  0  0  0  0  0  0  0  0  0  0
   13.6290   35.9050   69.5280 C   0  0  0  0  0  0  0  0  0  0  0  0
   12.7370   34.8870   69.7950 C   0  0  0  0  0  0  0  0  0  0  0  0
   13.1480   33.8810   70.6530 C   0  0  0  0  0  0  0  0  0  0  0  0
   16.0140   30.1610   71.5800 C   0  0  0  0  0  0  0  0  0  0  0  0
   16.0990   28.8860   71.5650 O   0  0  0  0  0  0  0  0  0  0  0  0
   16.0760   30.8940   70.4060 O   0  0  0  0  0  0  0  0  0  0  0  0
   22.2450   31.2120   72.3060 B   0  0  0  0  0  0  0  0  0  0  0  0
   22.4420   34.0610   71.3210 O   0  0  0  0  0  0  0  0  0  0  0  0
   19.3580   31.1860   73.1460 H   0  0  0  0  0  0  0  0  0  0  0  0
   18.1590   35.1710   72.1940 H   0  0  0  0  0  0  0  0  0  0  0  0
   17.1690   33.3510   74.2210 H   0  0  0  0  0  0  0  0  0  0  0  0
   17.8610   30.9040   72.9300 H   0  0  0  0  0  0  0  0  0  0  0  0
   17.1450   31.2010   74.3810 H   0  0  0  0  0  0  0  0  0  0  0  0
   15.4880   30.0580   73.5910 H   0  0  0  0  0  0  0  0  0  0  0  0
   14.2030   32.0640   73.6990 H   0  0  0  0  0  0  0  0  0  0  0  0
   13.9120   31.3260   72.1010 H   0  0  0  0  0  0  0  0  0  0  0  0
   17.2730   35.3560   71.5630 H   0  0  0  0  0  0  0  0  0  0  0  0
   15.5640   36.7300   69.8670 H   0  0  0  0  0  0  0  0  0  0  0  0
   13.2940   36.7020   68.8460 H   0  0  0  0  0  0  0  0  0  0  0  0
   11.7580   34.9060   69.3350 H   0  0  0  0  0  0  0  0  0  0  0  0
   12.4680   33.0700   70.8790 H   0  0  0  0  0  0  0  0  0  0  0  0
   23.1940   34.0710   71.9950 H   0  0  0  0  0  0  0  0  0  0  0  0
  1  2  1  0  0  0  0
  2  3  2  0  0  0  0
  2  7  1  0  0  0  0
  3  4  1  0  0  0  0
  4 24  1  0  0  0  0
  4  5  2  0  0  0  0
  5 26  1  0  0  0  0
  6  5  1  0  0  0  0
  6  8  1  0  0  0  0
  7  6  2  0  0  0  0
  8  9  1  0  0  0  0
  8 28  1  1  0  0  0
  9 30  1  0  0  0  0
 10  9  1  0  0  0  0
 10 31  1  1  0  0  0
 11 10  1  0  0  0  0
 11 32  1  0  0  0  0
 12 16  2  0  0  0  0
 12 11  1  0  0  0  0
 13 12  1  0  0  0  0
 14 13  1  0  0  0  0
 14 15  1  0  0  0  0
 15 16  1  0  0  0  0
 16  8  1  0  0  0  0
 17 14  2  0  0  0  0
 18 19  2  0  0  0  0
 18 17  1  0  0  0  0
 19 20  1  0  0  0  0
 20 38  1  0  0  0  0
 20 13  2  0  0  0  0
 21 10  1  0  0  0  0
 22 21  1  0  0  0  0
 23 21  2  0  0  0  0
 25  3  1  0  0  0  0
 25 39  1  0  0  0  0
 27  7  1  0  0  0  0
 29  9  1  0  0  0  0
 33 11  1  0  0  0  0
 34 15  1  0  0  0  0
 35 17  1  0  0  0  0
 36 18  1  0  0  0  0
 37 19  1  0  0  0  0
M  END
>  <Pose>
1

>  <Score>
-5.90

$$$$
