
 OpenBabel03212208413D

 41 43  0  0  1  0  0  0  0  0999 V2000
   14.0590   30.3110   72.8480 B   0  0  0  0  0  0  0  0  0  0  0  0
   14.3960   32.0700   72.1500 C   0  0  0  0  0  0  0  0  0  0  0  0
   15.6630   32.6080   72.4220 C   0  0  0  0  0  0  0  0  0  0  0  0
   15.8780   33.8690   71.9100 C   0  0  0  0  0  0  0  0  0  0  0  0
   14.8960   34.5440   71.1800 C   0  0  0  0  0  0  0  0  0  0  0  0
   13.6620   33.9970   70.9260 C   0  0  0  0  0  0  0  0  0  0  0  0
   13.4360   32.7390   71.4310 C   0  0  0  0  0  0  0  0  0  0  0  0
   12.6250   34.7340   70.1420 C   0  0  0  0  0  0  0  0  0  0  0  0
   16.6100   31.8690   73.1690 N   0  0  0  0  0  0  0  0  0  0  0  0
   17.8660   31.4100   72.7690 C   0  0  0  0  0  0  0  0  0  0  0  0
   18.5420   30.6650   73.4920 O   0  0  0  0  0  0  0  0  0  0  0  0
   18.3930   31.8260   71.4550 C   0  0  0  0  0  0  0  0  0  0  0  0
   19.4860   32.7420   71.4820 N   0  0  1  0  0  4  0  0  0  0  0  0
   19.9670   32.8990   70.1010 C   0  0  0  0  0  0  0  0  0  0  0  0
   20.6650   34.2340   70.0220 C   0  0  0  0  0  0  0  0  0  0  0  0
   21.3980   34.3790   71.2790 N   0  0  1  0  0  0  0  0  0  0  0  0
   20.4120   34.8310   72.2560 C   0  0  0  0  0  0  0  0  0  0  0  0
   19.1260   34.0530   72.0160 C   0  0  0  0  0  0  0  0  0  0  0  0
   21.8540   33.0700   71.7180 C   0  0  0  0  0  0  0  0  0  0  0  0
   20.6370   32.2830   72.2330 C   0  0  0  0  0  0  0  0  0  0  0  0
   16.8320   34.3580   72.0760 H   0  0  0  0  0  0  0  0  0  0  0  0
   15.0820   35.5430   70.7820 H   0  0  0  0  0  0  0  0  0  0  0  0
   12.4700   32.2760   71.2500 H   0  0  0  0  0  0  0  0  0  0  0  0
   11.6070   34.3510   70.3670 H   0  0  0  0  0  0  0  0  0  0  0  0
   12.7900   34.6550   69.0660 H   0  0  0  0  0  0  0  0  0  0  0  0
   12.6450   35.7790   70.5180 H   0  0  0  0  0  0  0  0  0  0  0  0
   16.3250   31.6340   74.1660 H   0  0  0  0  0  0  0  0  0  0  0  0
   17.5820   32.3310   70.8470 H   0  0  0  0  0  0  0  0  0  0  0  0
   18.7320   30.9500   70.8460 H   0  0  0  0  0  0  0  0  0  0  0  0
   20.6360   32.0420   69.9070 H   0  0  0  0  0  0  0  0  0  0  0  0
   19.1100   32.8300   69.4000 H   0  0  0  0  0  0  0  0  0  0  0  0
   19.8930   35.0140   69.9120 H   0  0  0  0  0  0  0  0  0  0  0  0
   21.3940   34.2600   69.1630 H   0  0  0  0  0  0  0  0  0  0  0  0
   20.1800   35.8990   72.0650 H   0  0  0  0  0  0  0  0  0  0  0  0
   20.7710   34.6770   73.3020 H   0  0  0  0  0  0  0  0  0  0  0  0
   18.6670   33.9050   72.9950 H   0  0  0  0  0  0  0  0  0  0  0  0
   18.4650   34.5360   71.2800 H   0  0  0  0  0  0  0  0  0  0  0  0
   22.3380   32.5800   70.8630 H   0  0  0  0  0  0  0  0  0  0  0  0
   22.5950   33.2050   72.5350 H   0  0  0  0  0  0  0  0  0  0  0  0
   20.5360   32.5600   73.3070 H   0  0  0  0  0  0  0  0  0  0  0  0
   20.8710   31.2270   72.0710 H   0  0  0  0  0  0  0  0  0  0  0  0
  2  3  1  0  0  0  0
  2  1  1  0  0  0  0
  3  9  1  0  0  0  0
  4 21  1  0  0  0  0
  4  3  2  0  0  0  0
  5  4  1  0  0  0  0
  6  5  2  0  0  0  0
  6  7  1  0  0  0  0
  7  2  2  0  0  0  0
  8 24  1  0  0  0  0
  8 26  1  0  0  0  0
  8  6  1  0  0  0  0
  9 27  1  0  0  0  0
 10  9  1  0  0  0  0
 10 11  2  0  0  0  0
 12 10  1  0  0  0  0
 13 12  1  1  0  0  0
 13 18  1  0  0  0  0
 13 20  1  0  0  0  0
 14 13  1  0  0  0  0
 15 14  1  0  0  0  0
 16 15  1  6  0  0  0
 16 19  1  0  0  0  0
 16 17  1  0  0  0  0
 17 35  1  0  0  0  0
 18 17  1  0  0  0  0
 18 36  1  0  0  0  0
 19 20  1  0  0  0  0
 19 39  1  0  0  0  0
 20 40  1  0  0  0  0
 22  5  1  0  0  0  0
 23  7  1  0  0  0  0
 25  8  1  0  0  0  0
 28 12  1  0  0  0  0
 29 12  1  0  0  0  0
 30 14  1  0  0  0  0
 31 14  1  0  0  0  0
 32 15  1  0  0  0  0
 33 15  1  0  0  0  0
 34 17  1  0  0  0  0
 37 18  1  0  0  0  0
 38 19  1  0  0  0  0
 41 20  1  0  0  0  0
M  END
>  <Pose>
1

>  <Score>
-5.16

$$$$
