
 OpenBabel03212208413D

 36 39  0  0  1  0  0  0  0  0999 V2000
   15.4360   36.9310   70.3360 B   0  0  0  0  0  0  0  0  0  0  0  0
   14.8200   35.2220   70.8370 C   0  0  0  0  0  0  0  0  0  0  0  0
   15.6700   34.2670   71.3670 C   0  0  0  0  0  0  0  0  0  0  0  0
   15.0790   33.0520   71.6900 C   0  0  0  0  0  0  0  0  0  0  0  0
   13.7450   32.7860   71.5070 C   0  0  0  0  0  0  0  0  0  0  0  0
   12.9270   33.7370   70.9840 C   0  0  0  0  0  0  0  0  0  0  0  0
   13.4620   34.9520   70.6500 C   0  0  0  0  0  0  0  0  0  0  0  0
   17.0540   34.5070   71.5700 N   0  0  0  0  0  0  0  0  0  0  0  0
   17.9390   35.3660   70.7600 C   0  0  0  0  0  0  0  0  0  0  0  0
   19.2370   34.7400   70.9800 C   0  0  2  0  0  0  0  0  0  0  0  0
   19.5490   33.6560   70.1420 O   0  0  0  0  0  0  0  0  0  0  0  0
   20.7320   33.2770   70.8310 C   0  0  2  0  0  0  0  0  0  0  0  0
   20.0730   32.9110   72.1680 C   0  0  1  0  0  0  0  0  0  0  0  0
   19.2410   34.1350   72.3940 C   0  0  2  0  0  0  0  0  0  0  0  0
   17.8200   33.9290   72.6210 C   0  0  0  0  0  0  0  0  0  0  0  0
   17.3170   33.3330   73.5950 O   0  0  0  0  0  0  0  0  0  0  0  0
   19.1970   31.7380   71.8550 C   0  0  0  0  0  0  0  0  0  0  0  0
   19.2450   30.6730   72.4870 O   0  0  0  0  0  0  0  0  0  0  0  0
   18.2910   31.8510   70.8070 O   0  0  0  0  0  0  0  0  0  0  0  0
   16.9170   31.5310   71.0530 C   0  0  0  0  0  0  0  0  0  0  0  0
   21.4390   34.5890   70.9000 C   0  0  0  0  0  0  0  0  0  0  0  0
   20.4630   35.5240   70.8660 C   0  0  0  0  0  0  0  0  0  0  0  0
   15.6750   32.2550   72.1100 H   0  0  0  0  0  0  0  0  0  0  0  0
   13.3260   31.8240   71.7720 H   0  0  0  0  0  0  0  0  0  0  0  0
   11.8660   33.5410   70.8320 H   0  0  0  0  0  0  0  0  0  0  0  0
   12.8080   35.7040   70.2340 H   0  0  0  0  0  0  0  0  0  0  0  0
   17.6100   35.2400   69.7100 H   0  0  0  0  0  0  0  0  0  0  0  0
   17.8820   36.4200   71.0520 H   0  0  0  0  0  0  0  0  0  0  0  0
   21.2700   32.4790   70.3700 H   0  0  0  0  0  0  0  0  0  0  0  0
   20.8010   32.6940   72.9410 H   0  0  0  0  0  0  0  0  0  0  0  0
   19.6980   34.8450   73.1130 H   0  0  0  0  0  0  0  0  0  0  0  0
   16.2910   31.7900   70.1850 H   0  0  0  0  0  0  0  0  0  0  0  0
   16.5280   32.0650   71.9430 H   0  0  0  0  0  0  0  0  0  0  0  0
   16.8080   30.4260   71.2000 H   0  0  0  0  0  0  0  0  0  0  0  0
   22.5120   34.7380   70.9630 H   0  0  0  0  0  0  0  0  0  0  0  0
   20.6210   36.5870   70.7760 H   0  0  0  0  0  0  0  0  0  0  0  0
  1  2  1  0  0  0  0
  2  3  1  0  0  0  0
  3  8  1  0  0  0  0
  3  4  2  0  0  0  0
  4 23  1  0  0  0  0
  5  4  1  0  0  0  0
  5 24  1  0  0  0  0
  6  5  2  0  0  0  0
  7  2  2  0  0  0  0
  7  6  1  0  0  0  0
  8 15  1  0  0  0  0
  9 10  1  0  0  0  0
  9 28  1  0  0  0  0
  9  8  1  0  0  0  0
 10 11  1  6  0  0  0
 10 14  1  0  0  0  0
 11 12  1  0  0  0  0
 12 29  1  6  0  0  0
 12 21  1  0  0  0  0
 12 13  1  0  0  0  0
 13 14  1  0  0  0  0
 13 30  1  1  0  0  0
 14 15  1  0  0  0  0
 14 31  1  1  0  0  0
 15 16  2  0  0  0  0
 17 13  1  0  0  0  0
 17 18  2  0  0  0  0
 19 20  1  0  0  0  0
 19 17  1  0  0  0  0
 20 34  1  0  0  0  0
 20 33  1  0  0  0  0
 21 35  1  0  0  0  0
 22 21  2  0  0  0  0
 22 10  1  0  0  0  0
 25  6  1  0  0  0  0
 26  7  1  0  0  0  0
 27  9  1  0  0  0  0
 32 20  1  0  0  0  0
 36 22  1  0  0  0  0
M  END
>  <Pose>
1

>  <Score>
-4.83

$$$$
