
 OpenBabel03212208413D

 35 38  0  0  0  0  0  0  0  0999 V2000
   15.5740   36.3550   70.3560 B   0  0  0  0  0  0  0  0  0  0  0  0
   14.8460   34.6080   70.5140 C   0  0  0  0  0  0  0  0  0  0  0  0
   15.5370   33.4520   70.7690 C   0  0  0  0  0  0  0  0  0  0  0  0
   14.6310   32.4650   70.7940 N   0  0  0  0  0  0  0  0  0  0  0  0
   13.4320   32.9650   70.5690 N   0  0  0  0  0  0  0  0  0  0  0  0
   13.5160   34.3020   70.3870 C   0  0  0  0  0  0  0  0  0  0  0  0
   12.3710   35.2410   70.1050 C   0  0  0  0  0  0  0  0  0  0  0  0
   14.9390   31.0740   71.0340 C   0  0  0  0  0  0  0  0  0  0  0  0
   14.3440   30.5950   72.3300 C   0  0  0  0  0  0  0  0  0  0  0  0
   14.9710   29.9320   73.3180 N   0  0  0  0  0  0  0  0  0  0  0  0
   14.1060   29.6820   74.3030 N   0  0  0  0  0  0  0  0  0  0  0  0
   12.9010   30.1820   73.9620 C   0  0  0  0  0  0  0  0  0  0  0  0
   13.0740   30.7370   72.7480 N   0  0  0  0  0  0  0  0  0  0  0  0
   11.8410   30.0410   74.8370 C   0  0  0  0  0  0  0  0  0  0  0  0
   11.9680   29.4030   76.0540 C   0  0  0  0  0  0  0  0  0  0  0  0
   10.7870   29.4050   76.7040 N   0  0  0  0  0  0  0  0  0  0  0  0
    9.9180   30.0270   75.9310 N   0  0  0  0  0  0  0  0  0  0  0  0
   10.5200   30.4350   74.7750 C   0  0  0  0  0  0  0  0  0  0  0  0
   10.4800   28.8420   78.0090 C   0  0  0  0  0  0  0  0  0  0  0  0
   13.1860   28.9190   76.3550 N   0  0  0  0  0  0  0  0  0  0  0  0
   14.2250   29.0610   75.4900 C   0  0  0  0  0  0  0  0  0  0  0  0
   17.0180   33.3590   70.9720 C   0  0  0  0  0  0  0  0  0  0  0  0
   12.6390   35.8190   69.2090 H   0  0  0  0  0  0  0  0  0  0  0  0
   12.2020   35.9350   70.9340 H   0  0  0  0  0  0  0  0  0  0  0  0
   11.4770   34.6370   69.8500 H   0  0  0  0  0  0  0  0  0  0  0  0
   16.0540   30.9260   71.0530 H   0  0  0  0  0  0  0  0  0  0  0  0
   14.5520   30.4310   70.2270 H   0  0  0  0  0  0  0  0  0  0  0  0
   10.0680   30.9620   73.9620 H   0  0  0  0  0  0  0  0  0  0  0  0
   10.5420   29.6070   78.8180 H   0  0  0  0  0  0  0  0  0  0  0  0
    9.5170   28.2990   78.0180 H   0  0  0  0  0  0  0  0  0  0  0  0
   11.2580   28.0700   78.2730 H   0  0  0  0  0  0  0  0  0  0  0  0
   15.2160   28.6670   75.7360 H   0  0  0  0  0  0  0  0  0  0  0  0
   17.1940   33.3380   72.0520 H   0  0  0  0  0  0  0  0  0  0  0  0
   17.5160   34.2440   70.5290 H   0  0  0  0  0  0  0  0  0  0  0  0
   17.4460   32.4750   70.4350 H   0  0  0  0  0  0  0  0  0  0  0  0
  1  2  1  0  0  0  0
  2  3  2  0  0  0  0
  3  4  1  0  0  0  0
  3 22  1  0  0  0  0
  4  8  1  0  0  0  0
  5  4  1  0  0  0  0
  6  2  1  0  0  0  0
  6  5  2  0  0  0  0
  7  6  1  0  0  0  0
  7 24  1  0  0  0  0
  8 26  1  0  0  0  0
  8  9  1  0  0  0  0
  9 13  1  0  0  0  0
  9 10  2  0  0  0  0
 10 11  1  0  0  0  0
 11 21  1  0  0  0  0
 12 11  1  0  0  0  0
 12 14  1  0  0  0  0
 13 12  2  0  0  0  0
 14 15  2  0  0  0  0
 15 20  1  0  0  0  0
 15 16  1  0  0  0  0
 16 19  1  0  0  0  0
 17 16  1  0  0  0  0
 18 14  1  0  0  0  0
 18 17  2  0  0  0  0
 19 30  1  0  0  0  0
 19 31  1  0  0  0  0
 19 29  1  0  0  0  0
 21 32  1  0  0  0  0
 21 20  2  0  0  0  0
 22 33  1  0  0  0  0
 23  7  1  0  0  0  0
 25  7  1  0  0  0  0
 27  8  1  0  0  0  0
 28 18  1  0  0  0  0
 34 22  1  0  0  0  0
 35 22  1  0  0  0  0
M  END
>  <Pose>
1

>  <Score>
-5.56

$$$$
