
 OpenBabel03212208413D

 36 39  0  0  0  0  0  0  0  0999 V2000
   19.2100   31.5570   72.7530 B   0  0  0  0  0  0  0  0  0  0  0  0
   17.5690   32.3080   72.1840 C   0  0  0  0  0  0  0  0  0  0  0  0
   16.4230   31.5060   72.1340 C   0  0  0  0  0  0  0  0  0  0  0  0
   15.2420   32.0680   71.7200 C   0  0  0  0  0  0  0  0  0  0  0  0
   15.1740   33.3880   71.3600 C   0  0  0  0  0  0  0  0  0  0  0  0
   16.3210   34.1980   71.4100 C   0  0  0  0  0  0  0  0  0  0  0  0
   17.5100   33.6330   71.8260 C   0  0  0  0  0  0  0  0  0  0  0  0
   13.9230   33.8980   70.9360 N   0  0  0  0  0  0  0  0  0  0  0  0
   12.9440   34.2170   71.7610 N   0  0  0  0  0  0  0  0  0  0  0  0
   11.9000   34.6650   71.0980 N   0  0  0  0  0  0  0  0  0  0  0  0
   12.1930   34.6430   69.8070 N   0  0  0  0  0  0  0  0  0  0  0  0
   13.4390   34.1690   69.7150 C   0  0  0  0  0  0  0  0  0  0  0  0
   13.9670   31.2590   71.6550 C   0  0  0  0  0  0  0  0  0  0  0  0
   13.6610   30.8160   70.5010 O   0  0  0  0  0  0  0  0  0  0  0  0
   13.2520   31.0660   72.8120 N   0  0  0  0  0  0  0  0  0  0  0  0
   12.5400   30.8740   73.9630 C   0  0  0  0  0  0  0  0  0  0  0  0
   12.8210   29.5480   74.6500 C   0  0  0  0  0  0  0  0  0  0  0  0
   11.8980   28.7910   75.2830 N   0  0  0  0  0  0  0  0  0  0  0  0
   12.4680   27.6860   75.7800 C   0  0  0  0  0  0  0  0  0  0  0  0
   13.7650   27.7630   75.4450 N   0  0  0  0  0  0  0  0  0  0  0  0
   13.9830   28.8940   74.7590 N   0  0  0  0  0  0  0  0  0  0  0  0
   11.7040   26.7430   76.4810 C   0  0  0  0  0  0  0  0  0  0  0  0
   10.3640   26.9420   76.6660 C   0  0  0  0  0  0  0  0  0  0  0  0
    9.7770   28.0820   76.1530 C   0  0  0  0  0  0  0  0  0  0  0  0
   10.5630   28.9960   75.4640 C   0  0  0  0  0  0  0  0  0  0  0  0
   16.4590   30.4620   72.4110 H   0  0  0  0  0  0  0  0  0  0  0  0
   16.2260   35.2290   71.1210 H   0  0  0  0  0  0  0  0  0  0  0  0
   18.3970   34.2590   71.8630 H   0  0  0  0  0  0  0  0  0  0  0  0
   13.9740   34.0310   68.7960 H   0  0  0  0  0  0  0  0  0  0  0  0
   12.2470   30.4740   72.1090 H   0  0  0  0  0  0  0  0  0  0  0  0
   11.4170   30.9300   73.8810 H   0  0  0  0  0  0  0  0  0  0  0  0
   12.7510   31.6200   74.7940 H   0  0  0  0  0  0  0  0  0  0  0  0
   12.2160   25.8740   76.8630 H   0  0  0  0  0  0  0  0  0  0  0  0
    9.7330   26.2250   77.2110 H   0  0  0  0  0  0  0  0  0  0  0  0
    8.7390   28.2970   76.2590 H   0  0  0  0  0  0  0  0  0  0  0  0
   10.1440   29.8980   75.0510 H   0  0  0  0  0  0  0  0  0  0  0  0
  2  1  1  0  0  0  0
  3  2  1  0  0  0  0
  3 26  1  0  0  0  0
  4  3  2  0  0  0  0
  5  6  2  0  0  0  0
  5  4  1  0  0  0  0
  6  7  1  0  0  0  0
  7 28  1  0  0  0  0
  7  2  2  0  0  0  0
  8  5  1  0  0  0  0
  8  9  1  0  0  0  0
 10  9  2  0  0  0  0
 11 10  1  0  0  0  0
 12 11  2  0  0  0  0
 12  8  1  0  0  0  0
 13  4  1  0  0  0  0
 13 15  1  0  0  0  0
 14 13  2  0  0  0  0
 15 16  1  0  0  0  0
 16 17  1  0  0  0  0
 16 32  1  0  0  0  0
 17 21  2  0  0  0  0
 17 18  1  0  0  0  0
 18 25  1  0  0  0  0
 18 19  1  0  0  0  0
 19 22  1  0  0  0  0
 20 19  2  0  0  0  0
 21 20  1  0  0  0  0
 22 23  2  0  0  0  0
 22 33  1  0  0  0  0
 23 34  1  0  0  0  0
 24 35  1  0  0  0  0
 24 23  1  0  0  0  0
 25 24  2  0  0  0  0
 27  6  1  0  0  0  0
 29 12  1  0  0  0  0
 30 15  1  0  0  0  0
 31 16  1  0  0  0  0
 36 25  1  0  0  0  0
M  END
>  <Pose>
1

>  <Score>
-6.93

$$$$
