
 OpenBabel03212208413D

 48 51  0  0  0  0  0  0  0  0999 V2000
   23.5120   33.8760   68.8550 B   0  0  0  0  0  0  0  0  0  0  0  0
   21.9780   34.2340   69.9260 C   0  0  0  0  0  0  0  0  0  0  0  0
   21.0040   35.1390   69.6190 C   0  0  0  0  0  0  0  0  0  0  0  0
   19.9020   35.3800   70.4100 C   0  0  0  0  0  0  0  0  0  0  0  0
   19.7990   34.6400   71.5920 C   0  0  0  0  0  0  0  0  0  0  0  0
   20.7450   33.7190   71.9510 C   0  0  0  0  0  0  0  0  0  0  0  0
   21.8350   33.5200   71.1120 C   0  0  0  0  0  0  0  0  0  0  0  0
   18.7010   34.8580   72.4010 O   0  0  0  0  0  0  0  0  0  0  0  0
   18.1850   33.8210   73.1930 C   0  0  0  0  0  0  0  0  0  0  0  0
   18.8690   36.3390   70.0560 C   0  0  0  0  0  0  0  0  0  0  0  0
   17.5810   36.1480   70.1210 C   0  0  0  0  0  0  0  0  0  0  0  0
   16.9820   34.9740   70.5520 O   0  0  0  0  0  0  0  0  0  0  0  0
   15.6020   35.0560   70.5150 C   0  0  0  0  0  0  0  0  0  0  0  0
   15.2040   36.2910   70.0550 C   0  0  0  0  0  0  0  0  0  0  0  0
   13.8620   36.5860   69.9380 C   0  0  0  0  0  0  0  0  0  0  0  0
   12.9260   35.6340   70.2840 C   0  0  0  0  0  0  0  0  0  0  0  0
   13.3600   34.3780   70.7520 C   0  0  0  0  0  0  0  0  0  0  0  0
   14.6790   34.0650   70.8770 C   0  0  0  0  0  0  0  0  0  0  0  0
   15.1790   32.8100   71.3660 C   0  0  0  0  0  0  0  0  0  0  0  0
   14.5900   31.5750   71.0430 N   0  0  0  0  0  4  0  0  0  0  0  0
   15.3870   30.4100   71.3120 C   0  0  0  0  0  0  0  0  0  0  0  0
   15.3370   29.9460   72.7470 C   0  0  0  0  0  0  0  0  0  0  0  0
   14.6260   30.7980   73.5810 O   0  0  0  0  0  0  0  0  0  0  0  0
   13.3380   30.8700   73.0620 C   0  0  0  0  0  0  0  0  0  0  0  0
   13.2660   31.4040   71.6690 C   0  0  0  0  0  0  0  0  0  0  0  0
   12.2990   33.5130   71.0630 O   0  0  0  0  0  0  0  0  0  0  0  0
   16.4490   37.0200   69.7930 C   0  0  0  0  0  0  0  0  0  0  0  0
   16.5460   38.1890   69.3600 O   0  0  0  0  0  0  0  0  0  0  0  0
   21.1190   35.6980   68.6860 H   0  0  0  0  0  0  0  0  0  0  0  0
   20.7110   33.1170   72.8650 H   0  0  0  0  0  0  0  0  0  0  0  0
   22.6020   32.7820   71.3890 H   0  0  0  0  0  0  0  0  0  0  0  0
   17.0970   34.0290   73.4350 H   0  0  0  0  0  0  0  0  0  0  0  0
   18.7190   33.8080   74.1770 H   0  0  0  0  0  0  0  0  0  0  0  0
   18.1760   32.8330   72.6860 H   0  0  0  0  0  0  0  0  0  0  0  0
   19.1930   37.3270   69.6920 H   0  0  0  0  0  0  0  0  0  0  0  0
   13.5580   37.5670   69.5750 H   0  0  0  0  0  0  0  0  0  0  0  0
   11.8640   35.8070   70.2150 H   0  0  0  0  0  0  0  0  0  0  0  0
   16.2970   32.6790   71.1400 H   0  0  0  0  0  0  0  0  0  0  0  0
   15.2320   32.8170   72.5220 H   0  0  0  0  0  0  0  0  0  0  0  0
   14.3560   31.5640   70.0290 H   0  0  0  0  0  0  0  0  0  0  0  0
   14.9230   29.5790   70.7010 H   0  0  0  0  0  0  0  0  0  0  0  0
   16.4070   30.5210   70.9450 H   0  0  0  0  0  0  0  0  0  0  0  0
   14.8540   28.9320   72.8560 H   0  0  0  0  0  0  0  0  0  0  0  0
   16.3680   29.8030   73.1270 H   0  0  0  0  0  0  0  0  0  0  0  0
   12.7840   31.6090   73.7130 H   0  0  0  0  0  0  0  0  0  0  0  0
   12.8230   29.8740   73.1880 H   0  0  0  0  0  0  0  0  0  0  0  0
   12.7130   32.3630   71.5940 H   0  0  0  0  0  0  0  0  0  0  0  0
   12.6810   30.6810   71.0630 H   0  0  0  0  0  0  0  0  0  0  0  0
  1  2  1  0  0  0  0
  2  7  1  0  0  0  0
  3  2  2  0  0  0  0
  3  4  1  0  0  0  0
  4  5  2  0  0  0  0
  5  6  1  0  0  0  0
  5  8  1  0  0  0  0
  6 30  1  0  0  0  0
  7 31  1  0  0  0  0
  7  6  2  0  0  0  0
  8  9  1  0  0  0  0
  9 32  1  0  0  0  0
  9 33  1  0  0  0  0
 10 11  2  0  0  0  0
 10  4  1  0  0  0  0
 11 12  1  0  0  0  0
 13 12  1  0  0  0  0
 13 18  1  0  0  0  0
 14 13  2  0  0  0  0
 15 14  1  0  0  0  0
 15 16  2  0  0  0  0
 16 17  1  0  0  0  0
 17 18  2  0  0  0  0
 17 26  1  0  0  0  0
 18 19  1  0  0  0  0
 19 39  1  0  0  0  0
 20 21  1  0  0  0  0
 20 19  1  0  0  0  0
 20 25  1  0  0  0  0
 21 22  1  0  0  0  0
 22 43  1  0  0  0  0
 22 44  1  0  0  0  0
 22 23  1  0  0  0  0
 24 46  1  0  0  0  0
 24 23  1  0  0  0  0
 24 45  1  0  0  0  0
 25 24  1  0  0  0  0
 27 14  1  0  0  0  0
 27 11  1  0  0  0  0
 28 27  2  0  0  0  0
 29  3  1  0  0  0  0
 34  9  1  0  0  0  0
 35 10  1  0  0  0  0
 36 15  1  0  0  0  0
 37 16  1  0  0  0  0
 38 19  1  0  0  0  0
 40 20  1  0  0  0  0
 41 21  1  0  0  0  0
 42 21  1  0  0  0  0
 47 25  1  0  0  0  0
 48 25  1  0  0  0  0
M  END
>  <Pose>
1

>  <Score>
-6.83

$$$$
