
 OpenBabel03212208413D

 45 48  0  0  0  0  0  0  0  0999 V2000
   17.9990   25.8970   72.6950 B   0  0  0  0  0  0  0  0  0  0  0  0
   16.7910   27.3020   73.1470 C   0  0  0  0  0  0  0  0  0  0  0  0
   16.9380   28.5310   72.5720 C   0  0  0  0  0  0  0  0  0  0  0  0
   16.1590   29.6260   72.7930 C   0  0  0  0  0  0  0  0  0  0  0  0
   15.1200   29.3830   73.7210 C   0  0  0  0  0  0  0  0  0  0  0  0
   14.9340   28.1620   74.3240 C   0  0  0  0  0  0  0  0  0  0  0  0
   15.7790   27.1010   74.0370 C   0  0  0  0  0  0  0  0  0  0  0  0
   14.2530   30.4150   74.0350 O   0  0  0  0  0  0  0  0  0  0  0  0
   12.8640   30.3020   74.0510 C   0  0  0  0  0  0  0  0  0  0  0  0
   16.2510   30.9340   72.2100 C   0  0  0  0  0  0  0  0  0  0  0  0
   17.1210   31.9140   72.0940 N   0  0  0  0  0  0  0  0  0  0  0  0
   16.5780   32.9570   71.3910 C   0  0  0  0  0  0  0  0  0  0  0  0
   15.3200   32.5820   71.0630 N   0  0  0  0  0  0  0  0  0  0  0  0
   15.1150   31.3990   71.5350 N   0  0  0  0  0  0  0  0  0  0  0  0
   17.4730   33.9410   71.2820 N   0  0  0  0  0  0  0  0  0  0  0  0
   18.5880   33.5300   71.9070 C   0  0  0  0  0  0  0  0  0  0  0  0
   18.3930   32.2540   72.4240 C   0  0  0  0  0  0  0  0  0  0  0  0
   19.3360   31.5950   73.0710 N   0  0  0  0  0  0  0  0  0  0  0  0
   20.5390   32.2320   73.2240 C   0  0  0  0  0  0  0  0  0  0  0  0
   21.5050   31.6980   73.8260 O   0  0  0  0  0  0  0  0  0  0  0  0
   20.7620   33.4710   72.7400 N   0  0  0  0  0  0  0  0  0  0  0  0
   19.8170   34.1350   72.0850 C   0  0  0  0  0  0  0  0  0  0  0  0
   19.9630   35.2900   71.6100 O   0  0  0  0  0  0  0  0  0  0  0  0
   19.3100   30.2590   73.5860 C   0  0  0  0  0  0  0  0  0  0  0  0
   17.3050   35.2060   70.6280 C   0  0  0  0  0  0  0  0  0  0  0  0
   15.8270   35.4990   70.4700 C   0  0  0  0  0  0  0  0  0  0  0  0
   15.6570   36.8690   70.4540 O   0  0  0  0  0  0  0  0  0  0  0  0
   14.3000   37.2220   70.3610 C   0  0  0  0  0  0  0  0  0  0  0  0
   17.7490   28.6910   71.8770 H   0  0  0  0  0  0  0  0  0  0  0  0
   14.1500   27.9550   75.0320 H   0  0  0  0  0  0  0  0  0  0  0  0
   15.6460   26.1400   74.5010 H   0  0  0  0  0  0  0  0  0  0  0  0
   12.5030   29.3320   74.4480 H   0  0  0  0  0  0  0  0  0  0  0  0
   12.3780   31.0850   74.6880 H   0  0  0  0  0  0  0  0  0  0  0  0
   12.4800   30.4610   73.0190 H   0  0  0  0  0  0  0  0  0  0  0  0
   21.6820   33.9430   72.8660 H   0  0  0  0  0  0  0  0  0  0  0  0
   18.8510   29.5340   72.8990 H   0  0  0  0  0  0  0  0  0  0  0  0
   20.3970   29.9350   73.7480 H   0  0  0  0  0  0  0  0  0  0  0  0
   18.8620   30.2160   74.5730 H   0  0  0  0  0  0  0  0  0  0  0  0
   17.8650   35.2900   69.6800 H   0  0  0  0  0  0  0  0  0  0  0  0
   17.6880   35.9950   71.3410 H   0  0  0  0  0  0  0  0  0  0  0  0
   15.2430   35.1120   71.3410 H   0  0  0  0  0  0  0  0  0  0  0  0
   15.4960   35.0220   69.5270 H   0  0  0  0  0  0  0  0  0  0  0  0
   13.9040   36.7920   69.4150 H   0  0  0  0  0  0  0  0  0  0  0  0
   14.1990   38.3130   70.2740 H   0  0  0  0  0  0  0  0  0  0  0  0
   13.7150   36.8560   71.2060 H   0  0  0  0  0  0  0  0  0  0  0  0
  1  2  1  0  0  0  0
  2  7  1  0  0  0  0
  3  4  1  0  0  0  0
  3  2  2  0  0  0  0
  4  5  2  0  0  0  0
  5  8  1  0  0  0  0
  5  6  1  0  0  0  0
  6 30  1  0  0  0  0
  7  6  2  0  0  0  0
  7 31  1  0  0  0  0
  8  9  1  0  0  0  0
  9 32  1  0  0  0  0
  9 33  1  0  0  0  0
 10  4  1  0  0  0  0
 11 10  1  0  0  0  0
 11 17  1  0  0  0  0
 12 11  1  0  0  0  0
 13 12  2  0  0  0  0
 13 14  1  0  0  0  0
 14 10  2  0  0  0  0
 15 12  1  0  0  0  0
 15 16  1  0  0  0  0
 16 22  1  0  0  0  0
 16 17  2  0  0  0  0
 17 18  1  0  0  0  0
 18 19  1  0  0  0  0
 18 24  1  0  0  0  0
 19 20  2  0  0  0  0
 21 35  1  0  0  0  0
 21 19  1  0  0  0  0
 22 21  1  0  0  0  0
 23 22  2  0  0  0  0
 24 37  1  0  0  0  0
 24 38  1  0  0  0  0
 25 15  1  0  0  0  0
 25 40  1  0  0  0  0
 26 25  1  0  0  0  0
 26 41  1  0  0  0  0
 27 26  1  0  0  0  0
 28 27  1  0  0  0  0
 28 45  1  0  0  0  0
 29  3  1  0  0  0  0
 34  9  1  0  0  0  0
 36 24  1  0  0  0  0
 39 25  1  0  0  0  0
 42 26  1  0  0  0  0
 43 28  1  0  0  0  0
 44 28  1  0  0  0  0
M  END
>  <Pose>
1

>  <Score>
-6.35

$$$$
