
 OpenBabel03212208413D

 50 53  0  0  0  0  0  0  0  0999 V2000
   14.4420   36.7300   70.0570 B   0  0  0  0  0  0  0  0  0  0  0  0
   14.7710   34.9350   70.5970 C   0  0  0  0  0  0  0  0  0  0  0  0
   16.0550   34.4130   70.6780 C   0  0  0  0  0  0  0  0  0  0  0  0
   16.2940   33.1210   71.0660 C   0  0  0  0  0  0  0  0  0  0  0  0
   15.2280   32.3130   71.3860 C   0  0  0  0  0  0  0  0  0  0  0  0
   13.9570   32.8230   71.3080 C   0  0  0  0  0  0  0  0  0  0  0  0
   13.6990   34.1300   70.9170 C   0  0  0  0  0  0  0  0  0  0  0  0
   17.6580   32.6060   71.1400 C   0  0  0  0  0  0  0  0  0  0  0  0
   17.9270   31.4020   70.8960 O   0  0  0  0  0  0  0  0  0  0  0  0
   18.7430   33.5180   71.5080 C   0  0  0  0  0  0  0  0  0  0  0  0
   19.5550   33.9160   70.4270 N   0  0  0  0  0  0  0  0  0  0  0  0
   20.5710   33.0150   70.0280 C   0  0  0  0  0  0  0  0  0  0  0  0
   21.4870   33.4930   68.9670 C   0  0  0  0  0  0  0  0  0  0  0  0
   22.0380   34.7680   69.2970 N   0  0  0  0  0  0  0  0  0  0  0  0
   21.3450   35.5890   70.2480 C   0  0  0  0  0  0  0  0  0  0  0  0
   19.8650   35.3010   70.3430 C   0  0  0  0  0  0  0  0  0  0  0  0
   23.2280   35.2590   68.6980 C   0  0  0  0  0  0  0  0  0  0  0  0
   23.1540   35.7280   67.4530 C   0  0  0  0  0  0  0  0  0  0  0  0
   22.1200   35.8770   66.4960 N   0  0  0  0  0  0  0  0  0  0  0  0
   22.7430   36.4530   65.3660 N   0  0  0  0  0  0  0  0  0  0  0  0
   24.1170   36.6420   65.6450 C   0  0  0  0  0  0  0  0  0  0  0  0
   24.4160   36.2310   66.8670 C   0  0  0  0  0  0  0  0  0  0  0  0
   25.6180   36.1940   67.6290 N   0  0  0  0  0  0  0  0  0  0  0  0
   25.6350   35.7310   68.8300 C   0  0  0  0  0  0  0  0  0  0  0  0
   24.4660   35.2390   69.4400 N   0  0  0  0  0  0  0  0  0  0  0  0
   25.1380   37.2210   64.7310 C   0  0  0  0  0  0  0  0  0  0  0  0
   20.7320   35.5150   66.6480 C   0  0  0  0  0  0  0  0  0  0  0  0
   16.8480   35.0980   70.4130 H   0  0  0  0  0  0  0  0  0  0  0  0
   15.4470   31.2890   71.6910 H   0  0  0  0  0  0  0  0  0  0  0  0
   13.1060   32.2050   71.5550 H   0  0  0  0  0  0  0  0  0  0  0  0
   12.6660   34.5050   70.8670 H   0  0  0  0  0  0  0  0  0  0  0  0
   19.3760   33.0520   72.3100 H   0  0  0  0  0  0  0  0  0  0  0  0
   18.3350   34.4490   72.0040 H   0  0  0  0  0  0  0  0  0  0  0  0
   21.1030   32.6210   70.9130 H   0  0  0  0  0  0  0  0  0  0  0  0
   20.0350   32.1070   69.6060 H   0  0  0  0  0  0  0  0  0  0  0  0
   20.8890   33.6130   68.0230 H   0  0  0  0  0  0  0  0  0  0  0  0
   22.2490   32.7290   68.7190 H   0  0  0  0  0  0  0  0  0  0  0  0
   21.8230   35.6880   71.2290 H   0  0  0  0  0  0  0  0  0  0  0  0
   21.4010   36.6370   69.8120 H   0  0  0  0  0  0  0  0  0  0  0  0
   19.4970   35.8040   71.2620 H   0  0  0  0  0  0  0  0  0  0  0  0
   19.2900   35.7370   69.4970 H   0  0  0  0  0  0  0  0  0  0  0  0
   22.2100   36.6750   64.5000 H   0  0  0  0  0  0  0  0  0  0  0  0
   26.6020   35.7290   69.3700 H   0  0  0  0  0  0  0  0  0  0  0  0
   24.4300   34.8570   70.4000 H   0  0  0  0  0  0  0  0  0  0  0  0
   24.7520   37.2050   63.6940 H   0  0  0  0  0  0  0  0  0  0  0  0
   26.1210   36.7590   64.8520 H   0  0  0  0  0  0  0  0  0  0  0  0
   25.2440   38.3070   65.0060 H   0  0  0  0  0  0  0  0  0  0  0  0
   20.5500   34.5310   67.0700 H   0  0  0  0  0  0  0  0  0  0  0  0
   20.1810   36.3530   67.1250 H   0  0  0  0  0  0  0  0  0  0  0  0
   20.3330   35.4420   65.5830 H   0  0  0  0  0  0  0  0  0  0  0  0
  1  2  1  0  0  0  0
  2  3  2  0  0  0  0
  2  7  1  0  0  0  0
  3  4  1  0  0  0  0
  4  8  1  0  0  0  0
  4  5  2  0  0  0  0
  5 29  1  0  0  0  0
  6  5  1  0  0  0  0
  6 30  1  0  0  0  0
  7  6  2  0  0  0  0
  8 10  1  0  0  0  0
  9  8  2  0  0  0  0
 10 33  1  0  0  0  0
 10 32  1  0  0  0  0
 11 10  1  0  0  0  0
 12 11  1  0  0  0  0
 12 34  1  0  0  0  0
 13 14  1  0  0  0  0
 13 12  1  0  0  0  0
 14 15  1  0  0  0  0
 15 16  1  0  0  0  0
 15 38  1  0  0  0  0
 16 11  1  0  0  0  0
 16 40  1  0  0  0  0
 17 14  1  0  0  0  0
 17 25  1  0  0  0  0
 18 17  2  0  0  0  0
 19 27  1  0  0  0  0
 19 18  1  0  0  0  0
 20 21  1  0  0  0  0
 20 19  1  0  0  0  0
 21 22  2  0  0  0  0
 22 18  1  0  0  0  0
 22 23  1  0  0  0  0
 23 24  2  0  0  0  0
 24 43  1  0  0  0  0
 24 25  1  0  0  0  0
 25 44  1  0  0  0  0
 26 46  1  0  0  0  0
 26 47  1  0  0  0  0
 26 21  1  0  0  0  0
 27 48  1  0  0  0  0
 27 49  1  0  0  0  0
 28  3  1  0  0  0  0
 31  7  1  0  0  0  0
 35 12  1  0  0  0  0
 36 13  1  0  0  0  0
 37 13  1  0  0  0  0
 39 15  1  0  0  0  0
 41 16  1  0  0  0  0
 42 20  1  0  0  0  0
 45 26  1  0  0  0  0
 50 27  1  0  0  0  0
M  END
>  <Pose>
1

>  <Score>
-6.32

$$$$
