
 OpenBabel03212208413D

 49 52  0  0  0  0  0  0  0  0999 V2000
    7.4980   31.3040   78.9190 B   0  0  0  0  0  0  0  0  0  0  0  0
    7.6530   30.4290   77.2540 C   0  0  0  0  0  0  0  0  0  0  0  0
    8.8180   29.7410   76.9500 C   0  0  0  0  0  0  0  0  0  0  0  0
    8.9640   29.1000   75.7490 C   0  0  0  0  0  0  0  0  0  0  0  0
    7.9870   29.1020   74.7990 C   0  0  0  0  0  0  0  0  0  0  0  0
    6.8080   29.7920   75.0980 C   0  0  0  0  0  0  0  0  0  0  0  0
    6.6570   30.4400   76.3100 C   0  0  0  0  0  0  0  0  0  0  0  0
   10.2090   28.3200   75.4200 C   0  0  0  0  0  0  0  0  0  0  0  0
    9.9690   27.1160   75.0530 O   0  0  0  0  0  0  0  0  0  0  0  0
   11.3780   28.9290   75.5370 N   0  0  0  0  0  0  0  0  0  0  0  0
   12.6020   29.5670   75.6600 C   0  0  0  0  0  0  0  0  0  0  0  0
   12.8940   30.4380   74.4650 C   0  0  0  0  0  0  0  0  0  0  0  0
   12.1060   31.4400   74.3320 O   0  0  0  0  0  0  0  0  0  0  0  0
   13.9330   30.2010   73.5550 N   0  0  0  0  0  0  0  0  0  0  0  0
   13.7120   29.7030   72.2350 C   0  0  0  0  0  0  0  0  0  0  0  0
   14.6620   30.2860   71.2280 C   0  0  0  0  0  0  0  0  0  0  0  0
   15.2890   31.6020   71.6330 C   0  0  0  0  0  0  0  0  0  0  0  0
   16.3560   31.7910   70.6600 N   0  0  0  0  0  0  0  0  0  0  0  0
   16.9890   33.0540   70.6660 C   0  0  0  0  0  0  0  0  0  0  0  0
   16.2880   34.1800   71.3350 C   0  0  0  0  0  0  0  0  0  0  0  0
   14.8040   33.9940   71.3220 C   0  0  0  0  0  0  0  0  0  0  0  0
   13.8010   34.8610   71.1920 N   0  0  0  0  0  0  0  0  0  0  0  0
   12.6700   34.1260   71.2550 C   0  0  0  0  0  0  0  0  0  0  0  0
   12.9690   32.8200   71.4230 N   0  0  0  0  0  0  0  0  0  0  0  0
   14.3280   32.7150   71.4700 C   0  0  0  0  0  0  0  0  0  0  0  0
   15.8480   31.6060   73.0330 C   0  0  0  0  0  0  0  0  0  0  0  0
   15.3250   30.4720   73.8960 C   0  0  0  0  0  0  0  0  0  0  0  0
    9.6120   29.7090   77.6600 H   0  0  0  0  0  0  0  0  0  0  0  0
    8.1280   28.5900   73.8690 H   0  0  0  0  0  0  0  0  0  0  0  0
    6.0130   29.8190   74.3750 H   0  0  0  0  0  0  0  0  0  0  0  0
    5.7460   30.9710   76.5410 H   0  0  0  0  0  0  0  0  0  0  0  0
   11.7680   28.4470   74.3000 H   0  0  0  0  0  0  0  0  0  0  0  0
   13.4540   28.8070   75.7390 H   0  0  0  0  0  0  0  0  0  0  0  0
   12.7010   30.1400   76.6140 H   0  0  0  0  0  0  0  0  0  0  0  0
   13.9490   28.5960   72.2850 H   0  0  0  0  0  0  0  0  0  0  0  0
   12.6540   29.7300   71.9150 H   0  0  0  0  0  0  0  0  0  0  0  0
   15.4620   29.5710   71.0060 H   0  0  0  0  0  0  0  0  0  0  0  0
   14.0610   30.4990   70.3170 H   0  0  0  0  0  0  0  0  0  0  0  0
   17.0390   31.0090   70.8780 H   0  0  0  0  0  0  0  0  0  0  0  0
   17.1370   33.3570   69.5860 H   0  0  0  0  0  0  0  0  0  0  0  0
   18.0380   32.9360   71.0690 H   0  0  0  0  0  0  0  0  0  0  0  0
   16.6640   34.2910   72.3790 H   0  0  0  0  0  0  0  0  0  0  0  0
   16.5760   35.1470   70.8340 H   0  0  0  0  0  0  0  0  0  0  0  0
   11.6920   34.5600   71.1780 H   0  0  0  0  0  0  0  0  0  0  0  0
   12.2840   32.0490   71.5030 H   0  0  0  0  0  0  0  0  0  0  0  0
   15.5180   32.5570   73.5510 H   0  0  0  0  0  0  0  0  0  0  0  0
   16.9480   31.5610   73.0720 H   0  0  0  0  0  0  0  0  0  0  0  0
   15.9520   29.5560   73.7950 H   0  0  0  0  0  0  0  0  0  0  0  0
   15.3540   30.8210   74.9440 H   0  0  0  0  0  0  0  0  0  0  0  0
  2  1  1  0  0  0  0
  3  2  1  0  0  0  0
  3 28  1  0  0  0  0
  4  3  2  0  0  0  0
  5  6  2  0  0  0  0
  5  4  1  0  0  0  0
  6  7  1  0  0  0  0
  7 31  1  0  0  0  0
  7  2  2  0  0  0  0
  8 10  1  0  0  0  0
  8  4  1  0  0  0  0
  9  8  2  0  0  0  0
 10 11  1  0  0  0  0
 11 33  1  0  0  0  0
 11 34  1  0  0  0  0
 12 11  1  0  0  0  0
 13 12  2  0  0  0  0
 14 27  1  0  0  0  0
 14 12  1  0  0  0  0
 15 35  1  0  0  0  0
 15 14  1  0  0  0  0
 16 17  1  0  0  0  0
 16 15  1  0  0  0  0
 17 26  1  0  0  0  0
 18 19  1  0  0  0  0
 18 39  1  0  0  0  0
 18 17  1  0  0  0  0
 19 41  1  0  0  0  0
 19 20  1  0  0  0  0
 20 42  1  0  0  0  0
 21 20  1  0  0  0  0
 21 25  2  0  0  0  0
 22 23  2  0  0  0  0
 22 21  1  0  0  0  0
 23 24  1  0  0  0  0
 24 25  1  0  0  0  0
 24 45  1  0  0  0  0
 25 17  1  0  0  0  0
 26 47  1  0  0  0  0
 26 46  1  0  0  0  0
 26 27  1  0  0  0  0
 27 49  1  0  0  0  0
 29  5  1  0  0  0  0
 30  6  1  0  0  0  0
 32 10  1  0  0  0  0
 36 15  1  0  0  0  0
 37 16  1  0  0  0  0
 38 16  1  0  0  0  0
 40 19  1  0  0  0  0
 43 20  1  0  0  0  0
 44 23  1  0  0  0  0
 48 27  1  0  0  0  0
M  END
>  <Pose>
1

>  <Score>
-6.36

$$$$
