
 OpenBabel03212208413D

 35 38  0  0  1  0  0  0  0  0999 V2000
   12.3620   30.2960   74.6140 B   0  0  0  0  0  0  0  0  0  0  0  0
   13.6620   30.5340   73.2440 C   0  0  0  0  0  0  0  0  0  0  0  0
   14.9920   30.4710   73.5790 C   0  0  0  0  0  0  0  0  0  0  0  0
   15.9810   30.6340   72.6130 C   0  0  0  0  0  0  0  0  0  0  0  0
   15.5940   30.8580   71.3280 C   0  0  0  0  0  0  0  0  0  0  0  0
   14.2580   30.9200   70.9980 C   0  0  0  0  0  0  0  0  0  0  0  0
   13.2640   30.7630   71.9320 C   0  0  0  0  0  0  0  0  0  0  0  0
   17.3720   30.5650   73.0150 C   0  0  0  0  0  0  0  0  0  0  0  0
   17.9610   29.4810   72.8590 O   0  0  0  0  0  0  0  0  0  0  0  0
   18.0330   31.6800   73.5590 N   0  0  0  0  0  0  0  0  0  0  0  0
   18.9090   32.5350   72.8620 N   0  0  0  0  0  0  0  0  0  0  0  0
   18.4310   33.7510   72.2540 C   0  0  0  0  0  0  0  0  0  0  0  0
   17.2450   34.2090   72.2500 O   0  0  0  0  0  0  0  0  0  0  0  0
   19.5520   34.4130   71.6150 C   0  0  1  0  0  0  0  0  0  0  0  0
   20.8240   33.8140   72.2480 C   0  0  2  0  0  0  0  0  0  0  0  0
   21.8020   33.6600   71.1290 C   0  0  2  0  0  0  0  0  0  0  0  0
   21.2150   34.6050   70.0610 C   0  0  0  0  0  0  0  0  0  0  0  0
   19.8030   33.9910   70.1750 C   0  0  1  0  0  0  0  0  0  0  0  0
   20.1700   32.5480   70.1060 C   0  0  0  0  0  0  0  0  0  0  0  0
   21.4580   32.3690   70.4290 C   0  0  0  0  0  0  0  0  0  0  0  0
   20.2820   32.4440   72.6040 C   0  0  0  0  0  0  0  0  0  0  0  0
   20.9810   31.4070   72.6500 O   0  0  0  0  0  0  0  0  0  0  0  0
   15.2760   30.2890   74.6130 H   0  0  0  0  0  0  0  0  0  0  0  0
   16.3110   30.9920   70.5500 H   0  0  0  0  0  0  0  0  0  0  0  0
   13.9310   31.1010   69.9660 H   0  0  0  0  0  0  0  0  0  0  0  0
   12.2170   30.8010   71.7330 H   0  0  0  0  0  0  0  0  0  0  0  0
   17.8300   31.8680   74.5920 H   0  0  0  0  0  0  0  0  0  0  0  0
   19.5430   35.5030   71.6550 H   0  0  0  0  0  0  0  0  0  0  0  0
   21.1650   34.3590   73.1210 H   0  0  0  0  0  0  0  0  0  0  0  0
   22.8280   33.8090   71.3460 H   0  0  0  0  0  0  0  0  0  0  0  0
   21.6420   34.4010   69.0720 H   0  0  0  0  0  0  0  0  0  0  0  0
   21.2330   35.6500   70.3650 H   0  0  0  0  0  0  0  0  0  0  0  0
   19.1170   34.3540   69.4470 H   0  0  0  0  0  0  0  0  0  0  0  0
   19.5080   31.7200   69.8330 H   0  0  0  0  0  0  0  0  0  0  0  0
   22.1430   31.5780   70.2850 H   0  0  0  0  0  0  0  0  0  0  0  0
  2  3  1  0  0  0  0
  2  1  1  0  0  0  0
  3 23  1  0  0  0  0
  4  8  1  0  0  0  0
  4  3  2  0  0  0  0
  5  4  1  0  0  0  0
  6  5  2  0  0  0  0
  6  7  1  0  0  0  0
  7  2  2  0  0  0  0
  8 10  1  0  0  0  0
  9  8  2  0  0  0  0
 10 27  1  0  0  0  0
 11 10  1  0  0  0  0
 12 11  1  0  0  0  0
 13 12  2  0  0  0  0
 14 28  1  1  0  0  0
 14 15  1  0  0  0  0
 14 12  1  0  0  0  0
 15 21  1  0  0  0  0
 15 29  1  1  0  0  0
 16 30  1  1  0  0  0
 16 15  1  0  0  0  0
 17 18  1  0  0  0  0
 17 32  1  0  0  0  0
 17 16  1  0  0  0  0
 18 33  1  6  0  0  0
 18 14  1  0  0  0  0
 19 18  1  0  0  0  0
 19 20  1  0  0  0  0
 20 16  1  0  0  0  0
 21 22  2  0  0  0  0
 21 11  1  0  0  0  0
 24  5  1  0  0  0  0
 25  6  1  0  0  0  0
 26  7  1  0  0  0  0
 31 17  1  0  0  0  0
 34 19  1  0  0  0  0
 35 20  1  0  0  0  0
M  END
>  <Pose>
1

>  <Score>
-5.39

$$$$
