
 OpenBabel03212208413D

 44 47  0  0  0  0  0  0  0  0999 V2000
   14.6020   28.9750   75.5000 B   0  0  0  0  0  0  0  0  0  0  0  0
   14.8190   29.6230   73.7190 C   0  0  0  0  0  0  0  0  0  0  0  0
   13.8270   30.4710   73.2070 C   0  0  0  0  0  0  0  0  0  0  0  0
   13.9140   31.0090   71.9140 C   0  0  0  0  0  0  0  0  0  0  0  0
   15.0060   30.6630   71.1700 C   0  0  0  0  0  0  0  0  0  0  0  0
   16.0190   29.8120   71.6620 C   0  0  0  0  0  0  0  0  0  0  0  0
   15.8940   29.2930   72.9770 C   0  0  0  0  0  0  0  0  0  0  0  0
   13.0730   32.1860   71.5630 C   0  0  0  0  0  0  0  0  0  0  0  0
   13.6510   33.3430   71.2240 C   0  0  0  0  0  0  0  0  0  0  0  0
   14.9600   33.5860   71.1690 O   0  0  0  0  0  0  0  0  0  0  0  0
   15.1870   34.9180   70.7380 C   0  0  0  0  0  0  0  0  0  0  0  0
   14.0160   35.5570   70.5050 C   0  0  0  0  0  0  0  0  0  0  0  0
   14.0670   36.8540   70.0020 C   0  0  0  0  0  0  0  0  0  0  0  0
   15.2630   37.4620   69.7770 C   0  0  0  0  0  0  0  0  0  0  0  0
   16.4390   36.7950   70.0550 C   0  0  0  0  0  0  0  0  0  0  0  0
   16.4650   35.5110   70.5460 C   0  0  0  0  0  0  0  0  0  0  0  0
   17.5180   34.8640   71.3020 C   0  0  0  0  0  0  0  0  0  0  0  0
   18.4620   33.9070   71.1990 N   0  0  0  0  0  4  0  0  0  0  0  0
   19.7470   34.0370   70.6690 C   0  0  0  0  0  0  0  0  0  0  0  0
   20.8380   34.3050   71.7280 C   0  0  0  0  0  0  0  0  0  0  0  0
   21.0280   33.2560   72.5950 O   0  0  0  0  0  0  0  0  0  0  0  0
   19.7920   32.6820   72.9130 C   0  0  0  0  0  0  0  0  0  0  0  0
   18.6810   33.5690   72.7020 C   0  0  0  0  0  0  0  0  0  0  0  0
   17.6420   37.4640   69.8190 O   0  0  0  0  0  0  0  0  0  0  0  0
   12.9540   34.5710   70.8190 C   0  0  0  0  0  0  0  0  0  0  0  0
   11.7250   34.7540   70.7550 O   0  0  0  0  0  0  0  0  0  0  0  0
   13.0410   30.7140   73.8450 H   0  0  0  0  0  0  0  0  0  0  0  0
   15.1600   31.0250   70.1890 H   0  0  0  0  0  0  0  0  0  0  0  0
   16.9000   29.5140   71.1400 H   0  0  0  0  0  0  0  0  0  0  0  0
   16.6570   28.6640   73.3740 H   0  0  0  0  0  0  0  0  0  0  0  0
   12.0090   32.1360   71.6080 H   0  0  0  0  0  0  0  0  0  0  0  0
   13.1610   37.3640   69.8070 H   0  0  0  0  0  0  0  0  0  0  0  0
   15.3050   38.4940   69.3630 H   0  0  0  0  0  0  0  0  0  0  0  0
   18.3130   35.9080   71.3050 H   0  0  0  0  0  0  0  0  0  0  0  0
   17.2720   35.1150   72.4640 H   0  0  0  0  0  0  0  0  0  0  0  0
   18.0110   32.9930   70.8160 H   0  0  0  0  0  0  0  0  0  0  0  0
   19.8630   34.8000   69.8800 H   0  0  0  0  0  0  0  0  0  0  0  0
   20.0980   33.0280   70.1920 H   0  0  0  0  0  0  0  0  0  0  0  0
   20.6270   35.2800   72.2140 H   0  0  0  0  0  0  0  0  0  0  0  0
   21.7920   34.3900   71.1230 H   0  0  0  0  0  0  0  0  0  0  0  0
   19.6070   31.6960   72.4750 H   0  0  0  0  0  0  0  0  0  0  0  0
   19.8200   32.5020   74.0440 H   0  0  0  0  0  0  0  0  0  0  0  0
   18.8140   34.6220   73.1390 H   0  0  0  0  0  0  0  0  0  0  0  0
   17.7420   33.1930   73.0020 H   0  0  0  0  0  0  0  0  0  0  0  0
  2  1  1  0  0  0  0
  3  2  1  0  0  0  0
  3 27  1  0  0  0  0
  4  3  2  0  0  0  0
  5  6  2  0  0  0  0
  5  4  1  0  0  0  0
  6  7  1  0  0  0  0
  7 30  1  0  0  0  0
  7  2  2  0  0  0  0
  8 31  1  0  0  0  0
  8  4  1  0  0  0  0
  9  8  2  0  0  0  0
 10  9  1  0  0  0  0
 11 10  1  0  0  0  0
 12 11  2  0  0  0  0
 12 25  1  0  0  0  0
 13 12  1  0  0  0  0
 14 13  2  0  0  0  0
 14 15  1  0  0  0  0
 15 16  2  0  0  0  0
 16 11  1  0  0  0  0
 16 17  1  0  0  0  0
 17 34  1  0  0  0  0
 17 35  1  0  0  0  0
 18 17  1  0  0  0  0
 18 23  1  0  0  0  0
 19 18  1  0  0  0  0
 19 20  1  0  0  0  0
 20 39  1  0  0  0  0
 20 21  1  0  0  0  0
 21 22  1  0  0  0  0
 22 42  1  0  0  0  0
 23 22  1  0  0  0  0
 23 44  1  0  0  0  0
 23 43  1  0  0  0  0
 24 15  1  0  0  0  0
 25  9  1  0  0  0  0
 26 25  2  0  0  0  0
 28  5  1  0  0  0  0
 29  6  1  0  0  0  0
 32 13  1  0  0  0  0
 33 14  1  0  0  0  0
 36 18  1  0  0  0  0
 37 19  1  0  0  0  0
 38 19  1  0  0  0  0
 40 20  1  0  0  0  0
 41 22  1  0  0  0  0
M  END
>  <Pose>
1

>  <Score>
-6.54

$$$$
