
 OpenBabel03212208413D

 52 55  0  0  0  0  0  0  0  0999 V2000
   12.3910   28.2980   78.0920 B   0  0  0  0  0  0  0  0  0  0  0  0
   12.5470   29.1910   76.4020 C   0  0  0  0  0  0  0  0  0  0  0  0
   13.7520   29.2250   75.7020 C   0  0  0  0  0  0  0  0  0  0  0  0
   13.8200   29.9120   74.5050 C   0  0  0  0  0  0  0  0  0  0  0  0
   12.6730   30.5340   74.0460 C   0  0  0  0  0  0  0  0  0  0  0  0
   11.5140   30.4720   74.7630 C   0  0  0  0  0  0  0  0  0  0  0  0
   11.3870   29.8190   75.9610 C   0  0  0  0  0  0  0  0  0  0  0  0
   15.0540   30.1470   73.7300 C   0  0  0  0  0  0  0  0  0  0  0  0
   15.9540   31.0200   74.0880 N   0  0  0  0  0  0  0  0  0  0  0  0
   17.0750   31.3260   73.4730 N   0  0  0  0  0  0  0  0  0  0  0  0
   17.8510   31.6040   72.3850 C   0  0  0  0  0  0  0  0  0  0  0  0
   17.9100   30.9870   71.2980 O   0  0  0  0  0  0  0  0  0  0  0  0
   18.7360   32.8340   72.5230 C   0  0  0  0  0  0  0  0  0  0  0  0
   19.8170   33.0380   73.1940 N   0  0  0  0  0  0  0  0  0  0  0  0
   20.3520   34.2050   72.8500 N   0  0  0  0  0  0  0  0  0  0  0  0
   19.5720   34.7760   71.8950 N   0  0  0  0  0  0  0  0  0  0  0  0
   18.5620   34.0000   71.6790 C   0  0  0  0  0  0  0  0  0  0  0  0
   17.3600   34.0520   70.8520 C   0  0  0  0  0  0  0  0  0  0  0  0
   16.2850   34.8950   71.1140 N   0  0  0  0  0  0  0  0  0  0  0  0
   15.6340   35.8670   70.4540 C   0  0  0  0  0  0  0  0  0  0  0  0
   14.2340   35.3320   70.0480 C   0  0  0  0  0  0  0  0  0  0  0  0
   14.3280   33.9180   69.9740 N   0  0  0  0  0  0  0  0  0  0  0  0
   14.4650   33.3420   71.2770 C   0  0  0  0  0  0  0  0  0  0  0  0
   15.3570   34.2740   72.1060 C   0  0  0  0  0  0  0  0  0  0  0  0
   13.5380   33.2150   69.0540 C   0  0  0  0  0  0  0  0  0  0  0  0
   20.1990   35.7870   71.0570 C   0  0  0  0  0  0  0  0  0  0  0  0
   20.0580   35.5290   69.6440 N   0  0  0  0  0  0  0  0  0  0  0  0
   20.6160   36.4180   68.9690 O   0  0  0  0  0  0  0  0  0  0  0  0
   21.1510   37.2880   69.7690 N   0  0  0  0  0  0  0  0  0  0  0  0
   20.8790   36.8800   71.0740 C   0  0  0  0  0  0  0  0  0  0  0  0
   21.3460   37.6590   72.1520 N   0  0  0  0  0  0  0  0  0  0  0  0
   14.6100   28.7350   76.0970 H   0  0  0  0  0  0  0  0  0  0  0  0
   12.7480   31.0590   73.1000 H   0  0  0  0  0  0  0  0  0  0  0  0
   10.5890   30.9620   74.3820 H   0  0  0  0  0  0  0  0  0  0  0  0
   10.4590   29.8060   76.4940 H   0  0  0  0  0  0  0  0  0  0  0  0
   15.2190   29.6820   72.7830 H   0  0  0  0  0  0  0  0  0  0  0  0
   17.8370   31.5210   74.4100 H   0  0  0  0  0  0  0  0  0  0  0  0
   17.8480   34.4660   69.7920 H   0  0  0  0  0  0  0  0  0  0  0  0
   17.0040   33.0890   70.4770 H   0  0  0  0  0  0  0  0  0  0  0  0
   16.0750   36.3980   69.6340 H   0  0  0  0  0  0  0  0  0  0  0  0
   15.3860   36.7120   71.2180 H   0  0  0  0  0  0  0  0  0  0  0  0
   13.5160   35.6300   70.7900 H   0  0  0  0  0  0  0  0  0  0  0  0
   14.0320   35.7420   69.0550 H   0  0  0  0  0  0  0  0  0  0  0  0
   14.9440   32.3140   71.2880 H   0  0  0  0  0  0  0  0  0  0  0  0
   13.4810   33.2300   71.7450 H   0  0  0  0  0  0  0  0  0  0  0  0
   15.8950   33.8090   72.8920 H   0  0  0  0  0  0  0  0  0  0  0  0
   14.7580   35.0760   72.4940 H   0  0  0  0  0  0  0  0  0  0  0  0
   12.9080   33.9670   68.4950 H   0  0  0  0  0  0  0  0  0  0  0  0
   14.2280   32.7350   68.2910 H   0  0  0  0  0  0  0  0  0  0  0  0
   12.8860   32.4670   69.5050 H   0  0  0  0  0  0  0  0  0  0  0  0
   21.4990   37.0780   73.0490 H   0  0  0  0  0  0  0  0  0  0  0  0
   21.5570   38.6350   72.2380 H   0  0  0  0  0  0  0  0  0  0  0  0
  2  1  1  0  0  0  0
  3 32  1  0  0  0  0
  3  2  2  0  0  0  0
  4  3  1  0  0  0  0
  5  4  2  0  0  0  0
  5  6  1  0  0  0  0
  6  7  2  0  0  0  0
  7  2  1  0  0  0  0
  7 35  1  0  0  0  0
  8  9  2  0  0  0  0
  8  4  1  0  0  0  0
 10  9  1  0  0  0  0
 10 37  1  0  0  0  0
 11 13  1  0  0  0  0
 11 10  1  0  0  0  0
 12 11  2  0  0  0  0
 13 14  1  0  0  0  0
 15 14  2  0  0  0  0
 16 15  1  0  0  0  0
 17 16  1  0  0  0  0
 17 13  2  0  0  0  0
 18 19  1  0  0  0  0
 18 17  1  0  0  0  0
 19 24  1  0  0  0  0
 20 19  1  0  0  0  0
 20 41  1  0  0  0  0
 21 20  1  0  0  0  0
 21 42  1  0  0  0  0
 22 21  1  0  0  0  0
 22 23  1  0  0  0  0
 23 44  1  0  0  0  0
 23 45  1  0  0  0  0
 23 24  1  0  0  0  0
 24 47  1  0  0  0  0
 24 46  1  0  0  0  0
 25 50  1  0  0  0  0
 25 22  1  0  0  0  0
 26 30  1  0  0  0  0
 26 16  1  0  0  0  0
 27 26  2  0  0  0  0
 28 27  1  0  0  0  0
 28 29  1  0  0  0  0
 29 30  2  0  0  0  0
 30 31  1  0  0  0  0
 31 52  1  0  0  0  0
 31 51  1  0  0  0  0
 33  5  1  0  0  0  0
 34  6  1  0  0  0  0
 36  8  1  0  0  0  0
 38 18  1  0  0  0  0
 39 18  1  0  0  0  0
 40 20  1  0  0  0  0
 43 21  1  0  0  0  0
 48 25  1  0  0  0  0
 49 25  1  0  0  0  0
M  END
>  <Pose>
1

>  <Score>
-7.23

$$$$
