
 OpenBabel03212208413D

 63 66  0  0  1  0  0  0  0  0999 V2000
   15.8190   37.4350   70.0370 B   0  0  0  0  0  0  0  0  0  0  0  0
   15.0060   35.7430   70.3640 C   0  0  0  0  0  0  0  0  0  0  0  0
   15.7890   34.6140   70.5730 C   0  0  0  0  0  0  0  0  0  0  0  0
   15.2170   33.3850   70.8120 C   0  0  0  0  0  0  0  0  0  0  0  0
   13.8440   33.2870   70.8400 C   0  0  0  0  0  0  0  0  0  0  0  0
   13.0610   34.4050   70.6330 C   0  0  0  0  0  0  0  0  0  0  0  0
   13.6240   35.6400   70.3940 C   0  0  0  0  0  0  0  0  0  0  0  0
   16.0280   32.1750   71.0360 C   0  0  1  0  0  0  0  0  0  0  0  0
   17.4300   32.4620   71.2650 N   0  0  0  0  0  0  0  0  0  0  0  0
   17.6940   32.6030   72.6440 C   0  0  0  0  0  0  0  0  0  0  0  0
   18.6580   33.1340   73.2510 O   0  0  0  0  0  0  0  0  0  0  0  0
   16.5460   31.9660   73.3380 C   0  0  0  0  0  0  0  0  0  0  0  0
   16.4420   31.8990   74.5790 O   0  0  0  0  0  0  0  0  0  0  0  0
   15.6450   31.4760   72.3110 C   0  0  0  0  0  0  0  0  0  0  0  0
   14.7220   30.5630   72.4730 C   0  0  0  0  0  0  0  0  0  0  0  0
   13.9730   30.1400   71.3610 O   0  0  0  0  0  0  0  0  0  0  0  0
   14.4370   29.9740   73.7540 C   0  0  0  0  0  0  0  0  0  0  0  0
   15.3360   29.0020   74.2160 C   0  0  0  0  0  0  0  0  0  0  0  0
   15.1210   28.3600   75.4040 C   0  0  0  0  0  0  0  0  0  0  0  0
   14.0160   28.6370   76.2000 C   0  0  0  0  0  0  0  0  0  0  0  0
   13.1580   29.5830   75.7320 C   0  0  0  0  0  0  0  0  0  0  0  0
   13.3580   30.2390   74.5350 C   0  0  0  0  0  0  0  0  0  0  0  0
   13.8720   27.9460   77.3860 O   0  0  0  0  0  0  0  0  0  0  0  0
   14.3470   28.4910   78.6080 C   0  0  0  0  0  0  0  0  0  0  0  0
   16.0910   27.3240   75.8830 C   0  0  0  0  0  0  0  0  0  0  0  0
   18.4650   32.5870   70.2260 C   0  0  0  0  0  0  0  0  0  0  0  0
   19.7400   31.9430   70.6950 C   0  0  0  0  0  0  0  0  0  0  0  0
   20.9620   32.7860   70.5580 C   0  0  0  0  0  0  0  0  0  0  0  0
   21.2890   33.1170   69.1880 N   0  0  0  0  0  4  0  0  0  0  0  0
   20.7490   34.4060   68.8030 C   0  0  0  0  0  0  0  0  0  0  0  0
   21.8550   35.3810   68.5010 C   0  0  0  0  0  0  0  0  0  0  0  0
   22.5960   34.8640   67.4180 O   0  0  0  0  0  0  0  0  0  0  0  0
   23.2190   33.6720   67.7780 C   0  0  0  0  0  0  0  0  0  0  0  0
   22.7510   33.1140   69.0840 C   0  0  0  0  0  0  0  0  0  0  0  0
   16.8550   34.6990   70.5490 H   0  0  0  0  0  0  0  0  0  0  0  0
   13.3330   32.3470   71.0230 H   0  0  0  0  0  0  0  0  0  0  0  0
   11.9850   34.3140   70.6580 H   0  0  0  0  0  0  0  0  0  0  0  0
   13.0110   36.5140   70.2310 H   0  0  0  0  0  0  0  0  0  0  0  0
   15.9950   31.4780   70.1710 H   0  0  0  0  0  0  0  0  0  0  0  0
   16.2210   28.7580   73.6090 H   0  0  0  0  0  0  0  0  0  0  0  0
   12.2810   29.8280   76.3260 H   0  0  0  0  0  0  0  0  0  0  0  0
   12.6220   30.9760   74.1760 H   0  0  0  0  0  0  0  0  0  0  0  0
   13.9620   27.9480   79.4790 H   0  0  0  0  0  0  0  0  0  0  0  0
   14.1110   29.5790   78.7010 H   0  0  0  0  0  0  0  0  0  0  0  0
   15.4690   28.4310   78.6600 H   0  0  0  0  0  0  0  0  0  0  0  0
   16.1290   26.5590   75.0670 H   0  0  0  0  0  0  0  0  0  0  0  0
   15.7190   26.8380   76.7810 H   0  0  0  0  0  0  0  0  0  0  0  0
   17.1020   27.7540   76.0610 H   0  0  0  0  0  0  0  0  0  0  0  0
   18.6320   33.6480   69.9730 H   0  0  0  0  0  0  0  0  0  0  0  0
   18.1100   32.0060   69.3320 H   0  0  0  0  0  0  0  0  0  0  0  0
   19.6730   31.6600   71.7820 H   0  0  0  0  0  0  0  0  0  0  0  0
   19.9370   30.9960   70.1240 H   0  0  0  0  0  0  0  0  0  0  0  0
   21.8000   32.2200   71.0420 H   0  0  0  0  0  0  0  0  0  0  0  0
   20.9020   33.7420   71.1140 H   0  0  0  0  0  0  0  0  0  0  0  0
   20.9680   32.4030   68.5020 H   0  0  0  0  0  0  0  0  0  0  0  0
   20.1300   34.8430   69.6140 H   0  0  0  0  0  0  0  0  0  0  0  0
   20.1500   34.3150   67.8500 H   0  0  0  0  0  0  0  0  0  0  0  0
   21.4590   36.3430   68.1690 H   0  0  0  0  0  0  0  0  0  0  0  0
   22.5210   35.5420   69.3740 H   0  0  0  0  0  0  0  0  0  0  0  0
   23.0570   32.8980   66.9980 H   0  0  0  0  0  0  0  0  0  0  0  0
   24.3150   33.8740   67.8780 H   0  0  0  0  0  0  0  0  0  0  0  0
   23.0190   32.0160   69.0700 H   0  0  0  0  0  0  0  0  0  0  0  0
   23.2280   33.5620   69.9730 H   0  0  0  0  0  0  0  0  0  0  0  0
  1  2  1  0  0  0  0
  2  7  2  0  0  0  0
  2  3  1  0  0  0  0
  3  4  2  0  0  0  0
  4  5  1  0  0  0  0
  4  8  1  0  0  0  0
  5 36  1  0  0  0  0
  6 37  1  0  0  0  0
  6  5  2  0  0  0  0
  7  6  1  0  0  0  0
  8 39  1  6  0  0  0
  8  9  1  0  0  0  0
  8 14  1  0  0  0  0
  9 10  1  0  0  0  0
 10 11  2  0  0  0  0
 10 12  1  0  0  0  0
 12 13  2  0  0  0  0
 14 15  2  0  0  0  0
 14 12  1  0  0  0  0
 15 17  1  0  0  0  0
 16 15  1  0  0  0  0
 17 18  2  0  0  0  0
 17 22  1  0  0  0  0
 18 19  1  0  0  0  0
 19 25  1  0  0  0  0
 19 20  2  0  0  0  0
 20 23  1  0  0  0  0
 21 20  1  0  0  0  0
 21 41  1  0  0  0  0
 22 21  2  0  0  0  0
 23 24  1  0  0  0  0
 24 45  1  0  0  0  0
 24 44  1  0  0  0  0
 24 43  1  0  0  0  0
 25 48  1  0  0  0  0
 25 47  1  0  0  0  0
 26 27  1  0  0  0  0
 26  9  1  0  0  0  0
 27 51  1  0  0  0  0
 28 27  1  0  0  0  0
 28 53  1  0  0  0  0
 28 54  1  0  0  0  0
 29 28  1  0  0  0  0
 30 29  1  0  0  0  0
 30 56  1  0  0  0  0
 31 30  1  0  0  0  0
 31 59  1  0  0  0  0
 32 33  1  0  0  0  0
 32 31  1  0  0  0  0
 33 61  1  0  0  0  0
 33 34  1  0  0  0  0
 34 29  1  0  0  0  0
 34 63  1  0  0  0  0
 35  3  1  0  0  0  0
 38  7  1  0  0  0  0
 40 18  1  0  0  0  0
 42 22  1  0  0  0  0
 46 25  1  0  0  0  0
 49 26  1  0  0  0  0
 50 26  1  0  0  0  0
 52 27  1  0  0  0  0
 55 29  1  0  0  0  0
 57 30  1  0  0  0  0
 58 31  1  0  0  0  0
 60 33  1  0  0  0  0
 62 34  1  0  0  0  0
M  END
>  <Pose>
1

>  <Score>
-6.39

$$$$
