
 OpenBabel03212208413D

 62 66  0  0  1  0  0  0  0  0999 V2000
   13.1710   34.1590   71.5090 B   0  0  0  0  0  0  0  0  0  0  0  0
   15.0510   34.3450   71.1860 C   0  0  0  0  0  0  0  0  0  0  0  0
   15.9640   33.6330   71.9190 C   0  0  0  0  0  0  0  0  0  0  0  0
   17.3560   33.7330   71.7240 C   0  0  0  0  0  0  0  0  0  0  0  0
   17.7040   34.6140   70.7240 C   0  0  0  0  0  0  0  0  0  0  0  0
   16.8030   35.3400   69.9750 C   0  0  0  0  0  0  0  0  0  0  0  0
   15.4520   35.2080   70.2030 C   0  0  0  0  0  0  0  0  0  0  0  0
   18.2350   32.9400   72.5300 C   0  0  2  0  0  0  0  0  0  0  0  0
   19.6390   32.9500   72.3090 N   0  0  0  0  0  0  0  0  0  0  0  0
   20.1370   31.9430   73.2510 C   0  0  0  0  0  0  0  0  0  0  0  0
   21.2650   31.9160   73.7680 O   0  0  0  0  0  0  0  0  0  0  0  0
   19.0340   30.9870   73.4490 C   0  0  0  0  0  0  0  0  0  0  0  0
   19.0190   29.9630   74.1690 O   0  0  0  0  0  0  0  0  0  0  0  0
   17.9390   31.4800   72.6170 C   0  0  0  0  0  0  0  0  0  0  0  0
   16.9870   30.7700   72.0700 C   0  0  0  0  0  0  0  0  0  0  0  0
   16.0670   31.4550   71.2470 O   0  0  0  0  0  0  0  0  0  0  0  0
   16.8430   29.3370   72.2810 C   0  0  0  0  0  0  0  0  0  0  0  0
   16.1180   28.6310   73.1610 N   0  0  0  0  0  0  0  0  0  0  0  0
   16.3520   27.3270   72.9920 C   0  0  0  0  0  0  0  0  0  0  0  0
   17.2480   27.2060   71.9770 N   0  0  0  0  0  0  0  0  0  0  0  0
   17.5750   28.4180   71.5120 C   0  0  0  0  0  0  0  0  0  0  0  0
   18.5230   28.7300   70.4050 C   0  0  0  0  0  0  0  0  0  0  0  0
   15.7140   26.3620   73.7690 C   0  0  0  0  0  0  0  0  0  0  0  0
   14.8230   26.8100   74.7240 C   0  0  0  0  0  0  0  0  0  0  0  0
   14.6030   28.1670   74.8720 C   0  0  0  0  0  0  0  0  0  0  0  0
   15.2450   29.1000   74.0950 C   0  0  0  0  0  0  0  0  0  0  0  0
   16.0140   24.9270   73.5380 C   0  0  0  0  0  0  0  0  0  0  0  0
   20.5340   33.7220   71.4640 C   0  0  0  0  0  0  0  0  0  0  0  0
   21.4820   32.9190   70.6420 C   0  0  0  0  0  0  0  0  0  0  0  0
   21.3910   33.2140   69.2260 N   0  0  0  0  0  4  0  0  0  0  0  0
   20.7180   34.4710   68.9880 C   0  0  0  0  0  0  0  0  0  0  0  0
   21.6380   35.6300   69.3850 C   0  0  0  0  0  0  0  0  0  0  0  0
   22.7130   35.5840   68.4910 O   0  0  0  0  0  0  0  0  0  0  0  0
   23.4610   34.4460   68.8560 C   0  0  0  0  0  0  0  0  0  0  0  0
   22.6930   33.1730   68.5890 C   0  0  0  0  0  0  0  0  0  0  0  0
   15.5770   32.9600   72.6910 H   0  0  0  0  0  0  0  0  0  0  0  0
   18.7300   34.7400   70.4970 H   0  0  0  0  0  0  0  0  0  0  0  0
   17.1150   36.0220   69.1990 H   0  0  0  0  0  0  0  0  0  0  0  0
   14.7060   35.7500   69.6480 H   0  0  0  0  0  0  0  0  0  0  0  0
   18.1140   33.2840   73.6150 H   0  0  0  0  0  0  0  0  0  0  0  0
   19.5270   28.8950   70.8450 H   0  0  0  0  0  0  0  0  0  0  0  0
   18.1890   29.6620   69.9340 H   0  0  0  0  0  0  0  0  0  0  0  0
   18.5450   27.8820   69.6750 H   0  0  0  0  0  0  0  0  0  0  0  0
   14.3050   26.0760   75.3510 H   0  0  0  0  0  0  0  0  0  0  0  0
   13.9080   28.5260   75.6170 H   0  0  0  0  0  0  0  0  0  0  0  0
   15.0840   30.1590   74.1990 H   0  0  0  0  0  0  0  0  0  0  0  0
   15.5260   24.3180   74.3270 H   0  0  0  0  0  0  0  0  0  0  0  0
   17.1220   24.7710   73.5850 H   0  0  0  0  0  0  0  0  0  0  0  0
   15.6510   24.5580   72.5750 H   0  0  0  0  0  0  0  0  0  0  0  0
   19.8970   34.3060   70.7600 H   0  0  0  0  0  0  0  0  0  0  0  0
   21.0570   34.5020   72.0770 H   0  0  0  0  0  0  0  0  0  0  0  0
   22.5180   33.2550   70.9730 H   0  0  0  0  0  0  0  0  0  0  0  0
   21.4810   31.8500   70.7530 H   0  0  0  0  0  0  0  0  0  0  0  0
   20.8100   32.4740   68.7610 H   0  0  0  0  0  0  0  0  0  0  0  0
   19.8620   34.5140   69.6890 H   0  0  0  0  0  0  0  0  0  0  0  0
   20.3350   34.5690   67.9730 H   0  0  0  0  0  0  0  0  0  0  0  0
   21.0940   36.5790   69.3630 H   0  0  0  0  0  0  0  0  0  0  0  0
   22.0530   35.4040   70.3800 H   0  0  0  0  0  0  0  0  0  0  0  0
   23.5930   34.5110   69.9640 H   0  0  0  0  0  0  0  0  0  0  0  0
   24.4230   34.4030   68.3440 H   0  0  0  0  0  0  0  0  0  0  0  0
   23.2620   32.3500   69.0700 H   0  0  0  0  0  0  0  0  0  0  0  0
   22.6240   32.9290   67.5110 H   0  0  0  0  0  0  0  0  0  0  0  0
  2  1  1  0  0  0  0
  2  3  1  0  0  0  0
  3 36  1  0  0  0  0
  4  3  2  0  0  0  0
  4  8  1  0  0  0  0
  5  4  1  0  0  0  0
  6  7  1  0  0  0  0
  6  5  2  0  0  0  0
  7  2  2  0  0  0  0
  8 14  1  0  0  0  0
  8 40  1  1  0  0  0
  9  8  1  0  0  0  0
  9 10  1  0  0  0  0
 10 12  1  0  0  0  0
 10 11  2  0  0  0  0
 12 13  2  0  0  0  0
 14 12  1  0  0  0  0
 15 17  1  0  0  0  0
 15 14  2  0  0  0  0
 16 15  1  0  0  0  0
 17 18  1  0  0  0  0
 18 26  1  0  0  0  0
 19 18  1  0  0  0  0
 19 23  1  0  0  0  0
 20 19  2  0  0  0  0
 21 20  1  0  0  0  0
 21 17  2  0  0  0  0
 22 41  1  0  0  0  0
 22 21  1  0  0  0  0
 23 24  2  0  0  0  0
 24 25  1  0  0  0  0
 24 44  1  0  0  0  0
 25 45  1  0  0  0  0
 26 46  1  0  0  0  0
 26 25  2  0  0  0  0
 27 48  1  0  0  0  0
 27 23  1  0  0  0  0
 27 47  1  0  0  0  0
 28 51  1  0  0  0  0
 28  9  1  0  0  0  0
 29 53  1  0  0  0  0
 29 52  1  0  0  0  0
 29 28  1  0  0  0  0
 30 29  1  0  0  0  0
 31 30  1  0  0  0  0
 31 32  1  0  0  0  0
 31 55  1  0  0  0  0
 32 58  1  0  0  0  0
 33 34  1  0  0  0  0
 33 32  1  0  0  0  0
 34 59  1  0  0  0  0
 35 34  1  0  0  0  0
 35 61  1  0  0  0  0
 35 30  1  0  0  0  0
 37  5  1  0  0  0  0
 38  6  1  0  0  0  0
 39  7  1  0  0  0  0
 42 22  1  0  0  0  0
 43 22  1  0  0  0  0
 49 27  1  0  0  0  0
 50 28  1  0  0  0  0
 54 30  1  0  0  0  0
 56 31  1  0  0  0  0
 57 32  1  0  0  0  0
 60 34  1  0  0  0  0
 62 35  1  0  0  0  0
M  END
>  <Pose>
1

>  <Score>
-6.34

$$$$
