
 OpenBabel03212208413D

 53 56  0  0  1  0  0  0  0  0999 V2000
   12.6850   34.4230   70.5370 B   0  0  0  0  0  0  0  0  0  0  0  0
   14.5520   34.8490   70.6520 C   0  0  0  0  0  0  0  0  0  0  0  0
   15.4370   34.0420   71.3500 C   0  0  0  0  0  0  0  0  0  0  0  0
   16.7820   34.3210   71.4530 C   0  0  0  0  0  0  0  0  0  0  0  0
   17.2450   35.4610   70.8250 C   0  0  0  0  0  0  0  0  0  0  0  0
   16.3670   36.2860   70.1170 C   0  0  0  0  0  0  0  0  0  0  0  0
   15.0200   35.9870   70.0270 C   0  0  0  0  0  0  0  0  0  0  0  0
   17.6880   33.4140   72.2190 C   0  0  2  0  0  0  0  0  0  0  0  0
   18.7940   32.9540   71.3930 N   0  0  0  0  0  0  0  0  0  0  0  0
   18.1700   31.9820   70.5210 C   0  0  0  0  0  0  0  0  0  0  0  0
   18.5720   31.6290   69.3920 O   0  0  0  0  0  0  0  0  0  0  0  0
   16.9750   31.4670   71.1750 C   0  0  0  0  0  0  0  0  0  0  0  0
   16.1260   30.6180   70.7980 O   0  0  0  0  0  0  0  0  0  0  0  0
   16.8970   32.1540   72.4630 C   0  0  0  0  0  0  0  0  0  0  0  0
   16.2830   31.7990   73.5560 C   0  0  0  0  0  0  0  0  0  0  0  0
   16.3380   32.6750   74.6610 O   0  0  0  0  0  0  0  0  0  0  0  0
   15.5680   30.5390   73.6290 C   0  0  0  0  0  0  0  0  0  0  0  0
   14.2800   30.4300   73.4370 O   0  0  0  0  0  0  0  0  0  0  0  0
   13.8860   29.1930   73.5630 C   0  0  0  0  0  0  0  0  0  0  0  0
   14.9740   28.4290   73.8550 C   0  0  0  0  0  0  0  0  0  0  0  0
   16.0710   29.2970   73.9020 C   0  0  0  0  0  0  0  0  0  0  0  0
   20.1830   33.3280   71.3650 C   0  0  0  0  0  0  0  0  0  0  0  0
   20.6070   34.0120   70.0850 C   0  0  0  0  0  0  0  0  0  0  0  0
   21.9440   33.5310   69.6840 C   0  0  0  0  0  0  0  0  0  0  0  0
   22.1880   33.5100   68.2600 N   0  0  0  0  0  4  0  0  0  0  0  0
   21.5530   34.6110   67.5730 C   0  0  0  0  0  0  0  0  0  0  0  0
   22.4290   35.7880   67.3310 C   0  0  0  0  0  0  0  0  0  0  0  0
   23.7160   35.4990   66.9300 O   0  0  0  0  0  0  0  0  0  0  0  0
   24.3510   34.5580   67.7290 C   0  0  0  0  0  0  0  0  0  0  0  0
   23.5410   33.2950   67.8710 C   0  0  0  0  0  0  0  0  0  0  0  0
   15.0620   33.1460   71.8420 H   0  0  0  0  0  0  0  0  0  0  0  0
   18.2960   35.6910   70.8980 H   0  0  0  0  0  0  0  0  0  0  0  0
   16.7410   37.1680   69.6340 H   0  0  0  0  0  0  0  0  0  0  0  0
   14.3180   36.6070   69.4860 H   0  0  0  0  0  0  0  0  0  0  0  0
   17.9650   33.8060   73.1900 H   0  0  0  0  0  0  0  0  0  0  0  0
   12.8500   28.8660   73.4440 H   0  0  0  0  0  0  0  0  0  0  0  0
   14.9920   27.3690   74.0200 H   0  0  0  0  0  0  0  0  0  0  0  0
   17.0740   28.9780   74.1240 H   0  0  0  0  0  0  0  0  0  0  0  0
   20.3840   34.0630   72.2010 H   0  0  0  0  0  0  0  0  0  0  0  0
   20.8550   32.4710   71.6110 H   0  0  0  0  0  0  0  0  0  0  0  0
   20.6700   35.1090   70.2750 H   0  0  0  0  0  0  0  0  0  0  0  0
   19.7960   33.7690   69.3620 H   0  0  0  0  0  0  0  0  0  0  0  0
   22.1440   32.4800   70.0200 H   0  0  0  0  0  0  0  0  0  0  0  0
   22.7150   34.1570   70.1760 H   0  0  0  0  0  0  0  0  0  0  0  0
   21.6530   32.6490   67.9230 H   0  0  0  0  0  0  0  0  0  0  0  0
   21.1210   34.2840   66.6000 H   0  0  0  0  0  0  0  0  0  0  0  0
   20.6880   34.9380   68.1910 H   0  0  0  0  0  0  0  0  0  0  0  0
   21.9660   36.3760   66.4820 H   0  0  0  0  0  0  0  0  0  0  0  0
   22.4150   36.5300   68.1840 H   0  0  0  0  0  0  0  0  0  0  0  0
   25.2900   34.2700   67.1880 H   0  0  0  0  0  0  0  0  0  0  0  0
   24.6580   34.9260   68.7110 H   0  0  0  0  0  0  0  0  0  0  0  0
   23.5600   32.8190   66.8430 H   0  0  0  0  0  0  0  0  0  0  0  0
   24.0520   32.5870   68.5170 H   0  0  0  0  0  0  0  0  0  0  0  0
  1  2  1  0  0  0  0
  2  3  1  0  0  0  0
  3  4  2  0  0  0  0
  3 31  1  0  0  0  0
  4  8  1  0  0  0  0
  5 32  1  0  0  0  0
  5  4  1  0  0  0  0
  6  5  2  0  0  0  0
  7  6  1  0  0  0  0
  7  2  2  0  0  0  0
  8 14  1  0  0  0  0
  8 35  1  1  0  0  0
  9  8  1  0  0  0  0
 10 12  1  0  0  0  0
 10  9  1  0  0  0  0
 11 10  2  0  0  0  0
 12 14  1  0  0  0  0
 13 12  2  0  0  0  0
 14 15  2  0  0  0  0
 15 17  1  0  0  0  0
 15 16  1  0  0  0  0
 17 21  2  0  0  0  0
 18 19  1  0  0  0  0
 18 17  1  0  0  0  0
 19 20  2  0  0  0  0
 20 21  1  0  0  0  0
 20 37  1  0  0  0  0
 21 38  1  0  0  0  0
 22  9  1  0  0  0  0
 22 40  1  0  0  0  0
 22 39  1  0  0  0  0
 23 41  1  0  0  0  0
 23 22  1  0  0  0  0
 24 43  1  0  0  0  0
 24 23  1  0  0  0  0
 24 44  1  0  0  0  0
 25 24  1  0  0  0  0
 26 47  1  0  0  0  0
 26 25  1  0  0  0  0
 27 26  1  0  0  0  0
 27 49  1  0  0  0  0
 28 27  1  0  0  0  0
 28 29  1  0  0  0  0
 29 30  1  0  0  0  0
 29 51  1  0  0  0  0
 30 25  1  0  0  0  0
 30 53  1  0  0  0  0
 33  6  1  0  0  0  0
 34  7  1  0  0  0  0
 36 19  1  0  0  0  0
 42 23  1  0  0  0  0
 45 25  1  0  0  0  0
 46 26  1  0  0  0  0
 48 27  1  0  0  0  0
 50 29  1  0  0  0  0
 52 30  1  0  0  0  0
M  END
>  <Pose>
1

>  <Score>
-6.05

$$$$
