
 OpenBabel03212208413D

 37 40  0  0  1  0  0  0  0  0999 V2000
   21.8710   32.8850   71.0040 B   0  0  0  0  0  0  0  0  0  0  0  0
   20.8150   31.8120   72.1740 C   0  0  0  0  0  0  0  0  0  0  0  0
   19.4570   31.6770   72.0320 C   0  0  0  0  0  0  0  0  0  0  0  0
   18.6620   30.8980   72.8700 C   0  0  0  0  0  0  0  0  0  0  0  0
   19.3360   30.2440   73.8900 C   0  0  0  0  0  0  0  0  0  0  0  0
   20.6960   30.3730   74.0420 C   0  0  0  0  0  0  0  0  0  0  0  0
   21.4740   31.1550   73.1930 C   0  0  0  0  0  0  0  0  0  0  0  0
   17.2650   30.7880   72.6870 N   0  0  0  0  0  0  0  0  0  0  0  0
   16.4540   29.6070   72.5240 C   0  0  0  0  0  0  0  0  0  0  0  0
   16.9090   28.4940   72.1340 O   0  0  0  0  0  0  0  0  0  0  0  0
   15.0720   29.9210   72.8780 C   0  0  2  0  0  0  0  0  0  0  0  0
   14.0720   29.3210   72.1630 O   0  0  0  0  0  0  0  0  0  0  0  0
   13.0950   30.3130   72.1360 N   0  0  0  0  0  0  0  0  0  0  0  0
   13.7360   31.5540   71.9620 C   0  0  0  0  0  0  0  0  0  0  0  0
   14.9840   31.3540   72.4080 C   0  0  0  0  0  0  0  0  0  0  0  0
   16.3290   31.8780   72.6140 C   0  0  0  0  0  0  0  0  0  0  0  0
   16.6240   33.0880   72.7090 O   0  0  0  0  0  0  0  0  0  0  0  0
   13.1930   32.8110   71.4690 C   0  0  0  0  0  0  0  0  0  0  0  0
   13.9230   33.7630   70.7510 C   0  0  0  0  0  0  0  0  0  0  0  0
   13.1150   34.7590   70.4420 N   0  0  0  0  0  0  0  0  0  0  0  0
   11.9070   34.4870   70.9280 N   0  0  0  0  0  0  0  0  0  0  0  0
   11.9280   33.3210   71.5520 C   0  0  0  0  0  0  0  0  0  0  0  0
   13.4620   35.9690   69.6990 C   0  0  0  0  0  0  0  0  0  0  0  0
   15.3640   33.6890   70.4160 C   0  0  0  0  0  0  0  0  0  0  0  0
   18.9280   32.1920   71.2370 H   0  0  0  0  0  0  0  0  0  0  0  0
   18.7580   29.6260   74.5680 H   0  0  0  0  0  0  0  0  0  0  0  0
   21.2560   29.8690   74.8400 H   0  0  0  0  0  0  0  0  0  0  0  0
   22.5390   31.2500   73.3240 H   0  0  0  0  0  0  0  0  0  0  0  0
   14.9030   29.8680   73.9770 H   0  0  0  0  0  0  0  0  0  0  0  0
   12.0820   30.1650   72.2270 H   0  0  0  0  0  0  0  0  0  0  0  0
   11.1000   32.8450   72.0430 H   0  0  0  0  0  0  0  0  0  0  0  0
   12.7540   36.0970   68.8400 H   0  0  0  0  0  0  0  0  0  0  0  0
   13.4670   36.8730   70.3310 H   0  0  0  0  0  0  0  0  0  0  0  0
   14.4850   35.8370   69.2690 H   0  0  0  0  0  0  0  0  0  0  0  0
   15.8650   32.8590   70.9710 H   0  0  0  0  0  0  0  0  0  0  0  0
   15.4470   33.5970   69.3190 H   0  0  0  0  0  0  0  0  0  0  0  0
   15.8040   34.6540   70.7270 H   0  0  0  0  0  0  0  0  0  0  0  0
  1  2  1  0  0  0  0
  2  7  1  0  0  0  0
  3  2  2  0  0  0  0
  3  4  1  0  0  0  0
  4  5  2  0  0  0  0
  5  6  1  0  0  0  0
  5 26  1  0  0  0  0
  6 27  1  0  0  0  0
  7 28  1  0  0  0  0
  7  6  2  0  0  0  0
  8  4  1  0  0  0  0
  9  8  1  0  0  0  0
  9 11  1  0  0  0  0
 10  9  2  0  0  0  0
 11 29  1  1  0  0  0
 12 11  1  0  0  0  0
 13 12  1  0  0  0  0
 13 30  1  0  0  0  0
 14 13  1  0  0  0  0
 14 15  2  0  0  0  0
 15 16  1  0  0  0  0
 15 11  1  0  0  0  0
 16  8  1  0  0  0  0
 16 17  2  0  0  0  0
 18 22  1  0  0  0  0
 18 14  1  0  0  0  0
 19 18  2  0  0  0  0
 20 19  1  0  0  0  0
 20 21  1  0  0  0  0
 21 22  2  0  0  0  0
 22 31  1  0  0  0  0
 23 33  1  0  0  0  0
 23 20  1  0  0  0  0
 24 37  1  0  0  0  0
 24 19  1  0  0  0  0
 24 35  1  0  0  0  0
 25  3  1  0  0  0  0
 32 23  1  0  0  0  0
 34 23  1  0  0  0  0
 36 24  1  0  0  0  0
M  END
>  <Pose>
1

>  <Score>
-6.54

$$$$
