
 OpenBabel03212208413D

 52 55  0  0  1  0  0  0  0  0999 V2000
   24.6940   36.0120   64.6810 B   0  0  0  0  0  0  0  0  0  0  0  0
   23.4370   36.5120   66.0000 C   0  0  0  0  0  0  0  0  0  0  0  0
   23.1680   35.6380   67.0480 C   0  0  0  0  0  0  0  0  0  0  0  0
   22.2620   35.9330   68.0490 C   0  0  0  0  0  0  0  0  0  0  0  0
   21.6350   37.1560   67.9500 C   0  0  0  0  0  0  0  0  0  0  0  0
   21.8540   38.0700   66.9400 C   0  0  0  0  0  0  0  0  0  0  0  0
   22.7660   37.7330   65.9630 C   0  0  0  0  0  0  0  0  0  0  0  0
   22.0380   35.0050   69.0920 N   0  0  0  0  0  0  0  0  0  0  0  0
   21.6220   35.3590   70.4410 C   0  0  0  0  0  0  0  0  0  0  0  0
   20.4980   34.3090   70.5660 C   0  0  1  0  0  0  0  0  0  0  0  0
   21.3670   33.0720   70.3130 C   0  0  0  0  0  0  0  0  0  0  0  0
   22.1300   33.5860   69.1430 C   0  0  0  0  0  0  0  0  0  0  0  0
   22.7600   32.8770   68.3240 O   0  0  0  0  0  0  0  0  0  0  0  0
   19.8660   34.3300   71.8710 C   0  0  0  0  0  0  0  0  0  0  0  0
   20.2300   35.2080   72.6930 O   0  0  0  0  0  0  0  0  0  0  0  0
   18.8700   33.3820   72.1860 N   0  0  0  0  0  0  0  0  0  0  0  0
   18.7660   32.0840   71.5330 C   0  0  0  0  0  0  0  0  0  0  0  0
   17.3100   31.6370   71.5620 C   0  0  0  0  0  0  0  0  0  0  0  0
   16.3810   32.7490   71.6050 N   0  0  0  0  0  0  0  0  0  0  0  0
   16.4920   33.4030   72.8620 C   0  0  0  0  0  0  0  0  0  0  0  0
   17.8980   33.7410   73.2260 C   0  0  0  0  0  0  0  0  0  0  0  0
   16.4480   33.5590   70.4410 C   0  0  0  0  0  0  0  0  0  0  0  0
   15.2950   33.3650   69.4890 C   0  0  0  0  0  0  0  0  0  0  0  0
   14.0540   33.9170   69.9530 N   0  0  0  0  0  0  0  0  0  0  0  0
   13.2680   33.4820   70.9390 C   0  0  0  0  0  0  0  0  0  0  0  0
   12.1890   34.2860   71.0430 N   0  0  0  0  0  0  0  0  0  0  0  0
   12.2900   35.2440   70.1140 C   0  0  0  0  0  0  0  0  0  0  0  0
   13.4620   35.0030   69.4360 C   0  0  0  0  0  0  0  0  0  0  0  0
   23.6760   34.6900   67.0950 H   0  0  0  0  0  0  0  0  0  0  0  0
   20.9210   37.4220   68.7120 H   0  0  0  0  0  0  0  0  0  0  0  0
   21.3540   39.0270   66.8750 H   0  0  0  0  0  0  0  0  0  0  0  0
   22.9770   38.4170   65.1440 H   0  0  0  0  0  0  0  0  0  0  0  0
   21.2030   36.3790   70.5040 H   0  0  0  0  0  0  0  0  0  0  0  0
   22.4340   35.1500   71.1460 H   0  0  0  0  0  0  0  0  0  0  0  0
   19.8560   34.4800   69.7000 H   0  0  0  0  0  0  0  0  0  0  0  0
   22.0050   32.8750   71.1940 H   0  0  0  0  0  0  0  0  0  0  0  0
   20.7440   32.2000   70.0520 H   0  0  0  0  0  0  0  0  0  0  0  0
   19.4090   31.3860   72.1050 H   0  0  0  0  0  0  0  0  0  0  0  0
   19.0870   32.0700   70.4940 H   0  0  0  0  0  0  0  0  0  0  0  0
   17.1660   31.0290   72.4540 H   0  0  0  0  0  0  0  0  0  0  0  0
   17.0570   31.0010   70.6860 H   0  0  0  0  0  0  0  0  0  0  0  0
   15.8520   34.3180   72.8790 H   0  0  0  0  0  0  0  0  0  0  0  0
   16.0610   32.6970   73.6270 H   0  0  0  0  0  0  0  0  0  0  0  0
   17.9660   34.8250   73.4620 H   0  0  0  0  0  0  0  0  0  0  0  0
   18.1750   33.1690   74.1610 H   0  0  0  0  0  0  0  0  0  0  0  0
   16.4620   34.6520   70.6780 H   0  0  0  0  0  0  0  0  0  0  0  0
   17.4050   33.3600   69.8730 H   0  0  0  0  0  0  0  0  0  0  0  0
   15.5760   33.7530   68.4750 H   0  0  0  0  0  0  0  0  0  0  0  0
   15.2030   32.2500   69.3370 H   0  0  0  0  0  0  0  0  0  0  0  0
   13.4280   32.6340   71.5760 H   0  0  0  0  0  0  0  0  0  0  0  0
   11.5630   36.0470   69.9500 H   0  0  0  0  0  0  0  0  0  0  0  0
   13.8000   35.6370   68.6140 H   0  0  0  0  0  0  0  0  0  0  0  0
  1  2  1  0  0  0  0
  2  3  1  0  0  0  0
  3 29  1  0  0  0  0
  3  4  2  0  0  0  0
  4  8  1  0  0  0  0
  5  4  1  0  0  0  0
  5 30  1  0  0  0  0
  6  5  2  0  0  0  0
  7  2  2  0  0  0  0
  7  6  1  0  0  0  0
  8 12  1  0  0  0  0
  8  9  1  0  0  0  0
  9 33  1  0  0  0  0
  9 10  1  0  0  0  0
  9 34  1  0  0  0  0
 10 35  1  6  0  0  0
 10 14  1  0  0  0  0
 11 10  1  0  0  0  0
 11 36  1  0  0  0  0
 12 11  1  0  0  0  0
 13 12  2  0  0  0  0
 14 16  1  0  0  0  0
 14 15  2  0  0  0  0
 16 21  1  0  0  0  0
 17 18  1  0  0  0  0
 17 38  1  0  0  0  0
 17 16  1  0  0  0  0
 18 19  1  0  0  0  0
 18 40  1  0  0  0  0
 19 20  1  0  0  0  0
 20 42  1  0  0  0  0
 20 21  1  0  0  0  0
 20 43  1  0  0  0  0
 21 44  1  0  0  0  0
 21 45  1  0  0  0  0
 22 46  1  0  0  0  0
 22 19  1  0  0  0  0
 23 24  1  0  0  0  0
 23 22  1  0  0  0  0
 24 25  1  0  0  0  0
 25 26  2  0  0  0  0
 25 50  1  0  0  0  0
 27 26  1  0  0  0  0
 28 24  1  0  0  0  0
 28 27  2  0  0  0  0
 31  6  1  0  0  0  0
 32  7  1  0  0  0  0
 37 11  1  0  0  0  0
 39 17  1  0  0  0  0
 41 18  1  0  0  0  0
 47 22  1  0  0  0  0
 48 23  1  0  0  0  0
 49 23  1  0  0  0  0
 51 27  1  0  0  0  0
 52 28  1  0  0  0  0
M  END
>  <Pose>
1

>  <Score>
-6.50

$$$$
