
 OpenBabel03212208413D

 58 61  0  0  1  0  0  0  0  0999 V2000
   25.1000   27.9100   73.0530 B   0  0  0  0  0  0  0  0  0  0  0  0
   23.9300   29.2260   72.3430 C   0  0  0  0  0  0  0  0  0  0  0  0
   22.9320   28.8320   71.4840 C   0  0  0  0  0  0  0  0  0  0  0  0
   22.0810   29.7720   70.9640 C   0  0  0  0  0  0  0  0  0  0  0  0
   22.1950   31.1300   71.2840 C   0  0  0  0  0  0  0  0  0  0  0  0
   23.2180   31.4580   72.1510 C   0  0  0  0  0  0  0  0  0  0  0  0
   24.0950   30.5390   72.6950 C   0  0  0  0  0  0  0  0  0  0  0  0
   21.2770   32.1040   70.7250 C   0  0  0  0  0  0  0  0  0  0  0  0
   21.6860   32.8690   69.8270 O   0  0  0  0  0  0  0  0  0  0  0  0
   19.9110   32.1780   71.2110 C   0  0  2  0  0  0  0  0  0  0  0  0
   19.1040   33.3400   70.6860 C   0  0  1  0  0  0  0  0  0  0  0  0
   17.9640   33.3440   71.5740 N   0  0  0  0  0  0  0  0  0  0  0  0
   18.4470   32.9280   72.8470 C   0  0  0  0  0  0  0  0  0  0  0  0
   17.7870   32.9380   73.9320 O   0  0  0  0  0  0  0  0  0  0  0  0
   19.8460   32.4870   72.6870 C   0  0  0  0  0  0  0  0  0  0  0  0
   20.7170   32.4040   73.5680 O   0  0  0  0  0  0  0  0  0  0  0  0
   16.5880   33.6840   71.3120 C   0  0  0  0  0  0  0  0  0  0  0  0
   16.3520   35.1560   71.1600 C   0  0  0  0  0  0  0  0  0  0  0  0
   15.8570   35.5680   69.9030 N   0  0  0  0  0  4  0  0  0  0  0  0
   16.4770   36.8540   69.5700 C   0  0  0  0  0  0  0  0  0  0  0  0
   15.9730   37.9710   70.4230 C   0  0  0  0  0  0  0  0  0  0  0  0
   14.8310   37.6850   71.1310 O   0  0  0  0  0  0  0  0  0  0  0  0
   13.9180   37.0140   70.3570 C   0  0  0  0  0  0  0  0  0  0  0  0
   14.4510   35.7260   69.7900 C   0  0  0  0  0  0  0  0  0  0  0  0
   19.8270   34.6010   70.6310 C   0  0  0  0  0  0  0  0  0  0  0  0
   20.1030   35.2470   69.4170 C   0  0  0  0  0  0  0  0  0  0  0  0
   20.7860   36.4450   69.3730 C   0  0  0  0  0  0  0  0  0  0  0  0
   21.2250   37.0590   70.5310 C   0  0  0  0  0  0  0  0  0  0  0  0
   20.9640   36.4410   71.7360 C   0  0  0  0  0  0  0  0  0  0  0  0
   20.2770   35.2370   71.7640 C   0  0  0  0  0  0  0  0  0  0  0  0
   21.9150   38.2640   70.5150 O   0  0  0  0  0  0  0  0  0  0  0  0
   21.0620   37.0880   68.1790 O   0  0  0  0  0  0  0  0  0  0  0  0
   21.0270   36.4520   66.9270 C   0  0  0  0  0  0  0  0  0  0  0  0
   22.8470   27.7900   71.2410 H   0  0  0  0  0  0  0  0  0  0  0  0
   21.2800   29.5170   70.2860 H   0  0  0  0  0  0  0  0  0  0  0  0
   23.3720   32.4850   72.4520 H   0  0  0  0  0  0  0  0  0  0  0  0
   24.8820   30.8120   73.3670 H   0  0  0  0  0  0  0  0  0  0  0  0
   19.3310   31.2400   71.0810 H   0  0  0  0  0  0  0  0  0  0  0  0
   18.8220   33.0660   69.6460 H   0  0  0  0  0  0  0  0  0  0  0  0
   16.0070   33.3560   72.2170 H   0  0  0  0  0  0  0  0  0  0  0  0
   16.1540   33.1670   70.4560 H   0  0  0  0  0  0  0  0  0  0  0  0
   17.2970   35.7390   71.3660 H   0  0  0  0  0  0  0  0  0  0  0  0
   15.6510   35.4640   71.9620 H   0  0  0  0  0  0  0  0  0  0  0  0
   16.1750   34.9130   69.1350 H   0  0  0  0  0  0  0  0  0  0  0  0
   17.5800   36.7810   69.5410 H   0  0  0  0  0  0  0  0  0  0  0  0
   16.1530   37.0720   68.5150 H   0  0  0  0  0  0  0  0  0  0  0  0
   16.7690   38.2240   71.1660 H   0  0  0  0  0  0  0  0  0  0  0  0
   15.7510   38.8960   69.8150 H   0  0  0  0  0  0  0  0  0  0  0  0
   12.9850   36.8440   70.9700 H   0  0  0  0  0  0  0  0  0  0  0  0
   13.5820   37.7280   69.5550 H   0  0  0  0  0  0  0  0  0  0  0  0
   13.8470   34.9000   70.2080 H   0  0  0  0  0  0  0  0  0  0  0  0
   14.2030   35.7400   68.6870 H   0  0  0  0  0  0  0  0  0  0  0  0
   19.7580   34.7650   68.5040 H   0  0  0  0  0  0  0  0  0  0  0  0
   21.3140   36.9300   72.6350 H   0  0  0  0  0  0  0  0  0  0  0  0
   20.0990   34.8020   72.7140 H   0  0  0  0  0  0  0  0  0  0  0  0
   21.6040   35.4900   66.9300 H   0  0  0  0  0  0  0  0  0  0  0  0
   21.5510   37.1040   66.1950 H   0  0  0  0  0  0  0  0  0  0  0  0
   20.0180   36.2640   66.5440 H   0  0  0  0  0  0  0  0  0  0  0  0
  2  7  1  0  0  0  0
  2  1  1  0  0  0  0
  3  2  2  0  0  0  0
  4  5  2  0  0  0  0
  4  3  1  0  0  0  0
  5  6  1  0  0  0  0
  6 36  1  0  0  0  0
  6  7  2  0  0  0  0
  7 37  1  0  0  0  0
  8 10  1  0  0  0  0
  8  5  1  0  0  0  0
  9  8  2  0  0  0  0
 10 38  1  6  0  0  0
 10 15  1  0  0  0  0
 11 39  1  6  0  0  0
 11 10  1  0  0  0  0
 11 12  1  0  0  0  0
 12 13  1  0  0  0  0
 13 14  2  0  0  0  0
 15 13  1  0  0  0  0
 15 16  2  0  0  0  0
 17 12  1  0  0  0  0
 17 40  1  0  0  0  0
 18 17  1  0  0  0  0
 18 42  1  0  0  0  0
 18 43  1  0  0  0  0
 19 18  1  0  0  0  0
 20 19  1  0  0  0  0
 20 21  1  0  0  0  0
 21 22  1  0  0  0  0
 21 47  1  0  0  0  0
 23 49  1  0  0  0  0
 23 22  1  0  0  0  0
 24 19  1  0  0  0  0
 24 51  1  0  0  0  0
 24 23  1  0  0  0  0
 25 11  1  0  0  0  0
 25 30  1  0  0  0  0
 26 25  2  0  0  0  0
 27 26  1  0  0  0  0
 27 28  2  0  0  0  0
 28 29  1  0  0  0  0
 29 30  2  0  0  0  0
 29 54  1  0  0  0  0
 30 55  1  0  0  0  0
 31 28  1  0  0  0  0
 32 27  1  0  0  0  0
 33 56  1  0  0  0  0
 33 32  1  0  0  0  0
 34  3  1  0  0  0  0
 35  4  1  0  0  0  0
 41 17  1  0  0  0  0
 44 19  1  0  0  0  0
 45 20  1  0  0  0  0
 46 20  1  0  0  0  0
 48 21  1  0  0  0  0
 50 23  1  0  0  0  0
 52 24  1  0  0  0  0
 53 26  1  0  0  0  0
 57 33  1  0  0  0  0
 58 33  1  0  0  0  0
M  END
>  <Pose>
1

>  <Score>
-6.12

$$$$
