
 OpenBabel03212208413D

 41 44  0  0  1  0  0  0  0  0999 V2000
   13.7600   36.6030   70.1610 B   0  0  0  0  0  0  0  0  0  0  0  0
   14.4590   34.8860   70.6170 C   0  0  0  0  0  0  0  0  0  0  0  0
   15.8150   34.6760   70.7390 C   0  0  0  0  0  0  0  0  0  0  0  0
   16.3650   33.4570   71.0650 C   0  0  0  0  0  0  0  0  0  0  0  0
   15.5540   32.3750   71.2860 C   0  0  0  0  0  0  0  0  0  0  0  0
   14.1880   32.5730   71.1660 C   0  0  0  0  0  0  0  0  0  0  0  0
   13.6470   33.7950   70.8400 C   0  0  0  0  0  0  0  0  0  0  0  0
   16.0740   31.0700   71.6260 C   0  0  0  0  0  0  0  0  0  0  0  0
   15.9690   30.1380   70.7640 O   0  0  0  0  0  0  0  0  0  0  0  0
   16.7210   30.7150   72.8970 C   0  0  1  0  0  0  0  0  0  0  0  0
   17.0880   29.3080   72.9310 N   0  0  0  0  0  0  0  0  0  0  0  0
   16.8910   28.1920   72.1430 N   0  0  0  0  0  0  0  0  0  0  0  0
   17.4460   27.0540   72.3690 C   0  0  0  0  0  0  0  0  0  0  0  0
   18.3210   26.8980   73.5080 C   0  0  0  0  0  0  0  0  0  0  0  0
   18.5360   27.9070   74.3210 C   0  0  0  0  0  0  0  0  0  0  0  0
   17.9120   29.2030   74.1320 C   0  0  1  0  0  0  0  0  0  0  0  0
   18.8310   30.3590   73.9540 C   0  0  2  0  0  0  0  0  0  0  0  0
   18.0810   31.3570   73.0650 C   0  0  1  0  0  0  0  0  0  0  0  0
   18.8590   31.3830   71.8280 C   0  0  0  0  0  0  0  0  0  0  0  0
   18.4700   31.8610   70.7270 O   0  0  0  0  0  0  0  0  0  0  0  0
   20.1170   30.7820   72.0660 N   0  0  0  0  0  0  0  0  0  0  0  0
   20.0840   30.0220   73.2670 C   0  0  0  0  0  0  0  0  0  0  0  0
   20.9550   29.2140   73.6710 O   0  0  0  0  0  0  0  0  0  0  0  0
   21.2840   30.9080   71.2250 C   0  0  0  0  0  0  0  0  0  0  0  0
   21.4910   32.2930   70.6900 C   0  0  0  0  0  0  0  0  0  0  0  0
   16.5010   35.5140   70.5710 H   0  0  0  0  0  0  0  0  0  0  0  0
   17.4500   33.3220   71.1590 H   0  0  0  0  0  0  0  0  0  0  0  0
   13.5100   31.7220   71.3370 H   0  0  0  0  0  0  0  0  0  0  0  0
   12.5780   33.9080   70.7560 H   0  0  0  0  0  0  0  0  0  0  0  0
   16.0850   31.0150   73.7250 H   0  0  0  0  0  0  0  0  0  0  0  0
   17.2820   26.1790   71.7210 H   0  0  0  0  0  0  0  0  0  0  0  0
   18.7940   25.9270   73.6730 H   0  0  0  0  0  0  0  0  0  0  0  0
   19.2040   27.7710   75.1640 H   0  0  0  0  0  0  0  0  0  0  0  0
   17.1940   29.3720   74.9870 H   0  0  0  0  0  0  0  0  0  0  0  0
   19.1060   30.8100   74.9330 H   0  0  0  0  0  0  0  0  0  0  0  0
   18.0760   32.3010   73.6190 H   0  0  0  0  0  0  0  0  0  0  0  0
   21.2590   30.2080   70.3590 H   0  0  0  0  0  0  0  0  0  0  0  0
   22.2180   30.6380   71.7900 H   0  0  0  0  0  0  0  0  0  0  0  0
   20.5390   32.8590   70.5860 H   0  0  0  0  0  0  0  0  0  0  0  0
   22.2320   32.8520   71.3130 H   0  0  0  0  0  0  0  0  0  0  0  0
   21.9450   32.2470   69.6660 H   0  0  0  0  0  0  0  0  0  0  0  0
  1  2  1  0  0  0  0
  2  3  2  0  0  0  0
  2  7  1  0  0  0  0
  3  4  1  0  0  0  0
  4 27  1  0  0  0  0
  4  5  2  0  0  0  0
  5  8  1  0  0  0  0
  6  5  1  0  0  0  0
  6 28  1  0  0  0  0
  7  6  2  0  0  0  0
  8 10  1  0  0  0  0
  9  8  2  0  0  0  0
 10 11  1  0  0  0  0
 10 18  1  0  0  0  0
 10 30  1  1  0  0  0
 11 16  1  0  0  0  0
 12 13  2  0  0  0  0
 12 11  1  0  0  0  0
 13 14  1  0  0  0  0
 14 32  1  0  0  0  0
 14 15  2  0  0  0  0
 15 33  1  0  0  0  0
 16 15  1  0  0  0  0
 16 34  1  1  0  0  0
 17 16  1  0  0  0  0
 17 35  1  1  0  0  0
 18 36  1  1  0  0  0
 18 17  1  0  0  0  0
 19 21  1  0  0  0  0
 19 18  1  0  0  0  0
 20 19  2  0  0  0  0
 21 22  1  0  0  0  0
 22 23  2  0  0  0  0
 22 17  1  0  0  0  0
 24 38  1  0  0  0  0
 24 21  1  0  0  0  0
 25 24  1  0  0  0  0
 25 40  1  0  0  0  0
 26  3  1  0  0  0  0
 29  7  1  0  0  0  0
 31 13  1  0  0  0  0
 37 24  1  0  0  0  0
 39 25  1  0  0  0  0
 41 25  1  0  0  0  0
M  END
>  <Pose>
1

>  <Score>
-5.23

$$$$
