
 OpenBabel03212208413D

 49 52  0  0  1  0  0  0  0  0999 V2000
   20.9360   36.4840   71.4580 B   0  0  0  0  0  0  0  0  0  0  0  0
   20.0440   34.8150   71.6810 C   0  0  0  0  0  0  0  0  0  0  0  0
   19.4680   34.4210   72.8700 C   0  0  0  0  0  0  0  0  0  0  0  0
   18.8270   33.2100   73.0130 C   0  0  0  0  0  0  0  0  0  0  0  0
   18.7330   32.3150   71.9390 C   0  0  0  0  0  0  0  0  0  0  0  0
   19.3150   32.7240   70.7580 C   0  0  0  0  0  0  0  0  0  0  0  0
   19.9640   33.9490   70.6110 C   0  0  0  0  0  0  0  0  0  0  0  0
   18.0240   31.0600   72.1130 C   0  0  0  0  0  0  0  0  0  0  0  0
   16.8180   30.9150   71.6280 C   0  0  0  0  0  0  0  0  0  0  0  0
   15.9210   29.7180   71.7000 C   0  0  2  0  0  0  0  0  0  0  0  0
   14.6270   30.3580   71.9060 N   0  0  0  0  0  0  0  0  0  0  0  0
   14.6610   31.5150   71.0470 C   0  0  0  0  0  0  0  0  0  0  0  0
   13.6550   32.0680   70.5730 O   0  0  0  0  0  0  0  0  0  0  0  0
   16.0690   31.8910   70.8510 C   0  0  0  0  0  0  0  0  0  0  0  0
   16.5290   32.8420   70.1650 O   0  0  0  0  0  0  0  0  0  0  0  0
   13.5670   29.9160   72.7650 C   0  0  0  0  0  0  0  0  0  0  0  0
   12.8850   31.0750   73.4750 C   0  0  0  0  0  0  0  0  0  0  0  0
   12.3970   30.5640   74.8310 C   0  0  0  0  0  0  0  0  0  0  0  0
   10.9700   30.3110   74.8240 N   0  0  0  0  0  0  0  0  0  0  0  0
   10.1830   30.0640   73.7500 C   0  0  0  0  0  0  0  0  0  0  0  0
    8.9200   29.8810   74.1690 N   0  0  0  0  0  0  0  0  0  0  0  0
    8.8660   30.0050   75.5040 C   0  0  0  0  0  0  0  0  0  0  0  0
   10.1620   30.2740   75.8950 C   0  0  0  0  0  0  0  0  0  0  0  0
   16.3140   28.8320   72.8230 C   0  0  0  0  0  0  0  0  0  0  0  0
   16.6200   27.5560   72.5400 N   0  0  0  0  0  0  0  0  0  0  0  0
   16.9980   26.6700   73.4650 C   0  0  0  0  0  0  0  0  0  0  0  0
   17.0760   27.0930   74.7710 C   0  0  0  0  0  0  0  0  0  0  0  0
   16.7720   28.3910   75.1080 C   0  0  0  0  0  0  0  0  0  0  0  0
   16.3890   29.2610   74.1190 C   0  0  0  0  0  0  0  0  0  0  0  0
   18.6090   29.9790   72.8010 O   0  0  0  0  0  0  0  0  0  0  0  0
   19.5410   35.1160   73.7000 H   0  0  0  0  0  0  0  0  0  0  0  0
   18.3740   32.9030   73.9510 H   0  0  0  0  0  0  0  0  0  0  0  0
   19.2530   32.0770   69.8930 H   0  0  0  0  0  0  0  0  0  0  0  0
   20.4080   34.2200   69.6440 H   0  0  0  0  0  0  0  0  0  0  0  0
   15.9420   29.1470   70.7580 H   0  0  0  0  0  0  0  0  0  0  0  0
   14.0280   29.3100   73.5900 H   0  0  0  0  0  0  0  0  0  0  0  0
   12.7950   29.3060   72.3000 H   0  0  0  0  0  0  0  0  0  0  0  0
   13.5640   31.9100   73.6790 H   0  0  0  0  0  0  0  0  0  0  0  0
   11.9840   31.3970   72.9260 H   0  0  0  0  0  0  0  0  0  0  0  0
   12.9670   29.6310   75.0440 H   0  0  0  0  0  0  0  0  0  0  0  0
   12.6810   31.2910   75.6410 H   0  0  0  0  0  0  0  0  0  0  0  0
   10.4930   30.0150   72.7160 H   0  0  0  0  0  0  0  0  0  0  0  0
    8.0800   29.6710   73.5590 H   0  0  0  0  0  0  0  0  0  0  0  0
    8.0160   29.9190   76.1650 H   0  0  0  0  0  0  0  0  0  0  0  0
   10.4940   30.4360   76.9230 H   0  0  0  0  0  0  0  0  0  0  0  0
   17.2460   25.6310   73.2230 H   0  0  0  0  0  0  0  0  0  0  0  0
   17.3840   26.3760   75.5410 H   0  0  0  0  0  0  0  0  0  0  0  0
   16.8300   28.7330   76.1310 H   0  0  0  0  0  0  0  0  0  0  0  0
   16.1430   30.3040   74.3200 H   0  0  0  0  0  0  0  0  0  0  0  0
  1  2  1  0  0  0  0
  2  3  1  0  0  0  0
  3  4  2  0  0  0  0
  3 31  1  0  0  0  0
  4 32  1  0  0  0  0
  5  8  1  0  0  0  0
  5  4  1  0  0  0  0
  6  5  2  0  0  0  0
  7  6  1  0  0  0  0
  7  2  2  0  0  0  0
  8 30  1  0  0  0  0
  9 10  1  0  0  0  0
  9  8  2  0  0  0  0
 10 35  1  6  0  0  0
 10 11  1  0  0  0  0
 10 24  1  0  0  0  0
 11 16  1  0  0  0  0
 12 11  1  0  0  0  0
 13 12  2  0  0  0  0
 14 12  1  0  0  0  0
 14  9  1  0  0  0  0
 15 14  2  0  0  0  0
 16 17  1  0  0  0  0
 16 36  1  0  0  0  0
 17 38  1  0  0  0  0
 17 18  1  0  0  0  0
 18 40  1  0  0  0  0
 18 41  1  0  0  0  0
 19 18  1  0  0  0  0
 19 23  1  0  0  0  0
 20 21  1  0  0  0  0
 20 19  1  0  0  0  0
 21 22  1  0  0  0  0
 22 23  2  0  0  0  0
 22 44  1  0  0  0  0
 23 45  1  0  0  0  0
 24 29  1  0  0  0  0
 25 24  2  0  0  0  0
 25 26  1  0  0  0  0
 26 27  2  0  0  0  0
 27 28  1  0  0  0  0
 27 47  1  0  0  0  0
 28 48  1  0  0  0  0
 29 49  1  0  0  0  0
 29 28  2  0  0  0  0
 33  6  1  0  0  0  0
 34  7  1  0  0  0  0
 37 16  1  0  0  0  0
 39 17  1  0  0  0  0
 42 20  1  0  0  0  0
 43 21  1  0  0  0  0
 46 26  1  0  0  0  0
M  END
>  <Pose>
1

>  <Score>
-6.35

$$$$
