
 OpenBabel03212208413D

 55 58  0  0  1  0  0  0  0  0999 V2000
   24.0690   37.2580   67.6060 B   0  0  0  0  0  0  0  0  0  0  0  0
   22.4560   36.7820   68.5400 C   0  0  0  0  0  0  0  0  0  0  0  0
   21.6300   35.8500   67.9550 C   0  0  0  0  0  0  0  0  0  0  0  0
   20.4780   35.4950   68.5980 C   0  0  0  0  0  0  0  0  0  0  0  0
   20.1420   36.0640   69.8260 C   0  0  0  0  0  0  0  0  0  0  0  0
   20.9630   36.9820   70.3920 C   0  0  0  0  0  0  0  0  0  0  0  0
   22.1290   37.3500   69.7530 C   0  0  0  0  0  0  0  0  0  0  0  0
   18.8680   35.6440   70.3870 C   0  0  0  0  0  0  0  0  0  0  0  0
   18.7350   34.4810   70.9660 C   0  0  0  0  0  0  0  0  0  0  0  0
   17.4890   33.9150   71.5960 C   0  0  2  0  0  0  0  0  0  0  0  0
   17.6140   32.5160   71.3710 N   0  0  0  0  0  0  0  0  0  0  0  0
   19.0300   32.2160   71.3370 C   0  0  0  0  0  0  0  0  0  0  0  0
   19.5770   31.0980   71.4980 O   0  0  0  0  0  0  0  0  0  0  0  0
   19.7500   33.4580   71.0790 C   0  0  0  0  0  0  0  0  0  0  0  0
   21.0180   33.5690   70.9790 O   0  0  0  0  0  0  0  0  0  0  0  0
   16.6550   31.4350   71.2340 C   0  0  0  0  0  0  0  0  0  0  0  0
   16.3460   30.6860   72.4890 C   0  0  0  0  0  0  0  0  0  0  0  0
   17.0220   29.4010   72.5620 N   0  0  0  0  0  4  0  0  0  0  0  0
   16.0640   28.3240   72.8320 C   0  0  0  0  0  0  0  0  0  0  0  0
   16.8830   27.0310   72.7210 C   0  0  0  0  0  0  0  0  0  0  0  0
   17.9150   26.9870   73.6270 O   0  0  0  0  0  0  0  0  0  0  0  0
   18.7410   28.1000   73.6010 C   0  0  0  0  0  0  0  0  0  0  0  0
   17.9590   29.3890   73.6570 C   0  0  0  0  0  0  0  0  0  0  0  0
   16.2910   34.5840   71.1030 C   0  0  0  0  0  0  0  0  0  0  0  0
   15.0180   34.0820   71.1400 C   0  0  0  0  0  0  0  0  0  0  0  0
   13.9400   34.7810   70.6630 C   0  0  0  0  0  0  0  0  0  0  0  0
   14.1280   36.0250   70.1260 C   0  0  0  0  0  0  0  0  0  0  0  0
   15.3990   36.5880   70.0600 C   0  0  0  0  0  0  0  0  0  0  0  0
   16.4550   35.8620   70.5470 C   0  0  0  0  0  0  0  0  0  0  0  0
   12.6560   34.2030   70.7330 N   0  0  0  0  0  0  0  0  0  0  0  0
   12.3770   33.2830   71.5430 O   0  0  0  0  0  0  0  0  0  0  0  0
   11.6800   34.6690   69.8820 O   0  0  0  0  0  0  0  0  0  0  0  0
   17.7370   36.4880   70.3190 O   0  0  0  0  0  0  0  0  0  0  0  0
   21.8590   35.3810   66.9930 H   0  0  0  0  0  0  0  0  0  0  0  0
   19.8080   34.7470   68.1360 H   0  0  0  0  0  0  0  0  0  0  0  0
   20.6850   37.4540   71.3450 H   0  0  0  0  0  0  0  0  0  0  0  0
   22.7900   38.0890   70.2110 H   0  0  0  0  0  0  0  0  0  0  0  0
   17.6010   34.0740   72.7000 H   0  0  0  0  0  0  0  0  0  0  0  0
   17.0960   30.7080   70.5140 H   0  0  0  0  0  0  0  0  0  0  0  0
   15.6950   31.7960   70.8070 H   0  0  0  0  0  0  0  0  0  0  0  0
   15.3070   30.5630   72.7580 H   0  0  0  0  0  0  0  0  0  0  0  0
   16.7790   31.3450   73.3240 H   0  0  0  0  0  0  0  0  0  0  0  0
   17.5080   29.1300   71.7030 H   0  0  0  0  0  0  0  0  0  0  0  0
   15.2860   28.2610   72.0470 H   0  0  0  0  0  0  0  0  0  0  0  0
   15.6700   28.3550   73.8510 H   0  0  0  0  0  0  0  0  0  0  0  0
   16.2580   26.1470   72.8530 H   0  0  0  0  0  0  0  0  0  0  0  0
   17.2690   27.0220   71.6660 H   0  0  0  0  0  0  0  0  0  0  0  0
   19.3390   28.0580   74.5580 H   0  0  0  0  0  0  0  0  0  0  0  0
   19.4580   28.1070   72.7680 H   0  0  0  0  0  0  0  0  0  0  0  0
   18.6560   30.2340   73.5200 H   0  0  0  0  0  0  0  0  0  0  0  0
   17.4230   29.4690   74.6300 H   0  0  0  0  0  0  0  0  0  0  0  0
   14.8640   33.1030   71.5530 H   0  0  0  0  0  0  0  0  0  0  0  0
   13.3210   36.6290   69.7330 H   0  0  0  0  0  0  0  0  0  0  0  0
   15.5470   37.5820   69.6310 H   0  0  0  0  0  0  0  0  0  0  0  0
   17.4590   36.3090   70.4940 H   0  0  0  0  0  0  0  0  0  0  0  0
  1  2  1  0  0  0  0
  2  7  1  0  0  0  0
  3  2  2  0  0  0  0
  3  4  1  0  0  0  0
  4  5  2  0  0  0  0
  5  8  1  0  0  0  0
  5  6  1  0  0  0  0
  6 36  1  0  0  0  0
  7 37  1  0  0  0  0
  7  6  2  0  0  0  0
  8  9  2  0  0  0  0
  9 14  1  0  0  0  0
  9 10  1  0  0  0  0
 10 38  1  1  0  0  0
 11 10  1  0  0  0  0
 12 11  1  0  0  0  0
 12 13  2  0  0  0  0
 14 12  1  0  0  0  0
 15 14  2  0  0  0  0
 16 11  1  0  0  0  0
 16 17  1  0  0  0  0
 17 18  1  0  0  0  0
 17 41  1  0  0  0  0
 17 42  1  0  0  0  0
 18 19  1  0  0  0  0
 18 23  1  0  0  0  0
 19 45  1  0  0  0  0
 20 19  1  0  0  0  0
 20 46  1  0  0  0  0
 20 21  1  0  0  0  0
 22 21  1  0  0  0  0
 22 23  1  0  0  0  0
 22 48  1  0  0  0  0
 23 51  1  0  0  0  0
 24 25  1  0  0  0  0
 24 10  1  0  0  0  0
 25 52  1  0  0  0  0
 26 30  1  0  0  0  0
 26 25  2  0  0  0  0
 27 26  1  0  0  0  0
 28 27  2  0  0  0  0
 28 29  1  0  0  0  0
 29 24  2  0  0  0  0
 30 31  2  0  0  0  0
 32 30  2  0  0  0  0
 33  8  1  0  0  0  0
 34  3  1  0  0  0  0
 35  4  1  0  0  0  0
 39 16  1  0  0  0  0
 40 16  1  0  0  0  0
 43 18  1  0  0  0  0
 44 19  1  0  0  0  0
 47 20  1  0  0  0  0
 49 22  1  0  0  0  0
 50 23  1  0  0  0  0
 53 27  1  0  0  0  0
 54 28  1  0  0  0  0
 55 29  1  0  0  0  0
M  END
>  <Pose>
1

>  <Score>
-6.92

$$$$
