
 OpenBabel03212208413D

 44 47  0  0  0  0  0  0  0  0999 V2000
   17.0250   27.7150   73.9480 B   0  0  0  0  0  0  0  0  0  0  0  0
   15.8780   29.0410   73.1600 C   0  0  0  0  0  0  0  0  0  0  0  0
   14.6580   29.3470   73.7190 C   0  0  0  0  0  0  0  0  0  0  0  0
   13.8320   30.2980   73.1510 C   0  0  0  0  0  0  0  0  0  0  0  0
   14.1880   30.9840   72.0020 C   0  0  0  0  0  0  0  0  0  0  0  0
   15.4100   30.6750   71.4470 C   0  0  0  0  0  0  0  0  0  0  0  0
   16.2500   29.7140   72.0160 C   0  0  0  0  0  0  0  0  0  0  0  0
   13.2930   31.9860   71.4320 C   0  0  0  0  0  0  0  0  0  0  0  0
   13.7800   33.1780   71.0700 C   0  0  0  0  0  0  0  0  0  0  0  0
   15.1130   33.5320   71.2060 O   0  0  0  0  0  0  0  0  0  0  0  0
   15.3480   34.8260   70.7530 C   0  0  0  0  0  0  0  0  0  0  0  0
   14.1660   35.3410   70.3140 C   0  0  0  0  0  0  0  0  0  0  0  0
   14.1170   36.6230   69.8080 C   0  0  0  0  0  0  0  0  0  0  0  0
   15.2880   37.3350   69.7710 C   0  0  0  0  0  0  0  0  0  0  0  0
   16.5050   36.8080   70.2220 C   0  0  0  0  0  0  0  0  0  0  0  0
   16.5740   35.5350   70.7300 C   0  0  0  0  0  0  0  0  0  0  0  0
   17.7680   34.8510   71.2400 C   0  0  0  0  0  0  0  0  0  0  0  0
   18.8620   34.6670   70.3670 N   0  0  0  0  0  4  0  0  0  0  0  0
   19.8130   35.7570   70.4330 C   0  0  0  0  0  0  0  0  0  0  0  0
   20.8050   35.4960   71.5510 C   0  0  0  0  0  0  0  0  0  0  0  0
   21.7300   34.5690   71.0940 O   0  0  0  0  0  0  0  0  0  0  0  0
   21.0600   33.6750   70.2520 C   0  0  0  0  0  0  0  0  0  0  0  0
   19.6350   33.4690   70.7400 C   0  0  0  0  0  0  0  0  0  0  0  0
   17.6520   37.6000   70.1500 O   0  0  0  0  0  0  0  0  0  0  0  0
   13.1240   34.3220   70.4960 C   0  0  0  0  0  0  0  0  0  0  0  0
   11.8990   34.3940   70.2190 O   0  0  0  0  0  0  0  0  0  0  0  0
   14.3870   28.8040   74.6170 H   0  0  0  0  0  0  0  0  0  0  0  0
   12.8680   30.5340   73.5980 H   0  0  0  0  0  0  0  0  0  0  0  0
   15.7350   31.1790   70.5580 H   0  0  0  0  0  0  0  0  0  0  0  0
   17.2120   29.4610   71.5880 H   0  0  0  0  0  0  0  0  0  0  0  0
   12.2270   31.8250   71.2760 H   0  0  0  0  0  0  0  0  0  0  0  0
   13.1850   37.0480   69.4530 H   0  0  0  0  0  0  0  0  0  0  0  0
   15.2820   38.3360   69.3810 H   0  0  0  0  0  0  0  0  0  0  0  0
   17.4550   33.9040   71.7410 H   0  0  0  0  0  0  0  0  0  0  0  0
   18.1460   35.4990   72.0910 H   0  0  0  0  0  0  0  0  0  0  0  0
   18.5580   34.4810   69.3890 H   0  0  0  0  0  0  0  0  0  0  0  0
   20.3200   35.9710   69.4740 H   0  0  0  0  0  0  0  0  0  0  0  0
   19.2730   36.6810   70.7270 H   0  0  0  0  0  0  0  0  0  0  0  0
   20.2480   35.1310   72.4330 H   0  0  0  0  0  0  0  0  0  0  0  0
   21.2730   36.4890   71.7820 H   0  0  0  0  0  0  0  0  0  0  0  0
   21.6410   32.7340   70.2690 H   0  0  0  0  0  0  0  0  0  0  0  0
   21.0610   34.0340   69.1950 H   0  0  0  0  0  0  0  0  0  0  0  0
   19.2200   32.5870   70.2070 H   0  0  0  0  0  0  0  0  0  0  0  0
   19.6480   33.2850   71.8130 H   0  0  0  0  0  0  0  0  0  0  0  0
  2  3  1  0  0  0  0
  2  1  1  0  0  0  0
  3 27  1  0  0  0  0
  4 28  1  0  0  0  0
  4  3  2  0  0  0  0
  5  4  1  0  0  0  0
  6  5  2  0  0  0  0
  6  7  1  0  0  0  0
  7  2  2  0  0  0  0
  8  5  1  0  0  0  0
  9 10  1  0  0  0  0
  9  8  2  0  0  0  0
 11 10  1  0  0  0  0
 12 25  1  0  0  0  0
 12 11  2  0  0  0  0
 13 12  1  0  0  0  0
 14 13  2  0  0  0  0
 14 15  1  0  0  0  0
 15 16  2  0  0  0  0
 16 11  1  0  0  0  0
 16 17  1  0  0  0  0
 17 34  1  0  0  0  0
 17 35  1  0  0  0  0
 18 19  1  0  0  0  0
 18 23  1  0  0  0  0
 18 17  1  0  0  0  0
 19 38  1  0  0  0  0
 19 20  1  0  0  0  0
 20 40  1  0  0  0  0
 20 39  1  0  0  0  0
 21 20  1  0  0  0  0
 22 41  1  0  0  0  0
 22 23  1  0  0  0  0
 22 21  1  0  0  0  0
 23 44  1  0  0  0  0
 24 15  1  0  0  0  0
 25  9  1  0  0  0  0
 26 25  2  0  0  0  0
 29  6  1  0  0  0  0
 30  7  1  0  0  0  0
 31  8  1  0  0  0  0
 32 13  1  0  0  0  0
 33 14  1  0  0  0  0
 36 18  1  0  0  0  0
 37 19  1  0  0  0  0
 42 22  1  0  0  0  0
 43 23  1  0  0  0  0
M  END
>  <Pose>
1

>  <Score>
-6.76

$$$$
