
 OpenBabel03212208413D

 50 54  0  0  1  0  0  0  0  0999 V2000
   16.0060   24.0290   75.1000 B   0  0  0  0  0  0  0  0  0  0  0  0
   15.9000   25.7580   74.3240 C   0  0  0  0  0  0  0  0  0  0  0  0
   14.9400   26.6560   74.7480 C   0  0  0  0  0  0  0  0  0  0  0  0
   14.8660   27.9240   74.1770 C   0  0  0  0  0  0  0  0  0  0  0  0
   15.7320   28.3250   73.1850 C   0  0  0  0  0  0  0  0  0  0  0  0
   16.6860   27.4240   72.7690 C   0  0  0  0  0  0  0  0  0  0  0  0
   16.7750   26.1470   73.3300 C   0  0  0  0  0  0  0  0  0  0  0  0
   15.6530   29.6530   72.5860 C   0  0  0  0  0  0  0  0  0  0  0  0
   16.6890   30.4160   72.1780 N   0  0  0  0  0  0  0  0  0  0  0  0
   16.2310   31.5880   71.6720 C   0  0  1  0  0  0  0  0  0  0  0  0
   14.8900   31.5870   71.7530 N   0  0  0  0  0  0  0  0  0  0  0  0
   14.5320   30.4070   72.3100 C   0  0  0  0  0  0  0  0  0  0  0  0
   14.4860   32.7660   71.2410 C   0  0  0  0  0  0  0  0  0  0  0  0
   15.5760   33.5080   70.8390 C   0  0  0  0  0  0  0  0  0  0  0  0
   15.4430   34.7700   70.2720 C   0  0  0  0  0  0  0  0  0  0  0  0
   14.1890   35.3100   70.1020 C   0  0  0  0  0  0  0  0  0  0  0  0
   13.1050   34.5610   70.5070 C   0  0  0  0  0  0  0  0  0  0  0  0
   13.2080   33.3080   71.0710 C   0  0  0  0  0  0  0  0  0  0  0  0
   16.6590   32.7370   71.1240 N   0  0  0  0  0  0  0  0  0  0  0  0
   18.0130   33.1680   70.8470 C   0  0  0  0  0  0  0  0  0  0  0  0
   18.6880   32.2750   69.8290 C   0  0  0  0  0  0  0  0  0  0  0  0
   20.0520   32.6770   69.6390 N   0  0  0  0  0  4  0  0  0  0  0  0
   20.9230   31.9450   70.5350 C   0  0  0  0  0  0  0  0  0  0  0  0
   21.9420   32.8310   71.2100 C   0  0  0  0  0  0  0  0  0  0  0  0
   22.5980   33.5870   70.2360 O   0  0  0  0  0  0  0  0  0  0  0  0
   21.7290   34.3670   69.5050 C   0  0  0  0  0  0  0  0  0  0  0  0
   20.2880   34.0760   69.8370 C   0  0  0  0  0  0  0  0  0  0  0  0
   14.2520   26.3470   75.5310 H   0  0  0  0  0  0  0  0  0  0  0  0
   14.1070   28.5900   74.5320 H   0  0  0  0  0  0  0  0  0  0  0  0
   17.3930   27.6800   71.9960 H   0  0  0  0  0  0  0  0  0  0  0  0
   17.5380   25.4450   72.9900 H   0  0  0  0  0  0  0  0  0  0  0  0
   17.6960   30.1650   72.2320 H   0  0  0  0  0  0  0  0  0  0  0  0
   13.5190   30.0900   72.5150 H   0  0  0  0  0  0  0  0  0  0  0  0
   16.3320   35.2950   69.9810 H   0  0  0  0  0  0  0  0  0  0  0  0
   14.0460   36.3080   69.6570 H   0  0  0  0  0  0  0  0  0  0  0  0
   12.1210   34.9750   70.3770 H   0  0  0  0  0  0  0  0  0  0  0  0
   12.3830   32.7160   71.3890 H   0  0  0  0  0  0  0  0  0  0  0  0
   17.9970   34.2040   70.4310 H   0  0  0  0  0  0  0  0  0  0  0  0
   18.5850   33.2050   71.7950 H   0  0  0  0  0  0  0  0  0  0  0  0
   18.1770   32.3150   68.8660 H   0  0  0  0  0  0  0  0  0  0  0  0
   18.6670   31.2430   70.2300 H   0  0  0  0  0  0  0  0  0  0  0  0
   20.3710   32.4440   68.6640 H   0  0  0  0  0  0  0  0  0  0  0  0
   20.3220   31.4220   71.3300 H   0  0  0  0  0  0  0  0  0  0  0  0
   21.4870   31.1440   70.0080 H   0  0  0  0  0  0  0  0  0  0  0  0
   22.6810   32.1590   71.6910 H   0  0  0  0  0  0  0  0  0  0  0  0
   21.4610   33.4510   71.9860 H   0  0  0  0  0  0  0  0  0  0  0  0
   21.9420   35.4350   69.7910 H   0  0  0  0  0  0  0  0  0  0  0  0
   21.8760   34.2680   68.4070 H   0  0  0  0  0  0  0  0  0  0  0  0
   19.6750   34.6340   69.0750 H   0  0  0  0  0  0  0  0  0  0  0  0
   20.0740   34.4290   70.8550 H   0  0  0  0  0  0  0  0  0  0  0  0
  2  3  1  0  0  0  0
  2  1  1  0  0  0  0
  3 28  1  0  0  0  0
  4 29  1  0  0  0  0
  4  3  2  0  0  0  0
  5  4  1  0  0  0  0
  6  5  2  0  0  0  0
  6  7  1  0  0  0  0
  7  2  2  0  0  0  0
  8  5  1  0  0  0  0
  9 32  1  0  0  0  0
  9  8  1  0  0  0  0
 10 19  1  1  0  0  0
 10 11  1  0  0  0  0
 10  9  1  0  0  0  0
 11 12  1  0  0  0  0
 12 33  1  0  0  0  0
 12  8  2  0  0  0  0
 13 11  1  0  0  0  0
 14 19  1  0  0  0  0
 14 13  2  0  0  0  0
 15 14  1  0  0  0  0
 16 15  2  0  0  0  0
 16 17  1  0  0  0  0
 17 18  2  0  0  0  0
 18 13  1  0  0  0  0
 18 37  1  0  0  0  0
 20 19  1  0  0  0  0
 20 39  1  0  0  0  0
 21 41  1  0  0  0  0
 21 20  1  0  0  0  0
 22 21  1  0  0  0  0
 22 27  1  0  0  0  0
 22 23  1  0  0  0  0
 23 24  1  0  0  0  0
 23 43  1  0  0  0  0
 24 45  1  0  0  0  0
 24 46  1  0  0  0  0
 25 24  1  0  0  0  0
 26 47  1  0  0  0  0
 26 27  1  0  0  0  0
 26 25  1  0  0  0  0
 27 50  1  0  0  0  0
 30  6  1  0  0  0  0
 31  7  1  0  0  0  0
 34 15  1  0  0  0  0
 35 16  1  0  0  0  0
 36 17  1  0  0  0  0
 38 20  1  0  0  0  0
 40 21  1  0  0  0  0
 42 22  1  0  0  0  0
 44 23  1  0  0  0  0
 48 26  1  0  0  0  0
 49 27  1  0  0  0  0
M  END
>  <Pose>
1

>  <Score>
-5.97

$$$$
