
 OpenBabel03212208413D

 41 44  0  0  0  0  0  0  0  0999 V2000
   22.9390   30.1870   71.6990 B   0  0  0  0  0  0  0  0  0  0  0  0
   21.3350   31.1870   71.5840 C   0  0  0  0  0  0  0  0  0  0  0  0
   20.9540   31.7310   70.3750 C   0  0  0  0  0  0  0  0  0  0  0  0
   19.8020   32.4490   70.2910 C   0  0  0  0  0  0  0  0  0  0  0  0
   18.9720   32.6650   71.3930 C   0  0  0  0  0  0  0  0  0  0  0  0
   19.4100   32.1000   72.5630 C   0  0  0  0  0  0  0  0  0  0  0  0
   20.5600   31.3670   72.7080 C   0  0  0  0  0  0  0  0  0  0  0  0
   17.8580   33.5800   71.2260 C   0  0  0  0  0  0  0  0  0  0  0  0
   16.5340   33.5110   71.2800 N   0  0  0  0  0  0  0  0  0  0  0  0
   15.9810   34.7250   71.0390 C   0  0  0  0  0  0  0  0  0  0  0  0
   17.0080   35.5690   70.8210 N   0  0  0  0  0  0  0  0  0  0  0  0
   18.1200   34.9180   70.9220 N   0  0  0  0  0  0  0  0  0  0  0  0
   14.6440   34.6840   71.0830 N   0  0  0  0  0  0  0  0  0  0  0  0
   14.3400   33.4100   71.3500 C   0  0  0  0  0  0  0  0  0  0  0  0
   15.5050   32.6410   71.4750 C   0  0  0  0  0  0  0  0  0  0  0  0
   15.4440   31.3390   71.7020 N   0  0  0  0  0  0  0  0  0  0  0  0
   14.2020   30.7760   71.8230 C   0  0  0  0  0  0  0  0  0  0  0  0
   14.1000   29.5460   72.0430 O   0  0  0  0  0  0  0  0  0  0  0  0
   13.0710   31.4850   71.7170 N   0  0  0  0  0  0  0  0  0  0  0  0
   13.1110   32.8060   71.4780 C   0  0  0  0  0  0  0  0  0  0  0  0
   12.0700   33.5050   71.3710 O   0  0  0  0  0  0  0  0  0  0  0  0
   16.5450   30.4110   71.7290 C   0  0  0  0  0  0  0  0  0  0  0  0
   13.7240   35.7820   70.8880 C   0  0  0  0  0  0  0  0  0  0  0  0
   13.7870   36.3540   69.4880 C   0  0  0  0  0  0  0  0  0  0  0  0
   14.7580   37.3410   69.3750 O   0  0  0  0  0  0  0  0  0  0  0  0
   14.9910   37.8450   70.6550 C   0  0  0  0  0  0  0  0  0  0  0  0
   21.5600   31.5940   69.4870 H   0  0  0  0  0  0  0  0  0  0  0  0
   19.5170   32.8710   69.3240 H   0  0  0  0  0  0  0  0  0  0  0  0
   18.8030   32.2830   73.4710 H   0  0  0  0  0  0  0  0  0  0  0  0
   20.8340   30.9570   73.6530 H   0  0  0  0  0  0  0  0  0  0  0  0
   12.1270   31.0580   71.8100 H   0  0  0  0  0  0  0  0  0  0  0  0
   17.2690   30.5810   70.9180 H   0  0  0  0  0  0  0  0  0  0  0  0
   16.9480   30.1910   72.7260 H   0  0  0  0  0  0  0  0  0  0  0  0
   16.1360   29.3660   71.4190 H   0  0  0  0  0  0  0  0  0  0  0  0
   13.8980   36.5820   71.5950 H   0  0  0  0  0  0  0  0  0  0  0  0
   12.7090   35.3510   71.0520 H   0  0  0  0  0  0  0  0  0  0  0  0
   12.7980   36.8220   69.2500 H   0  0  0  0  0  0  0  0  0  0  0  0
   13.9430   35.5370   68.7830 H   0  0  0  0  0  0  0  0  0  0  0  0
   15.3480   37.0240   71.3270 H   0  0  0  0  0  0  0  0  0  0  0  0
   14.0990   38.3410   71.0890 H   0  0  0  0  0  0  0  0  0  0  0  0
   15.8010   38.6250   70.6290 H   0  0  0  0  0  0  0  0  0  0  0  0
  2  1  1  0  0  0  0
  2  7  1  0  0  0  0
  3  2  2  0  0  0  0
  4  3  1  0  0  0  0
  4  5  2  0  0  0  0
  5  6  1  0  0  0  0
  6  7  2  0  0  0  0
  6 29  1  0  0  0  0
  7 30  1  0  0  0  0
  8  9  1  0  0  0  0
  8  5  1  0  0  0  0
  9 15  1  0  0  0  0
 10 13  1  0  0  0  0
 10  9  1  0  0  0  0
 11 12  1  0  0  0  0
 11 10  2  0  0  0  0
 12  8  2  0  0  0  0
 13 14  1  0  0  0  0
 14 15  2  0  0  0  0
 14 20  1  0  0  0  0
 15 16  1  0  0  0  0
 16 22  1  0  0  0  0
 16 17  1  0  0  0  0
 17 18  2  0  0  0  0
 19 31  1  0  0  0  0
 19 17  1  0  0  0  0
 20 19  1  0  0  0  0
 21 20  2  0  0  0  0
 22 33  1  0  0  0  0
 23 36  1  0  0  0  0
 23 13  1  0  0  0  0
 23 35  1  0  0  0  0
 24 23  1  0  0  0  0
 25 24  1  0  0  0  0
 25 26  1  0  0  0  0
 26 40  1  0  0  0  0
 26 39  1  0  0  0  0
 27  3  1  0  0  0  0
 28  4  1  0  0  0  0
 32 22  1  0  0  0  0
 34 22  1  0  0  0  0
 37 24  1  0  0  0  0
 38 24  1  0  0  0  0
 41 26  1  0  0  0  0
M  END
>  <Pose>
1

>  <Score>
-6.83

$$$$
