
 OpenBabel03212208413D

 63 66  0  0  1  0  0  0  0  0999 V2000
   19.7960   34.4760   72.3930 B   0  0  0  0  0  0  0  0  0  0  0  0
   18.5480   33.0180   72.4660 C   0  0  0  0  0  0  0  0  0  0  0  0
   17.4300   33.1200   73.2640 C   0  0  0  0  0  0  0  0  0  0  0  0
   16.5050   32.0730   73.3340 C   0  0  0  0  0  0  0  0  0  0  0  0
   16.6860   30.9150   72.6090 C   0  0  0  0  0  0  0  0  0  0  0  0
   17.8150   30.8530   71.8240 C   0  0  0  0  0  0  0  0  0  0  0  0
   18.7340   31.8720   71.7440 C   0  0  0  0  0  0  0  0  0  0  0  0
   15.7140   29.8220   72.6830 C   0  0  2  0  0  0  0  0  0  0  0  0
   14.3610   30.2460   72.4450 N   0  0  0  0  0  0  0  0  0  0  0  0
   13.5150   29.8790   73.5180 C   0  0  0  0  0  0  0  0  0  0  0  0
   12.2650   30.0700   73.6350 O   0  0  0  0  0  0  0  0  0  0  0  0
   14.3230   29.2000   74.5560 C   0  0  0  0  0  0  0  0  0  0  0  0
   13.8770   28.7470   75.6350 O   0  0  0  0  0  0  0  0  0  0  0  0
   15.6760   29.1880   74.0430 C   0  0  0  0  0  0  0  0  0  0  0  0
   16.6810   28.6430   74.6920 C   0  0  0  0  0  0  0  0  0  0  0  0
   17.9420   28.6350   74.0590 O   0  0  0  0  0  0  0  0  0  0  0  0
   16.6260   28.0530   76.0050 C   0  0  0  0  0  0  0  0  0  0  0  0
   16.2540   28.6630   77.1520 C   0  0  0  0  0  0  0  0  0  0  0  0
   16.2130   27.9680   78.3420 C   0  0  0  0  0  0  0  0  0  0  0  0
   16.5380   26.6320   78.4480 C   0  0  0  0  0  0  0  0  0  0  0  0
   16.9150   26.0330   77.2620 C   0  0  0  0  0  0  0  0  0  0  0  0
   16.9680   26.6930   76.0660 C   0  0  0  0  0  0  0  0  0  0  0  0
   16.4950   25.9380   79.6510 O   0  0  0  0  0  0  0  0  0  0  0  0
   17.2990   26.3570   80.7430 C   0  0  0  0  0  0  0  0  0  0  0  0
   15.7920   28.6890   79.5880 C   0  0  0  0  0  0  0  0  0  0  0  0
   13.9410   30.9500   71.2470 C   0  0  0  0  0  0  0  0  0  0  0  0
   14.4250   32.3720   71.1900 C   0  0  0  0  0  0  0  0  0  0  0  0
   13.4370   33.3200   71.7980 C   0  0  0  0  0  0  0  0  0  0  0  0
   13.2620   34.5230   71.0360 N   0  0  0  0  0  4  0  0  0  0  0  0
   13.1560   34.2890   69.6100 C   0  0  0  0  0  0  0  0  0  0  0  0
   12.7300   35.6180   68.9770 C   0  0  0  0  0  0  0  0  0  0  0  0
   12.8260   36.6520   69.8950 O   0  0  0  0  0  0  0  0  0  0  0  0
   14.1170   36.6790   70.4680 C   0  0  0  0  0  0  0  0  0  0  0  0
   14.3060   35.4550   71.3560 C   0  0  0  0  0  0  0  0  0  0  0  0
   17.2740   34.0230   73.8370 H   0  0  0  0  0  0  0  0  0  0  0  0
   15.6280   32.1500   73.9580 H   0  0  0  0  0  0  0  0  0  0  0  0
   17.9490   29.9220   71.2500 H   0  0  0  0  0  0  0  0  0  0  0  0
   19.5960   31.7720   71.1170 H   0  0  0  0  0  0  0  0  0  0  0  0
   15.9610   29.0780   71.9000 H   0  0  0  0  0  0  0  0  0  0  0  0
   16.0090   29.7290   77.1110 H   0  0  0  0  0  0  0  0  0  0  0  0
   17.1770   24.9650   77.3520 H   0  0  0  0  0  0  0  0  0  0  0  0
   17.2740   26.1540   75.1740 H   0  0  0  0  0  0  0  0  0  0  0  0
   17.0210   27.4190   80.9760 H   0  0  0  0  0  0  0  0  0  0  0  0
   17.1250   25.7700   81.6460 H   0  0  0  0  0  0  0  0  0  0  0  0
   18.3810   26.3990   80.4320 H   0  0  0  0  0  0  0  0  0  0  0  0
   16.0890   29.7570   79.5600 H   0  0  0  0  0  0  0  0  0  0  0  0
   16.2320   28.1480   80.4450 H   0  0  0  0  0  0  0  0  0  0  0  0
   14.6870   28.5520   79.6530 H   0  0  0  0  0  0  0  0  0  0  0  0
   12.8240   30.9670   71.2120 H   0  0  0  0  0  0  0  0  0  0  0  0
   14.2930   30.4380   70.3270 H   0  0  0  0  0  0  0  0  0  0  0  0
   14.6300   32.6260   70.1230 H   0  0  0  0  0  0  0  0  0  0  0  0
   15.3570   32.4180   71.7860 H   0  0  0  0  0  0  0  0  0  0  0  0
   12.4300   32.8640   71.8950 H   0  0  0  0  0  0  0  0  0  0  0  0
   13.7710   33.5740   72.8240 H   0  0  0  0  0  0  0  0  0  0  0  0
   12.3440   34.9730   71.3270 H   0  0  0  0  0  0  0  0  0  0  0  0
   12.3520   33.5750   69.4230 H   0  0  0  0  0  0  0  0  0  0  0  0
   14.1270   34.0260   69.1760 H   0  0  0  0  0  0  0  0  0  0  0  0
   13.3080   35.8360   68.0680 H   0  0  0  0  0  0  0  0  0  0  0  0
   11.6480   35.5800   68.6730 H   0  0  0  0  0  0  0  0  0  0  0  0
   14.1190   37.5930   71.1120 H   0  0  0  0  0  0  0  0  0  0  0  0
   14.9060   36.7920   69.7210 H   0  0  0  0  0  0  0  0  0  0  0  0
   15.2800   34.9580   71.1530 H   0  0  0  0  0  0  0  0  0  0  0  0
   14.1780   35.7380   72.4260 H   0  0  0  0  0  0  0  0  0  0  0  0
  1  2  1  0  0  0  0
  2  3  1  0  0  0  0
  3  4  2  0  0  0  0
  3 35  1  0  0  0  0
  4 36  1  0  0  0  0
  5  8  1  0  0  0  0
  5  4  1  0  0  0  0
  6  5  2  0  0  0  0
  7  6  1  0  0  0  0
  7  2  2  0  0  0  0
  8 39  1  6  0  0  0
  8 14  1  0  0  0  0
  9  8  1  0  0  0  0
  9 10  1  0  0  0  0
 10 11  2  0  0  0  0
 10 12  1  0  0  0  0
 12 13  2  0  0  0  0
 14 12  1  0  0  0  0
 14 15  2  0  0  0  0
 15 17  1  0  0  0  0
 16 15  1  0  0  0  0
 17 22  2  0  0  0  0
 17 18  1  0  0  0  0
 18 19  2  0  0  0  0
 19 20  1  0  0  0  0
 19 25  1  0  0  0  0
 20 23  1  0  0  0  0
 21 41  1  0  0  0  0
 21 20  2  0  0  0  0
 22 21  1  0  0  0  0
 23 24  1  0  0  0  0
 24 43  1  0  0  0  0
 24 44  1  0  0  0  0
 25 48  1  0  0  0  0
 25 47  1  0  0  0  0
 26  9  1  0  0  0  0
 27 26  1  0  0  0  0
 27 52  1  0  0  0  0
 27 28  1  0  0  0  0
 28 53  1  0  0  0  0
 28 54  1  0  0  0  0
 29 55  1  0  0  0  0
 29 34  1  0  0  0  0
 29 28  1  0  0  0  0
 30 29  1  0  0  0  0
 31 30  1  0  0  0  0
 31 32  1  0  0  0  0
 32 33  1  0  0  0  0
 33 60  1  0  0  0  0
 33 34  1  0  0  0  0
 34 63  1  0  0  0  0
 37  6  1  0  0  0  0
 38  7  1  0  0  0  0
 40 18  1  0  0  0  0
 42 22  1  0  0  0  0
 45 24  1  0  0  0  0
 46 25  1  0  0  0  0
 49 26  1  0  0  0  0
 50 26  1  0  0  0  0
 51 27  1  0  0  0  0
 56 30  1  0  0  0  0
 57 30  1  0  0  0  0
 58 31  1  0  0  0  0
 59 31  1  0  0  0  0
 61 33  1  0  0  0  0
 62 34  1  0  0  0  0
M  END
>  <Pose>
1

>  <Score>
-6.16

$$$$
