
 OpenBabel03212208413D

 57 60  0  0  1  0  0  0  0  0999 V2000
   13.0970   36.1810   69.2690 B   0  0  0  0  0  0  0  0  0  0  0  0
   14.2500   35.1380   70.3980 C   0  0  0  0  0  0  0  0  0  0  0  0
   13.8330   33.9190   70.9000 C   0  0  0  0  0  0  0  0  0  0  0  0
   14.6810   33.1740   71.7180 C   0  0  0  0  0  0  0  0  0  0  0  0
   15.9410   33.6070   72.0550 C   0  0  0  0  0  0  0  0  0  0  0  0
   16.3370   34.8240   71.5440 C   0  0  0  0  0  0  0  0  0  0  0  0
   15.5090   35.5670   70.7360 C   0  0  0  0  0  0  0  0  0  0  0  0
   16.8200   32.8070   72.9370 C   0  0  1  0  0  0  0  0  0  0  0  0
   16.4430   31.3820   72.8960 N   0  0  0  0  0  0  0  0  0  0  0  0
   16.9190   30.9240   71.6360 C   0  0  0  0  0  0  0  0  0  0  0  0
   16.4400   29.9340   71.0110 O   0  0  0  0  0  0  0  0  0  0  0  0
   18.0250   31.7770   71.2120 C   0  0  0  0  0  0  0  0  0  0  0  0
   18.6920   31.6750   70.1620 O   0  0  0  0  0  0  0  0  0  0  0  0
   18.1750   32.7550   72.2720 C   0  0  0  0  0  0  0  0  0  0  0  0
   19.2480   33.4220   72.6140 C   0  0  0  0  0  0  0  0  0  0  0  0
   19.2360   34.2910   73.6960 O   0  0  0  0  0  0  0  0  0  0  0  0
   20.4940   33.2900   71.8830 C   0  0  0  0  0  0  0  0  0  0  0  0
   21.4090   32.3000   71.8450 N   0  0  0  0  0  0  0  0  0  0  0  0
   22.4360   32.6300   71.0480 C   0  0  0  0  0  0  0  0  0  0  0  0
   22.1570   33.8630   70.5710 N   0  0  0  0  0  0  0  0  0  0  0  0
   21.0050   34.3010   71.0410 C   0  0  0  0  0  0  0  0  0  0  0  0
   20.3010   35.5990   70.7850 C   0  0  0  0  0  0  0  0  0  0  0  0
   23.5180   31.7830   70.8110 C   0  0  0  0  0  0  0  0  0  0  0  0
   23.5640   30.5430   71.4060 C   0  0  0  0  0  0  0  0  0  0  0  0
   22.5020   30.2210   72.2190 C   0  0  0  0  0  0  0  0  0  0  0  0
   21.4490   31.0780   72.4340 C   0  0  0  0  0  0  0  0  0  0  0  0
   15.7360   30.6560   73.9190 C   0  0  0  0  0  0  0  0  0  0  0  0
   15.6480   29.1830   73.8350 C   0  0  0  0  0  0  0  0  0  0  0  0
   14.3990   28.4810   74.1930 C   0  0  0  0  0  0  0  0  0  0  0  0
   13.1600   29.1720   74.0050 N   0  0  0  0  0  4  0  0  0  0  0  0
   12.7680   29.7130   75.3370 C   0  0  0  0  0  0  0  0  0  0  0  0
   13.3720   30.3530   73.1940 C   0  0  0  0  0  0  0  0  0  0  0  0
   12.8300   33.5570   70.6420 H   0  0  0  0  0  0  0  0  0  0  0  0
   14.3310   32.2280   72.0940 H   0  0  0  0  0  0  0  0  0  0  0  0
   17.3220   35.1760   71.8130 H   0  0  0  0  0  0  0  0  0  0  0  0
   15.8540   36.5080   70.3600 H   0  0  0  0  0  0  0  0  0  0  0  0
   16.8840   33.1880   73.9580 H   0  0  0  0  0  0  0  0  0  0  0  0
   19.8020   35.9710   71.6860 H   0  0  0  0  0  0  0  0  0  0  0  0
   19.5560   35.4710   69.9450 H   0  0  0  0  0  0  0  0  0  0  0  0
   21.0310   36.3610   70.4440 H   0  0  0  0  0  0  0  0  0  0  0  0
   24.3290   32.0840   70.1620 H   0  0  0  0  0  0  0  0  0  0  0  0
   24.3980   29.8660   71.2360 H   0  0  0  0  0  0  0  0  0  0  0  0
   22.5400   29.2360   72.6900 H   0  0  0  0  0  0  0  0  0  0  0  0
   20.6260   30.8180   73.0710 H   0  0  0  0  0  0  0  0  0  0  0  0
   14.7030   31.0870   74.0710 H   0  0  0  0  0  0  0  0  0  0  0  0
   16.2920   30.8920   74.8900 H   0  0  0  0  0  0  0  0  0  0  0  0
   16.5540   28.6850   74.2980 H   0  0  0  0  0  0  0  0  0  0  0  0
   15.8130   28.9460   72.7180 H   0  0  0  0  0  0  0  0  0  0  0  0
   14.4480   28.0560   75.2440 H   0  0  0  0  0  0  0  0  0  0  0  0
   14.3500   27.5270   73.5740 H   0  0  0  0  0  0  0  0  0  0  0  0
   12.3790   28.6300   73.6360 H   0  0  0  0  0  0  0  0  0  0  0  0
   11.8250   30.2700   75.2630 H   0  0  0  0  0  0  0  0  0  0  0  0
   12.7000   28.8770   76.0620 H   0  0  0  0  0  0  0  0  0  0  0  0
   13.5710   30.4380   75.5840 H   0  0  0  0  0  0  0  0  0  0  0  0
   14.2510   30.2340   72.5180 H   0  0  0  0  0  0  0  0  0  0  0  0
   12.4890   30.4740   72.5360 H   0  0  0  0  0  0  0  0  0  0  0  0
   13.4400   31.2830   73.7880 H   0  0  0  0  0  0  0  0  0  0  0  0
  1  2  1  0  0  0  0
  2  7  2  0  0  0  0
  2  3  1  0  0  0  0
  3  4  2  0  0  0  0
  4  5  1  0  0  0  0
  4 34  1  0  0  0  0
  5  8  1  0  0  0  0
  6 35  1  0  0  0  0
  6  5  2  0  0  0  0
  7  6  1  0  0  0  0
  8 37  1  1  0  0  0
  9  8  1  0  0  0  0
  9 27  1  0  0  0  0
 10  9  1  0  0  0  0
 11 10  2  0  0  0  0
 12 10  1  0  0  0  0
 12 14  1  0  0  0  0
 13 12  2  0  0  0  0
 14 15  2  0  0  0  0
 14  8  1  0  0  0  0
 15 16  1  0  0  0  0
 17 15  1  0  0  0  0
 18 17  1  0  0  0  0
 18 26  1  0  0  0  0
 19 18  1  0  0  0  0
 20 21  1  0  0  0  0
 20 19  2  0  0  0  0
 21 17  2  0  0  0  0
 22 21  1  0  0  0  0
 22 38  1  0  0  0  0
 23 19  1  0  0  0  0
 23 24  2  0  0  0  0
 24 25  1  0  0  0  0
 25 26  2  0  0  0  0
 25 43  1  0  0  0  0
 26 44  1  0  0  0  0
 27 45  1  0  0  0  0
 27 46  1  0  0  0  0
 28 27  1  0  0  0  0
 28 29  1  0  0  0  0
 28 47  1  0  0  0  0
 29 49  1  0  0  0  0
 30 29  1  0  0  0  0
 30 31  1  0  0  0  0
 31 54  1  0  0  0  0
 31 53  1  0  0  0  0
 32 57  1  0  0  0  0
 32 30  1  0  0  0  0
 33  3  1  0  0  0  0
 36  7  1  0  0  0  0
 39 22  1  0  0  0  0
 40 22  1  0  0  0  0
 41 23  1  0  0  0  0
 42 24  1  0  0  0  0
 48 28  1  0  0  0  0
 50 29  1  0  0  0  0
 51 30  1  0  0  0  0
 52 31  1  0  0  0  0
 55 32  1  0  0  0  0
 56 32  1  0  0  0  0
M  END
>  <Pose>
1

>  <Score>
-6.97

$$$$
