
 OpenBabel03212208413D

 62 66  0  0  1  0  0  0  0  0999 V2000
   12.8580   35.2540   69.6350 B   0  0  0  0  0  0  0  0  0  0  0  0
   14.2910   34.3880   70.5500 C   0  0  0  0  0  0  0  0  0  0  0  0
   14.0830   33.6160   71.6780 C   0  0  0  0  0  0  0  0  0  0  0  0
   15.1170   32.9900   72.3400 C   0  0  0  0  0  0  0  0  0  0  0  0
   16.4000   33.1180   71.8880 C   0  0  0  0  0  0  0  0  0  0  0  0
   16.6110   33.8800   70.7740 C   0  0  0  0  0  0  0  0  0  0  0  0
   15.5910   34.5120   70.1000 C   0  0  0  0  0  0  0  0  0  0  0  0
   17.5100   32.4790   72.5230 C   0  0  2  0  0  0  0  0  0  0  0  0
   18.8290   32.5860   72.0600 N   0  0  0  0  0  0  0  0  0  0  0  0
   19.5550   31.7000   72.9540 C   0  0  0  0  0  0  0  0  0  0  0  0
   20.7890   31.7550   73.2860 O   0  0  0  0  0  0  0  0  0  0  0  0
   18.6160   30.6930   73.4340 C   0  0  0  0  0  0  0  0  0  0  0  0
   18.7800   29.7140   74.2310 O   0  0  0  0  0  0  0  0  0  0  0  0
   17.3460   31.0270   72.7920 C   0  0  0  0  0  0  0  0  0  0  0  0
   16.3120   30.2410   72.5600 C   0  0  0  0  0  0  0  0  0  0  0  0
   15.1620   30.7600   71.9820 O   0  0  0  0  0  0  0  0  0  0  0  0
   16.3150   28.8220   72.8810 C   0  0  0  0  0  0  0  0  0  0  0  0
   15.4620   28.1530   73.6750 N   0  0  0  0  0  0  0  0  0  0  0  0
   15.7760   26.8370   73.6890 C   0  0  0  0  0  0  0  0  0  0  0  0
   16.8440   26.6950   72.8880 N   0  0  0  0  0  0  0  0  0  0  0  0
   17.2040   27.8700   72.3790 C   0  0  0  0  0  0  0  0  0  0  0  0
   18.3170   28.2050   71.4500 C   0  0  0  0  0  0  0  0  0  0  0  0
   15.0690   25.9150   74.4320 C   0  0  0  0  0  0  0  0  0  0  0  0
   13.9990   26.3020   75.2040 C   0  0  0  0  0  0  0  0  0  0  0  0
   13.6670   27.6380   75.2030 C   0  0  0  0  0  0  0  0  0  0  0  0
   14.3960   28.5060   74.4510 C   0  0  0  0  0  0  0  0  0  0  0  0
   19.5820   33.2850   71.0690 C   0  0  0  0  0  0  0  0  0  0  0  0
   19.7440   34.7220   71.0580 C   0  0  0  0  0  0  0  0  0  0  0  0
   20.7830   35.3100   70.1320 C   0  0  0  0  0  0  0  0  0  0  0  0
   20.6420   36.7590   70.0250 N   0  0  0  0  0  4  0  0  0  0  0  0
   19.5480   37.1790   69.2010 C   0  0  0  0  0  0  0  0  0  0  0  0
   19.8750   37.3110   67.7430 C   0  0  0  0  0  0  0  0  0  0  0  0
   21.0590   36.7230   67.3870 O   0  0  0  0  0  0  0  0  0  0  0  0
   22.1480   37.0930   68.1330 C   0  0  0  0  0  0  0  0  0  0  0  0
   21.8420   37.3870   69.5640 C   0  0  0  0  0  0  0  0  0  0  0  0
   13.0620   33.5050   72.0500 H   0  0  0  0  0  0  0  0  0  0  0  0
   14.8620   32.3860   73.2430 H   0  0  0  0  0  0  0  0  0  0  0  0
   17.6200   34.0220   70.3450 H   0  0  0  0  0  0  0  0  0  0  0  0
   15.7680   35.1230   69.2040 H   0  0  0  0  0  0  0  0  0  0  0  0
   17.5430   32.9180   73.5780 H   0  0  0  0  0  0  0  0  0  0  0  0
   17.9350   28.9160   70.6910 H   0  0  0  0  0  0  0  0  0  0  0  0
   18.6220   27.2760   70.9510 H   0  0  0  0  0  0  0  0  0  0  0  0
   19.1390   28.6300   72.0520 H   0  0  0  0  0  0  0  0  0  0  0  0
   15.3460   24.8750   74.4200 H   0  0  0  0  0  0  0  0  0  0  0  0
   13.4230   25.6250   75.7950 H   0  0  0  0  0  0  0  0  0  0  0  0
   12.8310   27.9570   75.7990 H   0  0  0  0  0  0  0  0  0  0  0  0
   14.1380   29.5770   74.4550 H   0  0  0  0  0  0  0  0  0  0  0  0
   19.2830   32.9450   70.0250 H   0  0  0  0  0  0  0  0  0  0  0  0
   20.6280   32.8440   71.1430 H   0  0  0  0  0  0  0  0  0  0  0  0
   18.8150   35.3530   71.1160 H   0  0  0  0  0  0  0  0  0  0  0  0
   20.1750   34.9800   72.0910 H   0  0  0  0  0  0  0  0  0  0  0  0
   20.6630   34.9400   69.0890 H   0  0  0  0  0  0  0  0  0  0  0  0
   21.7800   35.1170   70.5590 H   0  0  0  0  0  0  0  0  0  0  0  0
   20.4390   37.1030   70.9970 H   0  0  0  0  0  0  0  0  0  0  0  0
   18.6020   36.6210   69.3600 H   0  0  0  0  0  0  0  0  0  0  0  0
   19.3030   38.2310   69.5450 H   0  0  0  0  0  0  0  0  0  0  0  0
   19.7970   38.3680   67.3640 H   0  0  0  0  0  0  0  0  0  0  0  0
   19.0630   36.7730   67.1740 H   0  0  0  0  0  0  0  0  0  0  0  0
   22.7250   37.9320   67.6530 H   0  0  0  0  0  0  0  0  0  0  0  0
   22.8710   36.2260   68.1200 H   0  0  0  0  0  0  0  0  0  0  0  0
   21.6900   38.4900   69.6540 H   0  0  0  0  0  0  0  0  0  0  0  0
   22.6670   37.1390   70.2610 H   0  0  0  0  0  0  0  0  0  0  0  0
  1  2  1  0  0  0  0
  2  3  1  0  0  0  0
  3 36  1  0  0  0  0
  3  4  2  0  0  0  0
  4 37  1  0  0  0  0
  5  4  1  0  0  0  0
  5  8  1  0  0  0  0
  6  5  2  0  0  0  0
  7  2  2  0  0  0  0
  7  6  1  0  0  0  0
  8 14  1  0  0  0  0
  8 40  1  1  0  0  0
  9  8  1  0  0  0  0
  9 10  1  0  0  0  0
 10 11  2  0  0  0  0
 10 12  1  0  0  0  0
 12 13  2  0  0  0  0
 14 12  1  0  0  0  0
 15 14  2  0  0  0  0
 15 17  1  0  0  0  0
 16 15  1  0  0  0  0
 17 18  1  0  0  0  0
 18 19  1  0  0  0  0
 18 26  1  0  0  0  0
 19 23  1  0  0  0  0
 20 19  2  0  0  0  0
 21 17  2  0  0  0  0
 21 20  1  0  0  0  0
 22 43  1  0  0  0  0
 22 21  1  0  0  0  0
 23 24  2  0  0  0  0
 24 45  1  0  0  0  0
 25 24  1  0  0  0  0
 25 46  1  0  0  0  0
 26 47  1  0  0  0  0
 26 25  2  0  0  0  0
 27 49  1  0  0  0  0
 27  9  1  0  0  0  0
 28 27  1  0  0  0  0
 28 50  1  0  0  0  0
 28 51  1  0  0  0  0
 29 53  1  0  0  0  0
 29 28  1  0  0  0  0
 30 29  1  0  0  0  0
 30 54  1  0  0  0  0
 31 55  1  0  0  0  0
 31 56  1  0  0  0  0
 31 30  1  0  0  0  0
 32 31  1  0  0  0  0
 33 32  1  0  0  0  0
 33 34  1  0  0  0  0
 34 35  1  0  0  0  0
 35 61  1  0  0  0  0
 35 30  1  0  0  0  0
 35 62  1  0  0  0  0
 38  6  1  0  0  0  0
 39  7  1  0  0  0  0
 41 22  1  0  0  0  0
 42 22  1  0  0  0  0
 44 23  1  0  0  0  0
 48 27  1  0  0  0  0
 52 29  1  0  0  0  0
 57 32  1  0  0  0  0
 58 32  1  0  0  0  0
 59 34  1  0  0  0  0
 60 34  1  0  0  0  0
M  END
>  <Pose>
1

>  <Score>
-5.85

$$$$
