
 OpenBabel03212208413D

 44 47  0  0  0  0  0  0  0  0999 V2000
   17.4970   26.0570   73.7450 B   0  0  0  0  0  0  0  0  0  0  0  0
   16.5550   27.6910   73.4360 C   0  0  0  0  0  0  0  0  0  0  0  0
   15.3570   27.9620   74.0420 C   0  0  0  0  0  0  0  0  0  0  0  0
   14.6740   29.1630   73.8040 C   0  0  0  0  0  0  0  0  0  0  0  0
   15.1490   30.1370   72.9620 C   0  0  0  0  0  0  0  0  0  0  0  0
   16.3820   29.8260   72.3570 C   0  0  0  0  0  0  0  0  0  0  0  0
   17.0530   28.6560   72.5830 C   0  0  0  0  0  0  0  0  0  0  0  0
   14.5340   31.3490   72.6390 N   0  0  0  0  0  0  0  0  0  0  0  0
   13.7990   31.6110   71.4760 C   0  0  0  0  0  0  0  0  0  0  0  0
   13.9210   30.8100   70.4660 O   0  0  0  0  0  0  0  0  0  0  0  0
   12.8700   32.7110   71.2290 C   0  0  0  0  0  0  0  0  0  0  0  0
   13.5930   33.9170   70.7910 N   0  0  0  0  0  0  0  0  0  0  0  0
   14.9040   34.0610   70.9610 N   0  0  0  0  0  0  0  0  0  0  0  0
   15.5560   35.1960   70.5790 C   0  0  0  0  0  0  0  0  0  0  0  0
   14.8600   36.1940   70.0140 N   0  0  0  0  0  0  0  0  0  0  0  0
   15.7380   37.2890   69.6630 C   0  0  0  0  0  0  0  0  0  0  0  0
   17.1220   36.8890   70.0820 C   0  0  0  0  0  0  0  0  0  0  0  0
   16.9190   35.5890   70.6930 N   0  0  0  0  0  0  0  0  0  0  0  0
   17.9650   34.8590   71.3040 C   0  0  0  0  0  0  0  0  0  0  0  0
   17.7840   34.0040   72.3570 C   0  0  0  0  0  0  0  0  0  0  0  0
   18.8320   33.3150   72.9430 C   0  0  0  0  0  0  0  0  0  0  0  0
   20.1150   33.4850   72.4590 C   0  0  0  0  0  0  0  0  0  0  0  0
   20.3160   34.3290   71.4130 C   0  0  0  0  0  0  0  0  0  0  0  0
   19.2670   35.0120   70.8360 C   0  0  0  0  0  0  0  0  0  0  0  0
   13.5380   36.1070   69.8160 C   0  0  0  0  0  0  0  0  0  0  0  0
   12.8890   37.0420   69.2880 O   0  0  0  0  0  0  0  0  0  0  0  0
   12.9270   34.9380   70.2230 C   0  0  0  0  0  0  0  0  0  0  0  0
   11.6880   34.8090   70.0570 O   0  0  0  0  0  0  0  0  0  0  0  0
   14.9370   27.2290   74.7170 H   0  0  0  0  0  0  0  0  0  0  0  0
   13.7330   29.3420   74.3170 H   0  0  0  0  0  0  0  0  0  0  0  0
   16.7970   30.5640   71.6830 H   0  0  0  0  0  0  0  0  0  0  0  0
   18.0080   28.4260   72.1040 H   0  0  0  0  0  0  0  0  0  0  0  0
   14.6290   32.1510   73.3250 H   0  0  0  0  0  0  0  0  0  0  0  0
   12.3130   33.0240   72.1450 H   0  0  0  0  0  0  0  0  0  0  0  0
   12.1520   32.4470   70.4330 H   0  0  0  0  0  0  0  0  0  0  0  0
   15.7490   37.3390   68.5490 H   0  0  0  0  0  0  0  0  0  0  0  0
   15.4120   38.2600   70.1030 H   0  0  0  0  0  0  0  0  0  0  0  0
   17.4250   37.6210   70.8760 H   0  0  0  0  0  0  0  0  0  0  0  0
   17.8620   36.8530   69.2560 H   0  0  0  0  0  0  0  0  0  0  0  0
   16.7970   33.8720   72.7300 H   0  0  0  0  0  0  0  0  0  0  0  0
   18.6580   32.6480   73.7790 H   0  0  0  0  0  0  0  0  0  0  0  0
   20.9410   32.9370   72.9300 H   0  0  0  0  0  0  0  0  0  0  0  0
   21.3050   34.4800   71.0190 H   0  0  0  0  0  0  0  0  0  0  0  0
   19.4370   35.6710   70.0220 H   0  0  0  0  0  0  0  0  0  0  0  0
  2  1  1  0  0  0  0
  2  3  1  0  0  0  0
  3 29  1  0  0  0  0
  4  3  2  0  0  0  0
  4 30  1  0  0  0  0
  5  4  1  0  0  0  0
  6  7  1  0  0  0  0
  6  5  2  0  0  0  0
  7  2  2  0  0  0  0
  8  5  1  0  0  0  0
  8 33  1  0  0  0  0
  9  8  1  0  0  0  0
 10  9  2  0  0  0  0
 11  9  1  0  0  0  0
 11 34  1  0  0  0  0
 12 13  1  0  0  0  0
 12 11  1  0  0  0  0
 14 18  1  0  0  0  0
 14 13  2  0  0  0  0
 15 14  1  0  0  0  0
 16 15  1  0  0  0  0
 16 17  1  0  0  0  0
 16 37  1  0  0  0  0
 17 18  1  0  0  0  0
 17 38  1  0  0  0  0
 18 19  1  0  0  0  0
 19 20  1  0  0  0  0
 20 40  1  0  0  0  0
 20 21  2  0  0  0  0
 21 41  1  0  0  0  0
 22 42  1  0  0  0  0
 22 21  1  0  0  0  0
 23 22  2  0  0  0  0
 24 19  2  0  0  0  0
 24 23  1  0  0  0  0
 25 15  1  0  0  0  0
 25 27  1  0  0  0  0
 26 25  2  0  0  0  0
 27 12  1  0  0  0  0
 28 27  2  0  0  0  0
 31  6  1  0  0  0  0
 32  7  1  0  0  0  0
 35 11  1  0  0  0  0
 36 16  1  0  0  0  0
 39 17  1  0  0  0  0
 43 23  1  0  0  0  0
 44 24  1  0  0  0  0
M  END
>  <Pose>
1

>  <Score>
-7.11

$$$$
