
 OpenBabel03212208413D

 42 45  0  0  0  0  0  0  0  0999 V2000
   20.6690   36.3530   71.1040 B   0  0  0  0  0  0  0  0  0  0  0  0
   20.1410   34.5910   71.6250 C   0  0  0  0  0  0  0  0  0  0  0  0
   19.4130   34.3910   72.7790 C   0  0  0  0  0  0  0  0  0  0  0  0
   19.0400   33.1120   73.1390 C   0  0  0  0  0  0  0  0  0  0  0  0
   19.3620   31.9930   72.3940 C   0  0  0  0  0  0  0  0  0  0  0  0
   20.0910   32.2100   71.2390 C   0  0  0  0  0  0  0  0  0  0  0  0
   20.4710   33.4830   70.8650 C   0  0  0  0  0  0  0  0  0  0  0  0
   18.9630   30.6780   72.7890 N   0  0  0  0  0  0  0  0  0  0  0  0
   19.7470   29.7680   73.3120 N   0  0  0  0  0  0  0  0  0  0  0  0
   19.0930   28.6210   73.5840 C   0  0  0  0  0  0  0  0  0  0  0  0
   17.7970   28.8290   73.2020 C   0  0  0  0  0  0  0  0  0  0  0  0
   17.7390   30.1160   72.7100 C   0  0  0  0  0  0  0  0  0  0  0  0
   16.5650   30.7770   72.1880 N   0  0  0  0  0  0  0  0  0  0  0  0
   15.5810   30.2590   71.4680 C   0  0  0  0  0  0  0  0  0  0  0  0
   14.6450   31.2210   71.1670 C   0  0  0  0  0  0  0  0  0  0  0  0
   15.1110   32.3760   71.7470 C   0  0  0  0  0  0  0  0  0  0  0  0
   16.3000   32.0800   72.3750 C   0  0  0  0  0  0  0  0  0  0  0  0
   16.7200   27.8530   73.3110 C   0  0  0  0  0  0  0  0  0  0  0  0
   16.5910   27.0520   72.3540 O   0  0  0  0  0  0  0  0  0  0  0  0
   15.8460   27.7770   74.4180 N   0  0  0  0  0  0  0  0  0  0  0  0
   16.3400   27.2470   75.6660 C   0  0  0  0  0  0  0  0  0  0  0  0
   16.3600   28.3620   76.6680 C   0  0  0  0  0  0  0  0  0  0  0  0
   15.4620   29.4510   76.2980 N   0  0  0  0  0  0  0  0  0  0  0  0
   14.3470   29.2640   75.4330 C   0  0  0  0  0  0  0  0  0  0  0  0
   13.3320   29.9920   75.5560 O   0  0  0  0  0  0  0  0  0  0  0  0
   14.4630   28.1930   74.4150 C   0  0  0  0  0  0  0  0  0  0  0  0
   19.1420   35.2610   73.3940 H   0  0  0  0  0  0  0  0  0  0  0  0
   18.4700   32.9810   74.0490 H   0  0  0  0  0  0  0  0  0  0  0  0
   20.3460   31.3310   70.6490 H   0  0  0  0  0  0  0  0  0  0  0  0
   21.0370   33.6410   69.9680 H   0  0  0  0  0  0  0  0  0  0  0  0
   19.5570   27.7320   74.0230 H   0  0  0  0  0  0  0  0  0  0  0  0
   15.5120   29.2220   71.1530 H   0  0  0  0  0  0  0  0  0  0  0  0
   13.7200   31.0950   70.5840 H   0  0  0  0  0  0  0  0  0  0  0  0
   14.6280   33.3450   71.7160 H   0  0  0  0  0  0  0  0  0  0  0  0
   16.9220   32.8010   72.9330 H   0  0  0  0  0  0  0  0  0  0  0  0
   17.2920   26.7080   75.5680 H   0  0  0  0  0  0  0  0  0  0  0  0
   15.5890   26.4930   76.0440 H   0  0  0  0  0  0  0  0  0  0  0  0
   17.3920   28.7450   76.7910 H   0  0  0  0  0  0  0  0  0  0  0  0
   16.0250   28.0240   77.6820 H   0  0  0  0  0  0  0  0  0  0  0  0
   15.6670   30.4130   76.7020 H   0  0  0  0  0  0  0  0  0  0  0  0
   13.8440   27.3260   74.7220 H   0  0  0  0  0  0  0  0  0  0  0  0
   14.1050   28.5010   73.4210 H   0  0  0  0  0  0  0  0  0  0  0  0
  1  2  1  0  0  0  0
  2  3  1  0  0  0  0
  3  4  2  0  0  0  0
  3 27  1  0  0  0  0
  4 28  1  0  0  0  0
  5  8  1  0  0  0  0
  5  4  1  0  0  0  0
  6  5  2  0  0  0  0
  7  6  1  0  0  0  0
  7  2  2  0  0  0  0
  8  9  1  0  0  0  0
  9 10  2  0  0  0  0
 10 31  1  0  0  0  0
 11 18  1  0  0  0  0
 11 10  1  0  0  0  0
 12  8  1  0  0  0  0
 12 11  2  0  0  0  0
 13 17  1  0  0  0  0
 13 12  1  0  0  0  0
 14 13  1  0  0  0  0
 15 14  2  0  0  0  0
 15 16  1  0  0  0  0
 16 17  2  0  0  0  0
 17 35  1  0  0  0  0
 18 20  1  0  0  0  0
 19 18  2  0  0  0  0
 20 21  1  0  0  0  0
 21 37  1  0  0  0  0
 21 22  1  0  0  0  0
 22 38  1  0  0  0  0
 22 39  1  0  0  0  0
 23 22  1  0  0  0  0
 23 40  1  0  0  0  0
 24 25  2  0  0  0  0
 24 23  1  0  0  0  0
 26 20  1  0  0  0  0
 26 41  1  0  0  0  0
 26 24  1  0  0  0  0
 29  6  1  0  0  0  0
 30  7  1  0  0  0  0
 32 14  1  0  0  0  0
 33 15  1  0  0  0  0
 34 16  1  0  0  0  0
 36 21  1  0  0  0  0
 42 26  1  0  0  0  0
M  END
>  <Pose>
1

>  <Score>
-5.89

$$$$
