
 OpenBabel03212208413D

 44 47  0  0  0  0  0  0  0  0999 V2000
   16.6940   28.0620   73.1400 B   0  0  0  0  0  0  0  0  0  0  0  0
   16.0870   29.7760   72.5240 C   0  0  0  0  0  0  0  0  0  0  0  0
   16.8370   30.5210   71.6390 C   0  0  0  0  0  0  0  0  0  0  0  0
   16.4030   31.7550   71.1950 C   0  0  0  0  0  0  0  0  0  0  0  0
   15.2000   32.2950   71.6190 C   0  0  0  0  0  0  0  0  0  0  0  0
   14.4640   31.5330   72.5040 C   0  0  0  0  0  0  0  0  0  0  0  0
   14.8890   30.3030   72.9520 C   0  0  0  0  0  0  0  0  0  0  0  0
   14.7720   33.5690   71.1460 N   0  0  0  0  0  0  0  0  0  0  0  0
   15.4950   34.7000   71.0790 C   0  0  0  0  0  0  0  0  0  0  0  0
   16.7080   34.7840   71.4440 O   0  0  0  0  0  0  0  0  0  0  0  0
   14.7350   35.7490   70.5610 C   0  0  0  0  0  0  0  0  0  0  0  0
   13.5360   35.2300   70.3150 C   0  0  0  0  0  0  0  0  0  0  0  0
   12.8230   36.2560   69.8170 N   0  0  0  0  0  0  0  0  0  0  0  0
   13.5650   37.3500   69.7660 N   0  0  0  0  0  0  0  0  0  0  0  0
   14.7540   37.0450   70.2250 N   0  0  0  0  0  0  0  0  0  0  0  0
   15.8900   37.9220   70.3570 C   0  0  0  0  0  0  0  0  0  0  0  0
   16.9150   37.6730   69.2880 C   0  0  0  0  0  0  0  0  0  0  0  0
   16.8130   38.4230   68.2880 O   0  0  0  0  0  0  0  0  0  0  0  0
   17.8980   36.6880   69.4030 N   0  0  0  0  0  0  0  0  0  0  0  0
   19.2660   36.8770   69.6360 C   0  0  0  0  0  0  0  0  0  0  0  0
   20.0690   37.1850   68.5260 C   0  0  0  0  0  0  0  0  0  0  0  0
   21.4150   37.3790   68.7080 C   0  0  0  0  0  0  0  0  0  0  0  0
   22.0250   37.2860   69.9420 C   0  0  0  0  0  0  0  0  0  0  0  0
   21.2510   36.9870   71.0240 C   0  0  0  0  0  0  0  0  0  0  0  0
   19.8970   36.7890   70.8530 C   0  0  0  0  0  0  0  0  0  0  0  0
   19.4960   37.3030   67.1710 C   0  0  0  0  0  0  0  0  0  0  0  0
   13.5490   33.8960   70.6700 C   0  0  0  0  0  0  0  0  0  0  0  0
   12.6040   33.0820   70.5830 O   0  0  0  0  0  0  0  0  0  0  0  0
   17.7880   30.1350   71.2810 H   0  0  0  0  0  0  0  0  0  0  0  0
   16.9910   32.3510   70.4940 H   0  0  0  0  0  0  0  0  0  0  0  0
   13.5260   31.9260   72.8500 H   0  0  0  0  0  0  0  0  0  0  0  0
   14.3160   29.6920   73.6520 H   0  0  0  0  0  0  0  0  0  0  0  0
   11.8190   36.1340   69.5290 H   0  0  0  0  0  0  0  0  0  0  0  0
   13.2070   38.2660   69.4100 H   0  0  0  0  0  0  0  0  0  0  0  0
   15.5820   38.9940   70.2140 H   0  0  0  0  0  0  0  0  0  0  0  0
   16.3210   37.7620   71.3690 H   0  0  0  0  0  0  0  0  0  0  0  0
   17.5330   35.6820   69.2960 H   0  0  0  0  0  0  0  0  0  0  0  0
   22.0780   37.6220   67.8660 H   0  0  0  0  0  0  0  0  0  0  0  0
   23.0990   37.4430   70.0730 H   0  0  0  0  0  0  0  0  0  0  0  0
   21.7190   36.9080   72.0110 H   0  0  0  0  0  0  0  0  0  0  0  0
   19.3400   36.5580   71.7350 H   0  0  0  0  0  0  0  0  0  0  0  0
   20.3110   37.3280   66.4220 H   0  0  0  0  0  0  0  0  0  0  0  0
   18.8870   36.3980   66.9260 H   0  0  0  0  0  0  0  0  0  0  0  0
   18.8870   38.2090   67.0230 H   0  0  0  0  0  0  0  0  0  0  0  0
  2  7  1  0  0  0  0
  2  1  1  0  0  0  0
  3  2  2  0  0  0  0
  4  5  2  0  0  0  0
  4  3  1  0  0  0  0
  5  6  1  0  0  0  0
  6 31  1  0  0  0  0
  6  7  2  0  0  0  0
  7 32  1  0  0  0  0
  8  5  1  0  0  0  0
  9  8  1  0  0  0  0
  9 10  2  0  0  0  0
 11  9  1  0  0  0  0
 12 11  2  0  0  0  0
 12 27  1  0  0  0  0
 13 12  1  0  0  0  0
 14 13  1  0  0  0  0
 14 15  1  0  0  0  0
 15 16  1  0  0  0  0
 15 11  1  0  0  0  0
 16 36  1  0  0  0  0
 17 19  1  0  0  0  0
 17 16  1  0  0  0  0
 18 17  2  0  0  0  0
 19 20  1  0  0  0  0
 20 25  1  0  0  0  0
 21 22  1  0  0  0  0
 21 20  2  0  0  0  0
 22 23  2  0  0  0  0
 23 39  1  0  0  0  0
 23 24  1  0  0  0  0
 24 40  1  0  0  0  0
 25 24  2  0  0  0  0
 25 41  1  0  0  0  0
 26 21  1  0  0  0  0
 27  8  1  0  0  0  0
 28 27  2  0  0  0  0
 29  3  1  0  0  0  0
 30  4  1  0  0  0  0
 33 13  1  0  0  0  0
 34 14  1  0  0  0  0
 35 16  1  0  0  0  0
 37 19  1  0  0  0  0
 38 22  1  0  0  0  0
 42 26  1  0  0  0  0
 43 26  1  0  0  0  0
 44 26  1  0  0  0  0
M  END
>  <Pose>
1

>  <Score>
-7.83

$$$$
