
 OpenBabel03212208413D

 36 39  0  0  0  0  0  0  0  0999 V2000
   24.8290   34.2230   66.3170 B   0  0  0  0  0  0  0  0  0  0  0  0
   23.5290   34.0430   67.7110 C   0  0  0  0  0  0  0  0  0  0  0  0
   22.2440   34.5260   67.5690 C   0  0  0  0  0  0  0  0  0  0  0  0
   21.3090   34.3880   68.5920 C   0  0  0  0  0  0  0  0  0  0  0  0
   21.6360   33.7650   69.7770 C   0  0  0  0  0  0  0  0  0  0  0  0
   22.9240   33.2870   69.9050 C   0  0  0  0  0  0  0  0  0  0  0  0
   23.8600   33.4200   68.8960 C   0  0  0  0  0  0  0  0  0  0  0  0
   20.6970   33.6070   70.8490 N   0  0  0  0  0  0  0  0  0  0  0  0
   19.9960   32.4870   71.1320 C   0  0  0  0  0  0  0  0  0  0  0  0
   20.0300   31.3740   70.5150 O   0  0  0  0  0  0  0  0  0  0  0  0
   19.1810   32.6820   72.2320 C   0  0  0  0  0  0  0  0  0  0  0  0
   19.4040   33.9430   72.6090 C   0  0  0  0  0  0  0  0  0  0  0  0
   18.6070   34.1360   73.6880 N   0  0  0  0  0  0  0  0  0  0  0  0
   17.9430   33.0180   73.9260 N   0  0  0  0  0  0  0  0  0  0  0  0
   18.2780   32.0970   73.0390 N   0  0  0  0  0  0  0  0  0  0  0  0
   17.7770   30.7560   72.9620 C   0  0  0  0  0  0  0  0  0  0  0  0
   16.6110   30.4700   72.2830 C   0  0  0  0  0  0  0  0  0  0  0  0
   16.1010   29.1810   72.1910 C   0  0  0  0  0  0  0  0  0  0  0  0
   16.7660   28.1320   72.7890 C   0  0  0  0  0  0  0  0  0  0  0  0
   17.9310   28.4150   73.4680 C   0  0  0  0  0  0  0  0  0  0  0  0
   18.4380   29.7020   73.5580 C   0  0  0  0  0  0  0  0  0  0  0  0
   16.2680   26.7990   72.7120 N   0  0  0  0  0  0  0  0  0  0  0  0
   16.6790   25.9850   71.8640 O   0  0  0  0  0  0  0  0  0  0  0  0
   15.3120   26.3950   73.5900 O   0  0  0  0  0  0  0  0  0  0  0  0
   20.3310   34.5170   71.7670 C   0  0  0  0  0  0  0  0  0  0  0  0
   20.7940   35.6850   71.8030 O   0  0  0  0  0  0  0  0  0  0  0  0
   21.9970   35.0160   66.6300 H   0  0  0  0  0  0  0  0  0  0  0  0
   20.3170   34.7590   68.4850 H   0  0  0  0  0  0  0  0  0  0  0  0
   23.1980   32.7910   70.8370 H   0  0  0  0  0  0  0  0  0  0  0  0
   24.8780   33.0350   69.0110 H   0  0  0  0  0  0  0  0  0  0  0  0
   18.5470   35.0390   74.2270 H   0  0  0  0  0  0  0  0  0  0  0  0
   17.2430   32.8410   74.6930 H   0  0  0  0  0  0  0  0  0  0  0  0
   16.0760   31.2750   71.8080 H   0  0  0  0  0  0  0  0  0  0  0  0
   15.1720   28.9710   71.6470 H   0  0  0  0  0  0  0  0  0  0  0  0
   18.4390   27.5810   73.9300 H   0  0  0  0  0  0  0  0  0  0  0  0
   19.3520   29.9130   74.0920 H   0  0  0  0  0  0  0  0  0  0  0  0
  1  2  1  0  0  0  0
  2  7  1  0  0  0  0
  3  2  2  0  0  0  0
  3  4  1  0  0  0  0
  4  5  2  0  0  0  0
  5  6  1  0  0  0  0
  5  8  1  0  0  0  0
  6 29  1  0  0  0  0
  7 30  1  0  0  0  0
  7  6  2  0  0  0  0
  8  9  1  0  0  0  0
  8 25  1  0  0  0  0
  9 11  1  0  0  0  0
 10  9  2  0  0  0  0
 11 12  2  0  0  0  0
 11 15  1  0  0  0  0
 12 13  1  0  0  0  0
 13 14  1  0  0  0  0
 13 31  1  0  0  0  0
 14 32  1  0  0  0  0
 15 14  1  0  0  0  0
 16 15  1  0  0  0  0
 16 21  1  0  0  0  0
 17 16  2  0  0  0  0
 18 17  1  0  0  0  0
 18 19  2  0  0  0  0
 19 20  1  0  0  0  0
 20 21  2  0  0  0  0
 20 35  1  0  0  0  0
 21 36  1  0  0  0  0
 22 19  1  0  0  0  0
 22 24  2  0  0  0  0
 23 22  2  0  0  0  0
 25 26  2  0  0  0  0
 25 12  1  0  0  0  0
 27  3  1  0  0  0  0
 28  4  1  0  0  0  0
 33 17  1  0  0  0  0
 34 18  1  0  0  0  0
M  END
>  <Pose>
1

>  <Score>
-6.79

$$$$
