
 OpenBabel03212208413D

 41 44  0  0  1  0  0  0  0  0999 V2000
   14.1960   36.1250   69.9940 B   0  0  0  0  0  0  0  0  0  0  0  0
   14.4240   34.3950   70.8140 C   0  0  0  0  0  0  0  0  0  0  0  0
   13.3400   33.5680   70.9640 C   0  0  0  0  0  0  0  0  0  0  0  0
   13.5200   32.3540   71.5450 C   0  0  0  0  0  0  0  0  0  0  0  0
   14.7550   31.8840   72.0080 C   0  0  0  0  0  0  0  0  0  0  0  0
   15.8210   32.7270   71.8470 C   0  0  0  0  0  0  0  0  0  0  0  0
   15.6600   33.9670   71.2580 C   0  0  0  0  0  0  0  0  0  0  0  0
   14.8510   30.6050   72.6000 N   0  0  0  0  0  0  0  0  0  0  0  0
   13.8470   29.8780   73.3340 C   0  0  0  0  0  0  0  0  0  0  0  0
   12.5960   30.0220   73.2300 O   0  0  0  0  0  0  0  0  0  0  0  0
   14.5630   28.9380   74.2260 C   0  0  1  0  0  0  0  0  0  0  0  0
   13.8800   27.6770   74.4420 N   0  0  0  0  0  0  0  0  0  0  0  0
   15.0220   26.8190   74.4910 N   0  0  0  0  0  0  0  0  0  0  0  0
   15.9450   27.2320   73.4830 C   0  0  0  0  0  0  0  0  0  0  0  0
   15.6850   28.5220   73.3020 C   0  0  0  0  0  0  0  0  0  0  0  0
   16.0010   29.7510   72.5830 C   0  0  0  0  0  0  0  0  0  0  0  0
   17.1360   29.9390   72.0630 O   0  0  0  0  0  0  0  0  0  0  0  0
   16.9560   26.4330   72.8000 C   0  0  0  0  0  0  0  0  0  0  0  0
   16.7900   26.0190   71.6290 O   0  0  0  0  0  0  0  0  0  0  0  0
   18.1550   26.0850   73.4060 O   0  0  0  0  0  0  0  0  0  0  0  0
   19.3960   26.6170   72.9640 C   0  0  0  0  0  0  0  0  0  0  0  0
   20.3710   25.4930   72.7590 C   0  0  0  0  0  0  0  0  0  0  0  0
   19.9220   24.1760   72.6860 C   0  0  0  0  0  0  0  0  0  0  0  0
   20.7760   23.1240   72.4960 C   0  0  0  0  0  0  0  0  0  0  0  0
   22.1390   23.3760   72.3720 C   0  0  0  0  0  0  0  0  0  0  0  0
   22.5790   24.6790   72.4460 C   0  0  0  0  0  0  0  0  0  0  0  0
   21.6980   25.7460   72.6390 C   0  0  0  0  0  0  0  0  0  0  0  0
   12.3630   33.9020   70.6140 H   0  0  0  0  0  0  0  0  0  0  0  0
   12.6680   31.6990   71.6640 H   0  0  0  0  0  0  0  0  0  0  0  0
   16.8090   32.4340   72.1800 H   0  0  0  0  0  0  0  0  0  0  0  0
   16.4960   34.6390   71.1270 H   0  0  0  0  0  0  0  0  0  0  0  0
   14.9340   29.3890   75.1480 H   0  0  0  0  0  0  0  0  0  0  0  0
   13.4200   27.4530   73.5150 H   0  0  0  0  0  0  0  0  0  0  0  0
   15.1660   26.0250   75.1440 H   0  0  0  0  0  0  0  0  0  0  0  0
   19.3030   27.2320   72.0690 H   0  0  0  0  0  0  0  0  0  0  0  0
   19.8060   27.2420   73.7800 H   0  0  0  0  0  0  0  0  0  0  0  0
   18.8780   23.9720   72.7780 H   0  0  0  0  0  0  0  0  0  0  0  0
   20.4350   22.1010   72.4400 H   0  0  0  0  0  0  0  0  0  0  0  0
   22.8470   22.5620   72.2220 H   0  0  0  0  0  0  0  0  0  0  0  0
   23.6150   24.9360   72.3580 H   0  0  0  0  0  0  0  0  0  0  0  0
   22.0760   26.7540   72.6910 H   0  0  0  0  0  0  0  0  0  0  0  0
  1  2  1  0  0  0  0
  2  3  2  0  0  0  0
  2  7  1  0  0  0  0
  3  4  1  0  0  0  0
  4 29  1  0  0  0  0
  4  5  2  0  0  0  0
  5  8  1  0  0  0  0
  6  5  1  0  0  0  0
  6 30  1  0  0  0  0
  7  6  2  0  0  0  0
  8  9  1  0  0  0  0
  9 11  1  0  0  0  0
 10  9  2  0  0  0  0
 11 12  1  0  0  0  0
 11 32  1  1  0  0  0
 12 13  1  0  0  0  0
 13 34  1  0  0  0  0
 14 13  1  0  0  0  0
 15 14  2  0  0  0  0
 15 11  1  0  0  0  0
 16  8  1  0  0  0  0
 16 15  1  0  0  0  0
 17 16  2  0  0  0  0
 18 20  1  0  0  0  0
 18 14  1  0  0  0  0
 19 18  2  0  0  0  0
 21 20  1  0  0  0  0
 21 36  1  0  0  0  0
 22 21  1  0  0  0  0
 23 22  1  0  0  0  0
 23 37  1  0  0  0  0
 24 23  2  0  0  0  0
 25 26  2  0  0  0  0
 25 24  1  0  0  0  0
 26 27  1  0  0  0  0
 27 41  1  0  0  0  0
 27 22  2  0  0  0  0
 28  3  1  0  0  0  0
 31  7  1  0  0  0  0
 33 12  1  0  0  0  0
 35 21  1  0  0  0  0
 38 24  1  0  0  0  0
 39 25  1  0  0  0  0
 40 26  1  0  0  0  0
M  END
>  <Pose>
1

>  <Score>
-6.27

$$$$
