
 OpenBabel03212208413D

 45 48  0  0  1  0  0  0  0  0999 V2000
    9.2730   30.6340   78.0070 B   0  0  0  0  0  0  0  0  0  0  0  0
   10.7810   30.0670   76.9850 C   0  0  0  0  0  0  0  0  0  0  0  0
   10.8840   30.4570   75.6770 C   0  0  0  0  0  0  0  0  0  0  0  0
   11.9800   30.0480   74.9270 C   0  0  0  0  0  0  0  0  0  0  0  0
   12.9720   29.2570   75.4620 C   0  0  0  0  0  0  0  0  0  0  0  0
   12.8480   28.8760   76.7800 C   0  0  0  0  0  0  0  0  0  0  0  0
   11.7660   29.2710   77.5490 C   0  0  0  0  0  0  0  0  0  0  0  0
   14.0550   28.8890   74.6220 N   0  0  0  0  0  0  0  0  0  0  0  0
   14.4110   27.5040   74.4560 C   0  0  0  0  0  0  0  0  0  0  0  0
   13.7530   26.6160   75.0640 O   0  0  0  0  0  0  0  0  0  0  0  0
   15.4970   27.2170   73.6040 N   0  0  0  0  0  0  0  0  0  0  0  0
   16.1720   28.0920   72.9820 C   0  0  0  0  0  0  0  0  0  0  0  0
   15.9530   29.5590   73.0290 C   0  0  1  0  0  0  0  0  0  0  0  0
   17.2320   30.2070   73.4330 C   0  0  0  0  0  0  0  0  0  0  0  0
   17.4600   31.5290   72.9730 N   0  0  0  0  0  4  0  0  0  0  0  0
   16.3530   32.1800   72.3920 C   0  0  0  0  0  0  0  0  0  0  0  0
   15.3980   31.4500   71.6730 C   0  0  0  0  0  0  0  0  0  0  0  0
   14.3320   32.0990   71.1170 C   0  0  0  0  0  0  0  0  0  0  0  0
   14.1270   33.4560   71.2170 C   0  0  0  0  0  0  0  0  0  0  0  0
   15.0700   34.1700   71.9260 C   0  0  0  0  0  0  0  0  0  0  0  0
   16.1650   33.5400   72.5030 C   0  0  0  0  0  0  0  0  0  0  0  0
   12.9560   34.1240   70.6010 C   0  0  0  0  0  0  0  0  0  0  0  0
   15.6570   29.9890   71.5900 C   0  0  0  0  0  0  0  0  0  0  0  0
   18.6320   31.6170   72.0850 C   0  0  0  0  0  0  0  0  0  0  0  0
   14.8160   29.8690   73.9220 C   0  0  0  0  0  0  0  0  0  0  0  0
   14.4500   31.0750   74.1140 O   0  0  0  0  0  0  0  0  0  0  0  0
   17.2350   27.6630   72.1590 O   0  0  0  0  0  0  0  0  0  0  0  0
   10.1000   31.0790   75.2660 H   0  0  0  0  0  0  0  0  0  0  0  0
   12.0010   30.3920   73.8980 H   0  0  0  0  0  0  0  0  0  0  0  0
   13.6110   28.2540   77.2350 H   0  0  0  0  0  0  0  0  0  0  0  0
   11.6410   28.9910   78.5820 H   0  0  0  0  0  0  0  0  0  0  0  0
   17.3260   30.1110   74.5400 H   0  0  0  0  0  0  0  0  0  0  0  0
   18.0690   29.5640   73.0280 H   0  0  0  0  0  0  0  0  0  0  0  0
   17.7380   32.1160   73.8160 H   0  0  0  0  0  0  0  0  0  0  0  0
   13.6090   31.4970   70.5660 H   0  0  0  0  0  0  0  0  0  0  0  0
   14.9460   35.2430   72.0270 H   0  0  0  0  0  0  0  0  0  0  0  0
   16.8890   34.1200   73.0510 H   0  0  0  0  0  0  0  0  0  0  0  0
   13.1010   35.1860   70.4240 H   0  0  0  0  0  0  0  0  0  0  0  0
   12.6630   33.5430   69.7050 H   0  0  0  0  0  0  0  0  0  0  0  0
   12.1120   34.0000   71.3390 H   0  0  0  0  0  0  0  0  0  0  0  0
   14.8060   29.4340   71.1710 H   0  0  0  0  0  0  0  0  0  0  0  0
   16.5980   29.8390   71.0300 H   0  0  0  0  0  0  0  0  0  0  0  0
   18.3500   31.4780   71.0270 H   0  0  0  0  0  0  0  0  0  0  0  0
   19.3890   30.8890   72.4260 H   0  0  0  0  0  0  0  0  0  0  0  0
   19.0580   32.6370   72.1760 H   0  0  0  0  0  0  0  0  0  0  0  0
  2  7  1  0  0  0  0
  2  1  1  0  0  0  0
  3  2  2  0  0  0  0
  4  5  2  0  0  0  0
  4  3  1  0  0  0  0
  5  6  1  0  0  0  0
  6 30  1  0  0  0  0
  6  7  2  0  0  0  0
  7 31  1  0  0  0  0
  8  5  1  0  0  0  0
  9  8  1  0  0  0  0
  9 10  2  0  0  0  0
 11  9  1  0  0  0  0
 12 11  1  0  0  0  0
 13 12  1  1  0  0  0
 13 14  1  0  0  0  0
 13 25  1  0  0  0  0
 14 32  1  0  0  0  0
 15 14  1  0  0  0  0
 15 34  1  0  0  0  0
 16 21  1  0  0  0  0
 16 15  1  0  0  0  0
 17 16  2  0  0  0  0
 18 19  2  0  0  0  0
 18 17  1  0  0  0  0
 19 20  1  0  0  0  0
 20 36  1  0  0  0  0
 20 21  2  0  0  0  0
 21 37  1  0  0  0  0
 22 19  1  0  0  0  0
 22 40  1  0  0  0  0
 23 17  1  0  0  0  0
 23 13  1  0  0  0  0
 24 45  1  0  0  0  0
 24 44  1  0  0  0  0
 24 15  1  0  0  0  0
 25 26  2  0  0  0  0
 25  8  1  0  0  0  0
 27 12  2  0  0  0  0
 28  3  1  0  0  0  0
 29  4  1  0  0  0  0
 33 14  1  0  0  0  0
 35 18  1  0  0  0  0
 38 22  1  0  0  0  0
 39 22  1  0  0  0  0
 41 23  1  0  0  0  0
 42 23  1  0  0  0  0
 43 24  1  0  0  0  0
M  END
>  <Pose>
1

>  <Score>
-5.65

$$$$
