
 OpenBabel03212208413D

 49 52  0  0  1  0  0  0  0  0999 V2000
   23.3260   37.0230   65.9310 B   0  0  0  0  0  0  0  0  0  0  0  0
   22.4070   36.1530   67.3750 C   0  0  0  0  0  0  0  0  0  0  0  0
   22.2590   34.7840   67.3630 C   0  0  0  0  0  0  0  0  0  0  0  0
   21.5900   34.1520   68.4150 C   0  0  0  0  0  0  0  0  0  0  0  0
   21.0760   34.8760   69.4640 C   0  0  0  0  0  0  0  0  0  0  0  0
   21.2340   36.2400   69.4580 C   0  0  0  0  0  0  0  0  0  0  0  0
   21.8900   36.8770   68.4300 C   0  0  0  0  0  0  0  0  0  0  0  0
   20.4190   34.2430   70.4970 O   0  0  0  0  0  0  0  0  0  0  0  0
   19.6960   35.0010   71.4230 C   0  0  0  0  0  0  0  0  0  0  0  0
   19.0640   34.1840   72.4750 C   0  0  0  0  0  0  0  0  0  0  0  0
   19.7220   33.3040   73.0590 O   0  0  0  0  0  0  0  0  0  0  0  0
   17.7150   34.4070   72.8160 N   0  0  0  0  0  0  0  0  0  0  0  0
   16.6710   33.5030   72.4610 C   0  0  0  0  0  0  0  0  0  0  0  0
   16.5630   32.2950   73.0450 N   0  0  0  0  0  0  0  0  0  0  0  0
   15.5790   31.4840   72.6930 C   0  0  0  0  0  0  0  0  0  0  0  0
   15.2670   30.2540   73.1240 N   0  0  0  0  0  0  0  0  0  0  0  0
   14.1660   29.8920   72.4270 C   0  0  0  0  0  0  0  0  0  0  0  0
   13.8080   30.8700   71.5900 N   0  0  0  0  0  0  0  0  0  0  0  0
   14.6610   31.8890   71.7170 C   0  0  0  0  0  0  0  0  0  0  0  0
   14.7650   33.1280   71.1140 C   0  0  0  0  0  0  0  0  0  0  0  0
   15.7780   33.9040   71.5080 N   0  0  0  0  0  0  0  0  0  0  0  0
   13.8270   33.4780   70.1530 O   0  0  0  0  0  0  0  0  0  0  0  0
   15.8790   29.4200   74.0860 C   0  0  2  0  0  0  0  0  0  0  0  0
   16.6920   28.4450   73.4920 O   0  0  0  0  0  0  0  0  0  0  0  0
   15.8670   27.3240   73.4830 C   0  0  2  0  0  0  0  0  0  0  0  0
   15.4210   27.3040   74.9370 C   0  0  1  0  0  0  0  0  0  0  0  0
   15.0120   28.7680   75.0780 C   0  0  1  0  0  0  0  0  0  0  0  0
   15.2780   29.2160   76.3920 O   0  0  0  0  0  0  0  0  0  0  0  0
   14.4020   26.4280   75.1870 O   0  0  0  0  0  0  0  0  0  0  0  0
   16.6010   26.0720   73.0980 C   0  0  0  0  0  0  0  0  0  0  0  0
   16.9620   26.0240   71.7790 O   0  0  0  0  0  0  0  0  0  0  0  0
   22.6640   34.2250   66.5390 H   0  0  0  0  0  0  0  0  0  0  0  0
   21.5130   33.0810   68.3370 H   0  0  0  0  0  0  0  0  0  0  0  0
   20.8540   36.8830   70.2560 H   0  0  0  0  0  0  0  0  0  0  0  0
   22.0270   37.9520   68.4030 H   0  0  0  0  0  0  0  0  0  0  0  0
   18.8590   35.5010   70.8640 H   0  0  0  0  0  0  0  0  0  0  0  0
   20.2880   35.8340   71.8540 H   0  0  0  0  0  0  0  0  0  0  0  0
   17.4350   35.2750   73.3580 H   0  0  0  0  0  0  0  0  0  0  0  0
   13.6200   28.9420   72.5110 H   0  0  0  0  0  0  0  0  0  0  0  0
   13.4940   32.7120   69.5570 H   0  0  0  0  0  0  0  0  0  0  0  0
   16.6230   30.0530   74.6630 H   0  0  0  0  0  0  0  0  0  0  0  0
   14.9460   27.4750   72.8850 H   0  0  0  0  0  0  0  0  0  0  0  0
   16.2950   27.1420   75.6020 H   0  0  0  0  0  0  0  0  0  0  0  0
   13.9460   28.8310   74.9460 H   0  0  0  0  0  0  0  0  0  0  0  0
   16.0020   29.8840   76.3000 H   0  0  0  0  0  0  0  0  0  0  0  0
   13.5300   26.6970   74.7530 H   0  0  0  0  0  0  0  0  0  0  0  0
   15.9860   25.2150   73.4380 H   0  0  0  0  0  0  0  0  0  0  0  0
   17.5300   26.0410   73.7200 H   0  0  0  0  0  0  0  0  0  0  0  0
   17.9490   26.1070   71.7200 H   0  0  0  0  0  0  0  0  0  0  0  0
  1  2  1  0  0  0  0
  2  7  1  0  0  0  0
  3  2  2  0  0  0  0
  3  4  1  0  0  0  0
  4  5  2  0  0  0  0
  5  8  1  0  0  0  0
  6  5  1  0  0  0  0
  6 34  1  0  0  0  0
  7  6  2  0  0  0  0
  8  9  1  0  0  0  0
  9 37  1  0  0  0  0
  9 10  1  0  0  0  0
 10 12  1  0  0  0  0
 10 11  2  0  0  0  0
 12 38  1  0  0  0  0
 13 12  1  0  0  0  0
 13 14  2  0  0  0  0
 15 14  1  0  0  0  0
 15 16  1  0  0  0  0
 16 23  1  0  0  0  0
 17 39  1  0  0  0  0
 17 16  1  0  0  0  0
 18 19  1  0  0  0  0
 18 17  2  0  0  0  0
 19 15  2  0  0  0  0
 20 21  2  0  0  0  0
 20 19  1  0  0  0  0
 21 13  1  0  0  0  0
 22 20  1  0  0  0  0
 23 41  1  1  0  0  0
 23 27  1  0  0  0  0
 24 23  1  0  0  0  0
 25 42  1  6  0  0  0
 25 24  1  0  0  0  0
 25 26  1  0  0  0  0
 26 27  1  0  0  0  0
 26 29  1  0  0  0  0
 26 43  1  1  0  0  0
 27 44  1  6  0  0  0
 27 28  1  0  0  0  0
 30 47  1  0  0  0  0
 30 25  1  0  0  0  0
 30 48  1  0  0  0  0
 31 30  1  0  0  0  0
 32  3  1  0  0  0  0
 33  4  1  0  0  0  0
 35  7  1  0  0  0  0
 36  9  1  0  0  0  0
 40 22  1  0  0  0  0
 45 28  1  0  0  0  0
 46 29  1  0  0  0  0
 49 31  1  0  0  0  0
M  END
>  <Pose>
1

>  <Score>
-7.21

$$$$
