
 OpenBabel03212208413D

 39 43  0  0  1  0  0  0  0  0999 V2000
   13.9970   30.5380   71.7500 B   0  0  0  0  0  0  0  0  0  0  0  0
   14.2060   32.4000   71.3670 C   0  0  0  0  0  0  0  0  0  0  0  0
   13.1140   33.1640   71.0010 C   0  0  0  0  0  0  0  0  0  0  0  0
   13.2490   34.5080   70.7150 C   0  0  0  0  0  0  0  0  0  0  0  0
   14.4430   35.1880   70.7580 C   0  0  0  0  0  0  0  0  0  0  0  0
   15.5210   34.4260   71.1190 C   0  0  0  0  0  0  0  0  0  0  0  0
   15.4440   33.0640   71.4210 C   0  0  0  0  0  0  0  0  0  0  0  0
   16.6370   32.2520   71.6590 C   0  0  0  0  0  0  0  0  0  0  0  0
   17.9160   32.7960   71.4670 N   0  0  2  0  0  4  0  0  0  0  0  0
   18.5440   32.5180   72.8090 C   0  0  0  0  0  0  0  0  0  0  0  0
   19.7400   33.2060   73.0500 N   0  0  2  0  0  0  0  0  0  0  0  0
   19.4630   34.6240   72.8970 C   0  0  0  0  0  0  0  0  0  0  0  0
   19.1100   34.8420   71.5160 N   0  0  2  0  0  0  0  0  0  0  0  0
   17.8600   34.2320   71.1960 C   0  0  0  0  0  0  0  0  0  0  0  0
   20.1170   34.3560   70.5670 C   0  0  0  0  0  0  0  0  0  0  0  0
   20.1960   32.9140   70.7340 N   0  0  2  0  0  0  0  0  0  0  0  0
   18.8760   32.2750   70.5450 C   0  0  0  0  0  0  0  0  0  0  0  0
   20.7060   32.7010   72.0680 C   0  0  0  0  0  0  0  0  0  0  0  0
   14.1330   36.4880   70.3930 O   0  0  0  0  0  0  0  0  0  0  0  0
   12.9590   36.4360   69.5360 C   0  0  0  0  0  0  0  0  0  0  0  0
   12.2400   35.4390   70.3220 O   0  0  0  0  0  0  0  0  0  0  0  0
   12.2040   32.6150   70.9530 H   0  0  0  0  0  0  0  0  0  0  0  0
   16.5170   34.9540   71.1680 H   0  0  0  0  0  0  0  0  0  0  0  0
   16.5850   31.3780   70.8890 H   0  0  0  0  0  0  0  0  0  0  0  0
   16.4530   31.7090   72.6200 H   0  0  0  0  0  0  0  0  0  0  0  0
   18.7490   31.4070   72.7170 H   0  0  0  0  0  0  0  0  0  0  0  0
   17.8220   32.6290   73.6100 H   0  0  0  0  0  0  0  0  0  0  0  0
   20.2560   35.2930   73.2450 H   0  0  0  0  0  0  0  0  0  0  0  0
   18.5140   34.7910   73.4880 H   0  0  0  0  0  0  0  0  0  0  0  0
   17.0740   34.7710   71.6850 H   0  0  0  0  0  0  0  0  0  0  0  0
   17.7840   34.2670   70.0640 H   0  0  0  0  0  0  0  0  0  0  0  0
   19.8280   34.6950   69.5810 H   0  0  0  0  0  0  0  0  0  0  0  0
   21.0820   34.7610   70.9270 H   0  0  0  0  0  0  0  0  0  0  0  0
   19.0590   31.1740   70.6070 H   0  0  0  0  0  0  0  0  0  0  0  0
   18.5650   32.5420   69.4970 H   0  0  0  0  0  0  0  0  0  0  0  0
   20.9060   31.6690   72.3070 H   0  0  0  0  0  0  0  0  0  0  0  0
   21.5920   33.3680   72.1570 H   0  0  0  0  0  0  0  0  0  0  0  0
   13.1620   35.8620   68.5870 H   0  0  0  0  0  0  0  0  0  0  0  0
   12.4450   37.3660   69.4460 H   0  0  0  0  0  0  0  0  0  0  0  0
  2  7  1  0  0  0  0
  2  1  1  0  0  0  0
  3  2  2  0  0  0  0
  4  5  2  0  0  0  0
  4  3  1  0  0  0  0
  5  6  1  0  0  0  0
  6 23  1  0  0  0  0
  6  7  2  0  0  0  0
  7  8  1  0  0  0  0
  8 25  1  0  0  0  0
  9  8  1  6  0  0  0
  9 10  1  0  0  0  0
 10 11  1  0  0  0  0
 10 27  1  0  0  0  0
 11 18  1  6  0  0  0
 12 11  1  0  0  0  0
 12 28  1  0  0  0  0
 12 29  1  0  0  0  0
 13 15  1  6  0  0  0
 13 12  1  0  0  0  0
 14  9  1  0  0  0  0
 14 13  1  0  0  0  0
 14 30  1  0  0  0  0
 15 16  1  0  0  0  0
 15 33  1  0  0  0  0
 16 17  1  1  0  0  0
 16 18  1  0  0  0  0
 17 34  1  0  0  0  0
 17  9  1  0  0  0  0
 18 37  1  0  0  0  0
 18 36  1  0  0  0  0
 19  5  1  0  0  0  0
 20 21  1  0  0  0  0
 20 19  1  0  0  0  0
 21  4  1  0  0  0  0
 22  3  1  0  0  0  0
 24  8  1  0  0  0  0
 26 10  1  0  0  0  0
 31 14  1  0  0  0  0
 32 15  1  0  0  0  0
 35 17  1  0  0  0  0
 38 20  1  0  0  0  0
 39 20  1  0  0  0  0
M  END
>  <Pose>
1

>  <Score>
-5.07

$$$$
