
 OpenBabel03212208413D

 41 44  0  0  0  0  0  0  0  0999 V2000
   17.2970   38.8790   67.1640 B   0  0  0  0  0  0  0  0  0  0  0  0
   18.6610   37.8700   68.0530 C   0  0  0  0  0  0  0  0  0  0  0  0
   19.8820   37.6400   67.4690 C   0  0  0  0  0  0  0  0  0  0  0  0
   20.8530   36.9110   68.1250 C   0  0  0  0  0  0  0  0  0  0  0  0
   20.5820   36.4120   69.3820 C   0  0  0  0  0  0  0  0  0  0  0  0
   19.3400   36.6520   69.9670 C   0  0  0  0  0  0  0  0  0  0  0  0
   18.3590   37.3750   69.3290 C   0  0  0  0  0  0  0  0  0  0  0  0
   17.0570   37.6680   69.9520 C   0  0  0  0  0  0  0  0  0  0  0  0
   16.0460   36.7670   69.6150 O   0  0  0  0  0  0  0  0  0  0  0  0
   15.9040   35.5140   70.1840 C   0  0  0  0  0  0  0  0  0  0  0  0
   14.6320   35.0050   70.4780 C   0  0  0  0  0  0  0  0  0  0  0  0
   14.4340   33.7650   71.0400 C   0  0  0  0  0  0  0  0  0  0  0  0
   15.5070   32.9550   71.3430 C   0  0  0  0  0  0  0  0  0  0  0  0
   16.7670   33.4390   71.0600 C   0  0  0  0  0  0  0  0  0  0  0  0
   16.9700   34.6960   70.4900 C   0  0  0  0  0  0  0  0  0  0  0  0
   15.3130   31.6320   71.9420 C   0  0  0  0  0  0  0  0  0  0  0  0
   14.8530   31.3220   73.1650 N   0  0  0  0  0  0  0  0  0  0  0  0
   14.8380   29.9910   73.2920 N   0  0  0  0  0  0  0  0  0  0  0  0
   15.2850   29.4580   72.1640 N   0  0  0  0  0  0  0  0  0  0  0  0
   15.5720   30.4570   71.3460 N   0  0  0  0  0  0  0  0  0  0  0  0
   14.4220   29.2050   74.4340 C   0  0  0  0  0  0  0  0  0  0  0  0
   13.0430   29.5670   74.8290 C   0  0  0  0  0  0  0  0  0  0  0  0
   12.7490   29.6430   76.0330 O   0  0  0  0  0  0  0  0  0  0  0  0
   12.0820   29.8210   73.8280 N   0  0  0  0  0  0  0  0  0  0  0  0
   21.7110   35.7340   69.7970 O   0  0  0  0  0  0  0  0  0  0  0  0
   22.8100   36.0410   68.9560 C   0  0  0  0  0  0  0  0  0  0  0  0
   22.1540   36.5200   67.8020 O   0  0  0  0  0  0  0  0  0  0  0  0
   20.1090   38.0340   66.4660 H   0  0  0  0  0  0  0  0  0  0  0  0
   19.2040   36.2430   70.9640 H   0  0  0  0  0  0  0  0  0  0  0  0
   17.1300   37.7930   71.0540 H   0  0  0  0  0  0  0  0  0  0  0  0
   16.7440   38.6680   69.5650 H   0  0  0  0  0  0  0  0  0  0  0  0
   13.8070   35.6710   70.2260 H   0  0  0  0  0  0  0  0  0  0  0  0
   13.4390   33.4010   71.2540 H   0  0  0  0  0  0  0  0  0  0  0  0
   17.6010   32.8020   71.2980 H   0  0  0  0  0  0  0  0  0  0  0  0
   17.9840   35.0270   70.2800 H   0  0  0  0  0  0  0  0  0  0  0  0
   14.4600   28.1300   74.1660 H   0  0  0  0  0  0  0  0  0  0  0  0
   15.1470   29.3910   75.2530 H   0  0  0  0  0  0  0  0  0  0  0  0
   12.0160   30.7470   73.3200 H   0  0  0  0  0  0  0  0  0  0  0  0
   11.4000   29.0790   73.5610 H   0  0  0  0  0  0  0  0  0  0  0  0
   23.4120   36.8230   69.4560 H   0  0  0  0  0  0  0  0  0  0  0  0
   23.4150   35.1380   68.7780 H   0  0  0  0  0  0  0  0  0  0  0  0
  1  2  1  0  0  0  0
  2  7  1  0  0  0  0
  3  2  2  0  0  0  0
  3  4  1  0  0  0  0
  4  5  2  0  0  0  0
  5 25  1  0  0  0  0
  5  6  1  0  0  0  0
  6 29  1  0  0  0  0
  7  8  1  0  0  0  0
  7  6  2  0  0  0  0
  8 30  1  0  0  0  0
  9  8  1  0  0  0  0
  9 10  1  0  0  0  0
 10 11  2  0  0  0  0
 10 15  1  0  0  0  0
 11 12  1  0  0  0  0
 12 33  1  0  0  0  0
 12 13  2  0  0  0  0
 13 16  1  0  0  0  0
 14 34  1  0  0  0  0
 14 13  1  0  0  0  0
 15 14  2  0  0  0  0
 16 17  2  0  0  0  0
 17 18  1  0  0  0  0
 18 21  1  0  0  0  0
 19 18  1  0  0  0  0
 20 16  1  0  0  0  0
 20 19  2  0  0  0  0
 21 22  1  0  0  0  0
 21 37  1  0  0  0  0
 22 23  2  0  0  0  0
 24 22  1  0  0  0  0
 26 40  1  0  0  0  0
 26 25  1  0  0  0  0
 27  4  1  0  0  0  0
 27 26  1  0  0  0  0
 28  3  1  0  0  0  0
 31  8  1  0  0  0  0
 32 11  1  0  0  0  0
 35 15  1  0  0  0  0
 36 21  1  0  0  0  0
 38 24  1  0  0  0  0
 39 24  1  0  0  0  0
 41 26  1  0  0  0  0
M  END
>  <Pose>
1

>  <Score>
-6.94

$$$$
