
 OpenBabel03212208413D

 49 52  0  0  0  0  0  0  0  0999 V2000
   25.5620   36.4640   63.3680 B   0  0  0  0  0  0  0  0  0  0  0  0
   24.4860   36.5710   64.9400 C   0  0  0  0  0  0  0  0  0  0  0  0
   24.1780   35.4090   65.6200 C   0  0  0  0  0  0  0  0  0  0  0  0
   23.4030   35.4320   66.7650 C   0  0  0  0  0  0  0  0  0  0  0  0
   22.9460   36.6590   67.2050 C   0  0  0  0  0  0  0  0  0  0  0  0
   23.2600   37.8130   66.5180 C   0  0  0  0  0  0  0  0  0  0  0  0
   24.0340   37.7990   65.3750 C   0  0  0  0  0  0  0  0  0  0  0  0
   22.1660   36.4170   68.4070 C   0  0  0  0  0  0  0  0  0  0  0  0
   21.5950   37.3370   69.0760 O   0  0  0  0  0  0  0  0  0  0  0  0
   22.1720   35.0220   68.6670 N   0  0  0  0  0  0  0  0  0  0  0  0
   22.9270   34.3770   67.6720 C   0  0  0  0  0  0  0  0  0  0  0  0
   23.1680   33.1440   67.5540 O   0  0  0  0  0  0  0  0  0  0  0  0
   21.4880   34.4260   69.7940 C   0  0  0  0  0  0  0  0  0  0  0  0
   20.5320   33.3570   69.4130 C   0  0  0  0  0  0  0  0  0  0  0  0
   19.4830   33.2080   70.4780 C   0  0  0  0  0  0  0  0  0  0  0  0
   18.6520   31.9890   70.3490 C   0  0  0  0  0  0  0  0  0  0  0  0
   18.7510   31.1760   69.3940 O   0  0  0  0  0  0  0  0  0  0  0  0
   17.6620   31.6710   71.3470 N   0  0  0  0  0  0  0  0  0  0  0  0
   16.3030   31.3540   70.9690 C   0  0  0  0  0  0  0  0  0  0  0  0
   15.7400   30.1820   71.7000 C   0  0  0  0  0  0  0  0  0  0  0  0
   16.6430   29.5860   72.6550 N   0  0  0  0  0  0  0  0  0  0  0  0
   17.6780   30.2970   73.3560 C   0  0  0  0  0  0  0  0  0  0  0  0
   17.9730   31.6530   72.7640 C   0  0  0  0  0  0  0  0  0  0  0  0
   16.4980   28.1870   72.9240 C   0  0  0  0  0  0  0  0  0  0  0  0
   17.1800   27.2500   72.2120 N   0  0  0  0  0  0  0  0  0  0  0  0
   17.0730   25.9400   72.4300 C   0  0  0  0  0  0  0  0  0  0  0  0
   16.2250   25.4970   73.4340 C   0  0  0  0  0  0  0  0  0  0  0  0
   15.5310   26.4040   74.1620 N   0  0  0  0  0  0  0  0  0  0  0  0
   15.6640   27.7160   73.9120 C   0  0  0  0  0  0  0  0  0  0  0  0
   24.5200   34.4250   65.3040 H   0  0  0  0  0  0  0  0  0  0  0  0
   22.8770   38.7520   66.9030 H   0  0  0  0  0  0  0  0  0  0  0  0
   24.2590   38.7210   64.8620 H   0  0  0  0  0  0  0  0  0  0  0  0
   20.9590   35.2320   70.3240 H   0  0  0  0  0  0  0  0  0  0  0  0
   22.2900   33.9790   70.4560 H   0  0  0  0  0  0  0  0  0  0  0  0
   21.0070   32.3940   69.1570 H   0  0  0  0  0  0  0  0  0  0  0  0
   19.9790   33.6430   68.4680 H   0  0  0  0  0  0  0  0  0  0  0  0
   19.9250   33.2190   71.5020 H   0  0  0  0  0  0  0  0  0  0  0  0
   18.7940   34.0780   70.4470 H   0  0  0  0  0  0  0  0  0  0  0  0
   16.2200   31.2540   69.8700 H   0  0  0  0  0  0  0  0  0  0  0  0
   15.6930   32.2660   71.2260 H   0  0  0  0  0  0  0  0  0  0  0  0
   14.8180   30.4700   72.2820 H   0  0  0  0  0  0  0  0  0  0  0  0
   15.3900   29.4010   70.9860 H   0  0  0  0  0  0  0  0  0  0  0  0
   17.3780   30.4320   74.3980 H   0  0  0  0  0  0  0  0  0  0  0  0
   18.6150   29.6900   73.2380 H   0  0  0  0  0  0  0  0  0  0  0  0
   19.0120   31.9810   72.9640 H   0  0  0  0  0  0  0  0  0  0  0  0
   17.2580   32.3880   73.2370 H   0  0  0  0  0  0  0  0  0  0  0  0
   17.6240   25.2090   71.8530 H   0  0  0  0  0  0  0  0  0  0  0  0
   16.1150   24.4540   73.6360 H   0  0  0  0  0  0  0  0  0  0  0  0
   15.0970   28.4100   74.5110 H   0  0  0  0  0  0  0  0  0  0  0  0
  1  2  1  0  0  0  0
  2  7  2  0  0  0  0
  2  3  1  0  0  0  0
  3  4  2  0  0  0  0
  4  5  1  0  0  0  0
  4 11  1  0  0  0  0
  5  8  1  0  0  0  0
  6 31  1  0  0  0  0
  6  5  2  0  0  0  0
  7  6  1  0  0  0  0
  8 10  1  0  0  0  0
  8  9  2  0  0  0  0
 10 13  1  0  0  0  0
 11 10  1  0  0  0  0
 12 11  2  0  0  0  0
 13 33  1  0  0  0  0
 13 34  1  0  0  0  0
 14 13  1  0  0  0  0
 14 15  1  0  0  0  0
 15 37  1  0  0  0  0
 16 15  1  0  0  0  0
 16 18  1  0  0  0  0
 17 16  2  0  0  0  0
 18 23  1  0  0  0  0
 19 40  1  0  0  0  0
 19 18  1  0  0  0  0
 19 20  1  0  0  0  0
 20 41  1  0  0  0  0
 20 21  1  0  0  0  0
 21 24  1  0  0  0  0
 21 22  1  0  0  0  0
 22 43  1  0  0  0  0
 23 45  1  0  0  0  0
 23 46  1  0  0  0  0
 23 22  1  0  0  0  0
 24 29  1  0  0  0  0
 25 26  1  0  0  0  0
 25 24  2  0  0  0  0
 26 27  2  0  0  0  0
 27 48  1  0  0  0  0
 27 28  1  0  0  0  0
 29 28  2  0  0  0  0
 29 49  1  0  0  0  0
 30  3  1  0  0  0  0
 32  7  1  0  0  0  0
 35 14  1  0  0  0  0
 36 14  1  0  0  0  0
 38 15  1  0  0  0  0
 39 19  1  0  0  0  0
 42 20  1  0  0  0  0
 44 22  1  0  0  0  0
 47 26  1  0  0  0  0
M  END
>  <Pose>
1

>  <Score>
-6.23

$$$$
