
 OpenBabel03212208413D

 41 44  0  0  1  0  0  0  0  0999 V2000
   13.6700   31.0750   71.1630 B   0  0  0  0  0  0  0  0  0  0  0  0
   15.1630   30.3650   72.0990 C   0  0  0  0  0  0  0  0  0  0  0  0
   15.0740   29.2830   72.9410 C   0  0  0  0  0  0  0  0  0  0  0  0
   16.2170   28.8220   73.5920 C   0  0  0  0  0  0  0  0  0  0  0  0
   17.4380   29.3890   73.4390 C   0  0  0  0  0  0  0  0  0  0  0  0
   17.5280   30.4890   72.5820 C   0  0  0  0  0  0  0  0  0  0  0  0
   16.4090   30.9580   71.9310 C   0  0  0  0  0  0  0  0  0  0  0  0
   18.4310   28.7350   74.2060 N   0  0  0  0  0  0  0  0  0  0  0  0
   17.8060   27.6790   74.8960 C   0  0  0  0  0  0  0  0  0  0  0  0
   18.3690   26.8680   75.6820 O   0  0  0  0  0  0  0  0  0  0  0  0
   16.3590   27.6730   74.5440 C   0  0  1  0  0  0  0  0  0  0  0  0
   15.5310   27.9200   75.7510 C   0  0  0  0  0  0  0  0  0  0  0  0
   14.5690   27.1450   76.1020 C   0  0  0  0  0  0  0  0  0  0  0  0
   14.2040   25.9560   75.3490 N   0  0  0  0  0  0  0  0  0  0  0  0
   14.9830   25.7090   74.1970 C   0  0  0  0  0  0  0  0  0  0  0  0
   15.9650   26.4820   73.8230 C   0  0  0  0  0  0  0  0  0  0  0  0
   16.6810   26.1000   72.6120 C   0  0  0  0  0  0  0  0  0  0  0  0
   17.2430   25.7760   71.6520 N   0  0  0  0  0  0  0  0  0  0  0  0
   14.6630   24.5320   73.4050 N   0  0  0  0  0  0  0  0  0  0  0  0
   13.9510   27.6830   77.3530 C   0  0  0  0  0  0  0  0  0  0  0  0
   14.6650   28.8240   77.6540 O   0  0  0  0  0  0  0  0  0  0  0  0
   15.6450   29.0470   76.7340 C   0  0  0  0  0  0  0  0  0  0  0  0
   16.5010   29.9780   76.6630 O   0  0  0  0  0  0  0  0  0  0  0  0
   13.9990   26.6330   78.4470 C   0  0  0  0  0  0  0  0  0  0  0  0
   12.5070   28.0810   77.1090 C   0  0  0  0  0  0  0  0  0  0  0  0
   19.8610   29.0660   74.2950 C   0  0  0  0  0  0  0  0  0  0  0  0
   14.1090   28.8210   73.0730 H   0  0  0  0  0  0  0  0  0  0  0  0
   18.5060   30.9420   72.4620 H   0  0  0  0  0  0  0  0  0  0  0  0
   16.5240   31.8150   71.2760 H   0  0  0  0  0  0  0  0  0  0  0  0
   13.4190   25.3660   75.6760 H   0  0  0  0  0  0  0  0  0  0  0  0
   13.6560   24.2840   73.3170 H   0  0  0  0  0  0  0  0  0  0  0  0
   15.3980   23.9700   72.9530 H   0  0  0  0  0  0  0  0  0  0  0  0
   14.8440   26.8110   79.1580 H   0  0  0  0  0  0  0  0  0  0  0  0
   13.0230   26.6170   78.9650 H   0  0  0  0  0  0  0  0  0  0  0  0
   14.1420   25.6590   77.9540 H   0  0  0  0  0  0  0  0  0  0  0  0
   12.4770   29.1190   76.7230 H   0  0  0  0  0  0  0  0  0  0  0  0
   11.9170   28.0020   78.0400 H   0  0  0  0  0  0  0  0  0  0  0  0
   12.0240   27.4200   76.3630 H   0  0  0  0  0  0  0  0  0  0  0  0
   20.4390   28.2220   73.8290 H   0  0  0  0  0  0  0  0  0  0  0  0
   20.0780   29.9670   73.6790 H   0  0  0  0  0  0  0  0  0  0  0  0
   20.1820   29.2210   75.3250 H   0  0  0  0  0  0  0  0  0  0  0  0
  1  2  1  0  0  0  0
  2  3  1  0  0  0  0
  3 27  1  0  0  0  0
  3  4  2  0  0  0  0
  5  4  1  0  0  0  0
  5  8  1  0  0  0  0
  6  5  2  0  0  0  0
  7  2  2  0  0  0  0
  7  6  1  0  0  0  0
  8 26  1  0  0  0  0
  8  9  1  0  0  0  0
  9 10  2  0  0  0  0
 11  4  1  6  0  0  0
 11  9  1  0  0  0  0
 11 12  1  0  0  0  0
 12 13  2  0  0  0  0
 12 22  1  0  0  0  0
 13 20  1  0  0  0  0
 14 30  1  0  0  0  0
 14 13  1  0  0  0  0
 15 14  1  0  0  0  0
 16 15  2  0  0  0  0
 16 11  1  0  0  0  0
 17 16  1  0  0  0  0
 18 17  3  0  0  0  0
 19 15  1  0  0  0  0
 20 21  1  0  0  0  0
 20 24  1  0  0  0  0
 22 21  1  0  0  0  0
 23 22  2  0  0  0  0
 24 34  1  0  0  0  0
 24 33  1  0  0  0  0
 25 20  1  0  0  0  0
 25 37  1  0  0  0  0
 26 41  1  0  0  0  0
 28  6  1  0  0  0  0
 29  7  1  0  0  0  0
 31 19  1  0  0  0  0
 32 19  1  0  0  0  0
 35 24  1  0  0  0  0
 36 25  1  0  0  0  0
 38 25  1  0  0  0  0
 39 26  1  0  0  0  0
 40 26  1  0  0  0  0
M  END
>  <Pose>
1

>  <Score>
-4.24

$$$$
