
 OpenBabel03212208413D

 46 49  0  0  0  0  0  0  0  0999 V2000
    6.9270   29.9570   74.7660 B   0  0  0  0  0  0  0  0  0  0  0  0
    8.2150   29.8270   76.1770 C   0  0  0  0  0  0  0  0  0  0  0  0
    9.5620   29.6130   75.8890 C   0  0  0  0  0  0  0  0  0  0  0  0
   10.5330   29.5070   76.8610 C   0  0  0  0  0  0  0  0  0  0  0  0
   10.1200   29.6250   78.1670 C   0  0  0  0  0  0  0  0  0  0  0  0
    8.7740   29.8420   78.4940 C   0  0  0  0  0  0  0  0  0  0  0  0
    7.8430   29.9400   77.4920 C   0  0  0  0  0  0  0  0  0  0  0  0
   11.2680   29.4830   78.9930 N   0  0  0  0  0  0  0  0  0  0  0  0
   12.4230   29.2730   78.2010 C   0  0  0  0  0  0  0  0  0  0  0  0
   13.6100   29.1090   78.5740 O   0  0  0  0  0  0  0  0  0  0  0  0
   11.9810   29.2820   76.7970 C   0  0  0  0  0  0  0  0  0  0  0  0
   12.7520   29.1190   75.7440 C   0  0  0  0  0  0  0  0  0  0  0  0
   12.3150   29.1310   74.4120 N   0  0  0  0  0  0  0  0  0  0  0  0
   12.7040   30.0690   73.4730 N   0  0  0  0  0  0  0  0  0  0  0  0
   14.0150   30.1480   72.9320 C   0  0  0  0  0  0  0  0  0  0  0  0
   14.9620   30.0840   73.7310 O   0  0  0  0  0  0  0  0  0  0  0  0
   14.2870   30.2940   71.4850 C   0  0  0  0  0  0  0  0  0  0  0  0
   14.9090   31.4960   71.1800 N   0  0  0  0  0  0  0  0  0  0  0  0
   14.4270   32.7040   70.8900 C   0  0  0  0  0  0  0  0  0  0  0  0
   15.4860   33.5530   70.6010 C   0  0  0  0  0  0  0  0  0  0  0  0
   16.6110   32.8240   70.7270 N   0  0  0  0  0  0  0  0  0  0  0  0
   16.2720   31.6030   71.0720 C   0  0  0  0  0  0  0  0  0  0  0  0
   15.2440   34.8730   70.2760 C   0  0  0  0  0  0  0  0  0  0  0  0
   16.2240   35.6180   70.0160 O   0  0  0  0  0  0  0  0  0  0  0  0
   13.9830   35.2760   70.2550 N   0  0  0  0  0  0  0  0  0  0  0  0
   12.9650   34.4450   70.5390 C   0  0  0  0  0  0  0  0  0  0  0  0
   11.7850   34.8690   70.5090 O   0  0  0  0  0  0  0  0  0  0  0  0
   13.1490   33.1350   70.8650 N   0  0  0  0  0  0  0  0  0  0  0  0
   12.0440   32.2830   71.1990 C   0  0  0  0  0  0  0  0  0  0  0  0
   13.6690   36.6740   69.9120 C   0  0  0  0  0  0  0  0  0  0  0  0
    9.8620   29.5310   74.8570 H   0  0  0  0  0  0  0  0  0  0  0  0
    8.4890   29.9300   79.5270 H   0  0  0  0  0  0  0  0  0  0  0  0
    6.7930   30.1100   77.7670 H   0  0  0  0  0  0  0  0  0  0  0  0
   11.2750   29.5270   80.0390 H   0  0  0  0  0  0  0  0  0  0  0  0
   13.8080   28.9660   75.9120 H   0  0  0  0  0  0  0  0  0  0  0  0
   11.6480   28.3600   74.1360 H   0  0  0  0  0  0  0  0  0  0  0  0
   12.0090   30.7690   73.1350 H   0  0  0  0  0  0  0  0  0  0  0  0
   14.7080   29.3540   71.1490 H   0  0  0  0  0  0  0  0  0  0  0  0
   13.2470   30.2990   71.0060 H   0  0  0  0  0  0  0  0  0  0  0  0
   16.9850   30.8110   71.2420 H   0  0  0  0  0  0  0  0  0  0  0  0
   11.1110   32.9250   71.0180 H   0  0  0  0  0  0  0  0  0  0  0  0
   11.8470   31.4380   70.5590 H   0  0  0  0  0  0  0  0  0  0  0  0
   11.9370   32.1220   72.2980 H   0  0  0  0  0  0  0  0  0  0  0  0
   14.2310   36.9360   68.9930 H   0  0  0  0  0  0  0  0  0  0  0  0
   14.0250   37.3650   70.7070 H   0  0  0  0  0  0  0  0  0  0  0  0
   12.5810   36.8140   69.7560 H   0  0  0  0  0  0  0  0  0  0  0  0
  1  2  1  0  0  0  0
  2  7  1  0  0  0  0
  3  2  2  0  0  0  0
  3  4  1  0  0  0  0
  4  5  2  0  0  0  0
  5  6  1  0  0  0  0
  5  8  1  0  0  0  0
  6 32  1  0  0  0  0
  7 33  1  0  0  0  0
  7  6  2  0  0  0  0
  8 34  1  0  0  0  0
  9 10  2  0  0  0  0
  9  8  1  0  0  0  0
 11  4  1  0  0  0  0
 11  9  1  0  0  0  0
 12 35  1  0  0  0  0
 12 11  2  0  0  0  0
 13 12  1  0  0  0  0
 14 13  1  0  0  0  0
 15 14  1  0  0  0  0
 15 16  2  0  0  0  0
 17 15  1  0  0  0  0
 18 17  1  0  0  0  0
 19 18  1  0  0  0  0
 20 21  1  0  0  0  0
 20 19  2  0  0  0  0
 21 22  2  0  0  0  0
 22 18  1  0  0  0  0
 22 40  1  0  0  0  0
 23 20  1  0  0  0  0
 24 23  2  0  0  0  0
 25 23  1  0  0  0  0
 25 26  1  0  0  0  0
 26 28  1  0  0  0  0
 27 26  2  0  0  0  0
 28 19  1  0  0  0  0
 28 29  1  0  0  0  0
 29 43  1  0  0  0  0
 30 25  1  0  0  0  0
 30 45  1  0  0  0  0
 31  3  1  0  0  0  0
 36 13  1  0  0  0  0
 37 14  1  0  0  0  0
 38 17  1  0  0  0  0
 39 17  1  0  0  0  0
 41 29  1  0  0  0  0
 42 29  1  0  0  0  0
 44 30  1  0  0  0  0
 46 30  1  0  0  0  0
M  END
>  <Pose>
1

>  <Score>
-7.44

$$$$
