
 OpenBabel03212208413D

 51 56  0  0  1  0  0  0  0  0999 V2000
   21.6710   33.6090   69.2000 B   0  0  0  0  0  0  0  0  0  0  0  0
   20.3880   33.5130   70.6090 C   0  0  0  0  0  0  0  0  0  0  0  0
   19.0500   33.8330   70.4120 C   0  0  0  0  0  0  0  0  0  0  0  0
   18.1350   33.7620   71.4280 C   0  0  0  0  0  0  0  0  0  0  0  0
   18.5960   33.3550   72.6710 C   0  0  0  0  0  0  0  0  0  0  0  0
   19.9220   33.0360   72.8730 C   0  0  0  0  0  0  0  0  0  0  0  0
   20.8330   33.1120   71.8450 C   0  0  0  0  0  0  0  0  0  0  0  0
   17.5190   33.3310   73.6110 N   0  0  0  0  0  0  0  0  0  0  0  0
   16.3360   33.7330   72.9550 C   0  0  0  0  0  0  0  0  0  0  0  0
   15.2260   33.8110   73.5000 O   0  0  0  0  0  0  0  0  0  0  0  0
   16.7030   34.0230   71.5520 C   0  0  1  0  0  0  0  0  0  0  0  0
   16.2800   35.3620   71.2720 N   0  0  2  0  0  0  0  0  0  0  0  0
   14.8320   35.2510   71.1120 C   0  0  2  0  0  0  0  0  0  0  0  0
   14.5760   33.9030   70.5230 C   0  0  1  0  0  0  0  0  0  0  0  0
   15.8960   33.2160   70.5660 C   0  0  2  0  0  0  0  0  0  0  0  0
   15.6020   31.8610   71.0220 C   0  0  0  0  0  0  0  0  0  0  0  0
   16.4050   30.9020   71.0640 O   0  0  0  0  0  0  0  0  0  0  0  0
   14.2560   31.7850   71.4200 N   0  0  0  0  0  0  0  0  0  0  0  0
   13.6430   33.0820   71.3590 C   0  0  0  0  0  0  0  0  0  0  0  0
   12.5690   33.4750   71.8800 O   0  0  0  0  0  0  0  0  0  0  0  0
   13.5650   30.6040   71.8310 C   0  0  0  0  0  0  0  0  0  0  0  0
   13.7560   30.2190   73.2530 C   0  0  2  0  0  0  0  0  0  0  0  0
   14.0700   28.8770   73.4350 O   0  0  0  0  0  0  0  0  0  0  0  0
   13.9630   28.6980   74.8070 C   0  0  0  0  0  0  0  0  0  0  0  0
   12.8240   29.5350   75.3000 C   0  0  0  0  0  0  0  0  0  0  0  0
   12.6220   30.5380   74.1650 C   0  0  0  0  0  0  0  0  0  0  0  0
   14.4560   36.3010   70.0770 C   0  0  0  0  0  0  0  0  0  0  0  0
   15.7440   37.0100   69.7150 C   0  0  0  0  0  0  0  0  0  0  0  0
   16.7600   35.9000   70.0160 C   0  0  0  0  0  0  0  0  0  0  0  0
   18.7890   34.1420   69.3990 H   0  0  0  0  0  0  0  0  0  0  0  0
   20.3070   32.7120   73.8510 H   0  0  0  0  0  0  0  0  0  0  0  0
   21.8940   32.8540   72.0160 H   0  0  0  0  0  0  0  0  0  0  0  0
   17.6170   33.0530   74.6320 H   0  0  0  0  0  0  0  0  0  0  0  0
   14.3130   35.4270   72.0660 H   0  0  0  0  0  0  0  0  0  0  0  0
   14.1580   33.9760   69.4820 H   0  0  0  0  0  0  0  0  0  0  0  0
   16.4310   33.2490   69.5960 H   0  0  0  0  0  0  0  0  0  0  0  0
   12.4780   30.7760   71.6680 H   0  0  0  0  0  0  0  0  0  0  0  0
   13.8160   29.7120   71.2060 H   0  0  0  0  0  0  0  0  0  0  0  0
   14.6510   30.7890   73.6300 H   0  0  0  0  0  0  0  0  0  0  0  0
   13.6730   27.6210   74.9680 H   0  0  0  0  0  0  0  0  0  0  0  0
   14.9170   28.8780   75.3410 H   0  0  0  0  0  0  0  0  0  0  0  0
   13.0490   30.0680   76.2460 H   0  0  0  0  0  0  0  0  0  0  0  0
   11.8860   28.9440   75.3680 H   0  0  0  0  0  0  0  0  0  0  0  0
   11.6270   30.4730   73.7300 H   0  0  0  0  0  0  0  0  0  0  0  0
   12.7220   31.5860   74.5770 H   0  0  0  0  0  0  0  0  0  0  0  0
   13.6690   36.9790   70.4290 H   0  0  0  0  0  0  0  0  0  0  0  0
   14.0700   35.8320   69.1370 H   0  0  0  0  0  0  0  0  0  0  0  0
   15.9460   37.8940   70.3230 H   0  0  0  0  0  0  0  0  0  0  0  0
   15.8240   37.2650   68.6590 H   0  0  0  0  0  0  0  0  0  0  0  0
   17.7560   36.3400   70.0740 H   0  0  0  0  0  0  0  0  0  0  0  0
   16.6830   35.2130   69.1660 H   0  0  0  0  0  0  0  0  0  0  0  0
  1  2  1  0  0  0  0
  2  7  1  0  0  0  0
  3  2  2  0  0  0  0
  3  4  1  0  0  0  0
  4  5  2  0  0  0  0
  5  6  1  0  0  0  0
  5  8  1  0  0  0  0
  6 31  1  0  0  0  0
  7 32  1  0  0  0  0
  7  6  2  0  0  0  0
  8 33  1  0  0  0  0
  9 10  2  0  0  0  0
  9  8  1  0  0  0  0
 11  4  1  6  0  0  0
 11  9  1  0  0  0  0
 12 29  1  6  0  0  0
 12 11  1  0  0  0  0
 13 12  1  0  0  0  0
 13 34  1  1  0  0  0
 14 35  1  6  0  0  0
 14 15  1  0  0  0  0
 14 13  1  0  0  0  0
 14 19  1  0  0  0  0
 15 36  1  6  0  0  0
 15 16  1  0  0  0  0
 15 11  1  0  0  0  0
 16 17  2  0  0  0  0
 16 18  1  0  0  0  0
 18 21  1  0  0  0  0
 19 18  1  0  0  0  0
 19 20  2  0  0  0  0
 21 22  1  0  0  0  0
 22 23  1  0  0  0  0
 22 39  1  1  0  0  0
 22 26  1  0  0  0  0
 23 24  1  0  0  0  0
 24 40  1  0  0  0  0
 24 25  1  0  0  0  0
 24 41  1  0  0  0  0
 25 43  1  0  0  0  0
 25 42  1  0  0  0  0
 26 45  1  0  0  0  0
 26 25  1  0  0  0  0
 27 46  1  0  0  0  0
 27 13  1  0  0  0  0
 28 29  1  0  0  0  0
 28 27  1  0  0  0  0
 28 48  1  0  0  0  0
 29 50  1  0  0  0  0
 30  3  1  0  0  0  0
 37 21  1  0  0  0  0
 38 21  1  0  0  0  0
 44 26  1  0  0  0  0
 47 27  1  0  0  0  0
 49 28  1  0  0  0  0
 51 29  1  0  0  0  0
M  END
>  <Pose>
1

>  <Score>
-6.56

$$$$
