
 OpenBabel03212208413D

 38 41  0  0  1  0  0  0  0  0999 V2000
   21.2310   37.5850   73.2410 B   0  0  0  0  0  0  0  0  0  0  0  0
   20.8240   36.2740   71.9290 C   0  0  0  0  0  0  0  0  0  0  0  0
   20.3220   35.0130   72.2680 C   0  0  0  0  0  0  0  0  0  0  0  0
   20.0310   34.0730   71.3150 C   0  0  0  0  0  0  0  0  0  0  0  0
   20.2370   34.3700   69.9990 C   0  0  0  0  0  0  0  0  0  0  0  0
   20.7380   35.6190   69.6090 C   0  0  0  0  0  0  0  0  0  0  0  0
   21.0200   36.5420   70.5870 C   0  0  0  0  0  0  0  0  0  0  0  0
   19.8790   33.2760   69.1730 N   0  0  0  0  0  0  0  0  0  0  0  0
   19.4280   32.2430   70.0140 C   0  0  0  0  0  0  0  0  0  0  0  0
   19.0170   31.1000   69.6850 O   0  0  0  0  0  0  0  0  0  0  0  0
   19.5030   32.7010   71.4190 C   0  0  1  0  0  0  0  0  0  0  0  0
   20.4500   31.8230   72.1800 C   0  0  0  0  0  0  0  0  0  0  0  0
   20.1610   31.1630   73.2700 C   0  0  0  0  0  0  0  0  0  0  0  0
   18.8500   31.2730   73.7920 N   0  0  0  0  0  0  0  0  0  0  0  0
   17.8840   32.0820   73.1390 C   0  0  0  0  0  0  0  0  0  0  0  0
   18.1710   32.7460   72.0460 C   0  0  0  0  0  0  0  0  0  0  0  0
   17.1160   33.5590   71.4330 C   0  0  0  0  0  0  0  0  0  0  0  0
   16.2740   34.1840   70.9460 N   0  0  0  0  0  0  0  0  0  0  0  0
   16.5440   32.1800   73.6930 N   0  0  0  0  0  0  0  0  0  0  0  0
   21.3680   30.4190   73.7040 C   0  0  0  0  0  0  0  0  0  0  0  0
   22.3830   30.7020   72.7760 O   0  0  0  0  0  0  0  0  0  0  0  0
   21.8560   31.5580   71.8290 C   0  0  0  0  0  0  0  0  0  0  0  0
   22.4960   32.0290   70.8270 O   0  0  0  0  0  0  0  0  0  0  0  0
   21.1310   28.9090   73.6330 C   0  0  0  0  0  0  0  0  0  0  0  0
   21.7760   30.8130   75.1170 C   0  0  0  0  0  0  0  0  0  0  0  0
   20.1790   34.8290   73.3260 H   0  0  0  0  0  0  0  0  0  0  0  0
   20.9120   35.8890   68.5840 H   0  0  0  0  0  0  0  0  0  0  0  0
   21.4100   37.5140   70.2860 H   0  0  0  0  0  0  0  0  0  0  0  0
   19.9460   33.2600   68.1070 H   0  0  0  0  0  0  0  0  0  0  0  0
   18.5600   30.7650   74.6670 H   0  0  0  0  0  0  0  0  0  0  0  0
   16.2630   31.7370   74.5830 H   0  0  0  0  0  0  0  0  0  0  0  0
   15.8450   32.7250   73.1630 H   0  0  0  0  0  0  0  0  0  0  0  0
   22.1400   28.4510   73.5610 H   0  0  0  0  0  0  0  0  0  0  0  0
   20.6660   28.5280   74.5470 H   0  0  0  0  0  0  0  0  0  0  0  0
   20.5930   28.6670   72.7100 H   0  0  0  0  0  0  0  0  0  0  0  0
   21.6430   29.9600   75.8230 H   0  0  0  0  0  0  0  0  0  0  0  0
   22.8610   31.0990   75.0680 H   0  0  0  0  0  0  0  0  0  0  0  0
   21.2110   31.7020   75.4350 H   0  0  0  0  0  0  0  0  0  0  0  0
  2  3  1  0  0  0  0
  2  1  1  0  0  0  0
  3 26  1  0  0  0  0
  4 11  1  0  0  0  0
  4  3  2  0  0  0  0
  5  4  1  0  0  0  0
  6  5  2  0  0  0  0
  6  7  1  0  0  0  0
  7  2  2  0  0  0  0
  8  5  1  0  0  0  0
  8  9  1  0  0  0  0
 10  9  2  0  0  0  0
 11  9  1  6  0  0  0
 11 16  1  0  0  0  0
 11 12  1  0  0  0  0
 12 13  2  0  0  0  0
 13 20  1  0  0  0  0
 13 14  1  0  0  0  0
 14 30  1  0  0  0  0
 15 19  1  0  0  0  0
 15 14  1  0  0  0  0
 16 15  2  0  0  0  0
 17 16  1  0  0  0  0
 18 17  3  0  0  0  0
 19 31  1  0  0  0  0
 20 25  1  0  0  0  0
 21 20  1  0  0  0  0
 22 12  1  0  0  0  0
 22 21  1  0  0  0  0
 23 22  2  0  0  0  0
 24 20  1  0  0  0  0
 24 34  1  0  0  0  0
 25 38  1  0  0  0  0
 25 36  1  0  0  0  0
 27  6  1  0  0  0  0
 28  7  1  0  0  0  0
 29  8  1  0  0  0  0
 32 19  1  0  0  0  0
 33 24  1  0  0  0  0
 35 24  1  0  0  0  0
 37 25  1  0  0  0  0
M  END
>  <Pose>
1

>  <Score>
-5.00

$$$$
