
 OpenBabel03212208413D

 49 52  0  0  1  0  0  0  0  0999 V2000
   14.3840   28.0070   77.2210 B   0  0  0  0  0  0  0  0  0  0  0  0
   13.9470   29.0270   75.6540 C   0  0  0  0  0  0  0  0  0  0  0  0
   14.9210   29.6600   74.9040 C   0  0  0  0  0  0  0  0  0  0  0  0
   14.6170   30.3960   73.7770 C   0  0  0  0  0  0  0  0  0  0  0  0
   13.2820   30.4680   73.4330 C   0  0  0  0  0  0  0  0  0  0  0  0
   12.3000   29.8320   74.1860 C   0  0  0  0  0  0  0  0  0  0  0  0
   12.6270   29.1120   75.2940 C   0  0  0  0  0  0  0  0  0  0  0  0
   13.1530   31.2720   72.2500 N   0  0  0  0  0  0  0  0  0  0  0  0
   14.4390   31.7120   71.8470 C   0  0  0  0  0  0  0  0  0  0  0  0
   14.6520   32.4410   70.8500 O   0  0  0  0  0  0  0  0  0  0  0  0
   15.4250   31.1600   72.7990 C   0  0  1  0  0  0  0  0  0  0  0  0
   16.1920   32.2080   73.4160 N   0  0  0  0  0  0  0  0  0  0  0  0
   17.1990   32.5310   72.4270 C   0  0  2  0  0  0  0  0  0  0  0  0
   17.6390   31.1850   71.9170 C   0  0  2  0  0  0  0  0  0  0  0  0
   16.4060   30.3250   72.0560 C   0  0  1  0  0  0  0  0  0  0  0  0
   16.8550   29.1070   72.7450 C   0  0  0  0  0  0  0  0  0  0  0  0
   16.1800   28.0690   72.9560 O   0  0  0  0  0  0  0  0  0  0  0  0
   18.2300   29.2640   73.1640 N   0  0  0  0  0  0  0  0  0  0  0  0
   18.6710   30.5520   72.7680 C   0  0  0  0  0  0  0  0  0  0  0  0
   19.7710   31.0530   73.1020 O   0  0  0  0  0  0  0  0  0  0  0  0
   19.0340   28.2930   73.8650 C   0  0  0  0  0  0  0  0  0  0  0  0
   20.4850   28.7040   73.9320 C   0  0  0  0  0  0  0  0  0  0  0  0
   18.4810   28.1250   75.2830 C   0  0  0  0  0  0  0  0  0  0  0  0
   18.9810   26.9490   73.1710 C   0  0  0  0  0  0  0  0  0  0  0  0
   18.3080   33.3350   73.0500 C   0  0  0  0  0  0  0  0  0  0  0  0
   18.9050   34.2590   72.0720 C   0  0  0  0  0  0  0  0  0  0  0  0
   20.0980   34.6320   72.2420 O   0  0  0  0  0  0  0  0  0  0  0  0
   18.2340   34.7720   70.9330 N   0  0  0  0  0  0  0  0  0  0  0  0
   15.9330   29.5500   75.2490 H   0  0  0  0  0  0  0  0  0  0  0  0
   11.2540   29.8950   73.9070 H   0  0  0  0  0  0  0  0  0  0  0  0
   11.8300   28.6240   75.8640 H   0  0  0  0  0  0  0  0  0  0  0  0
   12.2360   31.4720   71.7960 H   0  0  0  0  0  0  0  0  0  0  0  0
   16.6640   31.8310   74.2530 H   0  0  0  0  0  0  0  0  0  0  0  0
   16.7840   33.1540   71.5980 H   0  0  0  0  0  0  0  0  0  0  0  0
   17.9540   31.1850   70.8640 H   0  0  0  0  0  0  0  0  0  0  0  0
   15.9800   30.0700   71.0600 H   0  0  0  0  0  0  0  0  0  0  0  0
   20.8660   28.8010   72.8950 H   0  0  0  0  0  0  0  0  0  0  0  0
   21.0970   27.8890   74.3910 H   0  0  0  0  0  0  0  0  0  0  0  0
   20.6290   29.6160   74.5490 H   0  0  0  0  0  0  0  0  0  0  0  0
   18.4700   29.1400   75.7270 H   0  0  0  0  0  0  0  0  0  0  0  0
   19.1090   27.4480   75.8730 H   0  0  0  0  0  0  0  0  0  0  0  0
   17.4320   27.7670   75.1560 H   0  0  0  0  0  0  0  0  0  0  0  0
   19.9270   26.4140   73.3820 H   0  0  0  0  0  0  0  0  0  0  0  0
   18.1490   26.3160   73.5120 H   0  0  0  0  0  0  0  0  0  0  0  0
   18.8670   27.1300   72.0880 H   0  0  0  0  0  0  0  0  0  0  0  0
   17.8000   33.9890   73.8190 H   0  0  0  0  0  0  0  0  0  0  0  0
   19.0310   32.7390   73.6200 H   0  0  0  0  0  0  0  0  0  0  0  0
   18.4070   34.4840   69.9590 H   0  0  0  0  0  0  0  0  0  0  0  0
   17.4990   35.5080   71.1060 H   0  0  0  0  0  0  0  0  0  0  0  0
  2  1  1  0  0  0  0
  3 29  1  0  0  0  0
  3  2  2  0  0  0  0
  4  3  1  0  0  0  0
  5  4  2  0  0  0  0
  5  6  1  0  0  0  0
  6  7  2  0  0  0  0
  7  2  1  0  0  0  0
  7 31  1  0  0  0  0
  8  5  1  0  0  0  0
  9  8  1  0  0  0  0
 10  9  2  0  0  0  0
 11  9  1  6  0  0  0
 11 12  1  0  0  0  0
 11  4  1  0  0  0  0
 12 33  1  0  0  0  0
 13 34  1  6  0  0  0
 13 25  1  0  0  0  0
 13 12  1  0  0  0  0
 14 35  1  6  0  0  0
 14 15  1  0  0  0  0
 14 13  1  0  0  0  0
 14 19  1  0  0  0  0
 15 36  1  6  0  0  0
 15 16  1  0  0  0  0
 15 11  1  0  0  0  0
 16 17  2  0  0  0  0
 16 18  1  0  0  0  0
 18 21  1  0  0  0  0
 19 20  2  0  0  0  0
 19 18  1  0  0  0  0
 21 22  1  0  0  0  0
 21 23  1  0  0  0  0
 22 38  1  0  0  0  0
 22 39  1  0  0  0  0
 23 40  1  0  0  0  0
 23 41  1  0  0  0  0
 24 43  1  0  0  0  0
 24 44  1  0  0  0  0
 24 21  1  0  0  0  0
 25 47  1  0  0  0  0
 25 46  1  0  0  0  0
 26 27  2  0  0  0  0
 26 25  1  0  0  0  0
 28 49  1  0  0  0  0
 28 26  1  0  0  0  0
 30  6  1  0  0  0  0
 32  8  1  0  0  0  0
 37 22  1  0  0  0  0
 42 23  1  0  0  0  0
 45 24  1  0  0  0  0
 48 28  1  0  0  0  0
M  END
>  <Pose>
1

>  <Score>
-6.36

$$$$
