
 OpenBabel03212208413D

 53 57  0  0  1  0  0  0  0  0999 V2000
   21.1370   36.9840   70.7970 B   0  0  0  0  0  0  0  0  0  0  0  0
   21.5930   36.6380   68.9760 C   0  0  0  0  0  0  0  0  0  0  0  0
   22.8840   36.3790   68.5700 C   0  0  0  0  0  0  0  0  0  0  0  0
   23.2140   36.1320   67.2290 C   0  0  0  0  0  0  0  0  0  0  0  0
   22.1910   36.1560   66.3140 C   0  0  0  0  0  0  0  0  0  0  0  0
   20.8880   36.4160   66.7150 C   0  0  0  0  0  0  0  0  0  0  0  0
   20.5750   36.6580   68.0340 C   0  0  0  0  0  0  0  0  0  0  0  0
   22.6730   35.9070   65.0080 N   0  0  0  0  0  0  0  0  0  0  0  0
   24.0670   35.7160   65.1010 C   0  0  0  0  0  0  0  0  0  0  0  0
   24.7890   35.4740   64.0930 O   0  0  0  0  0  0  0  0  0  0  0  0
   24.4620   35.8520   66.5190 C   0  0  1  0  0  0  0  0  0  0  0  0
   25.4160   36.9540   66.6810 N   0  0  0  0  0  0  0  0  0  0  0  0
   26.2870   36.5570   67.7640 C   0  0  1  0  0  0  0  0  0  0  0  0
   26.2970   35.0810   67.8300 C   0  0  2  0  0  0  0  0  0  0  0  0
   25.1870   34.6170   66.9040 C   0  0  1  0  0  0  0  0  0  0  0  0
   24.4550   33.6000   67.6490 C   0  0  0  0  0  0  0  0  0  0  0  0
   23.3840   33.0440   67.2990 O   0  0  0  0  0  0  0  0  0  0  0  0
   25.1400   33.2990   68.8840 N   0  0  0  0  0  0  0  0  0  0  0  0
   25.9320   34.4800   69.1280 C   0  0  0  0  0  0  0  0  0  0  0  0
   26.2440   34.9010   70.2520 O   0  0  0  0  0  0  0  0  0  0  0  0
   25.0930   32.1140   69.6790 C   0  0  0  0  0  0  0  0  0  0  0  0
   23.9000   31.9680   70.5780 C   0  0  0  0  0  0  0  0  0  0  0  0
   23.9430   30.8090   71.4860 C   0  0  0  0  0  0  0  0  0  0  0  0
   24.9540   30.7250   72.4370 C   0  0  0  0  0  0  0  0  0  0  0  0
   24.9890   29.6780   73.2950 C   0  0  0  0  0  0  0  0  0  0  0  0
   24.0610   28.6780   73.2740 C   0  0  0  0  0  0  0  0  0  0  0  0
   23.0570   28.7710   72.3230 C   0  0  0  0  0  0  0  0  0  0  0  0
   23.0000   29.8160   71.4460 C   0  0  0  0  0  0  0  0  0  0  0  0
   27.6550   37.1700   67.5870 C   0  0  1  0  0  0  0  0  0  0  0  0
   28.4740   36.8090   68.6390 O   0  0  0  0  0  0  0  0  0  0  0  0
   28.2620   36.8430   66.2440 C   0  0  0  0  0  0  0  0  0  0  0  0
   23.6560   36.3680   69.3240 H   0  0  0  0  0  0  0  0  0  0  0  0
   20.0680   36.4380   65.9970 H   0  0  0  0  0  0  0  0  0  0  0  0
   19.5570   36.8640   68.3690 H   0  0  0  0  0  0  0  0  0  0  0  0
   22.0920   35.8700   64.1260 H   0  0  0  0  0  0  0  0  0  0  0  0
   24.9280   37.8540   66.8940 H   0  0  0  0  0  0  0  0  0  0  0  0
   25.8720   36.9720   68.7000 H   0  0  0  0  0  0  0  0  0  0  0  0
   27.2670   34.6180   67.5390 H   0  0  0  0  0  0  0  0  0  0  0  0
   25.6740   34.1040   66.0390 H   0  0  0  0  0  0  0  0  0  0  0  0
   25.1400   31.2410   68.9590 H   0  0  0  0  0  0  0  0  0  0  0  0
   26.0040   32.0480   70.3340 H   0  0  0  0  0  0  0  0  0  0  0  0
   22.9570   31.9080   69.9740 H   0  0  0  0  0  0  0  0  0  0  0  0
   23.7720   32.9280   71.1600 H   0  0  0  0  0  0  0  0  0  0  0  0
   25.7160   31.5060   72.4860 H   0  0  0  0  0  0  0  0  0  0  0  0
   25.8110   29.6590   74.0280 H   0  0  0  0  0  0  0  0  0  0  0  0
   24.0810   27.8420   73.9530 H   0  0  0  0  0  0  0  0  0  0  0  0
   22.3120   27.9740   72.3080 H   0  0  0  0  0  0  0  0  0  0  0  0
   22.2240   29.8910   70.7090 H   0  0  0  0  0  0  0  0  0  0  0  0
   27.5180   38.2750   67.6200 H   0  0  0  0  0  0  0  0  0  0  0  0
   28.7110   37.5670   69.2070 H   0  0  0  0  0  0  0  0  0  0  0  0
   27.8910   37.4880   65.4360 H   0  0  0  0  0  0  0  0  0  0  0  0
   28.1510   35.7890   65.9640 H   0  0  0  0  0  0  0  0  0  0  0  0
   29.3600   37.0390   66.3280 H   0  0  0  0  0  0  0  0  0  0  0  0
  2  1  1  0  0  0  0
  3  2  1  0  0  0  0
  3 32  1  0  0  0  0
  4  3  2  0  0  0  0
  5  6  2  0  0  0  0
  5  4  1  0  0  0  0
  6  7  1  0  0  0  0
  7 34  1  0  0  0  0
  7  2  2  0  0  0  0
  8  9  1  0  0  0  0
  8  5  1  0  0  0  0
 10  9  2  0  0  0  0
 11  9  1  6  0  0  0
 11 12  1  0  0  0  0
 11 15  1  0  0  0  0
 11  4  1  0  0  0  0
 12 36  1  0  0  0  0
 12 13  1  0  0  0  0
 13 14  1  0  0  0  0
 13 37  1  1  0  0  0
 14 38  1  6  0  0  0
 14 19  1  0  0  0  0
 15 39  1  6  0  0  0
 15 16  1  0  0  0  0
 15 14  1  0  0  0  0
 16 18  1  0  0  0  0
 17 16  2  0  0  0  0
 18 19  1  0  0  0  0
 18 21  1  0  0  0  0
 19 20  2  0  0  0  0
 21 41  1  0  0  0  0
 21 22  1  0  0  0  0
 22 43  1  0  0  0  0
 22 23  1  0  0  0  0
 23 24  1  0  0  0  0
 24 44  1  0  0  0  0
 24 25  2  0  0  0  0
 25 45  1  0  0  0  0
 26 25  1  0  0  0  0
 26 46  1  0  0  0  0
 27 26  2  0  0  0  0
 28 23  2  0  0  0  0
 28 27  1  0  0  0  0
 29 49  1  1  0  0  0
 29 13  1  0  0  0  0
 29 30  1  0  0  0  0
 30 50  1  0  0  0  0
 31 53  1  0  0  0  0
 31 29  1  0  0  0  0
 33  6  1  0  0  0  0
 35  8  1  0  0  0  0
 40 21  1  0  0  0  0
 42 22  1  0  0  0  0
 47 27  1  0  0  0  0
 48 28  1  0  0  0  0
 51 31  1  0  0  0  0
 52 31  1  0  0  0  0
M  END
>  <Pose>
1

>  <Score>
-5.46

$$$$
