
 OpenBabel03212208413D

 37 40  0  0  0  0  0  0  0  0999 V2000
   20.2140   36.1510   70.2750 B   0  0  0  0  0  0  0  0  0  0  0  0
   18.4470   35.4110   70.4130 C   0  0  0  0  0  0  0  0  0  0  0  0
   18.2700   34.0540   70.5800 C   0  0  0  0  0  0  0  0  0  0  0  0
   16.9980   33.5280   70.6790 C   0  0  0  0  0  0  0  0  0  0  0  0
   15.8590   34.3080   70.6180 C   0  0  0  0  0  0  0  0  0  0  0  0
   16.0570   35.6760   70.4480 C   0  0  0  0  0  0  0  0  0  0  0  0
   17.3250   36.2100   70.3490 C   0  0  0  0  0  0  0  0  0  0  0  0
   14.5030   33.9360   70.7010 N   0  0  0  0  0  0  0  0  0  0  0  0
   13.5040   34.7370   70.3700 N   0  0  0  0  0  0  0  0  0  0  0  0
   12.3740   34.0770   70.5680 N   0  0  0  0  0  0  0  0  0  0  0  0
   12.6620   32.8780   71.0170 N   0  0  0  0  0  0  0  0  0  0  0  0
   14.0090   32.7510   71.1150 C   0  0  0  0  0  0  0  0  0  0  0  0
   14.6070   31.5030   71.5950 C   0  0  0  0  0  0  0  0  0  0  0  0
   15.9110   31.1950   71.1190 N   0  0  0  0  0  0  0  0  0  0  0  0
   16.9910   32.0740   70.8530 C   0  0  0  0  0  0  0  0  0  0  0  0
   18.1480   31.5890   70.7370 O   0  0  0  0  0  0  0  0  0  0  0  0
   14.6870   31.4720   73.1290 C   0  0  0  0  0  0  0  0  0  0  0  0
   14.4970   30.0510   73.5950 C   0  0  0  0  0  0  0  0  0  0  0  0
   13.0840   29.7550   73.5200 N   0  0  0  0  0  0  0  0  0  0  0  0
   12.5860   30.1650   72.2340 C   0  0  0  0  0  0  0  0  0  0  0  0
   13.6760   30.3590   71.2090 C   0  0  0  0  0  0  0  0  0  0  0  0
   12.4240   30.4730   74.6090 C   0  0  0  0  0  0  0  0  0  0  0  0
   19.1090   33.3700   70.6380 H   0  0  0  0  0  0  0  0  0  0  0  0
   15.1700   36.2920   70.4000 H   0  0  0  0  0  0  0  0  0  0  0  0
   17.4470   37.2720   70.2190 H   0  0  0  0  0  0  0  0  0  0  0  0
   16.0940   30.1860   70.9450 H   0  0  0  0  0  0  0  0  0  0  0  0
   15.7170   31.7750   73.4640 H   0  0  0  0  0  0  0  0  0  0  0  0
   13.9900   32.1860   73.5580 H   0  0  0  0  0  0  0  0  0  0  0  0
   15.0410   29.3850   72.9060 H   0  0  0  0  0  0  0  0  0  0  0  0
   14.8990   29.9060   74.5990 H   0  0  0  0  0  0  0  0  0  0  0  0
   11.9560   31.0500   72.3650 H   0  0  0  0  0  0  0  0  0  0  0  0
   11.9350   29.3520   71.8570 H   0  0  0  0  0  0  0  0  0  0  0  0
   14.1990   29.4200   71.0330 H   0  0  0  0  0  0  0  0  0  0  0  0
   13.1790   30.6540   70.2600 H   0  0  0  0  0  0  0  0  0  0  0  0
   11.7260   31.1990   74.1350 H   0  0  0  0  0  0  0  0  0  0  0  0
   11.8900   29.7840   75.2960 H   0  0  0  0  0  0  0  0  0  0  0  0
   13.1640   31.0260   75.2370 H   0  0  0  0  0  0  0  0  0  0  0  0
  1  2  1  0  0  0  0
  2  3  1  0  0  0  0
  3 23  1  0  0  0  0
  3  4  2  0  0  0  0
  4 15  1  0  0  0  0
  5  4  1  0  0  0  0
  5  8  1  0  0  0  0
  6  5  2  0  0  0  0
  7  2  2  0  0  0  0
  7  6  1  0  0  0  0
  8 12  1  0  0  0  0
  9 10  2  0  0  0  0
  9  8  1  0  0  0  0
 10 11  1  0  0  0  0
 11 12  2  0  0  0  0
 12 13  1  0  0  0  0
 13 17  1  0  0  0  0
 14 13  1  0  0  0  0
 15 14  1  0  0  0  0
 16 15  2  0  0  0  0
 17 27  1  0  0  0  0
 17 28  1  0  0  0  0
 17 18  1  0  0  0  0
 18 30  1  0  0  0  0
 19 18  1  0  0  0  0
 19 22  1  0  0  0  0
 20 31  1  0  0  0  0
 20 19  1  0  0  0  0
 21 13  1  0  0  0  0
 21 20  1  0  0  0  0
 22 37  1  0  0  0  0
 22 36  1  0  0  0  0
 24  6  1  0  0  0  0
 25  7  1  0  0  0  0
 26 14  1  0  0  0  0
 29 18  1  0  0  0  0
 32 20  1  0  0  0  0
 33 21  1  0  0  0  0
 34 21  1  0  0  0  0
 35 22  1  0  0  0  0
M  END
>  <Pose>
1

>  <Score>
-5.34

$$$$
