
 OpenBabel03212208413D

 33 36  0  0  1  0  0  0  0  0999 V2000
   16.2620   37.4730   69.9700 B   0  0  0  0  0  0  0  0  0  0  0  0
   15.3630   35.8430   70.3490 C   0  0  0  0  0  0  0  0  0  0  0  0
   16.0700   34.8100   70.9000 C   0  0  0  0  0  0  0  0  0  0  0  0
   15.4070   33.6100   71.1780 C   0  0  0  0  0  0  0  0  0  0  0  0
   14.0860   33.5100   70.8930 C   0  0  0  0  0  0  0  0  0  0  0  0
   13.3610   34.5770   70.3240 C   0  0  0  0  0  0  0  0  0  0  0  0
   14.0150   35.7540   70.0520 C   0  0  0  0  0  0  0  0  0  0  0  0
   13.3860   32.3450   71.1500 O   0  0  0  0  0  0  0  0  0  0  0  0
   14.0600   31.2790   71.7050 C   0  0  0  0  0  0  0  0  0  0  0  0
   15.3360   31.3020   72.0090 C   0  0  0  0  0  0  0  0  0  0  0  0
   16.1550   32.4840   71.7750 C   0  0  1  0  0  0  0  0  0  0  0  0
   17.3890   32.1860   71.0080 C   0  0  0  0  0  0  0  0  0  0  0  0
   18.4700   32.4570   71.8000 C   0  0  0  0  0  0  0  0  0  0  0  0
   19.6040   32.1810   71.0910 N   0  0  0  0  0  0  0  0  0  0  0  0
   19.2080   31.7560   69.9040 N   0  0  0  0  0  0  0  0  0  0  0  0
   17.8730   31.7420   69.8090 C   0  0  0  0  0  0  0  0  0  0  0  0
   17.1200   31.3120   68.5920 C   0  0  0  0  0  0  0  0  0  0  0  0
   18.0670   32.9240   73.0700 N   0  0  0  0  0  0  0  0  0  0  0  0
   16.6630   32.9510   73.0830 C   0  0  0  0  0  0  0  0  0  0  0  0
   15.9180   33.3090   74.0350 O   0  0  0  0  0  0  0  0  0  0  0  0
   15.9720   30.1440   72.5890 C   0  0  0  0  0  0  0  0  0  0  0  0
   16.4990   29.2250   73.0560 N   0  0  0  0  0  0  0  0  0  0  0  0
   13.3190   30.0760   71.9650 N   0  0  0  0  0  0  0  0  0  0  0  0
   17.1190   34.8440   71.1450 H   0  0  0  0  0  0  0  0  0  0  0  0
   12.3020   34.4670   70.1060 H   0  0  0  0  0  0  0  0  0  0  0  0
   13.5240   36.6130   69.6170 H   0  0  0  0  0  0  0  0  0  0  0  0
   19.9020   31.4750   69.1610 H   0  0  0  0  0  0  0  0  0  0  0  0
   16.0440   31.4430   68.7420 H   0  0  0  0  0  0  0  0  0  0  0  0
   17.3920   30.2520   68.3630 H   0  0  0  0  0  0  0  0  0  0  0  0
   17.4290   31.9000   67.6910 H   0  0  0  0  0  0  0  0  0  0  0  0
   18.7330   33.2020   73.8650 H   0  0  0  0  0  0  0  0  0  0  0  0
   12.2840   30.1260   72.0850 H   0  0  0  0  0  0  0  0  0  0  0  0
   13.7780   29.1410   72.0410 H   0  0  0  0  0  0  0  0  0  0  0  0
  1  2  1  0  0  0  0
  2  3  1  0  0  0  0
  3 24  1  0  0  0  0
  3  4  2  0  0  0  0
  4 11  1  0  0  0  0
  5  8  1  0  0  0  0
  5  4  1  0  0  0  0
  6  5  2  0  0  0  0
  7  6  1  0  0  0  0
  7  2  2  0  0  0  0
  8  9  1  0  0  0  0
  9 23  1  0  0  0  0
  9 10  2  0  0  0  0
 10 21  1  0  0  0  0
 11 12  1  6  0  0  0
 11 10  1  0  0  0  0
 11 19  1  0  0  0  0
 12 13  1  0  0  0  0
 13 18  1  0  0  0  0
 14 13  2  0  0  0  0
 15 14  1  0  0  0  0
 16 15  1  0  0  0  0
 16 12  2  0  0  0  0
 17 28  1  0  0  0  0
 17 16  1  0  0  0  0
 18 19  1  0  0  0  0
 18 31  1  0  0  0  0
 19 20  2  0  0  0  0
 21 22  3  0  0  0  0
 23 33  1  0  0  0  0
 23 32  1  0  0  0  0
 25  6  1  0  0  0  0
 26  7  1  0  0  0  0
 27 15  1  0  0  0  0
 29 17  1  0  0  0  0
 30 17  1  0  0  0  0
M  END
>  <Pose>
1

>  <Score>
-5.94

$$$$
