
 OpenBabel03212208413D

 44 47  0  0  0  0  0  0  0  0999 V2000
   22.2020   37.2430   66.7440 B   0  0  0  0  0  0  0  0  0  0  0  0
   21.5910   36.7100   68.4570 C   0  0  0  0  0  0  0  0  0  0  0  0
   20.6710   35.6900   68.6110 C   0  0  0  0  0  0  0  0  0  0  0  0
   20.2060   35.2610   69.8410 C   0  0  0  0  0  0  0  0  0  0  0  0
   20.6960   35.8920   70.9650 C   0  0  0  0  0  0  0  0  0  0  0  0
   21.6200   36.9230   70.8740 C   0  0  0  0  0  0  0  0  0  0  0  0
   22.0550   37.3200   69.6310 C   0  0  0  0  0  0  0  0  0  0  0  0
   20.2640   35.4980   72.1650 O   0  0  0  0  0  0  0  0  0  0  0  0
   19.4070   34.5530   72.3300 C   0  0  0  0  0  0  0  0  0  0  0  0
   18.9920   34.1700   73.4680 O   0  0  0  0  0  0  0  0  0  0  0  0
   18.8790   33.8830   71.2470 C   0  0  0  0  0  0  0  0  0  0  0  0
   19.2890   34.2500   69.9850 C   0  0  0  0  0  0  0  0  0  0  0  0
   17.8800   32.8320   71.4300 C   0  0  0  0  0  0  0  0  0  0  0  0
   18.2550   31.5370   71.7510 C   0  0  0  0  0  0  0  0  0  0  0  0
   17.2990   30.5700   71.9770 C   0  0  0  0  0  0  0  0  0  0  0  0
   17.7210   29.4060   72.2680 O   0  0  0  0  0  0  0  0  0  0  0  0
   16.0350   30.8520   71.8910 O   0  0  0  0  0  0  0  0  0  0  0  0
   15.6220   32.0250   71.5980 C   0  0  0  0  0  0  0  0  0  0  0  0
   16.5300   33.0730   71.3520 C   0  0  0  0  0  0  0  0  0  0  0  0
   16.0600   34.3120   71.0300 C   0  0  0  0  0  0  0  0  0  0  0  0
   14.6730   34.4890   70.9620 C   0  0  0  0  0  0  0  0  0  0  0  0
   13.8090   33.4410   71.2130 C   0  0  0  0  0  0  0  0  0  0  0  0
   14.2500   32.1780   71.5380 C   0  0  0  0  0  0  0  0  0  0  0  0
   13.2880   31.1650   71.8830 C   0  0  0  0  0  0  0  0  0  0  0  0
   12.8710   30.8870   73.1960 N   0  0  0  0  0  4  0  0  0  0  0  0
   13.7330   30.0760   74.0100 C   0  0  0  0  0  0  0  0  0  0  0  0
   12.3930   32.1020   73.9050 C   0  0  0  0  0  0  0  0  0  0  0  0
   12.4300   33.7280   71.1230 O   0  0  0  0  0  0  0  0  0  0  0  0
   20.2750   35.1620   67.7300 H   0  0  0  0  0  0  0  0  0  0  0  0
   21.9520   37.3770   71.7930 H   0  0  0  0  0  0  0  0  0  0  0  0
   22.7740   38.1170   69.4840 H   0  0  0  0  0  0  0  0  0  0  0  0
   18.8890   33.7690   69.0680 H   0  0  0  0  0  0  0  0  0  0  0  0
   19.3190   31.3150   71.8050 H   0  0  0  0  0  0  0  0  0  0  0  0
   16.7340   35.1290   70.8050 H   0  0  0  0  0  0  0  0  0  0  0  0
   14.3330   35.4840   70.7140 H   0  0  0  0  0  0  0  0  0  0  0  0
   13.7310   30.1710   71.4920 H   0  0  0  0  0  0  0  0  0  0  0  0
   12.3760   31.2460   71.2250 H   0  0  0  0  0  0  0  0  0  0  0  0
   11.9890   30.3020   73.1200 H   0  0  0  0  0  0  0  0  0  0  0  0
   14.3730   30.6630   74.7200 H   0  0  0  0  0  0  0  0  0  0  0  0
   14.3400   29.3330   73.4450 H   0  0  0  0  0  0  0  0  0  0  0  0
   13.1470   29.4140   74.7370 H   0  0  0  0  0  0  0  0  0  0  0  0
   12.5260   33.0110   73.2620 H   0  0  0  0  0  0  0  0  0  0  0  0
   11.2820   32.0910   74.0580 H   0  0  0  0  0  0  0  0  0  0  0  0
   12.8350   32.1670   74.9020 H   0  0  0  0  0  0  0  0  0  0  0  0
  1  2  1  0  0  0  0
  2  3  2  0  0  0  0
  2  7  1  0  0  0  0
  3  4  1  0  0  0  0
  4 12  1  0  0  0  0
  4  5  2  0  0  0  0
  5  8  1  0  0  0  0
  6  5  1  0  0  0  0
  6 30  1  0  0  0  0
  7  6  2  0  0  0  0
  8  9  1  0  0  0  0
  9 10  2  0  0  0  0
 11 13  1  0  0  0  0
 11  9  1  0  0  0  0
 12 11  2  0  0  0  0
 13 14  2  0  0  0  0
 14 33  1  0  0  0  0
 14 15  1  0  0  0  0
 15 16  2  0  0  0  0
 17 15  1  0  0  0  0
 18 17  1  0  0  0  0
 19 13  1  0  0  0  0
 19 18  2  0  0  0  0
 20 19  1  0  0  0  0
 21 20  2  0  0  0  0
 21 22  1  0  0  0  0
 22 23  2  0  0  0  0
 23 18  1  0  0  0  0
 23 24  1  0  0  0  0
 24 25  1  0  0  0  0
 25 27  1  0  0  0  0
 25 26  1  0  0  0  0
 26 39  1  0  0  0  0
 26 41  1  0  0  0  0
 27 43  1  0  0  0  0
 27 44  1  0  0  0  0
 28 22  1  0  0  0  0
 29  3  1  0  0  0  0
 31  7  1  0  0  0  0
 32 12  1  0  0  0  0
 34 20  1  0  0  0  0
 35 21  1  0  0  0  0
 36 24  1  0  0  0  0
 37 24  1  0  0  0  0
 38 25  1  0  0  0  0
 40 26  1  0  0  0  0
 42 27  1  0  0  0  0
M  END
>  <Pose>
1

>  <Score>
-6.41

$$$$
