
 OpenBabel03212208413D

 54 57  0  0  0  0  0  0  0  0999 V2000
   13.5770   36.6070   69.5720 B   0  0  0  0  0  0  0  0  0  0  0  0
   14.1520   34.9350   70.2990 C   0  0  0  0  0  0  0  0  0  0  0  0
   15.4810   34.6770   70.5850 C   0  0  0  0  0  0  0  0  0  0  0  0
   15.9270   33.4830   71.1090 C   0  0  0  0  0  0  0  0  0  0  0  0
   15.0220   32.4720   71.3740 C   0  0  0  0  0  0  0  0  0  0  0  0
   15.4410   31.2860   71.8820 N   0  0  0  0  0  0  0  0  0  0  0  0
   16.7330   31.0340   72.1520 C   0  0  0  0  0  0  0  0  0  0  0  0
   17.6140   32.0180   71.8960 N   0  0  0  0  0  0  0  0  0  0  0  0
   17.2470   33.2180   71.3890 C   0  0  0  0  0  0  0  0  0  0  0  0
   18.2430   34.2470   71.1290 C   0  0  0  0  0  0  0  0  0  0  0  0
   19.5360   34.1560   71.6220 C   0  0  0  0  0  0  0  0  0  0  0  0
   20.4860   35.1360   71.3980 C   0  0  0  0  0  0  0  0  0  0  0  0
   20.0990   36.2490   70.6430 C   0  0  0  0  0  0  0  0  0  0  0  0
   18.8210   36.3710   70.1380 C   0  0  0  0  0  0  0  0  0  0  0  0
   17.9210   35.3840   70.3840 C   0  0  0  0  0  0  0  0  0  0  0  0
   19.9940   32.7480   72.5670 Cl  0  0  0  0  0  0  0  0  0  0  0  0
   17.1360   29.7780   72.6860 N   0  0  0  0  0  4  0  0  0  0  0  0
   16.1750   29.2920   73.6520 C   0  0  0  0  0  0  0  0  0  0  0  0
   16.3870   27.8230   73.8350 C   0  0  0  0  0  0  0  0  0  0  0  0
   17.6790   27.4690   73.2840 N   0  0  0  0  0  0  0  0  0  0  0  0
   18.7960   28.3420   73.5970 C   0  0  0  0  0  0  0  0  0  0  0  0
   18.4250   29.8050   73.3270 C   0  0  0  0  0  0  0  0  0  0  0  0
   17.7890   26.3170   72.4880 C   0  0  0  0  0  0  0  0  0  0  0  0
   16.7840   25.9690   71.8190 O   0  0  0  0  0  0  0  0  0  0  0  0
   19.0170   25.5240   72.4160 C   0  0  0  0  0  0  0  0  0  0  0  0
   19.0120   24.4760   73.4920 C   0  0  0  0  0  0  0  0  0  0  0  0
   19.4720   23.1250   72.9910 C   0  0  0  0  0  0  0  0  0  0  0  0
   20.9120   23.0850   72.6710 C   0  0  0  0  0  0  0  0  0  0  0  0
   21.2890   23.6730   71.6300 O   0  0  0  0  0  0  0  0  0  0  0  0
   21.7920   22.4150   73.5080 O   0  0  0  0  0  0  0  0  0  0  0  0
   13.6960   32.7190   71.0930 C   0  0  0  0  0  0  0  0  0  0  0  0
   13.2530   33.9250   70.5640 C   0  0  0  0  0  0  0  0  0  0  0  0
   16.1740   35.4740   70.3620 H   0  0  0  0  0  0  0  0  0  0  0  0
   21.4980   35.0600   71.7860 H   0  0  0  0  0  0  0  0  0  0  0  0
   20.8550   37.0220   70.4690 H   0  0  0  0  0  0  0  0  0  0  0  0
   18.5310   37.2460   69.5460 H   0  0  0  0  0  0  0  0  0  0  0  0
   16.9180   35.4760   69.9950 H   0  0  0  0  0  0  0  0  0  0  0  0
   17.1910   29.1100   71.8890 H   0  0  0  0  0  0  0  0  0  0  0  0
   15.1670   29.5250   73.2490 H   0  0  0  0  0  0  0  0  0  0  0  0
   16.3170   29.8810   74.5820 H   0  0  0  0  0  0  0  0  0  0  0  0
   15.5610   27.2950   73.3150 H   0  0  0  0  0  0  0  0  0  0  0  0
   16.3300   27.5500   74.9100 H   0  0  0  0  0  0  0  0  0  0  0  0
   18.9630   28.2610   74.6910 H   0  0  0  0  0  0  0  0  0  0  0  0
   19.7270   28.0530   73.1040 H   0  0  0  0  0  0  0  0  0  0  0  0
   18.4440   30.4060   74.2420 H   0  0  0  0  0  0  0  0  0  0  0  0
   19.1940   30.1980   72.6500 H   0  0  0  0  0  0  0  0  0  0  0  0
   19.1120   24.9660   71.4400 H   0  0  0  0  0  0  0  0  0  0  0  0
   19.9290   26.1530   72.4620 H   0  0  0  0  0  0  0  0  0  0  0  0
   19.7120   24.7450   74.3250 H   0  0  0  0  0  0  0  0  0  0  0  0
   18.0200   24.3640   73.9510 H   0  0  0  0  0  0  0  0  0  0  0  0
   18.9070   22.9090   72.0630 H   0  0  0  0  0  0  0  0  0  0  0  0
   19.1880   22.3430   73.7400 H   0  0  0  0  0  0  0  0  0  0  0  0
   12.9860   31.9280   71.3000 H   0  0  0  0  0  0  0  0  0  0  0  0
   12.2180   34.1300   70.3430 H   0  0  0  0  0  0  0  0  0  0  0  0
  1  2  1  0  0  0  0
  2 32  2  0  0  0  0
  2  3  1  0  0  0  0
  3  4  2  0  0  0  0
  4  5  1  0  0  0  0
  4  9  1  0  0  0  0
  5  6  1  0  0  0  0
  6  7  2  0  0  0  0
  7 17  1  0  0  0  0
  8  7  1  0  0  0  0
  9  8  2  0  0  0  0
 10  9  1  0  0  0  0
 10 11  1  0  0  0  0
 11 16  1  0  0  0  0
 12 11  2  0  0  0  0
 12 34  1  0  0  0  0
 13 12  1  0  0  0  0
 14 15  1  0  0  0  0
 14 13  2  0  0  0  0
 15 10  2  0  0  0  0
 17 22  1  0  0  0  0
 17 18  1  0  0  0  0
 18 19  1  0  0  0  0
 18 40  1  0  0  0  0
 19 42  1  0  0  0  0
 20 21  1  0  0  0  0
 20 19  1  0  0  0  0
 21 43  1  0  0  0  0
 22 21  1  0  0  0  0
 22 45  1  0  0  0  0
 23 20  1  0  0  0  0
 24 23  2  0  0  0  0
 25 48  1  0  0  0  0
 25 23  1  0  0  0  0
 25 26  1  0  0  0  0
 26 50  1  0  0  0  0
 26 49  1  0  0  0  0
 27 26  1  0  0  0  0
 27 52  1  0  0  0  0
 28 27  1  0  0  0  0
 28 30  1  0  0  0  0
 29 28  2  0  0  0  0
 31 53  1  0  0  0  0
 31  5  2  0  0  0  0
 32 31  1  0  0  0  0
 33  3  1  0  0  0  0
 35 13  1  0  0  0  0
 36 14  1  0  0  0  0
 37 15  1  0  0  0  0
 38 17  1  0  0  0  0
 39 18  1  0  0  0  0
 41 19  1  0  0  0  0
 44 21  1  0  0  0  0
 46 22  1  0  0  0  0
 47 25  1  0  0  0  0
 51 27  1  0  0  0  0
 54 32  1  0  0  0  0
M  END
>  <Pose>
1

>  <Score>
-5.97

$$$$
