
 OpenBabel03212208413D

 55 58  0  0  0  0  0  0  0  0999 V2000
   21.3990   36.9860   69.6720 B   0  0  0  0  0  0  0  0  0  0  0  0
   21.1020   35.2800   70.4160 C   0  0  0  0  0  0  0  0  0  0  0  0
   19.9680   35.0090   71.1650 C   0  0  0  0  0  0  0  0  0  0  0  0
   19.7380   33.7870   71.7280 C   0  0  0  0  0  0  0  0  0  0  0  0
   18.6640   33.3270   72.4380 N   0  0  0  0  0  0  0  0  0  0  0  0
   18.8900   32.0280   72.7010 C   0  0  0  0  0  0  0  0  0  0  0  0
   20.1550   31.6590   72.1700 C   0  0  0  0  0  0  0  0  0  0  0  0
   20.6350   32.7920   71.5650 C   0  0  0  0  0  0  0  0  0  0  0  0
   21.7860   33.0390   70.8120 C   0  0  0  0  0  0  0  0  0  0  0  0
   22.0330   34.2750   70.2320 C   0  0  0  0  0  0  0  0  0  0  0  0
   23.1760   34.5520   69.4610 O   0  0  0  0  0  0  0  0  0  0  0  0
   20.8940   30.4070   72.3800 C   0  0  0  0  0  0  0  0  0  0  0  0
   21.5490   29.9530   71.4030 O   0  0  0  0  0  0  0  0  0  0  0  0
   20.9440   29.7020   73.5360 O   0  0  0  0  0  0  0  0  0  0  0  0
   19.9970   28.9420   74.1970 C   0  0  0  0  0  0  0  0  0  0  0  0
   19.9950   29.1070   75.7110 C   0  0  0  0  0  0  0  0  0  0  0  0
   18.0210   31.0430   73.3460 C   0  0  0  0  0  0  0  0  0  0  0  0
   16.6370   31.0010   72.9890 N   0  0  0  0  0  4  0  0  0  0  0  0
   15.5490   30.6390   73.7110 C   0  0  0  0  0  0  0  0  0  0  0  0
   14.5360   29.9840   72.7400 C   0  0  0  0  0  0  0  0  0  0  0  0
   14.9500   30.6560   71.4330 C   0  0  0  0  0  0  0  0  0  0  0  0
   16.4610   30.5590   71.5950 C   0  0  0  0  0  0  0  0  0  0  0  0
   17.6850   34.2590   73.0290 C   0  0  0  0  0  0  0  0  0  0  0  0
   16.5810   34.4180   71.9590 C   0  0  0  0  0  0  0  0  0  0  0  0
   15.4650   33.6580   72.1520 C   0  0  0  0  0  0  0  0  0  0  0  0
   14.4130   33.7590   71.2260 C   0  0  0  0  0  0  0  0  0  0  0  0
   14.4590   34.5890   70.1460 C   0  0  0  0  0  0  0  0  0  0  0  0
   15.6190   35.3490   69.9940 C   0  0  0  0  0  0  0  0  0  0  0  0
   16.6770   35.2540   70.9070 C   0  0  0  0  0  0  0  0  0  0  0  0
   19.2200   35.7850   71.3080 H   0  0  0  0  0  0  0  0  0  0  0  0
   22.5130   32.2370   70.6540 H   0  0  0  0  0  0  0  0  0  0  0  0
   23.5280   33.8330   68.8130 H   0  0  0  0  0  0  0  0  0  0  0  0
   18.9810   29.3010   73.8540 H   0  0  0  0  0  0  0  0  0  0  0  0
   20.0710   27.8740   73.9690 H   0  0  0  0  0  0  0  0  0  0  0  0
   19.0320   28.7420   76.1320 H   0  0  0  0  0  0  0  0  0  0  0  0
   20.7960   28.5220   76.2010 H   0  0  0  0  0  0  0  0  0  0  0  0
   20.1300   30.1770   76.0140 H   0  0  0  0  0  0  0  0  0  0  0  0
   18.4220   30.0330   73.1890 H   0  0  0  0  0  0  0  0  0  0  0  0
   18.0200   31.2650   74.4800 H   0  0  0  0  0  0  0  0  0  0  0  0
   16.4850   32.1500   72.7710 H   0  0  0  0  0  0  0  0  0  0  0  0
   14.9190   31.5560   74.0850 H   0  0  0  0  0  0  0  0  0  0  0  0
   15.6070   29.9890   74.5770 H   0  0  0  0  0  0  0  0  0  0  0  0
   13.5160   30.1900   73.0450 H   0  0  0  0  0  0  0  0  0  0  0  0
   14.8110   28.9460   72.6570 H   0  0  0  0  0  0  0  0  0  0  0  0
   14.5920   31.6950   71.4960 H   0  0  0  0  0  0  0  0  0  0  0  0
   14.5580   30.1350   70.5730 H   0  0  0  0  0  0  0  0  0  0  0  0
   16.7480   29.5030   71.5240 H   0  0  0  0  0  0  0  0  0  0  0  0
   17.0090   31.1900   70.8800 H   0  0  0  0  0  0  0  0  0  0  0  0
   18.0090   35.2290   73.2840 H   0  0  0  0  0  0  0  0  0  0  0  0
   17.1740   33.7340   73.8460 H   0  0  0  0  0  0  0  0  0  0  0  0
   15.3580   32.9860   72.9910 H   0  0  0  0  0  0  0  0  0  0  0  0
   13.5130   33.1610   71.3490 H   0  0  0  0  0  0  0  0  0  0  0  0
   13.6370   34.6600   69.4370 H   0  0  0  0  0  0  0  0  0  0  0  0
   15.6710   36.0190   69.1630 H   0  0  0  0  0  0  0  0  0  0  0  0
   17.5400   35.8480   70.7450 H   0  0  0  0  0  0  0  0  0  0  0  0
  1  2  1  0  0  0  0
  2  3  1  0  0  0  0
  3 30  1  0  0  0  0
  3  4  2  0  0  0  0
  4  5  1  0  0  0  0
  5  6  1  0  0  0  0
  5 23  1  0  0  0  0
  6 17  1  0  0  0  0
  7 12  1  0  0  0  0
  7  6  2  0  0  0  0
  8  4  1  0  0  0  0
  8  7  1  0  0  0  0
  9  8  2  0  0  0  0
 10  2  2  0  0  0  0
 10  9  1  0  0  0  0
 11 10  1  0  0  0  0
 12 14  1  0  0  0  0
 13 12  2  0  0  0  0
 14 15  1  0  0  0  0
 15 16  1  0  0  0  0
 16 37  1  0  0  0  0
 16 35  1  0  0  0  0
 16 36  1  0  0  0  0
 17 39  1  0  0  0  0
 18 17  1  0  0  0  0
 18 19  1  0  0  0  0
 19 41  1  0  0  0  0
 19 42  1  0  0  0  0
 20 43  1  0  0  0  0
 20 19  1  0  0  0  0
 21 45  1  0  0  0  0
 21 22  1  0  0  0  0
 21 20  1  0  0  0  0
 22 18  1  0  0  0  0
 23 49  1  0  0  0  0
 23 50  1  0  0  0  0
 24 25  1  0  0  0  0
 24 23  1  0  0  0  0
 25 51  1  0  0  0  0
 26 52  1  0  0  0  0
 26 25  2  0  0  0  0
 27 26  1  0  0  0  0
 28 27  2  0  0  0  0
 28 29  1  0  0  0  0
 29 24  2  0  0  0  0
 31  9  1  0  0  0  0
 32 11  1  0  0  0  0
 33 15  1  0  0  0  0
 34 15  1  0  0  0  0
 38 17  1  0  0  0  0
 40 18  1  0  0  0  0
 44 20  1  0  0  0  0
 46 21  1  0  0  0  0
 47 22  1  0  0  0  0
 48 22  1  0  0  0  0
 53 27  1  0  0  0  0
 54 28  1  0  0  0  0
 55 29  1  0  0  0  0
M  END
>  <Pose>
1

>  <Score>
-5.52

$$$$
