
 OpenBabel03212208413D

 47 50  0  0  0  0  0  0  0  0999 V2000
    8.1100   27.1910   75.5610 B   0  0  0  0  0  0  0  0  0  0  0  0
    9.3990   28.5860   75.3660 C   0  0  0  0  0  0  0  0  0  0  0  0
   10.7680   28.4860   75.4620 C   0  0  0  0  0  0  0  0  0  0  0  0
   11.2860   29.6920   75.2550 N   0  0  0  0  0  0  0  0  0  0  0  0
   10.2750   30.5290   75.0340 N   0  0  0  0  0  0  0  0  0  0  0  0
    9.0920   29.8980   75.0900 C   0  0  0  0  0  0  0  0  0  0  0  0
   12.7130   30.0670   75.2640 C   0  0  0  0  0  0  0  0  0  0  0  0
   13.2660   29.6780   73.9390 C   0  0  0  0  0  0  0  0  0  0  0  0
   14.0620   28.6850   73.9070 O   0  0  0  0  0  0  0  0  0  0  0  0
   12.9240   30.3670   72.7950 N   0  0  0  0  0  0  0  0  0  0  0  0
   13.6710   30.5320   71.5620 C   0  0  0  0  0  0  0  0  0  0  0  0
   14.5140   31.7470   71.5440 C   0  0  0  0  0  0  0  0  0  0  0  0
   14.0230   32.9790   71.1960 C   0  0  0  0  0  0  0  0  0  0  0  0
   14.8230   34.1060   71.2270 C   0  0  0  0  0  0  0  0  0  0  0  0
   16.1430   34.0260   71.6120 C   0  0  0  0  0  0  0  0  0  0  0  0
   16.6610   32.7680   71.9730 C   0  0  0  0  0  0  0  0  0  0  0  0
   15.8670   31.6520   71.9410 C   0  0  0  0  0  0  0  0  0  0  0  0
   16.4190   30.3460   72.3090 C   0  0  0  0  0  0  0  0  0  0  0  0
   17.6370   30.3290   73.1440 C   0  0  0  0  0  0  0  0  0  0  0  0
   18.5520   31.4320   72.8760 N   0  0  0  0  0  0  0  0  0  0  0  0
   18.0390   32.6840   72.4440 C   0  0  0  0  0  0  0  0  0  0  0  0
   18.7920   33.7040   72.4790 O   0  0  0  0  0  0  0  0  0  0  0  0
   19.9590   31.1780   73.0910 C   0  0  0  0  0  0  0  0  0  0  0  0
   16.9750   35.1310   71.6540 O   0  0  0  0  0  0  0  0  0  0  0  0
   17.2050   35.9180   70.5040 C   0  0  0  0  0  0  0  0  0  0  0  0
   14.0310   35.1620   70.8210 O   0  0  0  0  0  0  0  0  0  0  0  0
   12.7890   34.6980   70.3560 C   0  0  0  0  0  0  0  0  0  0  0  0
   12.7220   33.3360   70.7700 O   0  0  0  0  0  0  0  0  0  0  0  0
   11.2930   27.5520   75.6770 H   0  0  0  0  0  0  0  0  0  0  0  0
    8.0930   30.2790   74.9590 H   0  0  0  0  0  0  0  0  0  0  0  0
   13.2010   29.4820   76.0820 H   0  0  0  0  0  0  0  0  0  0  0  0
   12.8590   31.1290   75.4570 H   0  0  0  0  0  0  0  0  0  0  0  0
   11.9810   30.8700   72.7790 H   0  0  0  0  0  0  0  0  0  0  0  0
   12.8290   30.7220   70.8130 H   0  0  0  0  0  0  0  0  0  0  0  0
   14.1860   29.6300   71.2260 H   0  0  0  0  0  0  0  0  0  0  0  0
   16.5280   29.6530   71.4480 H   0  0  0  0  0  0  0  0  0  0  0  0
   15.6170   29.8420   72.9400 H   0  0  0  0  0  0  0  0  0  0  0  0
   17.3640   30.4110   74.2370 H   0  0  0  0  0  0  0  0  0  0  0  0
   18.1490   29.3360   73.0190 H   0  0  0  0  0  0  0  0  0  0  0  0
   20.0700   30.4850   73.9590 H   0  0  0  0  0  0  0  0  0  0  0  0
   20.3460   30.6640   72.1920 H   0  0  0  0  0  0  0  0  0  0  0  0
   20.5510   32.1030   73.2280 H   0  0  0  0  0  0  0  0  0  0  0  0
   17.1560   35.2210   69.6210 H   0  0  0  0  0  0  0  0  0  0  0  0
   18.2100   36.3870   70.5070 H   0  0  0  0  0  0  0  0  0  0  0  0
   16.4350   36.7270   70.3880 H   0  0  0  0  0  0  0  0  0  0  0  0
   12.7070   34.7060   69.2460 H   0  0  0  0  0  0  0  0  0  0  0  0
   11.9450   35.2140   70.8650 H   0  0  0  0  0  0  0  0  0  0  0  0
  2  3  2  0  0  0  0
  2  1  1  0  0  0  0
  3 29  1  0  0  0  0
  4  7  1  0  0  0  0
  4  3  1  0  0  0  0
  5  6  2  0  0  0  0
  5  4  1  0  0  0  0
  6  2  1  0  0  0  0
  7 32  1  0  0  0  0
  7 31  1  0  0  0  0
  8  7  1  0  0  0  0
  9  8  2  0  0  0  0
 10  8  1  0  0  0  0
 11 10  1  0  0  0  0
 12 11  1  0  0  0  0
 12 17  1  0  0  0  0
 13 14  1  0  0  0  0
 13 12  2  0  0  0  0
 14 15  2  0  0  0  0
 15 24  1  0  0  0  0
 15 16  1  0  0  0  0
 16 21  1  0  0  0  0
 17 16  2  0  0  0  0
 17 18  1  0  0  0  0
 18 37  1  0  0  0  0
 18 19  1  0  0  0  0
 19 38  1  0  0  0  0
 20 23  1  0  0  0  0
 20 19  1  0  0  0  0
 21 22  2  0  0  0  0
 21 20  1  0  0  0  0
 23 42  1  0  0  0  0
 23 40  1  0  0  0  0
 25 44  1  0  0  0  0
 25 24  1  0  0  0  0
 26 14  1  0  0  0  0
 27 28  1  0  0  0  0
 27 26  1  0  0  0  0
 27 47  1  0  0  0  0
 28 13  1  0  0  0  0
 30  6  1  0  0  0  0
 33 10  1  0  0  0  0
 34 11  1  0  0  0  0
 35 11  1  0  0  0  0
 36 18  1  0  0  0  0
 39 19  1  0  0  0  0
 41 23  1  0  0  0  0
 43 25  1  0  0  0  0
 45 25  1  0  0  0  0
 46 27  1  0  0  0  0
M  END
>  <Pose>
1

>  <Score>
-6.84

$$$$
