
 OpenBabel03212208413D

 33 37  0  0  0  0  0  0  0  0999 V2000
   23.2500   33.7900   67.9440 B   0  0  0  0  0  0  0  0  0  0  0  0
   22.4330   33.7490   69.6490 C   0  0  0  0  0  0  0  0  0  0  0  0
   22.2140   32.6330   70.4320 C   0  0  0  0  0  0  0  0  0  0  0  0
   21.6110   33.0280   71.5660 N   0  0  0  0  0  0  0  0  0  0  0  0
   21.4470   34.3380   71.5180 N   0  0  0  0  0  0  0  0  0  0  0  0
   21.9400   34.8230   70.3550 C   0  0  0  0  0  0  0  0  0  0  0  0
   21.2050   32.1720   72.6610 C   0  0  0  0  0  0  0  0  0  0  0  0
   19.7580   31.9460   72.6570 N   0  0  0  0  0  0  0  0  0  0  0  0
   18.8580   32.7670   72.1440 N   0  0  0  0  0  0  0  0  0  0  0  0
   17.6150   32.2790   72.2960 C   0  0  0  0  0  0  0  0  0  0  0  0
   17.7720   31.0740   72.9470 C   0  0  0  0  0  0  0  0  0  0  0  0
   19.1300   30.8750   73.1710 C   0  0  0  0  0  0  0  0  0  0  0  0
   16.3510   32.8770   71.8700 C   0  0  0  0  0  0  0  0  0  0  0  0
   15.1300   32.3380   72.0090 N   0  0  0  0  0  0  0  0  0  0  0  0
   14.2050   33.1570   71.5080 N   0  0  0  0  0  0  0  0  0  0  0  0
   14.8530   34.2590   71.0310 C   0  0  0  0  0  0  0  0  0  0  0  0
   16.1640   34.0610   71.2650 N   0  0  0  0  0  0  0  0  0  0  0  0
   14.1020   35.2620   70.4560 C   0  0  0  0  0  0  0  0  0  0  0  0
   12.7240   35.1940   70.3470 C   0  0  0  0  0  0  0  0  0  0  0  0
   12.2730   36.3090   69.7490 N   0  0  0  0  0  0  0  0  0  0  0  0
   13.3280   37.0640   69.4850 N   0  0  0  0  0  0  0  0  0  0  0  0
   14.4610   36.4610   69.9010 C   0  0  0  0  0  0  0  0  0  0  0  0
   12.1310   34.0910   70.8310 N   0  0  0  0  0  0  0  0  0  0  0  0
   12.8660   33.1150   71.3890 C   0  0  0  0  0  0  0  0  0  0  0  0
   22.4920   31.6410   70.1490 H   0  0  0  0  0  0  0  0  0  0  0  0
   21.9550   35.8410   70.0220 H   0  0  0  0  0  0  0  0  0  0  0  0
   21.4830   32.5990   73.6520 H   0  0  0  0  0  0  0  0  0  0  0  0
   21.7380   31.1790   72.6110 H   0  0  0  0  0  0  0  0  0  0  0  0
   16.9620   30.4190   73.2250 H   0  0  0  0  0  0  0  0  0  0  0  0
   19.6110   30.0370   73.6550 H   0  0  0  0  0  0  0  0  0  0  0  0
   11.2870   36.5600   69.5220 H   0  0  0  0  0  0  0  0  0  0  0  0
   15.4900   36.8250   69.8270 H   0  0  0  0  0  0  0  0  0  0  0  0
   12.3510   32.2440   71.7670 H   0  0  0  0  0  0  0  0  0  0  0  0
  1  2  1  0  0  0  0
  2  6  1  0  0  0  0
  2  3  2  0  0  0  0
  3  4  1  0  0  0  0
  4  7  1  0  0  0  0
  5  4  1  0  0  0  0
  6  5  2  0  0  0  0
  7 27  1  0  0  0  0
  8  7  1  0  0  0  0
  8 12  1  0  0  0  0
  9 10  2  0  0  0  0
  9  8  1  0  0  0  0
 10 11  1  0  0  0  0
 11 12  2  0  0  0  0
 11 29  1  0  0  0  0
 12 30  1  0  0  0  0
 13 14  2  0  0  0  0
 13 10  1  0  0  0  0
 15 14  1  0  0  0  0
 16 17  2  0  0  0  0
 16 15  1  0  0  0  0
 17 13  1  0  0  0  0
 18 16  1  0  0  0  0
 19 18  2  0  0  0  0
 19 23  1  0  0  0  0
 20 19  1  0  0  0  0
 21 20  1  0  0  0  0
 21 22  2  0  0  0  0
 22 18  1  0  0  0  0
 23 24  2  0  0  0  0
 24 15  1  0  0  0  0
 24 33  1  0  0  0  0
 25  3  1  0  0  0  0
 26  6  1  0  0  0  0
 28  7  1  0  0  0  0
 31 20  1  0  0  0  0
 32 22  1  0  0  0  0
M  END
>  <Pose>
1

>  <Score>
-7.31

$$$$
