
 OpenBabel03212208413D

 38 41  0  0  0  0  0  0  0  0999 V2000
   19.8550   26.2380   74.4600 B   0  0  0  0  0  0  0  0  0  0  0  0
   18.5150   27.3870   73.7220 C   0  0  0  0  0  0  0  0  0  0  0  0
   17.4360   26.8600   73.0490 C   0  0  0  0  0  0  0  0  0  0  0  0
   16.5180   27.6740   72.5460 N   0  0  0  0  0  0  0  0  0  0  0  0
   16.5450   29.0210   72.6370 C   0  0  0  0  0  0  0  0  0  0  0  0
   17.6180   29.5380   73.3060 N   0  0  0  0  0  0  0  0  0  0  0  0
   18.5780   28.7590   73.8360 C   0  0  0  0  0  0  0  0  0  0  0  0
   15.5650   29.8610   72.0970 N   0  0  0  0  0  0  0  0  0  0  0  0
   14.2160   30.2220   72.4240 C   0  0  0  0  0  0  0  0  0  0  0  0
   14.5850   31.5990   71.9100 C   0  0  0  0  0  0  0  0  0  0  0  0
   15.4380   30.7490   70.9760 C   0  0  0  0  0  0  0  0  0  0  0  0
   13.4830   32.3620   71.2430 C   0  0  0  0  0  0  0  0  0  0  0  0
   13.9880   33.6670   70.9060 N   0  0  0  0  0  0  0  0  0  0  0  0
   15.3620   33.8880   70.8090 N   0  0  0  0  0  0  0  0  0  0  0  0
   15.9070   35.1580   70.4800 C   0  0  0  0  0  0  0  0  0  0  0  0
   17.2150   35.3130   70.4010 C   0  0  0  0  0  0  0  0  0  0  0  0
   18.6290   34.8920   70.4600 C   0  0  0  0  0  0  0  0  0  0  0  0
   18.3490   36.2800   70.1270 C   0  0  0  0  0  0  0  0  0  0  0  0
   15.0320   36.2870   70.2300 C   0  0  0  0  0  0  0  0  0  0  0  0
   13.7250   36.1000   70.3170 C   0  0  0  0  0  0  0  0  0  0  0  0
   13.1480   34.7840   70.6580 C   0  0  0  0  0  0  0  0  0  0  0  0
   11.9000   34.6330   70.7340 O   0  0  0  0  0  0  0  0  0  0  0  0
   17.4000   25.7780   72.9670 H   0  0  0  0  0  0  0  0  0  0  0  0
   19.4330   29.1570   74.3690 H   0  0  0  0  0  0  0  0  0  0  0  0
   13.4360   29.7950   71.7320 H   0  0  0  0  0  0  0  0  0  0  0  0
   13.9370   30.1820   73.4900 H   0  0  0  0  0  0  0  0  0  0  0  0
   15.1840   32.1400   72.6480 H   0  0  0  0  0  0  0  0  0  0  0  0
   14.8270   30.3660   70.1300 H   0  0  0  0  0  0  0  0  0  0  0  0
   16.3650   31.2330   70.6250 H   0  0  0  0  0  0  0  0  0  0  0  0
   12.6130   32.4610   71.9290 H   0  0  0  0  0  0  0  0  0  0  0  0
   13.1380   31.8810   70.3280 H   0  0  0  0  0  0  0  0  0  0  0  0
   15.9950   33.0560   70.9940 H   0  0  0  0  0  0  0  0  0  0  0  0
   19.0800   34.6960   71.4620 H   0  0  0  0  0  0  0  0  0  0  0  0
   19.0430   34.2370   69.6770 H   0  0  0  0  0  0  0  0  0  0  0  0
   18.5210   37.0640   70.9070 H   0  0  0  0  0  0  0  0  0  0  0  0
   18.3960   36.6460   69.0760 H   0  0  0  0  0  0  0  0  0  0  0  0
   15.4390   37.2840   69.9720 H   0  0  0  0  0  0  0  0  0  0  0  0
   13.0870   36.9500   70.1280 H   0  0  0  0  0  0  0  0  0  0  0  0
  2  7  1  0  0  0  0
  2  1  1  0  0  0  0
  3  2  2  0  0  0  0
  4  5  2  0  0  0  0
  4  3  1  0  0  0  0
  5  6  1  0  0  0  0
  6  7  2  0  0  0  0
  7 24  1  0  0  0  0
  8  9  1  0  0  0  0
  8  5  1  0  0  0  0
  9 26  1  0  0  0  0
 10  9  1  0  0  0  0
 10 27  1  0  0  0  0
 11 10  1  0  0  0  0
 11  8  1  0  0  0  0
 12 10  1  0  0  0  0
 12 30  1  0  0  0  0
 13 12  1  0  0  0  0
 14 13  1  0  0  0  0
 14 32  1  0  0  0  0
 15 14  1  0  0  0  0
 16 17  1  0  0  0  0
 16 15  2  0  0  0  0
 17 33  1  0  0  0  0
 18 16  1  0  0  0  0
 18 17  1  0  0  0  0
 18 35  1  0  0  0  0
 19 20  2  0  0  0  0
 19 15  1  0  0  0  0
 20 21  1  0  0  0  0
 21 22  2  0  0  0  0
 21 13  1  0  0  0  0
 23  3  1  0  0  0  0
 25  9  1  0  0  0  0
 28 11  1  0  0  0  0
 29 11  1  0  0  0  0
 31 12  1  0  0  0  0
 34 17  1  0  0  0  0
 36 18  1  0  0  0  0
 37 19  1  0  0  0  0
 38 20  1  0  0  0  0
M  END
>  <Pose>
1

>  <Score>
-5.64

$$$$
