
 OpenBabel03212208413D

 40 43  0  0  1  0  0  0  0  0999 V2000
   14.0020   37.0640   69.6070 B   0  0  0  0  0  0  0  0  0  0  0  0
   13.7460   35.3290   70.3460 C   0  0  0  0  0  0  0  0  0  0  0  0
   12.4670   34.8690   70.5490 C   0  0  0  0  0  0  0  0  0  0  0  0
   12.2660   33.6330   71.0740 N   0  0  0  0  0  0  0  0  0  0  0  0
   13.2960   32.8460   71.4030 C   0  0  0  0  0  0  0  0  0  0  0  0
   14.6320   33.2340   71.2300 C   0  0  0  0  0  0  0  0  0  0  0  0
   14.7930   34.4920   70.6950 C   0  0  0  0  0  0  0  0  0  0  0  0
   15.7050   32.3370   71.5880 C   0  0  0  0  0  0  0  0  0  0  0  0
   15.3360   31.2200   72.1060 O   0  0  0  0  0  0  0  0  0  0  0  0
   17.0880   32.5520   71.4330 N   0  0  0  0  0  0  0  0  0  0  0  0
   18.2910   31.8050   71.2370 C   0  0  0  0  0  0  0  0  0  0  0  0
   18.8670   33.0510   70.5410 C   0  0  0  0  0  0  0  0  0  0  0  0
   17.9320   33.7640   71.4430 C   0  0  0  0  0  0  0  0  0  0  0  0
   20.2750   33.2000   70.7910 N   0  0  0  0  0  0  0  0  0  0  0  0
   20.9860   34.3730   71.2290 C   0  0  0  0  0  0  0  0  0  0  0  0
   20.4820   35.3110   71.8710 O   0  0  0  0  0  0  0  0  0  0  0  0
   22.3980   34.1900   70.7460 C   0  0  1  0  0  0  0  0  0  0  0  0
   22.5730   32.7110   70.9960 C   0  0  2  0  0  0  0  0  0  0  0  0
   23.6890   32.1450   70.1630 C   0  0  0  0  0  0  0  0  0  0  0  0
   23.4000   32.3700   68.7210 C   0  0  0  0  0  0  0  0  0  0  0  0
   22.8160   33.5020   68.3820 C   0  0  0  0  0  0  0  0  0  0  0  0
   22.4210   34.5740   69.3060 C   0  0  0  0  0  0  0  0  0  0  0  0
   21.2460   32.1700   70.6440 C   0  0  0  0  0  0  0  0  0  0  0  0
   21.0610   30.9830   70.2790 O   0  0  0  0  0  0  0  0  0  0  0  0
   11.6380   35.5120   70.2810 H   0  0  0  0  0  0  0  0  0  0  0  0
   13.0890   31.8740   71.8170 H   0  0  0  0  0  0  0  0  0  0  0  0
   15.7700   34.8680   70.5190 H   0  0  0  0  0  0  0  0  0  0  0  0
   18.2940   31.0020   70.4700 H   0  0  0  0  0  0  0  0  0  0  0  0
   18.8390   31.5360   72.1750 H   0  0  0  0  0  0  0  0  0  0  0  0
   18.5490   33.0960   69.4950 H   0  0  0  0  0  0  0  0  0  0  0  0
   18.2720   33.9210   72.4860 H   0  0  0  0  0  0  0  0  0  0  0  0
   17.4050   34.6470   71.0410 H   0  0  0  0  0  0  0  0  0  0  0  0
   23.1020   34.7910   71.3560 H   0  0  0  0  0  0  0  0  0  0  0  0
   22.8300   32.5670   72.0650 H   0  0  0  0  0  0  0  0  0  0  0  0
   23.8180   31.0850   70.4170 H   0  0  0  0  0  0  0  0  0  0  0  0
   24.6080   32.7200   70.4210 H   0  0  0  0  0  0  0  0  0  0  0  0
   23.6820   31.5910   68.0080 H   0  0  0  0  0  0  0  0  0  0  0  0
   22.6060   33.6590   67.3180 H   0  0  0  0  0  0  0  0  0  0  0  0
   21.4250   34.9640   68.9480 H   0  0  0  0  0  0  0  0  0  0  0  0
   23.1200   35.4220   69.1440 H   0  0  0  0  0  0  0  0  0  0  0  0
  1  2  1  0  0  0  0
  2  3  2  0  0  0  0
  2  7  1  0  0  0  0
  3  4  1  0  0  0  0
  4  5  2  0  0  0  0
  5 26  1  0  0  0  0
  6  5  1  0  0  0  0
  6  8  1  0  0  0  0
  7  6  2  0  0  0  0
  8  9  2  0  0  0  0
 10 13  1  0  0  0  0
 10  8  1  0  0  0  0
 11 10  1  0  0  0  0
 11 29  1  0  0  0  0
 12 14  1  0  0  0  0
 12 11  1  0  0  0  0
 12 13  1  0  0  0  0
 13 31  1  0  0  0  0
 14 15  1  0  0  0  0
 15 16  2  0  0  0  0
 17 18  1  0  0  0  0
 17 15  1  0  0  0  0
 17 33  1  1  0  0  0
 18 34  1  1  0  0  0
 19 35  1  0  0  0  0
 19 36  1  0  0  0  0
 19 18  1  0  0  0  0
 20 19  1  0  0  0  0
 21 20  2  0  0  0  0
 21 22  1  0  0  0  0
 22 17  1  0  0  0  0
 23 14  1  0  0  0  0
 23 18  1  0  0  0  0
 24 23  2  0  0  0  0
 25  3  1  0  0  0  0
 27  7  1  0  0  0  0
 28 11  1  0  0  0  0
 30 12  1  0  0  0  0
 32 13  1  0  0  0  0
 37 20  1  0  0  0  0
 38 21  1  0  0  0  0
 39 22  1  0  0  0  0
 40 22  1  0  0  0  0
M  END
>  <Pose>
1

>  <Score>
-5.84

$$$$
