
 OpenBabel03212208413D

 46 49  0  0  0  0  0  0  0  0999 V2000
   17.9830   30.6390   72.6820 B   0  0  0  0  0  0  0  0  0  0  0  0
   19.5590   31.2810   71.7730 C   0  0  0  0  0  0  0  0  0  0  0  0
   19.6230   32.2660   70.8590 N   0  0  0  0  0  0  0  0  0  0  0  0
   20.8950   32.4220   70.4580 C   0  0  0  0  0  0  0  0  0  0  0  0
   21.6580   31.4990   71.1480 C   0  0  0  0  0  0  0  0  0  0  0  0
   20.8120   30.8230   71.9370 N   0  0  0  0  0  0  0  0  0  0  0  0
   22.9860   31.4580   70.9210 N   0  0  0  0  0  0  0  0  0  0  0  0
   23.6050   32.2830   70.0470 C   0  0  0  0  0  0  0  0  0  0  0  0
   24.8570   32.2110   69.8630 O   0  0  0  0  0  0  0  0  0  0  0  0
   22.8930   33.1940   69.3590 N   0  0  0  0  0  0  0  0  0  0  0  0
   21.5670   33.2440   69.5780 C   0  0  0  0  0  0  0  0  0  0  0  0
   20.8980   34.0870   68.9470 O   0  0  0  0  0  0  0  0  0  0  0  0
   23.5790   34.0690   68.4280 C   0  0  0  0  0  0  0  0  0  0  0  0
   23.7780   30.4860   71.6470 C   0  0  0  0  0  0  0  0  0  0  0  0
   18.4830   33.0030   70.4290 C   0  0  0  0  0  0  0  0  0  0  0  0
   18.0830   34.1770   71.2460 C   0  0  0  0  0  0  0  0  0  0  0  0
   17.0350   35.0010   70.7440 N   0  0  0  0  0  0  0  0  0  0  0  0
   15.7120   34.7080   70.7900 C   0  0  0  0  0  0  0  0  0  0  0  0
   15.0000   35.7270   70.2060 C   0  0  0  0  0  0  0  0  0  0  0  0
   15.9220   36.6230   69.8190 N   0  0  0  0  0  0  0  0  0  0  0  0
   17.1480   36.1880   70.1410 C   0  0  0  0  0  0  0  0  0  0  0  0
   18.8290   37.0740   69.8120 B   0  0  0  0  0  0  0  0  0  0  0  0
   13.6440   35.7230   70.1010 N   0  0  0  0  0  0  0  0  0  0  0  0
   13.0010   34.6530   70.6020 C   0  0  0  0  0  0  0  0  0  0  0  0
   11.7430   34.6370   70.5110 O   0  0  0  0  0  0  0  0  0  0  0  0
   13.6460   33.6260   71.1840 N   0  0  0  0  0  0  0  0  0  0  0  0
   14.9740   33.6390   71.2830 C   0  0  0  0  0  0  0  0  0  0  0  0
   15.6380   32.7100   71.8160 O   0  0  0  0  0  0  0  0  0  0  0  0
   12.9060   32.4980   71.7090 C   0  0  0  0  0  0  0  0  0  0  0  0
   12.9210   36.8220   69.4750 C   0  0  0  0  0  0  0  0  0  0  0  0
   22.8670   34.4930   67.6960 H   0  0  0  0  0  0  0  0  0  0  0  0
   24.0700   34.9290   68.9390 H   0  0  0  0  0  0  0  0  0  0  0  0
   24.3540   33.4610   67.9150 H   0  0  0  0  0  0  0  0  0  0  0  0
   24.5630   30.0990   70.9440 H   0  0  0  0  0  0  0  0  0  0  0  0
   23.1590   29.6410   71.9600 H   0  0  0  0  0  0  0  0  0  0  0  0
   24.2990   30.9900   72.4920 H   0  0  0  0  0  0  0  0  0  0  0  0
   18.5900   33.3890   69.3710 H   0  0  0  0  0  0  0  0  0  0  0  0
   17.6380   32.2590   70.3340 H   0  0  0  0  0  0  0  0  0  0  0  0
   19.0100   34.7840   71.4180 H   0  0  0  0  0  0  0  0  0  0  0  0
   17.8020   33.8600   72.2990 H   0  0  0  0  0  0  0  0  0  0  0  0
   13.5420   31.5950   71.8090 H   0  0  0  0  0  0  0  0  0  0  0  0
   12.5040   32.7030   72.7400 H   0  0  0  0  0  0  0  0  0  0  0  0
   12.0740   32.1980   71.0230 H   0  0  0  0  0  0  0  0  0  0  0  0
   13.3550   37.8090   69.7390 H   0  0  0  0  0  0  0  0  0  0  0  0
   12.8480   36.6800   68.3750 H   0  0  0  0  0  0  0  0  0  0  0  0
   11.8980   36.8180   69.9070 H   0  0  0  0  0  0  0  0  0  0  0  0
  2  6  2  0  0  0  0
  2  1  1  0  0  0  0
  3  2  1  0  0  0  0
  4  3  1  0  0  0  0
  4  5  2  0  0  0  0
  5  6  1  0  0  0  0
  7  5  1  0  0  0  0
  7 14  1  0  0  0  0
  8  7  1  0  0  0  0
  9  8  2  0  0  0  0
 10 11  1  0  0  0  0
 10  8  1  0  0  0  0
 11  4  1  0  0  0  0
 12 11  2  0  0  0  0
 13 32  1  0  0  0  0
 13 10  1  0  0  0  0
 14 35  1  0  0  0  0
 14 36  1  0  0  0  0
 15  3  1  0  0  0  0
 15 16  1  0  0  0  0
 16 39  1  0  0  0  0
 16 40  1  0  0  0  0
 17 18  1  0  0  0  0
 17 16  1  0  0  0  0
 18 27  1  0  0  0  0
 19 18  2  0  0  0  0
 20 21  2  0  0  0  0
 20 19  1  0  0  0  0
 21 17  1  0  0  0  0
 22 21  1  0  0  0  0
 23 19  1  0  0  0  0
 23 24  1  0  0  0  0
 24 26  1  0  0  0  0
 25 24  2  0  0  0  0
 26 27  1  0  0  0  0
 26 29  1  0  0  0  0
 27 28  2  0  0  0  0
 29 41  1  0  0  0  0
 29 42  1  0  0  0  0
 30 44  1  0  0  0  0
 30 46  1  0  0  0  0
 30 23  1  0  0  0  0
 31 13  1  0  0  0  0
 33 13  1  0  0  0  0
 34 14  1  0  0  0  0
 37 15  1  0  0  0  0
 38 15  1  0  0  0  0
 43 29  1  0  0  0  0
 45 30  1  0  0  0  0
M  END
>  <Pose>
1

>  <Score>
-7.28

$$$$
