
 OpenBabel03162216083D

 43 47  0  0  0  0  0  0  0  0999 V2000
   18.4260   31.1040   72.6650 B   0  0  0  0  0  0  0  0  0  0  0  0
   17.2890   29.6540   73.1470 C   0  0  0  0  0  0  0  0  0  0  0  0
   15.9930   29.8290   73.5470 N   0  0  0  0  0  0  0  0  0  0  0  0
   15.5400   28.5840   73.7940 C   0  0  0  0  0  0  0  0  0  0  0  0
   16.5280   27.6430   73.5570 C   0  0  0  0  0  0  0  0  0  0  0  0
   17.6050   28.3510   73.1540 N   0  0  0  0  0  0  0  0  0  0  0  0
   16.3630   26.3180   73.7120 N   0  0  0  0  0  0  0  0  0  0  0  0
   15.1500   25.9070   74.1230 C   0  0  0  0  0  0  0  0  0  0  0  0
   14.9430   24.6580   74.2870 O   0  0  0  0  0  0  0  0  0  0  0  0
   14.1610   26.7880   74.3640 N   0  0  0  0  0  0  0  0  0  0  0  0
   14.3250   28.1310   74.2070 C   0  0  0  0  0  0  0  0  0  0  0  0
   13.3960   28.9340   74.4330 O   0  0  0  0  0  0  0  0  0  0  0  0
   17.4020   25.3410   73.4630 C   0  0  0  0  0  0  0  0  0  0  0  0
   15.3210   31.1100   73.6390 C   0  0  0  0  0  0  0  0  0  0  0  0
   14.1930   31.2750   72.6630 C   0  0  0  0  0  0  0  0  0  0  0  0
   14.6140   31.3290   71.2220 C   0  0  0  0  0  0  0  0  0  0  0  0
   15.1160   32.6570   70.8980 N   0  0  0  0  0  0  0  0  0  0  0  0
   14.4100   33.7820   70.6450 C   0  0  0  0  0  0  0  0  0  0  0  0
   15.2620   34.8300   70.3810 C   0  0  0  0  0  0  0  0  0  0  0  0
   16.5040   34.3190   70.4790 N   0  0  0  0  0  0  0  0  0  0  0  0
   16.4070   33.0090   70.7900 C   0  0  0  0  0  0  0  0  0  0  0  0
   17.8510   31.7870   71.0530 B   0  0  0  0  0  0  0  0  0  0  0  0
   14.8450   36.0770   70.0940 N   0  0  0  0  0  0  0  0  0  0  0  0
   13.5040   36.2760   70.0710 C   0  0  0  0  0  0  0  0  0  0  0  0
   13.1070   37.4500   69.8010 O   0  0  0  0  0  0  0  0  0  0  0  0
   12.6340   35.2760   70.3230 N   0  0  0  0  0  0  0  0  0  0  0  0
   13.0630   34.0300   70.6110 C   0  0  0  0  0  0  0  0  0  0  0  0
   12.2800   33.0790   70.8500 O   0  0  0  0  0  0  0  0  0  0  0  0
   15.7880   37.1590   69.8200 C   0  0  0  0  0  0  0  0  0  0  0  0
   13.2150   26.4860   74.6830 H   0  0  0  0  0  0  0  0  0  0  0  0
   18.4040   25.8160   73.4110 H   0  0  0  0  0  0  0  0  0  0  0  0
   17.4540   24.6600   74.3600 H   0  0  0  0  0  0  0  0  0  0  0  0
   17.2430   24.7740   72.5250 H   0  0  0  0  0  0  0  0  0  0  0  0
   16.0640   31.9350   73.5750 H   0  0  0  0  0  0  0  0  0  0  0  0
   14.8470   31.1440   74.6620 H   0  0  0  0  0  0  0  0  0  0  0  0
   13.5390   32.1350   72.9280 H   0  0  0  0  0  0  0  0  0  0  0  0
   13.5230   30.3680   72.7580 H   0  0  0  0  0  0  0  0  0  0  0  0
   15.5040   30.6440   71.0850 H   0  0  0  0  0  0  0  0  0  0  0  0
   13.8110   31.0460   70.5430 H   0  0  0  0  0  0  0  0  0  0  0  0
   11.6170   35.4880   70.2920 H   0  0  0  0  0  0  0  0  0  0  0  0
   16.3880   37.4030   70.7210 H   0  0  0  0  0  0  0  0  0  0  0  0
   16.4930   36.8870   69.0110 H   0  0  0  0  0  0  0  0  0  0  0  0
   15.1900   38.0490   69.5710 H   0  0  0  0  0  0  0  0  0  0  0  0
  1  2  1  0  0  0  0
  2  6  2  0  0  0  0
  2  3  1  0  0  0  0
  3 14  1  0  0  0  0
  3  4  1  0  0  0  0
  4 11  1  0  0  0  0
  5  7  1  0  0  0  0
  5  4  2  0  0  0  0
  6  5  1  0  0  0  0
  7  8  1  0  0  0  0
  8  9  2  0  0  0  0
  8 10  1  0  0  0  0
 10 30  1  0  0  0  0
 11 10  1  0  0  0  0
 11 12  2  0  0  0  0
 13  7  1  0  0  0  0
 13 32  1  0  0  0  0
 14 35  1  0  0  0  0
 15 37  1  0  0  0  0
 15 36  1  0  0  0  0
 15 14  1  0  0  0  0
 16 15  1  0  0  0  0
 17 16  1  0  0  0  0
 18 17  1  0  0  0  0
 19 20  1  0  0  0  0
 19 18  2  0  0  0  0
 20 21  2  0  0  0  0
 21 17  1  0  0  0  0
 21 22  1  0  0  0  0
 22  1  1  0  0  0  0
 23 19  1  0  0  0  0
 24 23  1  0  0  0  0
 24 26  1  0  0  0  0
 25 24  2  0  0  0  0
 26 27  1  0  0  0  0
 27 18  1  0  0  0  0
 27 28  2  0  0  0  0
 29 23  1  0  0  0  0
 29 41  1  0  0  0  0
 31 13  1  0  0  0  0
 33 13  1  0  0  0  0
 34 14  1  0  0  0  0
 38 16  1  0  0  0  0
 39 16  1  0  0  0  0
 40 26  1  0  0  0  0
 42 29  1  0  0  0  0
 43 29  1  0  0  0  0
M  END
>  <Pose>
1

>  <Score>
-7.61

$$$$
