
 OpenBabel03212208413D

 63 66  0  0  1  0  0  0  0  0999 V2000
   14.2010   36.2990   70.0800 B   0  0  0  0  0  0  0  0  0  0  0  0
   13.9210   34.5330   70.7340 C   0  0  0  0  0  0  0  0  0  0  0  0
   15.0190   33.7530   70.9950 C   0  0  0  0  0  0  0  0  0  0  0  0
   14.9280   32.4940   71.4590 N   0  0  0  0  0  0  0  0  0  0  0  0
   13.6520   32.0430   71.6530 C   0  0  0  0  0  0  0  0  0  0  0  0
   13.4820   30.8670   72.0880 O   0  0  0  0  0  0  0  0  0  0  0  0
   12.5720   32.7690   71.4100 N   0  0  0  0  0  0  0  0  0  0  0  0
   12.6630   34.0270   70.9470 C   0  0  0  0  0  0  0  0  0  0  0  0
   11.6640   34.7480   70.7050 O   0  0  0  0  0  0  0  0  0  0  0  0
   16.0490   31.6570   71.7420 C   0  0  2  0  0  0  0  0  0  0  0  0
   16.7490   32.0360   73.0540 C   0  0  2  0  0  0  0  0  0  0  0  0
   17.7310   33.1240   72.7880 C   0  0  0  0  0  0  0  0  0  0  0  0
   18.7890   32.5990   71.8430 C   0  0  0  0  0  0  0  0  0  0  0  0
   18.3760   31.4740   71.1530 O   0  0  0  0  0  0  0  0  0  0  0  0
   17.0790   31.5650   70.6660 C   0  0  0  0  0  0  0  0  0  0  0  0
   19.2170   33.7230   70.9720 C   0  0  0  0  0  0  0  0  0  0  0  0
   20.3200   33.2130   70.0320 C   0  0  0  0  0  0  0  0  0  0  0  0
   21.4640   32.9150   70.8280 N   0  0  0  0  0  0  0  0  0  0  0  0
   21.2200   32.9590   72.3090 C   0  0  0  0  0  0  0  0  0  0  0  0
   19.9880   32.2010   72.6780 C   0  0  0  0  0  0  0  0  0  0  0  0
   22.7260   32.5960   70.3660 C   0  0  0  0  0  0  0  0  0  0  0  0
   23.3060   31.5800   70.9700 O   0  0  0  0  0  0  0  0  0  0  0  0
   23.5160   33.1790   69.3400 C   0  0  0  0  0  0  0  0  0  0  0  0
   22.9140   33.9830   68.3550 C   0  0  0  0  0  0  0  0  0  0  0  0
   23.5610   34.6080   67.3370 C   0  0  0  0  0  0  0  0  0  0  0  0
   24.9580   34.4270   67.2760 C   0  0  0  0  0  0  0  0  0  0  0  0
   25.5600   33.6590   68.2130 C   0  0  0  0  0  0  0  0  0  0  0  0
   24.8610   33.0250   69.2540 C   0  0  0  0  0  0  0  0  0  0  0  0
   22.9400   35.3760   66.3970 O   0  0  0  0  0  0  0  0  0  0  0  0
   22.3230   36.5890   66.4690 C   0  0  0  0  0  0  0  0  0  0  0  0
   21.0040   36.5320   67.1610 C   0  0  0  0  0  0  0  0  0  0  0  0
   20.1950   37.6860   66.7670 N   0  0  0  0  0  0  0  0  0  0  0  0
   17.4620   30.9050   73.4580 O   0  0  0  0  0  0  0  0  0  0  0  0
   15.7560   32.3570   74.1240 C   0  0  0  0  0  0  0  0  0  0  0  0
   15.9860   34.1510   70.8290 H   0  0  0  0  0  0  0  0  0  0  0  0
   11.6110   32.3980   71.5670 H   0  0  0  0  0  0  0  0  0  0  0  0
   15.6400   30.6240   71.9530 H   0  0  0  0  0  0  0  0  0  0  0  0
   17.2830   34.0710   72.4340 H   0  0  0  0  0  0  0  0  0  0  0  0
   18.1960   33.3880   73.7840 H   0  0  0  0  0  0  0  0  0  0  0  0
   17.0600   32.3530   69.9150 H   0  0  0  0  0  0  0  0  0  0  0  0
   16.9120   30.6030   70.0960 H   0  0  0  0  0  0  0  0  0  0  0  0
   19.6520   34.5250   71.5790 H   0  0  0  0  0  0  0  0  0  0  0  0
   18.3950   34.1750   70.3810 H   0  0  0  0  0  0  0  0  0  0  0  0
   20.5000   34.0860   69.3360 H   0  0  0  0  0  0  0  0  0  0  0  0
   19.8730   32.3670   69.4880 H   0  0  0  0  0  0  0  0  0  0  0  0
   21.2200   33.9860   72.6710 H   0  0  0  0  0  0  0  0  0  0  0  0
   22.1150   32.4740   72.7630 H   0  0  0  0  0  0  0  0  0  0  0  0
   20.2380   31.1090   72.5400 H   0  0  0  0  0  0  0  0  0  0  0  0
   19.7930   32.3480   73.7660 H   0  0  0  0  0  0  0  0  0  0  0  0
   21.8570   34.1210   68.4410 H   0  0  0  0  0  0  0  0  0  0  0  0
   25.4580   34.9290   66.4640 H   0  0  0  0  0  0  0  0  0  0  0  0
   26.6440   33.5300   68.1500 H   0  0  0  0  0  0  0  0  0  0  0  0
   25.4760   32.4660   69.9150 H   0  0  0  0  0  0  0  0  0  0  0  0
   22.1060   36.9600   65.4140 H   0  0  0  0  0  0  0  0  0  0  0  0
   22.9870   37.3560   66.9700 H   0  0  0  0  0  0  0  0  0  0  0  0
   20.3880   35.6580   67.0110 H   0  0  0  0  0  0  0  0  0  0  0  0
   21.1770   36.6990   68.2650 H   0  0  0  0  0  0  0  0  0  0  0  0
   19.2250   37.4210   66.5380 H   0  0  0  0  0  0  0  0  0  0  0  0
   20.6600   38.2830   66.0770 H   0  0  0  0  0  0  0  0  0  0  0  0
   17.7620   30.9550   74.4000 H   0  0  0  0  0  0  0  0  0  0  0  0
   14.9450   33.0270   73.8090 H   0  0  0  0  0  0  0  0  0  0  0  0
   15.3680   31.3920   74.5250 H   0  0  0  0  0  0  0  0  0  0  0  0
   16.3110   32.8310   74.9640 H   0  0  0  0  0  0  0  0  0  0  0  0
  1  2  1  0  0  0  0
  2  8  1  0  0  0  0
  2  3  2  0  0  0  0
  3  4  1  0  0  0  0
  4  5  1  0  0  0  0
  4 10  1  0  0  0  0
  5  6  2  0  0  0  0
  7 36  1  0  0  0  0
  7  5  1  0  0  0  0
  8  7  1  0  0  0  0
  9  8  2  0  0  0  0
 10 37  1  1  0  0  0
 10 11  1  0  0  0  0
 11 33  1  1  0  0  0
 11 34  1  0  0  0  0
 12 11  1  0  0  0  0
 12 39  1  0  0  0  0
 13 20  1  0  0  0  0
 13 12  1  0  0  0  0
 14 13  1  0  0  0  0
 15 14  1  0  0  0  0
 15 10  1  0  0  0  0
 16 42  1  0  0  0  0
 16 13  1  0  0  0  0
 17 18  1  0  0  0  0
 17 16  1  0  0  0  0
 18 19  1  0  0  0  0
 19 46  1  0  0  0  0
 19 20  1  0  0  0  0
 19 47  1  0  0  0  0
 20 49  1  0  0  0  0
 21 18  1  0  0  0  0
 21 22  2  0  0  0  0
 23 21  1  0  0  0  0
 24 50  1  0  0  0  0
 24 23  2  0  0  0  0
 25 24  1  0  0  0  0
 26 25  2  0  0  0  0
 26 27  1  0  0  0  0
 27 28  2  0  0  0  0
 28 23  1  0  0  0  0
 28 53  1  0  0  0  0
 29 30  1  0  0  0  0
 29 25  1  0  0  0  0
 30 55  1  0  0  0  0
 30 31  1  0  0  0  0
 31 57  1  0  0  0  0
 32 31  1  0  0  0  0
 33 60  1  0  0  0  0
 34 62  1  0  0  0  0
 34 63  1  0  0  0  0
 35  3  1  0  0  0  0
 38 12  1  0  0  0  0
 40 15  1  0  0  0  0
 41 15  1  0  0  0  0
 43 16  1  0  0  0  0
 44 17  1  0  0  0  0
 45 17  1  0  0  0  0
 48 20  1  0  0  0  0
 51 26  1  0  0  0  0
 52 27  1  0  0  0  0
 54 30  1  0  0  0  0
 56 31  1  0  0  0  0
 58 32  1  0  0  0  0
 59 32  1  0  0  0  0
 61 34  1  0  0  0  0
M  END
>  <Pose>
1

>  <Score>
-8.25

$$$$
