
 OpenBabel03212208413D

 64 67  0  0  1  0  0  0  0  0999 V2000
   26.0770   34.2880   65.9690 B   0  0  0  0  0  0  0  0  0  0  0  0
   24.3170   34.9740   66.0950 C   0  0  0  0  0  0  0  0  0  0  0  0
   23.6200   34.8140   67.2930 C   0  0  0  0  0  0  0  0  0  0  0  0
   22.3760   35.2710   67.4580 N   0  0  0  0  0  0  0  0  0  0  0  0
   21.8180   35.9080   66.3840 C   0  0  0  0  0  0  0  0  0  0  0  0
   20.6450   36.3580   66.4890 O   0  0  0  0  0  0  0  0  0  0  0  0
   22.4650   36.0780   65.2190 N   0  0  0  0  0  0  0  0  0  0  0  0
   23.7180   35.6220   65.0380 C   0  0  0  0  0  0  0  0  0  0  0  0
   24.3310   35.7830   63.9330 O   0  0  0  0  0  0  0  0  0  0  0  0
   21.6070   35.1500   68.6290 C   0  0  1  0  0  0  0  0  0  0  0  0
   22.0220   33.9500   69.4960 C   0  0  1  0  0  0  0  0  0  0  0  0
   20.7890   33.6820   70.3690 C   0  0  0  0  0  0  0  0  0  0  0  0
   20.3490   34.9390   71.0650 C   0  0  2  0  0  0  0  0  0  0  0  0
   21.2890   35.9210   70.8630 O   0  0  0  0  0  0  0  0  0  0  0  0
   21.4620   36.3020   69.5350 C   0  0  0  0  0  0  0  0  0  0  0  0
   20.3560   34.6250   72.5550 C   0  0  0  0  0  0  0  0  0  0  0  0
   19.0530   33.9740   72.9440 C   0  0  0  0  0  0  0  0  0  0  0  0
   18.4110   33.3680   71.7650 N   0  0  0  0  0  0  0  0  0  0  0  0
   17.9370   34.2960   70.7820 C   0  0  0  0  0  0  0  0  0  0  0  0
   18.9820   35.4060   70.7080 C   0  0  0  0  0  0  0  0  0  0  0  0
   18.3060   31.9880   71.5970 C   0  0  0  0  0  0  0  0  0  0  0  0
   18.7390   31.4150   70.5230 O   0  0  0  0  0  0  0  0  0  0  0  0
   17.7140   31.1050   72.5910 C   0  0  1  0  0  0  0  0  0  0  0  0
   18.6670   30.7730   73.6220 N   0  0  0  0  0  0  0  0  0  0  0  0
   19.8830   30.1110   73.5020 C   0  0  0  0  0  0  0  0  0  0  0  0
   20.0330   28.9320   73.1200 O   0  0  0  0  0  0  0  0  0  0  0  0
   21.1840   30.8120   73.8460 C   0  0  0  0  0  0  0  0  0  0  0  0
   16.4600   31.7500   73.2590 C   0  0  0  0  0  0  0  0  0  0  0  0
   15.2400   31.3320   72.5450 C   0  0  0  0  0  0  0  0  0  0  0  0
   15.0280   31.1770   71.2480 N   0  0  0  0  0  0  0  0  0  0  0  0
   13.7520   30.7740   70.9960 C   0  0  0  0  0  0  0  0  0  0  0  0
   13.1470   30.6760   72.1950 N   0  0  0  0  0  0  0  0  0  0  0  0
   14.0370   31.0120   73.1520 C   0  0  0  0  0  0  0  0  0  0  0  0
   22.2790   32.8270   68.7390 O   0  0  0  0  0  0  0  0  0  0  0  0
   23.2340   34.2630   70.3150 C   0  0  0  0  0  0  0  0  0  0  0  0
   24.0700   34.3040   68.1370 H   0  0  0  0  0  0  0  0  0  0  0  0
   21.9630   36.5810   64.4400 H   0  0  0  0  0  0  0  0  0  0  0  0
   20.5540   34.8760   68.3030 H   0  0  0  0  0  0  0  0  0  0  0  0
   21.0510   32.8560   71.0600 H   0  0  0  0  0  0  0  0  0  0  0  0
   20.0210   33.3050   69.6690 H   0  0  0  0  0  0  0  0  0  0  0  0
   20.5450   36.9100   69.2700 H   0  0  0  0  0  0  0  0  0  0  0  0
   22.2750   37.0480   69.5470 H   0  0  0  0  0  0  0  0  0  0  0  0
   21.1690   33.9560   72.8500 H   0  0  0  0  0  0  0  0  0  0  0  0
   20.5130   35.5880   73.0850 H   0  0  0  0  0  0  0  0  0  0  0  0
   18.3070   34.6980   73.3380 H   0  0  0  0  0  0  0  0  0  0  0  0
   19.1970   33.1740   73.6820 H   0  0  0  0  0  0  0  0  0  0  0  0
   17.7840   33.8580   69.7670 H   0  0  0  0  0  0  0  0  0  0  0  0
   16.9620   34.7020   71.1090 H   0  0  0  0  0  0  0  0  0  0  0  0
   18.8730   35.8520   69.7160 H   0  0  0  0  0  0  0  0  0  0  0  0
   18.6730   36.1680   71.4530 H   0  0  0  0  0  0  0  0  0  0  0  0
   17.2750   30.1490   72.2180 H   0  0  0  0  0  0  0  0  0  0  0  0
   18.3810   31.0850   74.6010 H   0  0  0  0  0  0  0  0  0  0  0  0
   21.9130   30.1110   74.2550 H   0  0  0  0  0  0  0  0  0  0  0  0
   21.5980   31.2740   72.9250 H   0  0  0  0  0  0  0  0  0  0  0  0
   20.9790   31.6230   74.5620 H   0  0  0  0  0  0  0  0  0  0  0  0
   16.3920   31.4720   74.3040 H   0  0  0  0  0  0  0  0  0  0  0  0
   16.5840   32.8640   73.1930 H   0  0  0  0  0  0  0  0  0  0  0  0
   13.3280   30.5770   70.0130 H   0  0  0  0  0  0  0  0  0  0  0  0
   12.1470   30.3830   72.3110 H   0  0  0  0  0  0  0  0  0  0  0  0
   13.8010   31.0170   74.2060 H   0  0  0  0  0  0  0  0  0  0  0  0
   21.4250   32.4740   68.3830 H   0  0  0  0  0  0  0  0  0  0  0  0
   24.1160   33.6200   70.0390 H   0  0  0  0  0  0  0  0  0  0  0  0
   23.5910   35.3150   70.1890 H   0  0  0  0  0  0  0  0  0  0  0  0
   23.0600   34.1130   71.3820 H   0  0  0  0  0  0  0  0  0  0  0  0
  1  2  1  0  0  0  0
  2  3  2  0  0  0  0
  3  4  1  0  0  0  0
  3 36  1  0  0  0  0
  4 10  1  0  0  0  0
  5  6  2  0  0  0  0
  5  4  1  0  0  0  0
  7  5  1  0  0  0  0
  8  7  1  0  0  0  0
  8  2  1  0  0  0  0
  9  8  2  0  0  0  0
 10 38  1  6  0  0  0
 10 11  1  0  0  0  0
 10 15  1  0  0  0  0
 11 34  1  6  0  0  0
 11 35  1  0  0  0  0
 11 12  1  0  0  0  0
 12 39  1  0  0  0  0
 12 13  1  0  0  0  0
 13 14  1  6  0  0  0
 13 16  1  0  0  0  0
 15 42  1  0  0  0  0
 15 14  1  0  0  0  0
 16 43  1  0  0  0  0
 16 17  1  0  0  0  0
 16 44  1  0  0  0  0
 17 45  1  0  0  0  0
 17 46  1  0  0  0  0
 18 17  1  0  0  0  0
 19 48  1  0  0  0  0
 19 18  1  0  0  0  0
 20 19  1  0  0  0  0
 20 13  1  0  0  0  0
 20 50  1  0  0  0  0
 21 18  1  0  0  0  0
 21 23  1  0  0  0  0
 22 21  2  0  0  0  0
 23 51  1  6  0  0  0
 23 28  1  0  0  0  0
 23 24  1  0  0  0  0
 24 52  1  0  0  0  0
 25 24  1  0  0  0  0
 25 27  1  0  0  0  0
 26 25  2  0  0  0  0
 27 53  1  0  0  0  0
 27 55  1  0  0  0  0
 28 56  1  0  0  0  0
 29 33  2  0  0  0  0
 29 28  1  0  0  0  0
 30 29  1  0  0  0  0
 31 30  2  0  0  0  0
 31 32  1  0  0  0  0
 32 59  1  0  0  0  0
 32 33  1  0  0  0  0
 33 60  1  0  0  0  0
 35 64  1  0  0  0  0
 37  7  1  0  0  0  0
 40 12  1  0  0  0  0
 41 15  1  0  0  0  0
 47 19  1  0  0  0  0
 49 20  1  0  0  0  0
 54 27  1  0  0  0  0
 57 28  1  0  0  0  0
 58 31  1  0  0  0  0
 61 34  1  0  0  0  0
 62 35  1  0  0  0  0
 63 35  1  0  0  0  0
M  END
>  <Pose>
1

>  <Score>
-9.02

$$$$
