
 OpenBabel03212208413D

 47 50  0  0  0  0  0  0  0  0999 V2000
   15.6840   29.3150   73.7580 B   0  0  0  0  0  0  0  0  0  0  0  0
   15.7430   30.9820   72.8500 C   0  0  0  0  0  0  0  0  0  0  0  0
   14.6580   31.5690   72.3000 C   0  0  0  0  0  0  0  0  0  0  0  0
   14.6760   32.7810   71.7370 N   0  0  0  0  0  0  0  0  0  0  0  0
   15.8270   33.4510   71.7140 C   0  0  0  0  0  0  0  0  0  0  0  0
   15.8720   34.6850   71.1380 N   0  0  0  0  0  0  0  0  0  0  0  0
   14.8150   35.2660   70.5880 C   0  0  0  0  0  0  0  0  0  0  0  0
   13.6130   34.5950   70.5990 C   0  0  0  0  0  0  0  0  0  0  0  0
   12.4790   35.1440   70.0350 C   0  0  0  0  0  0  0  0  0  0  0  0
   12.4840   36.4000   69.4280 C   0  0  0  0  0  0  0  0  0  0  0  0
   13.6920   37.0630   69.4230 C   0  0  0  0  0  0  0  0  0  0  0  0
   14.8320   36.5170   69.9870 C   0  0  0  0  0  0  0  0  0  0  0  0
   13.5890   33.3380   71.1920 C   0  0  0  0  0  0  0  0  0  0  0  0
   12.5030   32.7160   71.2080 O   0  0  0  0  0  0  0  0  0  0  0  0
   16.9300   32.8850   72.2570 N   0  0  0  0  0  0  0  0  0  0  0  0
   16.9910   31.6900   72.8300 C   0  0  0  0  0  0  0  0  0  0  0  0
   18.0750   31.0180   73.2990 N   0  0  0  0  0  0  0  0  0  0  0  0
   19.1430   30.3550   73.7610 C   0  0  0  0  0  0  0  0  0  0  0  0
   20.3310   30.3590   73.0190 C   0  0  0  0  0  0  0  0  0  0  0  0
   21.3470   29.5150   73.3300 C   0  0  0  0  0  0  0  0  0  0  0  0
   21.2290   28.6440   74.3850 C   0  0  0  0  0  0  0  0  0  0  0  0
   20.0900   28.5950   75.1580 C   0  0  0  0  0  0  0  0  0  0  0  0
   19.0740   29.4580   74.8200 C   0  0  0  0  0  0  0  0  0  0  0  0
   20.5910   31.3630   71.9800 C   0  0  0  0  0  0  0  0  0  0  0  0
   20.6390   30.9690   70.7870 O   0  0  0  0  0  0  0  0  0  0  0  0
   20.7930   32.6950   72.1970 O   0  0  0  0  0  0  0  0  0  0  0  0
   21.3220   33.5620   71.2120 C   0  0  0  0  0  0  0  0  0  0  0  0
   20.2640   34.5830   70.7820 C   0  0  0  0  0  0  0  0  0  0  0  0
   20.7190   35.9580   71.2100 C   0  0  0  0  0  0  0  0  0  0  0  0
   13.7060   31.0400   72.3070 H   0  0  0  0  0  0  0  0  0  0  0  0
   11.5770   34.5720   70.0790 H   0  0  0  0  0  0  0  0  0  0  0  0
   11.5800   36.8140   68.9910 H   0  0  0  0  0  0  0  0  0  0  0  0
   13.7330   38.0460   68.9570 H   0  0  0  0  0  0  0  0  0  0  0  0
   15.7830   37.0240   69.9870 H   0  0  0  0  0  0  0  0  0  0  0  0
   17.7860   33.5240   72.1750 H   0  0  0  0  0  0  0  0  0  0  0  0
   17.8750   31.4830   74.5680 H   0  0  0  0  0  0  0  0  0  0  0  0
   22.2950   29.4880   72.7680 H   0  0  0  0  0  0  0  0  0  0  0  0
   22.0540   27.9800   74.6020 H   0  0  0  0  0  0  0  0  0  0  0  0
   20.0600   27.8900   75.9720 H   0  0  0  0  0  0  0  0  0  0  0  0
   18.1880   29.3990   75.4390 H   0  0  0  0  0  0  0  0  0  0  0  0
   22.1890   34.1540   71.5500 H   0  0  0  0  0  0  0  0  0  0  0  0
   21.6250   33.0090   70.2960 H   0  0  0  0  0  0  0  0  0  0  0  0
   20.1370   34.5840   69.6820 H   0  0  0  0  0  0  0  0  0  0  0  0
   19.2950   34.3740   71.2930 H   0  0  0  0  0  0  0  0  0  0  0  0
   20.2310   36.2400   72.1600 H   0  0  0  0  0  0  0  0  0  0  0  0
   21.8300   35.9820   71.3670 H   0  0  0  0  0  0  0  0  0  0  0  0
   20.4300   36.7190   70.4560 H   0  0  0  0  0  0  0  0  0  0  0  0
  2  1  1  0  0  0  0
  3 30  1  0  0  0  0
  3  2  1  0  0  0  0
  4  3  1  0  0  0  0
  5  4  1  0  0  0  0
  5 15  1  0  0  0  0
  6  5  2  0  0  0  0
  7  8  1  0  0  0  0
  7  6  1  0  0  0  0
  8 13  1  0  0  0  0
  9 31  1  0  0  0  0
  9  8  2  0  0  0  0
 10  9  1  0  0  0  0
 11 10  2  0  0  0  0
 11 12  1  0  0  0  0
 12 34  1  0  0  0  0
 12  7  2  0  0  0  0
 13 14  2  0  0  0  0
 13  4  1  0  0  0  0
 15 16  1  0  0  0  0
 16  2  2  0  0  0  0
 16 17  1  0  0  0  0
 17 18  1  0  0  0  0
 17 36  1  0  0  0  0
 18 23  1  0  0  0  0
 19 20  1  0  0  0  0
 19 18  2  0  0  0  0
 20 21  2  0  0  0  0
 21 38  1  0  0  0  0
 21 22  1  0  0  0  0
 22 39  1  0  0  0  0
 23 22  2  0  0  0  0
 23 40  1  0  0  0  0
 24 26  1  0  0  0  0
 24 19  1  0  0  0  0
 25 24  2  0  0  0  0
 27 41  1  0  0  0  0
 27 26  1  0  0  0  0
 28 29  1  0  0  0  0
 28 27  1  0  0  0  0
 28 44  1  0  0  0  0
 29 46  1  0  0  0  0
 29 45  1  0  0  0  0
 32 10  1  0  0  0  0
 33 11  1  0  0  0  0
 35 15  1  0  0  0  0
 37 20  1  0  0  0  0
 42 27  1  0  0  0  0
 43 28  1  0  0  0  0
 47 29  1  0  0  0  0
M  END
>  <Pose>
1

>  <Score>
-7.24

$$$$
