
 OpenBabel03212208413D

 53 56  0  0  1  0  0  0  0  0999 V2000
   21.3970   25.1790   72.7480 B   0  0  0  0  0  0  0  0  0  0  0  0
   21.9650   26.9730   72.9550 C   0  0  0  0  0  0  0  0  0  0  0  0
   22.0310   27.5230   74.2220 C   0  0  0  0  0  0  0  0  0  0  0  0
   22.4490   28.8260   74.3940 C   0  0  0  0  0  0  0  0  0  0  0  0
   22.8070   29.5970   73.3130 C   0  0  0  0  0  0  0  0  0  0  0  0
   22.7410   29.0520   72.0660 C   0  0  0  0  0  0  0  0  0  0  0  0
   22.3190   27.7310   71.8680 C   0  0  0  0  0  0  0  0  0  0  0  0
   23.2570   31.0120   73.4480 C   0  0  2  0  0  0  0  0  0  0  0  0
   22.8590   31.7950   72.2810 N   0  0  0  0  0  4  0  0  0  0  0  0
   23.9220   31.9140   71.4190 C   0  0  0  0  0  0  0  0  0  0  0  0
   24.1180   32.7630   70.4410 C   0  0  0  0  0  0  0  0  0  0  0  0
   25.2130   32.9780   69.4510 C   0  0  0  0  0  0  0  0  0  0  0  0
   26.4360   32.1530   69.7010 C   0  0  0  0  0  0  0  0  0  0  0  0
   26.1170   30.6770   69.7260 C   0  0  0  0  0  0  0  0  0  0  0  0
   25.9230   30.2140   71.1560 C   0  0  0  0  0  0  0  0  0  0  0  0
   24.9290   30.9700   71.8480 N   0  0  0  0  0  0  0  0  0  0  0  0
   24.8080   30.8810   73.3100 C   0  0  0  0  0  0  0  0  0  0  0  0
   21.5480   31.6870   71.8990 C   0  0  0  0  0  0  0  0  0  0  0  0
   21.0370   32.0610   70.6930 C   0  0  0  0  0  0  0  0  0  0  0  0
   19.6590   32.0890   70.4210 C   0  0  0  0  0  0  0  0  0  0  0  0
   18.7480   31.7320   71.3800 C   0  0  0  0  0  0  0  0  0  0  0  0
   19.2600   31.3470   72.6110 C   0  0  0  0  0  0  0  0  0  0  0  0
   20.6130   31.3230   72.8740 C   0  0  0  0  0  0  0  0  0  0  0  0
   17.3850   31.7640   71.1350 O   0  0  0  0  0  0  0  0  0  0  0  0
   16.4620   30.7930   71.5580 C   0  0  0  0  0  0  0  0  0  0  0  0
   15.0880   31.4920   71.5370 C   0  0  0  0  0  0  0  0  0  0  0  0
   23.0090   31.6220   74.6160 O   0  0  0  0  0  0  0  0  0  0  0  0
   21.7680   26.9680   75.1070 H   0  0  0  0  0  0  0  0  0  0  0  0
   22.4870   29.2070   75.4190 H   0  0  0  0  0  0  0  0  0  0  0  0
   23.0140   29.6440   71.2160 H   0  0  0  0  0  0  0  0  0  0  0  0
   22.2680   27.2850   70.8830 H   0  0  0  0  0  0  0  0  0  0  0  0
   22.8640   32.8240   72.7700 H   0  0  0  0  0  0  0  0  0  0  0  0
   23.3530   33.5260   70.3150 H   0  0  0  0  0  0  0  0  0  0  0  0
   25.5030   34.0420   69.4610 H   0  0  0  0  0  0  0  0  0  0  0  0
   24.8170   32.6640   68.4470 H   0  0  0  0  0  0  0  0  0  0  0  0
   27.0300   32.4900   70.5410 H   0  0  0  0  0  0  0  0  0  0  0  0
   27.0860   32.2990   68.7870 H   0  0  0  0  0  0  0  0  0  0  0  0
   25.2700   30.4550   69.0870 H   0  0  0  0  0  0  0  0  0  0  0  0
   27.0140   30.1040   69.3370 H   0  0  0  0  0  0  0  0  0  0  0  0
   25.8350   29.1190   71.2150 H   0  0  0  0  0  0  0  0  0  0  0  0
   26.9080   30.4580   71.6620 H   0  0  0  0  0  0  0  0  0  0  0  0
   25.3260   31.7130   73.7790 H   0  0  0  0  0  0  0  0  0  0  0  0
   25.1380   29.8990   73.6290 H   0  0  0  0  0  0  0  0  0  0  0  0
   21.6640   32.3270   69.8650 H   0  0  0  0  0  0  0  0  0  0  0  0
   19.3330   32.4050   69.4480 H   0  0  0  0  0  0  0  0  0  0  0  0
   18.5950   31.0390   73.4300 H   0  0  0  0  0  0  0  0  0  0  0  0
   20.9300   31.0260   73.8850 H   0  0  0  0  0  0  0  0  0  0  0  0
   16.6780   30.4810   72.6330 H   0  0  0  0  0  0  0  0  0  0  0  0
   16.4940   29.8830   70.9520 H   0  0  0  0  0  0  0  0  0  0  0  0
   14.5760   31.0350   70.6720 H   0  0  0  0  0  0  0  0  0  0  0  0
   15.1990   32.5720   71.3400 H   0  0  0  0  0  0  0  0  0  0  0  0
   14.5500   31.3860   72.4900 H   0  0  0  0  0  0  0  0  0  0  0  0
   23.4740   32.4360   74.8600 H   0  0  0  0  0  0  0  0  0  0  0  0
  1  2  1  0  0  0  0
  2  3  1  0  0  0  0
  3  4  2  0  0  0  0
  3 28  1  0  0  0  0
  4 29  1  0  0  0  0
  5  8  1  0  0  0  0
  5  4  1  0  0  0  0
  6  5  2  0  0  0  0
  7  6  1  0  0  0  0
  7  2  2  0  0  0  0
  8 27  1  1  0  0  0
  9 32  1  0  0  0  0
  9  8  1  0  0  0  0
 10 16  1  0  0  0  0
 10  9  1  0  0  0  0
 11 10  2  0  0  0  0
 12 34  1  0  0  0  0
 12 13  1  0  0  0  0
 12 11  1  0  0  0  0
 13 14  1  0  0  0  0
 13 36  1  0  0  0  0
 14 15  1  0  0  0  0
 15 40  1  0  0  0  0
 15 41  1  0  0  0  0
 15 16  1  0  0  0  0
 16 17  1  0  0  0  0
 17  8  1  0  0  0  0
 17 43  1  0  0  0  0
 17 42  1  0  0  0  0
 18  9  1  0  0  0  0
 18 23  1  0  0  0  0
 19 18  2  0  0  0  0
 20 19  1  0  0  0  0
 20 21  2  0  0  0  0
 21 22  1  0  0  0  0
 22 23  2  0  0  0  0
 22 46  1  0  0  0  0
 23 47  1  0  0  0  0
 24 21  1  0  0  0  0
 24 25  1  0  0  0  0
 25 48  1  0  0  0  0
 26 25  1  0  0  0  0
 26 52  1  0  0  0  0
 27 53  1  0  0  0  0
 30  6  1  0  0  0  0
 31  7  1  0  0  0  0
 33 11  1  0  0  0  0
 35 12  1  0  0  0  0
 37 13  1  0  0  0  0
 38 14  1  0  0  0  0
 39 14  1  0  0  0  0
 44 19  1  0  0  0  0
 45 20  1  0  0  0  0
 49 25  1  0  0  0  0
 50 26  1  0  0  0  0
 51 26  1  0  0  0  0
M  END
>  <Pose>
1

>  <Score>
-4.90

$$$$
