
 OpenBabel03212208413D

 47 50  0  0  1  0  0  0  0  0999 V2000
   12.6790   35.1260   69.3800 B   0  0  0  0  0  0  0  0  0  0  0  0
   14.2480   34.6280   70.3440 C   0  0  0  0  0  0  0  0  0  0  0  0
   14.2550   33.5580   71.2190 C   0  0  0  0  0  0  0  0  0  0  0  0
   15.3990   33.2100   71.9060 C   0  0  0  0  0  0  0  0  0  0  0  0
   16.5900   33.8920   71.7700 C   0  0  0  0  0  0  0  0  0  0  0  0
   16.5730   34.9670   70.8890 C   0  0  0  0  0  0  0  0  0  0  0  0
   15.4300   35.3220   70.1960 C   0  0  0  0  0  0  0  0  0  0  0  0
   17.7700   33.4760   72.5240 C   0  0  2  0  0  0  0  0  0  0  0  0
   18.7050   32.6630   71.7870 N   0  0  0  0  0  0  0  0  0  0  0  0
   19.1110   32.5430   70.3930 C   0  0  0  0  0  0  0  0  0  0  0  0
   20.5090   32.1070   70.1870 C   0  0  0  0  0  0  0  0  0  0  0  0
   21.3440   31.9650   71.4360 C   0  0  0  0  0  0  0  0  0  0  0  0
   20.5860   31.4760   72.5830 C   0  0  0  0  0  0  0  0  0  0  0  0
   19.3200   31.8150   72.7450 C   0  0  0  0  0  0  0  0  0  0  0  0
   18.3490   31.4990   73.7390 N   0  0  0  0  0  4  0  0  0  0  0  0
   17.4380   32.6010   73.7110 C   0  0  0  0  0  0  0  0  0  0  0  0
   17.7980   30.2560   73.4560 C   0  0  0  0  0  0  0  0  0  0  0  0
   16.6350   30.1520   72.7310 C   0  0  0  0  0  0  0  0  0  0  0  0
   16.0790   28.8930   72.4470 C   0  0  0  0  0  0  0  0  0  0  0  0
   16.6660   27.7360   72.8770 C   0  0  0  0  0  0  0  0  0  0  0  0
   17.8570   27.8470   73.6190 C   0  0  0  0  0  0  0  0  0  0  0  0
   18.3770   29.0980   73.8810 C   0  0  0  0  0  0  0  0  0  0  0  0
   16.1710   26.4570   72.6320 O   0  0  0  0  0  0  0  0  0  0  0  0
   16.0340   25.4320   73.5620 C   0  0  0  0  0  0  0  0  0  0  0  0
   18.4640   34.6340   72.9320 O   0  0  0  0  0  0  0  0  0  0  0  0
   13.3220   33.0170   71.3300 H   0  0  0  0  0  0  0  0  0  0  0  0
   15.3800   32.3590   72.5920 H   0  0  0  0  0  0  0  0  0  0  0  0
   17.4840   35.5230   70.7600 H   0  0  0  0  0  0  0  0  0  0  0  0
   15.4130   36.1620   69.5040 H   0  0  0  0  0  0  0  0  0  0  0  0
   18.9590   33.5240   69.8630 H   0  0  0  0  0  0  0  0  0  0  0  0
   18.4190   31.8440   69.8420 H   0  0  0  0  0  0  0  0  0  0  0  0
   21.0300   32.7550   69.4320 H   0  0  0  0  0  0  0  0  0  0  0  0
   20.5210   31.0830   69.7090 H   0  0  0  0  0  0  0  0  0  0  0  0
   22.2230   31.3100   71.2690 H   0  0  0  0  0  0  0  0  0  0  0  0
   21.7620   32.9860   71.6550 H   0  0  0  0  0  0  0  0  0  0  0  0
   21.0620   30.8360   73.2980 H   0  0  0  0  0  0  0  0  0  0  0  0
   18.8620   31.4660   74.6610 H   0  0  0  0  0  0  0  0  0  0  0  0
   17.5950   33.2270   74.6180 H   0  0  0  0  0  0  0  0  0  0  0  0
   16.3730   32.3040   73.7320 H   0  0  0  0  0  0  0  0  0  0  0  0
   16.1030   31.0080   72.3500 H   0  0  0  0  0  0  0  0  0  0  0  0
   15.1610   28.8250   71.8720 H   0  0  0  0  0  0  0  0  0  0  0  0
   18.3230   26.9290   73.9580 H   0  0  0  0  0  0  0  0  0  0  0  0
   19.2820   29.1550   74.4460 H   0  0  0  0  0  0  0  0  0  0  0  0
   16.3280   25.6850   74.5740 H   0  0  0  0  0  0  0  0  0  0  0  0
   16.5120   24.4990   73.1780 H   0  0  0  0  0  0  0  0  0  0  0  0
   14.9370   25.1700   73.6250 H   0  0  0  0  0  0  0  0  0  0  0  0
   18.2560   34.7480   73.8920 H   0  0  0  0  0  0  0  0  0  0  0  0
  1  2  1  0  0  0  0
  2  3  1  0  0  0  0
  3 26  1  0  0  0  0
  3  4  2  0  0  0  0
  4 27  1  0  0  0  0
  5  4  1  0  0  0  0
  5  8  1  0  0  0  0
  6  5  2  0  0  0  0
  7  2  2  0  0  0  0
  7  6  1  0  0  0  0
  8 25  1  1  0  0  0
  8 16  1  0  0  0  0
  9  8  1  0  0  0  0
  9 14  1  0  0  0  0
 10  9  1  0  0  0  0
 11 10  1  0  0  0  0
 11 12  1  0  0  0  0
 12 35  1  0  0  0  0
 12 13  1  0  0  0  0
 13 14  2  0  0  0  0
 13 36  1  0  0  0  0
 14 15  1  0  0  0  0
 15 37  1  0  0  0  0
 16 39  1  0  0  0  0
 16 15  1  0  0  0  0
 16 38  1  0  0  0  0
 17 15  1  0  0  0  0
 17 22  1  0  0  0  0
 18 17  2  0  0  0  0
 19 18  1  0  0  0  0
 19 20  2  0  0  0  0
 20 21  1  0  0  0  0
 21 22  2  0  0  0  0
 21 42  1  0  0  0  0
 22 43  1  0  0  0  0
 23 20  1  0  0  0  0
 23 24  1  0  0  0  0
 24 46  1  0  0  0  0
 24 44  1  0  0  0  0
 25 47  1  0  0  0  0
 28  6  1  0  0  0  0
 29  7  1  0  0  0  0
 30 10  1  0  0  0  0
 31 10  1  0  0  0  0
 32 11  1  0  0  0  0
 33 11  1  0  0  0  0
 34 12  1  0  0  0  0
 40 18  1  0  0  0  0
 41 19  1  0  0  0  0
 45 24  1  0  0  0  0
M  END
>  <Pose>
1

>  <Score>
-5.20

$$$$
