
 OpenBabel03212208413D

 56 59  0  0  1  0  0  0  0  0999 V2000
   16.2070   27.9750   76.6810 B   0  0  0  0  0  0  0  0  0  0  0  0
   15.2330   28.8620   75.3110 C   0  0  0  0  0  0  0  0  0  0  0  0
   15.8280   29.1110   74.0780 C   0  0  0  0  0  0  0  0  0  0  0  0
   15.1270   29.7510   73.0920 C   0  0  0  0  0  0  0  0  0  0  0  0
   13.8280   30.1530   73.3130 C   0  0  0  0  0  0  0  0  0  0  0  0
   13.2530   29.8980   74.5400 C   0  0  0  0  0  0  0  0  0  0  0  0
   13.9300   29.2580   75.5530 C   0  0  0  0  0  0  0  0  0  0  0  0
   13.0910   30.8260   72.2850 N   0  0  0  0  0  0  0  0  0  0  0  0
   13.6970   31.2510   71.0390 C   0  0  0  0  0  0  0  0  0  0  0  0
   14.4330   32.5500   71.1690 C   0  0  0  0  0  0  0  0  0  0  0  0
   14.2160   33.7260   70.5590 N   0  0  0  0  0  0  0  0  0  0  0  0
   15.1380   34.6010   71.0010 C   0  0  1  0  0  0  0  0  0  0  0  0
   15.9440   33.9520   71.9060 N   0  0  0  0  0  0  0  0  0  0  0  0
   15.4850   32.7150   71.9790 N   0  0  0  0  0  0  0  0  0  0  0  0
   17.0710   34.4410   72.5960 C   0  0  0  0  0  0  0  0  0  0  0  0
   18.3340   33.7770   72.4060 C   0  0  2  0  0  0  0  0  0  0  0  0
   18.5220   32.7810   73.2730 O   0  0  0  0  0  0  0  0  0  0  0  0
   19.4330   33.9440   71.4980 C   0  0  0  0  0  0  0  0  0  0  0  0
   20.3430   35.0110   71.6630 C   0  0  0  0  0  0  0  0  0  0  0  0
   21.4040   35.2210   70.8230 C   0  0  0  0  0  0  0  0  0  0  0  0
   21.6360   34.3850   69.7600 C   0  0  0  0  0  0  0  0  0  0  0  0
   20.7790   33.3370   69.5640 C   0  0  0  0  0  0  0  0  0  0  0  0
   19.6920   33.1340   70.4350 C   0  0  0  0  0  0  0  0  0  0  0  0
   22.7170   34.5990   68.9070 O   0  0  0  0  0  0  0  0  0  0  0  0
   23.1260   33.6490   67.9530 C   0  0  0  0  0  0  0  0  0  0  0  0
   15.3980   36.0110   70.6930 C   0  0  0  0  0  0  0  0  0  0  0  0
   14.1740   36.8300   70.3820 C   0  0  0  0  0  0  0  0  0  0  0  0
   13.4210   36.3540   69.1830 C   0  0  0  0  0  0  0  0  0  0  0  0
   12.4930   35.2560   69.6480 C   0  0  0  0  0  0  0  0  0  0  0  0
   13.1610   33.9030   69.6150 C   0  0  0  0  0  0  0  0  0  0  0  0
   16.8610   28.7750   73.9480 H   0  0  0  0  0  0  0  0  0  0  0  0
   15.5900   29.9360   72.1470 H   0  0  0  0  0  0  0  0  0  0  0  0
   12.2420   30.2090   74.7160 H   0  0  0  0  0  0  0  0  0  0  0  0
   13.5020   29.0450   76.5240 H   0  0  0  0  0  0  0  0  0  0  0  0
   12.0810   31.0010   72.4790 H   0  0  0  0  0  0  0  0  0  0  0  0
   14.3780   30.4580   70.6260 H   0  0  0  0  0  0  0  0  0  0  0  0
   12.8910   31.3540   70.2800 H   0  0  0  0  0  0  0  0  0  0  0  0
   16.8380   34.5740   73.7140 H   0  0  0  0  0  0  0  0  0  0  0  0
   17.2670   35.5500   72.3250 H   0  0  0  0  0  0  0  0  0  0  0  0
   20.1650   35.6740   72.4990 H   0  0  0  0  0  0  0  0  0  0  0  0
   22.0690   36.0620   71.0070 H   0  0  0  0  0  0  0  0  0  0  0  0
   20.9490   32.6670   68.7270 H   0  0  0  0  0  0  0  0  0  0  0  0
   19.0920   32.3070   70.1940 H   0  0  0  0  0  0  0  0  0  0  0  0
   23.2420   32.6570   68.4490 H   0  0  0  0  0  0  0  0  0  0  0  0
   24.1280   33.9460   67.5810 H   0  0  0  0  0  0  0  0  0  0  0  0
   22.4260   33.5830   67.0970 H   0  0  0  0  0  0  0  0  0  0  0  0
   16.0920   36.1140   69.8340 H   0  0  0  0  0  0  0  0  0  0  0  0
   15.8660   36.4850   71.5800 H   0  0  0  0  0  0  0  0  0  0  0  0
   14.5340   37.8610   70.1630 H   0  0  0  0  0  0  0  0  0  0  0  0
   13.4920   36.9220   71.2500 H   0  0  0  0  0  0  0  0  0  0  0  0
   12.7840   37.1900   68.7970 H   0  0  0  0  0  0  0  0  0  0  0  0
   14.0680   35.9520   68.3990 H   0  0  0  0  0  0  0  0  0  0  0  0
   11.6520   35.2140   68.9270 H   0  0  0  0  0  0  0  0  0  0  0  0
   12.0400   35.4750   70.6440 H   0  0  0  0  0  0  0  0  0  0  0  0
   13.5680   33.7780   68.5900 H   0  0  0  0  0  0  0  0  0  0  0  0
   12.3610   33.1690   69.8430 H   0  0  0  0  0  0  0  0  0  0  0  0
  2  7  1  0  0  0  0
  2  1  1  0  0  0  0
  3  2  2  0  0  0  0
  4  5  2  0  0  0  0
  4  3  1  0  0  0  0
  5  6  1  0  0  0  0
  6 33  1  0  0  0  0
  6  7  2  0  0  0  0
  7 34  1  0  0  0  0
  8 35  1  0  0  0  0
  8  5  1  0  0  0  0
  9 10  1  0  0  0  0
  9  8  1  0  0  0  0
 10 14  2  0  0  0  0
 11 10  1  0  0  0  0
 12 11  1  6  0  0  0
 12 13  1  0  0  0  0
 13 14  1  0  0  0  0
 13 15  1  0  0  0  0
 15 38  1  0  0  0  0
 16 15  1  0  0  0  0
 16 17  1  1  0  0  0
 18 19  1  0  0  0  0
 18 16  1  0  0  0  0
 19 40  1  0  0  0  0
 20 41  1  0  0  0  0
 20 19  2  0  0  0  0
 21 20  1  0  0  0  0
 22 21  2  0  0  0  0
 22 23  1  0  0  0  0
 23 18  2  0  0  0  0
 24 21  1  0  0  0  0
 25 44  1  0  0  0  0
 25 24  1  0  0  0  0
 26 12  1  0  0  0  0
 26 48  1  0  0  0  0
 27 26  1  0  0  0  0
 27 50  1  0  0  0  0
 28 29  1  0  0  0  0
 28 27  1  0  0  0  0
 29 54  1  0  0  0  0
 30 29  1  0  0  0  0
 30 56  1  0  0  0  0
 30 11  1  0  0  0  0
 31  3  1  0  0  0  0
 32  4  1  0  0  0  0
 36  9  1  0  0  0  0
 37  9  1  0  0  0  0
 39 15  1  0  0  0  0
 42 22  1  0  0  0  0
 43 23  1  0  0  0  0
 45 25  1  0  0  0  0
 46 25  1  0  0  0  0
 47 26  1  0  0  0  0
 49 27  1  0  0  0  0
 51 28  1  0  0  0  0
 52 28  1  0  0  0  0
 53 29  1  0  0  0  0
 55 30  1  0  0  0  0
M  END
>  <Pose>
1

>  <Score>
-7.32

$$$$
