
 OpenBabel03212208413D

 53 56  0  0  1  0  0  0  0  0999 V2000
   13.0630   36.6640   69.5400 B   0  0  0  0  0  0  0  0  0  0  0  0
   14.0850   35.1680   70.1660 C   0  0  0  0  0  0  0  0  0  0  0  0
   15.4620   35.1940   70.1740 C   0  0  0  0  0  0  0  0  0  0  0  0
   16.1890   34.0980   70.6150 C   0  0  0  0  0  0  0  0  0  0  0  0
   15.5740   32.9320   71.0670 C   0  0  0  0  0  0  0  0  0  0  0  0
   14.2120   32.9590   71.0400 C   0  0  0  0  0  0  0  0  0  0  0  0
   13.4570   34.0430   70.6020 C   0  0  0  0  0  0  0  0  0  0  0  0
   16.3550   31.8680   71.4680 N   0  0  0  0  0  4  0  0  0  0  0  0
   16.2510   31.4330   72.8290 C   0  0  1  0  0  0  0  0  0  0  0  0
   17.0910   32.5110   73.5130 C   0  0  0  0  0  0  0  0  0  0  0  0
   18.2020   32.7100   72.5690 N   0  0  0  0  0  0  0  0  0  0  0  0
   19.4120   33.3240   72.9860 C   0  0  0  0  0  0  0  0  0  0  0  0
   20.4760   33.4060   71.9330 C   0  0  0  0  0  0  0  0  0  0  0  0
   20.6500   32.0550   71.2950 C   0  0  0  0  0  0  0  0  0  0  0  0
   19.8690   32.1340   69.9750 C   0  0  0  0  0  0  0  0  0  0  0  0
   18.4400   31.8930   70.2610 C   0  0  0  0  0  0  0  0  0  0  0  0
   17.7370   32.1570   71.3390 C   0  0  0  0  0  0  0  0  0  0  0  0
   15.0050   31.2510   73.3400 O   0  0  0  0  0  0  0  0  0  0  0  0
   16.9910   30.1600   73.0640 C   0  0  0  0  0  0  0  0  0  0  0  0
   18.0630   30.0170   73.8930 C   0  0  0  0  0  0  0  0  0  0  0  0
   18.7150   28.7800   74.0770 C   0  0  0  0  0  0  0  0  0  0  0  0
   18.2860   27.6540   73.4160 C   0  0  0  0  0  0  0  0  0  0  0  0
   17.2070   27.7850   72.5770 C   0  0  0  0  0  0  0  0  0  0  0  0
   16.5740   28.9950   72.4000 C   0  0  0  0  0  0  0  0  0  0  0  0
   18.9260   26.4150   73.5950 O   0  0  0  0  0  0  0  0  0  0  0  0
   19.7120   25.8380   72.5800 C   0  0  0  0  0  0  0  0  0  0  0  0
   19.7060   24.3430   72.6290 C   0  0  0  0  0  0  0  0  0  0  0  0
   15.9220   36.1070   69.8220 H   0  0  0  0  0  0  0  0  0  0  0  0
   17.2600   34.2040   70.5870 H   0  0  0  0  0  0  0  0  0  0  0  0
   13.6470   32.1200   71.3550 H   0  0  0  0  0  0  0  0  0  0  0  0
   12.3540   33.9690   70.6170 H   0  0  0  0  0  0  0  0  0  0  0  0
   16.0470   31.0480   70.8580 H   0  0  0  0  0  0  0  0  0  0  0  0
   16.5770   33.4230   73.7500 H   0  0  0  0  0  0  0  0  0  0  0  0
   17.5800   32.1650   74.4360 H   0  0  0  0  0  0  0  0  0  0  0  0
   19.1960   34.3590   73.3260 H   0  0  0  0  0  0  0  0  0  0  0  0
   19.8480   32.7080   73.8380 H   0  0  0  0  0  0  0  0  0  0  0  0
   20.1760   34.1910   71.2110 H   0  0  0  0  0  0  0  0  0  0  0  0
   21.4260   33.6470   72.4470 H   0  0  0  0  0  0  0  0  0  0  0  0
   21.6970   31.7740   71.0990 H   0  0  0  0  0  0  0  0  0  0  0  0
   20.1790   31.2260   71.8620 H   0  0  0  0  0  0  0  0  0  0  0  0
   19.9740   33.1290   69.5000 H   0  0  0  0  0  0  0  0  0  0  0  0
   20.3090   31.3870   69.2790 H   0  0  0  0  0  0  0  0  0  0  0  0
   17.9300   31.3990   69.4570 H   0  0  0  0  0  0  0  0  0  0  0  0
   14.7480   31.9270   73.9930 H   0  0  0  0  0  0  0  0  0  0  0  0
   18.4420   30.8720   74.4170 H   0  0  0  0  0  0  0  0  0  0  0  0
   19.5620   28.7380   74.7490 H   0  0  0  0  0  0  0  0  0  0  0  0
   16.8820   26.8660   72.0660 H   0  0  0  0  0  0  0  0  0  0  0  0
   15.7260   29.0810   71.7250 H   0  0  0  0  0  0  0  0  0  0  0  0
   20.7750   26.1740   72.7810 H   0  0  0  0  0  0  0  0  0  0  0  0
   19.5000   26.2480   71.5640 H   0  0  0  0  0  0  0  0  0  0  0  0
   19.2660   23.9590   73.5810 H   0  0  0  0  0  0  0  0  0  0  0  0
   20.7030   23.8770   72.5020 H   0  0  0  0  0  0  0  0  0  0  0  0
   19.1200   23.9820   71.7340 H   0  0  0  0  0  0  0  0  0  0  0  0
  1  2  1  0  0  0  0
  2  3  2  0  0  0  0
  2  7  1  0  0  0  0
  3  4  1  0  0  0  0
  4  5  2  0  0  0  0
  5  8  1  0  0  0  0
  6  5  1  0  0  0  0
  6 30  1  0  0  0  0
  7 31  1  0  0  0  0
  7  6  2  0  0  0  0
  8  9  1  0  0  0  0
  9 19  1  0  0  0  0
  9 18  1  1  0  0  0
  9 10  1  0  0  0  0
 10 33  1  0  0  0  0
 10 34  1  0  0  0  0
 11 12  1  0  0  0  0
 11 10  1  0  0  0  0
 12 35  1  0  0  0  0
 12 36  1  0  0  0  0
 13 38  1  0  0  0  0
 13 12  1  0  0  0  0
 14 40  1  0  0  0  0
 14 13  1  0  0  0  0
 15 16  1  0  0  0  0
 15 14  1  0  0  0  0
 16 17  2  0  0  0  0
 17  8  1  0  0  0  0
 17 11  1  0  0  0  0
 18 44  1  0  0  0  0
 19 20  1  0  0  0  0
 20 21  2  0  0  0  0
 20 45  1  0  0  0  0
 21 46  1  0  0  0  0
 22 25  1  0  0  0  0
 22 21  1  0  0  0  0
 23 22  2  0  0  0  0
 24 23  1  0  0  0  0
 24 19  2  0  0  0  0
 26 27  1  0  0  0  0
 26 49  1  0  0  0  0
 26 25  1  0  0  0  0
 27 51  1  0  0  0  0
 28  3  1  0  0  0  0
 29  4  1  0  0  0  0
 32  8  1  0  0  0  0
 37 13  1  0  0  0  0
 39 14  1  0  0  0  0
 41 15  1  0  0  0  0
 42 15  1  0  0  0  0
 43 16  1  0  0  0  0
 47 23  1  0  0  0  0
 48 24  1  0  0  0  0
 50 26  1  0  0  0  0
 52 27  1  0  0  0  0
 53 27  1  0  0  0  0
M  END
>  <Pose>
1

>  <Score>
-5.22

$$$$
