
 OpenBabel03212208413D

 50 53  0  0  0  0  0  0  0  0999 V2000
   15.9270   25.9830   73.5480 F   0  0  0  0  0  0  0  0  0  0  0  0
   16.0650   27.3370   73.5130 C   0  0  0  0  0  0  0  0  0  0  0  0
   15.2440   28.1700   74.2460 C   0  0  0  0  0  0  0  0  0  0  0  0
   15.4010   29.5400   74.1950 C   0  0  0  0  0  0  0  0  0  0  0  0
   16.3770   30.1380   73.4150 C   0  0  0  0  0  0  0  0  0  0  0  0
   17.1920   29.2970   72.6870 C   0  0  0  0  0  0  0  0  0  0  0  0
   17.0380   27.9180   72.7340 C   0  0  0  0  0  0  0  0  0  0  0  0
   16.5470   31.5840   73.3580 C   0  0  0  0  0  0  0  0  0  0  0  0
   17.6680   32.1260   73.6740 N   0  0  0  0  0  0  0  0  0  0  0  0
   17.9010   33.4940   73.6430 N   0  0  0  0  0  0  0  0  0  0  0  0
   17.6730   34.2390   72.4630 C   0  0  0  0  0  0  0  0  0  0  0  0
   16.4080   34.5200   72.0800 N   0  0  0  0  0  4  0  0  0  0  0  0
   16.1200   35.2280   70.9600 C   0  0  0  0  0  0  0  0  0  0  0  0
   17.1600   35.6480   70.2370 N   0  0  0  0  0  0  0  0  0  0  0  0
   18.4440   35.4060   70.5570 C   0  0  0  0  0  0  0  0  0  0  0  0
   18.6640   34.6980   71.6790 N   0  0  0  0  0  0  0  0  0  0  0  0
   19.5010   35.8860   69.7380 N   0  0  0  0  0  0  0  0  0  0  0  0
   19.3000   37.1010   68.9720 C   0  0  0  0  0  0  0  0  0  0  0  0
   20.5360   37.3890   68.1500 C   0  0  0  0  0  0  0  0  0  0  0  0
   21.7060   37.3340   68.8510 O   0  0  0  0  0  0  0  0  0  0  0  0
   21.8370   36.3130   69.7540 C   0  0  0  0  0  0  0  0  0  0  0  0
   20.7730   35.2370   69.6150 C   0  0  0  0  0  0  0  0  0  0  0  0
   14.7690   35.4950   70.6030 N   0  0  0  0  0  0  0  0  0  0  0  0
   13.6580   34.6320   70.9320 C   0  0  0  0  0  0  0  0  0  0  0  0
   12.9870   34.3680   69.5850 C   0  0  0  0  0  0  0  0  0  0  0  0
   12.4380   35.5110   69.1370 O   0  0  0  0  0  0  0  0  0  0  0  0
   13.1340   36.6550   69.1700 C   0  0  0  0  0  0  0  0  0  0  0  0
   14.4360   36.6910   69.8660 C   0  0  0  0  0  0  0  0  0  0  0  0
   13.8890   27.3730   75.3300 B   0  0  0  0  0  0  0  0  0  0  0  0
   14.7550   30.2100   74.7730 H   0  0  0  0  0  0  0  0  0  0  0  0
   17.9670   29.7630   72.0680 H   0  0  0  0  0  0  0  0  0  0  0  0
   17.6920   27.2700   72.1510 H   0  0  0  0  0  0  0  0  0  0  0  0
   15.7200   32.1900   73.0460 H   0  0  0  0  0  0  0  0  0  0  0  0
   18.2460   33.9790   74.4880 H   0  0  0  0  0  0  0  0  0  0  0  0
   18.4650   36.9660   68.2260 H   0  0  0  0  0  0  0  0  0  0  0  0
   19.1110   37.9110   69.6830 H   0  0  0  0  0  0  0  0  0  0  0  0
   20.4190   38.4530   67.7930 H   0  0  0  0  0  0  0  0  0  0  0  0
   20.5490   36.7760   67.2330 H   0  0  0  0  0  0  0  0  0  0  0  0
   21.7060   36.7360   70.7810 H   0  0  0  0  0  0  0  0  0  0  0  0
   22.8590   35.8810   69.6540 H   0  0  0  0  0  0  0  0  0  0  0  0
   20.8630   34.8500   68.5770 H   0  0  0  0  0  0  0  0  0  0  0  0
   20.9340   34.4760   70.3800 H   0  0  0  0  0  0  0  0  0  0  0  0
   12.9350   35.2440   71.5100 H   0  0  0  0  0  0  0  0  0  0  0  0
   13.9510   33.7010   71.4340 H   0  0  0  0  0  0  0  0  0  0  0  0
   13.7630   33.9560   68.9130 H   0  0  0  0  0  0  0  0  0  0  0  0
   12.1690   33.6050   69.7190 H   0  0  0  0  0  0  0  0  0  0  0  0
   12.4730   37.4570   69.6190 H   0  0  0  0  0  0  0  0  0  0  0  0
   13.2730   37.0170   68.1060 H   0  0  0  0  0  0  0  0  0  0  0  0
   14.4850   37.5290   70.6260 H   0  0  0  0  0  0  0  0  0  0  0  0
   15.2680   36.9550   69.1470 H   0  0  0  0  0  0  0  0  0  0  0  0
  2  1  1  0  0  0  0
  2  3  1  0  0  0  0
  3 29  1  0  0  0  0
  4  3  2  0  0  0  0
  4 30  1  0  0  0  0
  5  4  1  0  0  0  0
  6  7  1  0  0  0  0
  6  5  2  0  0  0  0
  7  2  2  0  0  0  0
  8  5  1  0  0  0  0
  8  9  2  0  0  0  0
 10  9  1  0  0  0  0
 10 34  1  0  0  0  0
 11 10  1  0  0  0  0
 12 11  2  0  0  0  0
 13 12  2  0  0  0  0
 14 15  2  0  0  0  0
 14 13  1  0  0  0  0
 15 16  1  0  0  0  0
 16 11  1  0  0  0  0
 17 15  1  0  0  0  0
 18 36  1  0  0  0  0
 18 17  1  0  0  0  0
 19 20  1  0  0  0  0
 19 18  1  0  0  0  0
 20 21  1  0  0  0  0
 21 39  1  0  0  0  0
 22 17  1  0  0  0  0
 22 21  1  0  0  0  0
 22 42  1  0  0  0  0
 23 24  1  0  0  0  0
 23 13  1  0  0  0  0
 24 44  1  0  0  0  0
 24 43  1  0  0  0  0
 25 46  1  0  0  0  0
 25 24  1  0  0  0  0
 26 27  1  0  0  0  0
 26 25  1  0  0  0  0
 27 47  1  0  0  0  0
 27 28  1  0  0  0  0
 28 23  1  0  0  0  0
 28 49  1  0  0  0  0
 31  6  1  0  0  0  0
 32  7  1  0  0  0  0
 33  8  1  0  0  0  0
 35 18  1  0  0  0  0
 37 19  1  0  0  0  0
 38 19  1  0  0  0  0
 40 21  1  0  0  0  0
 41 22  1  0  0  0  0
 45 25  1  0  0  0  0
 48 27  1  0  0  0  0
 50 28  1  0  0  0  0
M  END
>  <Pose>
1

>  <Score>
-6.47

$$$$
