
 OpenBabel03212208413D

 53 56  0  0  1  0  0  0  0  0999 V2000
   20.7780   35.9210   70.1620 F   0  0  0  0  0  0  0  0  0  0  0  0
   21.6940   35.1770   69.5610 C   0  0  0  0  0  0  0  0  0  0  0  0
   22.1730   34.0130   70.1250 C   0  0  0  0  0  0  0  0  0  0  0  0
   23.1200   33.3520   69.3830 C   0  0  0  0  0  0  0  0  0  0  0  0
   23.5930   33.7810   68.1520 C   0  0  0  0  0  0  0  0  0  0  0  0
   23.0950   34.9380   67.6270 C   0  0  0  0  0  0  0  0  0  0  0  0
   22.1560   35.6280   68.3210 C   0  0  0  0  0  0  0  0  0  0  0  0
   21.6920   33.4880   71.4130 C   0  0  2  0  0  0  0  0  0  0  0  0
   21.9410   32.0700   71.6230 N   0  0  0  0  0  0  0  0  0  0  0  0
   21.1000   31.4780   70.6100 C   0  0  0  0  0  0  0  0  0  0  0  0
   21.2750   30.4070   69.9710 O   0  0  0  0  0  0  0  0  0  0  0  0
   19.9150   32.3580   70.4020 C   0  0  0  0  0  0  0  0  0  0  0  0
   18.9400   32.2720   69.6570 O   0  0  0  0  0  0  0  0  0  0  0  0
   20.1790   33.4610   71.3720 C   0  0  0  0  0  0  0  0  0  0  0  0
   19.2880   34.1940   71.9940 C   0  0  0  0  0  0  0  0  0  0  0  0
   19.7240   35.2070   72.8730 O   0  0  0  0  0  0  0  0  0  0  0  0
   17.8590   33.9920   71.8080 C   0  0  0  0  0  0  0  0  0  0  0  0
   17.1610   34.8630   71.0010 C   0  0  0  0  0  0  0  0  0  0  0  0
   15.7950   34.7460   70.8020 C   0  0  0  0  0  0  0  0  0  0  0  0
   15.0970   33.7320   71.4220 C   0  0  0  0  0  0  0  0  0  0  0  0
   15.7670   32.8600   72.2240 C   0  0  0  0  0  0  0  0  0  0  0  0
   17.1530   32.9900   72.4190 C   0  0  0  0  0  0  0  0  0  0  0  0
   13.1950   33.5440   71.1630 B   0  0  0  0  0  0  0  0  0  0  0  0
   22.7360   31.3320   72.5070 C   0  0  0  0  0  0  0  0  0  0  0  0
   22.3130   31.1340   73.9180 C   0  0  0  0  0  0  0  0  0  0  0  0
   23.3170   31.4690   74.8880 N   0  0  0  0  0  4  0  0  0  0  0  0
   24.5180   30.7140   74.5970 C   0  0  0  0  0  0  0  0  0  0  0  0
   25.6480   31.1230   75.5260 C   0  0  0  0  0  0  0  0  0  0  0  0
   25.2620   30.8950   76.8330 O   0  0  0  0  0  0  0  0  0  0  0  0
   24.0850   31.5800   77.1220 C   0  0  0  0  0  0  0  0  0  0  0  0
   22.9390   31.0450   76.2520 C   0  0  0  0  0  0  0  0  0  0  0  0
   23.5260   32.4450   69.7460 H   0  0  0  0  0  0  0  0  0  0  0  0
   24.3390   33.2390   67.5890 H   0  0  0  0  0  0  0  0  0  0  0  0
   23.4520   35.2910   66.6660 H   0  0  0  0  0  0  0  0  0  0  0  0
   21.7710   36.5460   67.8890 H   0  0  0  0  0  0  0  0  0  0  0  0
   21.9940   34.1410   72.2180 H   0  0  0  0  0  0  0  0  0  0  0  0
   17.6450   35.6880   70.4790 H   0  0  0  0  0  0  0  0  0  0  0  0
   15.2220   35.4140   70.1770 H   0  0  0  0  0  0  0  0  0  0  0  0
   15.2230   32.0620   72.7120 H   0  0  0  0  0  0  0  0  0  0  0  0
   17.6610   32.3080   73.0610 H   0  0  0  0  0  0  0  0  0  0  0  0
   23.7680   31.7820   72.5610 H   0  0  0  0  0  0  0  0  0  0  0  0
   22.9730   30.2770   72.1430 H   0  0  0  0  0  0  0  0  0  0  0  0
   21.4730   31.8680   74.0890 H   0  0  0  0  0  0  0  0  0  0  0  0
   21.8230   30.1480   74.1040 H   0  0  0  0  0  0  0  0  0  0  0  0
   23.4830   32.4900   74.9960 H   0  0  0  0  0  0  0  0  0  0  0  0
   24.2760   29.6440   74.8690 H   0  0  0  0  0  0  0  0  0  0  0  0
   24.7940   30.6950   73.5440 H   0  0  0  0  0  0  0  0  0  0  0  0
   25.8900   32.1850   75.3090 H   0  0  0  0  0  0  0  0  0  0  0  0
   26.5080   30.4710   75.2930 H   0  0  0  0  0  0  0  0  0  0  0  0
   24.2570   32.6450   76.8060 H   0  0  0  0  0  0  0  0  0  0  0  0
   23.8150   31.5500   78.1820 H   0  0  0  0  0  0  0  0  0  0  0  0
   22.8850   29.9560   76.2900 H   0  0  0  0  0  0  0  0  0  0  0  0
   22.0210   31.5860   76.5250 H   0  0  0  0  0  0  0  0  0  0  0  0
  2  3  1  0  0  0  0
  2  1  1  0  0  0  0
  3  8  1  0  0  0  0
  4 32  1  0  0  0  0
  4  3  2  0  0  0  0
  5  4  1  0  0  0  0
  6  5  2  0  0  0  0
  6  7  1  0  0  0  0
  7  2  2  0  0  0  0
  8  9  1  0  0  0  0
  8 36  1  1  0  0  0
  9 24  1  0  0  0  0
 10  9  1  0  0  0  0
 11 10  2  0  0  0  0
 12 10  1  0  0  0  0
 12 14  1  0  0  0  0
 13 12  2  0  0  0  0
 14  8  1  0  0  0  0
 14 15  2  0  0  0  0
 15 16  1  0  0  0  0
 17 15  1  0  0  0  0
 17 22  1  0  0  0  0
 18 17  2  0  0  0  0
 19 18  1  0  0  0  0
 19 20  2  0  0  0  0
 20 21  1  0  0  0  0
 21 22  2  0  0  0  0
 21 39  1  0  0  0  0
 22 40  1  0  0  0  0
 23 20  1  0  0  0  0
 24 41  1  0  0  0  0
 24 25  1  0  0  0  0
 25 43  1  0  0  0  0
 25 44  1  0  0  0  0
 25 26  1  0  0  0  0
 26 45  1  0  0  0  0
 26 31  1  0  0  0  0
 27 46  1  0  0  0  0
 27 26  1  0  0  0  0
 27 28  1  0  0  0  0
 28 29  1  0  0  0  0
 29 30  1  0  0  0  0
 30 51  1  0  0  0  0
 31 52  1  0  0  0  0
 31 53  1  0  0  0  0
 31 30  1  0  0  0  0
 33  5  1  0  0  0  0
 34  6  1  0  0  0  0
 35  7  1  0  0  0  0
 37 18  1  0  0  0  0
 38 19  1  0  0  0  0
 42 24  1  0  0  0  0
 47 27  1  0  0  0  0
 48 28  1  0  0  0  0
 49 28  1  0  0  0  0
 50 30  1  0  0  0  0
M  END
>  <Pose>
1

>  <Score>
-6.02

$$$$
