
 OpenBabel03212208413D

 41 44  0  0  0  0  0  0  0  0999 V2000
   23.2490   36.9070   69.0190 F   0  0  0  0  0  0  0  0  0  0  0  0
   21.8970   36.8550   69.2090 C   0  0  0  0  0  0  0  0  0  0  0  0
   21.0560   36.9350   68.1360 C   0  0  0  0  0  0  0  0  0  0  0  0
   19.6720   36.8820   68.3200 C   0  0  0  0  0  0  0  0  0  0  0  0
   19.1110   36.7510   69.5700 C   0  0  0  0  0  0  0  0  0  0  0  0
   19.9920   36.6730   70.6380 C   0  0  0  0  0  0  0  0  0  0  0  0
   21.3580   36.7240   70.4680 C   0  0  0  0  0  0  0  0  0  0  0  0
   17.7080   36.6850   69.8160 N   0  0  0  0  0  0  0  0  0  0  0  0
   17.0160   35.7410   70.4780 C   0  0  0  0  0  0  0  0  0  0  0  0
   17.5900   34.7440   70.9930 O   0  0  0  0  0  0  0  0  0  0  0  0
   15.6610   36.0120   70.5080 C   0  0  0  0  0  0  0  0  0  0  0  0
   15.5280   37.1560   69.8420 C   0  0  0  0  0  0  0  0  0  0  0  0
   14.2260   37.4550   69.8440 N   0  0  0  0  0  0  0  0  0  0  0  0
   13.5800   36.5080   70.4980 N   0  0  0  0  0  0  0  0  0  0  0  0
   14.4420   35.5910   70.9270 N   0  0  0  0  0  0  0  0  0  0  0  0
   14.1950   34.3960   71.6790 C   0  0  0  0  0  0  0  0  0  0  0  0
   12.9500   33.6900   71.3590 C   0  0  0  0  0  0  0  0  0  0  0  0
   12.0170   34.3610   70.8910 O   0  0  0  0  0  0  0  0  0  0  0  0
   12.8340   32.3140   71.5750 N   0  0  0  0  0  0  0  0  0  0  0  0
   13.8320   31.3790   71.9340 C   0  0  0  0  0  0  0  0  0  0  0  0
   14.9790   31.2150   71.1940 C   0  0  0  0  0  0  0  0  0  0  0  0
   15.9860   30.3010   71.5170 C   0  0  0  0  0  0  0  0  0  0  0  0
   15.7860   29.5410   72.6410 C   0  0  0  0  0  0  0  0  0  0  0  0
   14.6500   29.6850   73.3980 C   0  0  0  0  0  0  0  0  0  0  0  0
   13.6770   30.5890   73.0600 C   0  0  0  0  0  0  0  0  0  0  0  0
   17.1360   28.2600   73.1470 B   0  0  0  0  0  0  0  0  0  0  0  0
   16.7680   37.5780   69.4150 C   0  0  0  0  0  0  0  0  0  0  0  0
   17.0720   38.6120   68.7550 O   0  0  0  0  0  0  0  0  0  0  0  0
   21.4910   37.0370   67.1530 H   0  0  0  0  0  0  0  0  0  0  0  0
   19.0290   36.9450   67.4690 H   0  0  0  0  0  0  0  0  0  0  0  0
   19.5410   36.5700   71.6340 H   0  0  0  0  0  0  0  0  0  0  0  0
   22.0280   36.6620   71.3110 H   0  0  0  0  0  0  0  0  0  0  0  0
   13.8210   38.3180   69.3850 H   0  0  0  0  0  0  0  0  0  0  0  0
   12.5640   36.4670   70.6640 H   0  0  0  0  0  0  0  0  0  0  0  0
   14.1330   34.6940   72.7680 H   0  0  0  0  0  0  0  0  0  0  0  0
   15.0840   33.7010   71.6560 H   0  0  0  0  0  0  0  0  0  0  0  0
   11.8540   31.8650   71.4610 H   0  0  0  0  0  0  0  0  0  0  0  0
   15.2000   31.7840   70.2960 H   0  0  0  0  0  0  0  0  0  0  0  0
   16.8800   30.1920   70.9150 H   0  0  0  0  0  0  0  0  0  0  0  0
   14.5040   29.0750   74.2900 H   0  0  0  0  0  0  0  0  0  0  0  0
   12.7680   30.6870   73.6890 H   0  0  0  0  0  0  0  0  0  0  0  0
  1  2  1  0  0  0  0
  2  7  1  0  0  0  0
  3  4  1  0  0  0  0
  3  2  2  0  0  0  0
  4  5  2  0  0  0  0
  5  8  1  0  0  0  0
  5  6  1  0  0  0  0
  6 31  1  0  0  0  0
  7  6  2  0  0  0  0
  7 32  1  0  0  0  0
  8  9  1  0  0  0  0
  9 11  1  0  0  0  0
  9 10  2  0  0  0  0
 11 15  1  0  0  0  0
 12 13  1  0  0  0  0
 12 11  2  0  0  0  0
 13 14  1  0  0  0  0
 14 34  1  0  0  0  0
 14 15  1  0  0  0  0
 15 16  1  0  0  0  0
 16 35  1  0  0  0  0
 17 19  1  0  0  0  0
 17 16  1  0  0  0  0
 18 17  2  0  0  0  0
 19 20  1  0  0  0  0
 20 25  1  0  0  0  0
 21 22  1  0  0  0  0
 21 20  2  0  0  0  0
 22 23  2  0  0  0  0
 23 26  1  0  0  0  0
 23 24  1  0  0  0  0
 24 40  1  0  0  0  0
 25 24  2  0  0  0  0
 25 41  1  0  0  0  0
 27  8  1  0  0  0  0
 27 12  1  0  0  0  0
 28 27  2  0  0  0  0
 29  3  1  0  0  0  0
 30  4  1  0  0  0  0
 33 13  1  0  0  0  0
 36 16  1  0  0  0  0
 37 19  1  0  0  0  0
 38 21  1  0  0  0  0
 39 22  1  0  0  0  0
M  END
>  <Pose>
1

>  <Score>
-7.97

$$$$
