
 OpenBabel03212208413D

 39 42  0  0  1  0  0  0  0  0999 V2000
   14.0870   36.4570   70.3480 I   0  0  0  0  0  0  0  0  0  0  0  0
   14.7770   34.6320   71.1320 C   0  0  0  0  0  0  0  0  0  0  0  0
   14.0340   33.4660   70.9410 C   0  0  0  0  0  0  0  0  0  0  0  0
   14.4480   32.2530   71.4370 C   0  0  0  0  0  0  0  0  0  0  0  0
   15.6590   32.2590   72.1440 C   0  0  0  0  0  0  0  0  0  0  0  0
   16.3820   33.4090   72.3270 C   0  0  0  0  0  0  0  0  0  0  0  0
   15.9490   34.6130   71.8230 C   0  0  0  0  0  0  0  0  0  0  0  0
   18.0220   33.3790   73.2940 B   0  0  0  0  0  0  0  0  0  0  0  0
   13.7040   30.9800   71.2520 C   0  0  2  0  0  0  0  0  0  0  0  0
   13.1150   30.6570   72.5330 N   0  0  0  0  0  0  0  0  0  0  0  0
   13.9490   30.1770   73.5920 C   0  0  0  0  0  0  0  0  0  0  0  0
   13.8080   30.2040   75.3250 S   0  0  0  0  0  0  0  0  0  0  0  0
   15.2520   29.4080   75.7340 C   0  0  0  0  0  0  0  0  0  0  0  0
   15.8040   29.1450   74.5290 C   0  0  0  0  0  0  0  0  0  0  0  0
   15.1430   29.5350   73.4260 C   0  0  0  0  0  0  0  0  0  0  0  0
   15.4830   29.3910   71.9820 C   0  0  0  0  0  0  0  0  0  0  0  0
   16.5410   28.8230   71.6190 O   0  0  0  0  0  0  0  0  0  0  0  0
   14.6220   29.8870   70.9790 N   0  0  0  0  0  0  0  0  0  0  0  0
   17.1400   28.4160   74.5920 C   0  0  0  0  0  0  0  0  0  0  0  0
   17.2270   27.7110   75.9070 C   0  0  0  0  0  0  0  0  0  0  0  0
   17.2000   28.7720   76.9260 N   0  0  0  0  0  4  0  0  0  0  0  0
   15.7920   29.0750   77.0730 C   0  0  0  0  0  0  0  0  0  0  0  0
   17.8020   28.3290   78.1610 C   0  0  0  0  0  0  0  0  0  0  0  0
   12.8530   33.5400   70.2370 O   0  0  0  0  0  0  0  0  0  0  0  0
   15.9880   31.3060   72.5360 H   0  0  0  0  0  0  0  0  0  0  0  0
   16.5230   35.5380   71.9640 H   0  0  0  0  0  0  0  0  0  0  0  0
   12.9370   31.0660   70.4540 H   0  0  0  0  0  0  0  0  0  0  0  0
   12.0960   30.7550   72.7340 H   0  0  0  0  0  0  0  0  0  0  0  0
   14.6290   29.4760   70.0100 H   0  0  0  0  0  0  0  0  0  0  0  0
   17.9150   29.1910   74.5430 H   0  0  0  0  0  0  0  0  0  0  0  0
   17.2520   27.7330   73.7440 H   0  0  0  0  0  0  0  0  0  0  0  0
   16.3650   27.0400   76.0600 H   0  0  0  0  0  0  0  0  0  0  0  0
   18.1710   27.1730   75.9640 H   0  0  0  0  0  0  0  0  0  0  0  0
   17.6620   29.6210   76.5380 H   0  0  0  0  0  0  0  0  0  0  0  0
   15.2320   28.2320   77.5250 H   0  0  0  0  0  0  0  0  0  0  0  0
   15.7200   29.9150   77.7910 H   0  0  0  0  0  0  0  0  0  0  0  0
   17.0740   28.2730   78.9880 H   0  0  0  0  0  0  0  0  0  0  0  0
   18.5530   29.1140   78.4510 H   0  0  0  0  0  0  0  0  0  0  0  0
   18.3910   27.3950   78.0480 H   0  0  0  0  0  0  0  0  0  0  0  0
  1  2  1  0  0  0  0
  2  7  1  0  0  0  0
  3  2  2  0  0  0  0
  3  4  1  0  0  0  0
  4  5  2  0  0  0  0
  5  6  1  0  0  0  0
  5 25  1  0  0  0  0
  6  8  1  0  0  0  0
  7 26  1  0  0  0  0
  7  6  2  0  0  0  0
  9 27  1  6  0  0  0
  9  4  1  0  0  0  0
  9 10  1  0  0  0  0
 10 28  1  0  0  0  0
 10 11  1  0  0  0  0
 11 12  1  0  0  0  0
 12 13  1  0  0  0  0
 13 22  1  0  0  0  0
 14 19  1  0  0  0  0
 14 13  2  0  0  0  0
 15 11  2  0  0  0  0
 15 14  1  0  0  0  0
 16 15  1  0  0  0  0
 17 16  2  0  0  0  0
 18  9  1  0  0  0  0
 18 16  1  0  0  0  0
 19 20  1  0  0  0  0
 20 33  1  0  0  0  0
 20 32  1  0  0  0  0
 20 21  1  0  0  0  0
 21 22  1  0  0  0  0
 21 23  1  0  0  0  0
 22 35  1  0  0  0  0
 22 36  1  0  0  0  0
 23 38  1  0  0  0  0
 23 37  1  0  0  0  0
 24  3  1  0  0  0  0
 29 18  1  0  0  0  0
 30 19  1  0  0  0  0
 31 19  1  0  0  0  0
 34 21  1  0  0  0  0
 39 23  1  0  0  0  0
M  END
>  <Pose>
1

>  <Score>
-6.78

$$$$
