
 OpenBabel03212208413D

 38 41  0  0  1  0  0  0  0  0999 V2000
   16.5010   28.9850   72.7710 I   0  0  0  0  0  0  0  0  0  0  0  0
   14.7090   29.5250   73.7490 C   0  0  0  0  0  0  0  0  0  0  0  0
   13.8510   30.4750   73.1520 C   0  0  0  0  0  0  0  0  0  0  0  0
   12.6890   30.8400   73.7710 C   0  0  0  0  0  0  0  0  0  0  0  0
   12.3910   30.2400   74.9970 C   0  0  0  0  0  0  0  0  0  0  0  0
   13.2020   29.3190   75.5980 C   0  0  0  0  0  0  0  0  0  0  0  0
   14.3850   28.9580   74.9560 C   0  0  0  0  0  0  0  0  0  0  0  0
   14.2140   31.0300   71.9080 N   0  0  0  0  0  0  0  0  0  0  0  0
   14.0070   32.3470   71.4480 C   0  0  1  0  0  0  0  0  0  0  0  0
   12.8620   32.8550   71.0100 N   0  0  0  0  0  0  0  0  0  0  0  0
   12.6760   34.1120   70.5740 C   0  0  0  0  0  0  0  0  0  0  0  0
   11.6780   34.8670   70.0980 N   0  0  0  0  0  0  0  0  0  0  0  0
   12.1050   36.0670   69.8300 O   0  0  0  0  0  0  0  0  0  0  0  0
   13.3730   36.1520   70.1140 N   0  0  0  0  0  0  0  0  0  0  0  0
   13.7860   34.9640   70.5810 C   0  0  0  0  0  0  0  0  0  0  0  0
   14.9510   34.5120   71.0080 N   0  0  0  0  0  0  0  0  0  0  0  0
   15.0860   33.2530   71.4320 C   0  0  0  0  0  0  0  0  0  0  0  0
   16.3530   33.1090   71.7860 N   0  0  0  0  0  0  0  0  0  0  0  0
   17.0060   34.2660   71.5850 N   0  0  0  0  0  0  0  0  0  0  0  0
   16.1430   35.1680   71.0950 C   0  0  0  0  0  0  0  0  0  0  0  0
   16.3770   36.5840   70.7060 C   0  0  0  0  0  0  0  0  0  0  0  0
   17.4610   36.7440   69.7080 C   0  0  0  0  0  0  0  0  0  0  0  0
   17.2850   37.2640   68.5860 O   0  0  0  0  0  0  0  0  0  0  0  0
   18.7150   36.2990   70.0240 O   0  0  0  0  0  0  0  0  0  0  0  0
   19.8710   37.0550   69.9650 C   0  0  0  0  0  0  0  0  0  0  0  0
   20.5940   37.0510   68.6730 C   0  0  0  0  0  0  0  0  0  0  0  0
   11.9840   31.5520   73.3860 H   0  0  0  0  0  0  0  0  0  0  0  0
   11.4640   30.5230   75.5040 H   0  0  0  0  0  0  0  0  0  0  0  0
   12.9470   28.8750   76.5450 H   0  0  0  0  0  0  0  0  0  0  0  0
   15.0190   28.2290   75.4410 H   0  0  0  0  0  0  0  0  0  0  0  0
   14.7120   30.3430   71.2390 H   0  0  0  0  0  0  0  0  0  0  0  0
   16.5110   37.2440   71.5810 H   0  0  0  0  0  0  0  0  0  0  0  0
   15.4470   36.9710   70.1860 H   0  0  0  0  0  0  0  0  0  0  0  0
   19.5850   38.1020   70.2660 H   0  0  0  0  0  0  0  0  0  0  0  0
   20.5870   36.7380   70.7770 H   0  0  0  0  0  0  0  0  0  0  0  0
   20.6030   38.1100   68.2760 H   0  0  0  0  0  0  0  0  0  0  0  0
   20.0650   36.4660   67.8860 H   0  0  0  0  0  0  0  0  0  0  0  0
   21.6310   36.7210   68.8160 H   0  0  0  0  0  0  0  0  0  0  0  0
  1  2  1  0  0  0  0
  2  7  1  0  0  0  0
  3  2  2  0  0  0  0
  3  4  1  0  0  0  0
  4  5  2  0  0  0  0
  5 28  1  0  0  0  0
  5  6  1  0  0  0  0
  6 29  1  0  0  0  0
  7 30  1  0  0  0  0
  7  6  2  0  0  0  0
  8  3  1  0  0  0  0
  9  8  1  1  0  0  0
 10  9  1  0  0  0  0
 11 15  1  0  0  0  0
 11 10  2  0  0  0  0
 12 11  1  0  0  0  0
 13 12  1  0  0  0  0
 13 14  1  0  0  0  0
 14 15  2  0  0  0  0
 15 16  1  0  0  0  0
 16 20  1  0  0  0  0
 16 17  1  0  0  0  0
 17  9  1  0  0  0  0
 17 18  2  0  0  0  0
 19 18  1  0  0  0  0
 20 19  2  0  0  0  0
 21 20  1  0  0  0  0
 21 32  1  0  0  0  0
 22 24  1  0  0  0  0
 22 21  1  0  0  0  0
 23 22  2  0  0  0  0
 25 24  1  0  0  0  0
 25 34  1  0  0  0  0
 25 35  1  0  0  0  0
 26 38  1  0  0  0  0
 26 25  1  0  0  0  0
 27  4  1  0  0  0  0
 31  8  1  0  0  0  0
 33 21  1  0  0  0  0
 36 26  1  0  0  0  0
 37 26  1  0  0  0  0
M  END
>  <Pose>
1

>  <Score>
-7.23

$$$$
