
 OpenBabel03212208413D

 34 37  0  0  1  0  0  0  0  0999 V2000
   12.6650   34.8090   69.8330 I   0  0  0  0  0  0  0  0  0  0  0  0
   14.6620   35.4780   70.0500 C   0  0  0  0  0  0  0  0  0  0  0  0
   15.5510   34.6270   70.6740 C   0  0  0  0  0  0  0  0  0  0  0  0
   16.8470   35.0820   70.8060 C   0  0  0  0  0  0  0  0  0  0  0  0
   17.2270   36.3260   70.3330 C   0  0  0  0  0  0  0  0  0  0  0  0
   16.3300   37.1680   69.7110 C   0  0  0  0  0  0  0  0  0  0  0  0
   15.0320   36.7210   69.5750 C   0  0  0  0  0  0  0  0  0  0  0  0
   15.1450   33.3450   71.1560 N   0  0  0  0  0  0  0  0  0  0  0  0
   15.9090   32.3400   71.6200 C   0  0  0  0  0  0  0  0  0  0  0  0
   17.1730   32.3640   71.7100 O   0  0  0  0  0  0  0  0  0  0  0  0
   15.1420   31.2560   71.9950 C   0  0  0  0  0  0  0  0  0  0  0  0
   13.8890   31.6090   71.7550 C   0  0  0  0  0  0  0  0  0  0  0  0
   13.1500   30.5380   72.1280 N   0  0  0  0  0  0  0  0  0  0  0  0
   13.9280   29.5700   72.5770 N   0  0  0  0  0  0  0  0  0  0  0  0
   15.1630   29.9930   72.5040 N   0  0  0  0  0  0  0  0  0  0  0  0
   16.3530   29.3080   72.8730 C   0  0  0  0  0  0  0  0  0  0  0  0
   17.4050   29.9470   73.4900 C   0  0  0  0  0  0  0  0  0  0  0  0
   18.5510   29.2510   73.8380 C   0  0  0  0  0  0  0  0  0  0  0  0
   18.6890   27.9020   73.5830 C   0  0  0  0  0  0  0  0  0  0  0  0
   17.6370   27.2600   72.9650 C   0  0  0  0  0  0  0  0  0  0  0  0
   16.4970   27.9420   72.6170 C   0  0  0  0  0  0  0  0  0  0  0  0
   13.8800   32.8950   71.2390 C   0  0  2  0  0  0  0  0  0  0  0  0
   12.8270   33.5280   70.9020 O   0  0  0  0  0  0  0  0  0  0  0  0
   17.5480   34.4200   71.2940 H   0  0  0  0  0  0  0  0  0  0  0  0
   18.2470   36.6620   70.4470 H   0  0  0  0  0  0  0  0  0  0  0  0
   16.6580   38.1350   69.3520 H   0  0  0  0  0  0  0  0  0  0  0  0
   14.3260   37.3920   69.0820 H   0  0  0  0  0  0  0  0  0  0  0  0
   12.1120   30.4640   72.0760 H   0  0  0  0  0  0  0  0  0  0  0  0
   13.6180   28.6400   72.9250 H   0  0  0  0  0  0  0  0  0  0  0  0
   17.3220   31.0060   73.7020 H   0  0  0  0  0  0  0  0  0  0  0  0
   19.3550   29.7860   74.3210 H   0  0  0  0  0  0  0  0  0  0  0  0
   19.6030   27.3870   73.8690 H   0  0  0  0  0  0  0  0  0  0  0  0
   17.7490   26.1970   72.7660 H   0  0  0  0  0  0  0  0  0  0  0  0
   15.6670   27.4650   72.1360 H   0  0  0  0  0  0  0  0  0  0  0  0
  1 23  1  0  0  0  0
  2  3  1  0  0  0  0
  3  4  2  0  0  0  0
  3  8  1  0  0  0  0
  4 24  1  0  0  0  0
  5 25  1  0  0  0  0
  5  4  1  0  0  0  0
  6  5  2  0  0  0  0
  7  6  1  0  0  0  0
  7  2  2  0  0  0  0
  8 22  1  0  0  0  0
  8  9  1  0  0  0  0
  9 10  2  0  0  0  0
  9 11  1  0  0  0  0
 11 15  1  0  0  0  0
 12 11  2  0  0  0  0
 12 13  1  0  0  0  0
 13 14  1  0  0  0  0
 14 29  1  0  0  0  0
 15 14  1  0  0  0  0
 15 16  1  0  0  0  0
 16 17  1  0  0  0  0
 17 30  1  0  0  0  0
 17 18  2  0  0  0  0
 18 31  1  0  0  0  0
 19 18  1  0  0  0  0
 19 32  1  0  0  0  0
 20 19  2  0  0  0  0
 21 16  2  0  0  0  0
 21 20  1  0  0  0  0
 22 23  1  6  0  0  0
 22 12  1  0  0  0  0
 26  6  1  0  0  0  0
 27  7  1  0  0  0  0
 28 13  1  0  0  0  0
 33 20  1  0  0  0  0
 34 21  1  0  0  0  0
M  END
>  <Pose>
1

>  <Score>
-6.24

$$$$
