
 OpenBabel03212208413D

 44 47  0  0  1  0  0  0  0  0999 V2000
   24.3440   35.9580   65.0760 I   0  0  0  0  0  0  0  0  0  0  0  0
   23.3370   35.5020   66.8760 C   0  0  0  0  0  0  0  0  0  0  0  0
   22.0090   35.8170   67.0740 C   0  0  0  0  0  0  0  0  0  0  0  0
   21.3760   35.5080   68.2610 C   0  0  0  0  0  0  0  0  0  0  0  0
   22.0390   34.8750   69.2910 C   0  0  0  0  0  0  0  0  0  0  0  0
   23.3620   34.5690   69.0740 C   0  0  0  0  0  0  0  0  0  0  0  0
   24.0150   34.8690   67.8950 C   0  0  0  0  0  0  0  0  0  0  0  0
   21.3340   34.5720   70.5100 N   0  0  0  0  0  0  0  0  0  0  0  0
   20.9710   33.3000   71.0200 C   0  0  0  0  0  0  0  0  0  0  0  0
   21.5400   32.2270   70.6900 O   0  0  0  0  0  0  0  0  0  0  0  0
   19.8440   33.4500   71.9830 C   0  0  1  0  0  0  0  0  0  0  0  0
   20.0910   34.8490   72.5210 C   0  0  0  0  0  0  0  0  0  0  0  0
   20.8570   35.5260   71.4560 C   0  0  0  0  0  0  0  0  0  0  0  0
   21.0780   36.7690   71.3630 O   0  0  0  0  0  0  0  0  0  0  0  0
   18.6380   33.3190   71.2760 N   0  0  0  0  0  0  0  0  0  0  0  0
   18.2820   32.1170   70.6650 C   0  0  0  0  0  0  0  0  0  0  0  0
   16.7330   32.0960   70.5750 C   0  0  0  0  0  0  0  0  0  0  0  0
   16.2030   32.4360   71.8870 N   0  0  0  0  0  0  0  0  0  0  0  0
   16.5650   33.7310   72.4090 C   0  0  0  0  0  0  0  0  0  0  0  0
   17.6520   34.2970   71.4990 C   0  0  0  0  0  0  0  0  0  0  0  0
   15.3870   31.5370   72.6030 C   0  0  0  0  0  0  0  0  0  0  0  0
   15.9160   30.7350   73.5670 N   0  0  0  0  0  0  0  0  0  0  0  0
   15.1950   29.8750   74.2820 C   0  0  0  0  0  0  0  0  0  0  0  0
   13.8290   29.7570   74.0630 C   0  0  0  0  0  0  0  0  0  0  0  0
   13.2970   30.5750   73.0810 C   0  0  0  0  0  0  0  0  0  0  0  0
   14.0600   31.4280   72.3850 N   0  0  0  0  0  0  0  0  0  0  0  0
   21.4780   36.3090   66.2820 H   0  0  0  0  0  0  0  0  0  0  0  0
   20.3230   35.7580   68.4220 H   0  0  0  0  0  0  0  0  0  0  0  0
   23.9020   34.0740   69.8700 H   0  0  0  0  0  0  0  0  0  0  0  0
   25.0660   34.6190   67.7410 H   0  0  0  0  0  0  0  0  0  0  0  0
   19.9600   32.7600   72.8370 H   0  0  0  0  0  0  0  0  0  0  0  0
   19.1590   35.4140   72.6980 H   0  0  0  0  0  0  0  0  0  0  0  0
   20.7310   34.8100   73.4260 H   0  0  0  0  0  0  0  0  0  0  0  0
   18.6730   31.8940   69.6720 H   0  0  0  0  0  0  0  0  0  0  0  0
   18.4830   31.2720   71.3900 H   0  0  0  0  0  0  0  0  0  0  0  0
   16.3630   31.0890   70.3060 H   0  0  0  0  0  0  0  0  0  0  0  0
   16.3820   32.7930   69.7840 H   0  0  0  0  0  0  0  0  0  0  0  0
   15.7240   34.4580   72.3370 H   0  0  0  0  0  0  0  0  0  0  0  0
   16.9410   33.7020   73.4460 H   0  0  0  0  0  0  0  0  0  0  0  0
   18.0790   35.2290   71.9380 H   0  0  0  0  0  0  0  0  0  0  0  0
   17.1440   34.6480   70.5570 H   0  0  0  0  0  0  0  0  0  0  0  0
   15.6390   29.2500   75.0420 H   0  0  0  0  0  0  0  0  0  0  0  0
   13.2400   29.0590   74.6410 H   0  0  0  0  0  0  0  0  0  0  0  0
   12.2270   30.4820   72.9090 H   0  0  0  0  0  0  0  0  0  0  0  0
  1  2  1  0  0  0  0
  2  3  2  0  0  0  0
  2  7  1  0  0  0  0
  3  4  1  0  0  0  0
  4 28  1  0  0  0  0
  4  5  2  0  0  0  0
  5  8  1  0  0  0  0
  6  5  1  0  0  0  0
  6 29  1  0  0  0  0
  7  6  2  0  0  0  0
  8  9  1  0  0  0  0
  8 13  1  0  0  0  0
  9 11  1  0  0  0  0
 10  9  2  0  0  0  0
 11 12  1  0  0  0  0
 11 31  1  1  0  0  0
 12 32  1  0  0  0  0
 12 33  1  0  0  0  0
 13 12  1  0  0  0  0
 14 13  2  0  0  0  0
 15 20  1  0  0  0  0
 15 11  1  0  0  0  0
 16 15  1  0  0  0  0
 16 35  1  0  0  0  0
 17 16  1  0  0  0  0
 17 18  1  0  0  0  0
 18 19  1  0  0  0  0
 18 21  1  0  0  0  0
 19 39  1  0  0  0  0
 20 40  1  0  0  0  0
 20 19  1  0  0  0  0
 21 22  2  0  0  0  0
 22 23  1  0  0  0  0
 23 42  1  0  0  0  0
 24 23  2  0  0  0  0
 24 43  1  0  0  0  0
 25 24  1  0  0  0  0
 26 21  1  0  0  0  0
 26 25  2  0  0  0  0
 27  3  1  0  0  0  0
 30  7  1  0  0  0  0
 34 16  1  0  0  0  0
 36 17  1  0  0  0  0
 37 17  1  0  0  0  0
 38 19  1  0  0  0  0
 41 20  1  0  0  0  0
 44 25  1  0  0  0  0
M  END
>  <Pose>
1

>  <Score>
-5.63

$$$$
