
 OpenBabel03212208413D

 40 42  0  0  0  0  0  0  0  0999 V2000
   16.7640   31.0040   71.8860 I   0  0  0  0  0  0  0  0  0  0  0  0
   15.5160   29.7050   72.9330 C   0  0  0  0  0  0  0  0  0  0  0  0
   15.9010   28.4420   73.3850 C   0  0  0  0  0  0  0  0  0  0  0  0
   14.8590   27.8770   73.9960 N   0  0  0  0  0  0  0  0  0  0  0  0
   13.8670   28.7220   73.9390 N   0  0  0  0  0  0  0  0  0  0  0  0
   14.2230   29.8800   73.2880 C   0  0  0  0  0  0  0  0  0  0  0  0
   13.2900   31.0070   73.1110 C   0  0  0  0  0  0  0  0  0  0  0  0
   12.4880   31.2120   74.0870 O   0  0  0  0  0  0  0  0  0  0  0  0
   13.2360   31.8250   71.9900 N   0  0  0  0  0  0  0  0  0  0  0  0
   14.1300   32.8670   71.6490 C   0  0  0  0  0  0  0  0  0  0  0  0
   13.6020   33.9620   70.9580 C   0  0  0  0  0  0  0  0  0  0  0  0
   12.3550   34.2310   70.5350 N   0  0  0  0  0  0  0  0  0  0  0  0
   12.3640   35.3850   69.9350 O   0  0  0  0  0  0  0  0  0  0  0  0
   13.5590   35.8880   69.9430 N   0  0  0  0  0  0  0  0  0  0  0  0
   14.3770   35.0270   70.5780 C   0  0  0  0  0  0  0  0  0  0  0  0
   15.7220   35.0370   70.8770 C   0  0  0  0  0  0  0  0  0  0  0  0
   16.2300   33.9570   71.5560 C   0  0  0  0  0  0  0  0  0  0  0  0
   15.4460   32.8640   71.9480 C   0  0  0  0  0  0  0  0  0  0  0  0
   16.5070   36.1470   70.4750 N   0  0  0  0  0  0  0  0  0  0  0  0
   17.8610   35.9580   69.9960 C   0  0  0  0  0  0  0  0  0  0  0  0
   18.4130   37.2740   69.5700 C   0  0  0  0  0  0  0  0  0  0  0  0
   17.5790   37.9970   68.7400 O   0  0  0  0  0  0  0  0  0  0  0  0
   16.3420   38.2510   69.2400 C   0  0  0  0  0  0  0  0  0  0  0  0
   16.0200   37.5110   70.5150 C   0  0  0  0  0  0  0  0  0  0  0  0
   14.8680   26.5410   74.6080 C   0  0  0  0  0  0  0  0  0  0  0  0
   16.8760   27.9720   73.2750 H   0  0  0  0  0  0  0  0  0  0  0  0
   12.4300   31.6190   71.3200 H   0  0  0  0  0  0  0  0  0  0  0  0
   17.2830   33.9680   71.7880 H   0  0  0  0  0  0  0  0  0  0  0  0
   15.9600   32.0710   72.4790 H   0  0  0  0  0  0  0  0  0  0  0  0
   17.7990   35.2460   69.1480 H   0  0  0  0  0  0  0  0  0  0  0  0
   18.5220   35.5640   70.8100 H   0  0  0  0  0  0  0  0  0  0  0  0
   19.4030   37.1000   69.1030 H   0  0  0  0  0  0  0  0  0  0  0  0
   18.5690   37.8910   70.4960 H   0  0  0  0  0  0  0  0  0  0  0  0
   16.2610   39.3360   69.4610 H   0  0  0  0  0  0  0  0  0  0  0  0
   15.5480   38.0370   68.4750 H   0  0  0  0  0  0  0  0  0  0  0  0
   14.9140   37.4570   70.5920 H   0  0  0  0  0  0  0  0  0  0  0  0
   16.3880   38.0400   71.4130 H   0  0  0  0  0  0  0  0  0  0  0  0
   15.8920   26.3420   74.9410 H   0  0  0  0  0  0  0  0  0  0  0  0
   14.2160   26.6090   75.5090 H   0  0  0  0  0  0  0  0  0  0  0  0
   14.5110   25.8070   73.8700 H   0  0  0  0  0  0  0  0  0  0  0  0
  2  6  1  0  0  0  0
  2  3  2  0  0  0  0
  3  4  1  0  0  0  0
  4 25  1  0  0  0  0
  5  4  1  0  0  0  0
  6  5  2  0  0  0  0
  7  6  1  0  0  0  0
  7  8  2  0  0  0  0
  9  7  1  0  0  0  0
 10 18  2  0  0  0  0
 10  9  1  0  0  0  0
 11 10  1  0  0  0  0
 12 11  2  0  0  0  0
 13 14  1  0  0  0  0
 13 12  1  0  0  0  0
 14 15  2  0  0  0  0
 15 16  1  0  0  0  0
 15 11  1  0  0  0  0
 16 17  2  0  0  0  0
 17 28  1  0  0  0  0
 17 18  1  0  0  0  0
 18 29  1  0  0  0  0
 19 24  1  0  0  0  0
 19 16  1  0  0  0  0
 20 19  1  0  0  0  0
 20 31  1  0  0  0  0
 21 20  1  0  0  0  0
 21 33  1  0  0  0  0
 22 23  1  0  0  0  0
 22 21  1  0  0  0  0
 23 34  1  0  0  0  0
 23 24  1  0  0  0  0
 24 36  1  0  0  0  0
 24 37  1  0  0  0  0
 25 38  1  0  0  0  0
 25 39  1  0  0  0  0
 26  3  1  0  0  0  0
 27  9  1  0  0  0  0
 30 20  1  0  0  0  0
 32 21  1  0  0  0  0
 35 23  1  0  0  0  0
 40 25  1  0  0  0  0
M  END
>  <Pose>
1

>  <Score>
-6.88

$$$$
