
 OpenBabel03212208413D

 44 47  0  0  1  0  0  0  0  0999 V2000
   20.8300   34.8840   71.4810 I   0  0  0  0  0  0  0  0  0  0  0  0
   19.2220   33.5290   71.6290 C   0  0  0  0  0  0  0  0  0  0  0  0
   19.2400   32.3180   72.2550 C   0  0  0  0  0  0  0  0  0  0  0  0
   17.9510   31.8140   72.0760 C   0  0  0  0  0  0  0  0  0  0  0  0
   17.1810   32.6560   71.3860 N   0  0  0  0  0  0  0  0  0  0  0  0
   17.9510   33.7080   71.1080 C   0  0  0  0  0  0  0  0  0  0  0  0
   15.8100   32.5080   70.9980 C   0  0  2  0  0  0  0  0  0  0  0  0
   15.1560   33.7160   70.7880 O   0  0  0  0  0  0  0  0  0  0  0  0
   13.8430   33.3090   70.5650 C   0  0  1  0  0  0  0  0  0  0  0  0
   13.5590   32.1870   71.5360 C   0  0  2  0  0  0  0  0  0  0  0  0
   14.9510   31.9090   72.1150 C   0  0  0  0  0  0  0  0  0  0  0  0
   13.1710   31.0200   70.8770 O   0  0  0  0  0  0  0  0  0  0  0  0
   12.8770   34.4460   70.9260 C   0  0  0  0  0  0  0  0  0  0  0  0
   12.0230   34.6740   69.8390 O   0  0  0  0  0  0  0  0  0  0  0  0
   17.6770   30.6070   72.6010 N   0  0  0  0  0  0  0  0  0  0  0  0
   18.6100   29.9140   73.2710 C   0  0  0  0  0  0  0  0  0  0  0  0
   19.8440   30.4000   73.4400 N   0  0  0  0  0  0  0  0  0  0  0  0
   20.2090   31.6210   72.9380 C   0  0  0  0  0  0  0  0  0  0  0  0
   21.5370   32.0880   73.1490 N   0  0  0  0  0  0  0  0  0  0  0  0
   22.4490   31.2550   73.8590 C   0  0  0  0  0  0  0  0  0  0  0  0
   22.6540   31.5270   75.0700 O   0  0  0  0  0  0  0  0  0  0  0  0
   23.1410   30.1350   73.2840 C   0  0  0  0  0  0  0  0  0  0  0  0
   22.5530   29.3500   72.3310 C   0  0  0  0  0  0  0  0  0  0  0  0
   23.2140   28.2600   71.7600 C   0  0  0  0  0  0  0  0  0  0  0  0
   24.4840   27.9630   72.1580 C   0  0  0  0  0  0  0  0  0  0  0  0
   25.0990   28.7330   73.1110 C   0  0  0  0  0  0  0  0  0  0  0  0
   24.4180   29.8200   73.6710 C   0  0  0  0  0  0  0  0  0  0  0  0
   17.6790   34.6130   70.5550 H   0  0  0  0  0  0  0  0  0  0  0  0
   15.7020   31.8350   70.1390 H   0  0  0  0  0  0  0  0  0  0  0  0
   13.6920   33.0070   69.5080 H   0  0  0  0  0  0  0  0  0  0  0  0
   12.8370   32.4520   72.3180 H   0  0  0  0  0  0  0  0  0  0  0  0
   15.0660   32.5320   73.0190 H   0  0  0  0  0  0  0  0  0  0  0  0
   15.1380   30.8430   72.2600 H   0  0  0  0  0  0  0  0  0  0  0  0
   12.4480   30.6190   71.4520 H   0  0  0  0  0  0  0  0  0  0  0  0
   12.2520   34.1740   71.7870 H   0  0  0  0  0  0  0  0  0  0  0  0
   13.4530   35.3600   71.1090 H   0  0  0  0  0  0  0  0  0  0  0  0
   11.4420   35.4820   70.0050 H   0  0  0  0  0  0  0  0  0  0  0  0
   18.3510   28.9280   73.6870 H   0  0  0  0  0  0  0  0  0  0  0  0
   21.9110   32.9870   72.8320 H   0  0  0  0  0  0  0  0  0  0  0  0
   21.5400   29.5090   71.9510 H   0  0  0  0  0  0  0  0  0  0  0  0
   22.7400   27.6530   71.0130 H   0  0  0  0  0  0  0  0  0  0  0  0
   25.0490   27.1130   71.7380 H   0  0  0  0  0  0  0  0  0  0  0  0
   26.0960   28.4850   73.4120 H   0  0  0  0  0  0  0  0  0  0  0  0
   24.9480   30.3790   74.4050 H   0  0  0  0  0  0  0  0  0  0  0  0
  1  2  1  0  0  0  0
  2  3  1  0  0  0  0
  3 18  1  0  0  0  0
  4  3  2  0  0  0  0
  4 15  1  0  0  0  0
  5  4  1  0  0  0  0
  6  5  1  0  0  0  0
  6  2  2  0  0  0  0
  7 29  1  6  0  0  0
  7  5  1  0  0  0  0
  7 11  1  0  0  0  0
  8  7  1  0  0  0  0
  9 30  1  6  0  0  0
  9  8  1  0  0  0  0
  9 13  1  0  0  0  0
  9 10  1  0  0  0  0
 10 11  1  0  0  0  0
 10 31  1  1  0  0  0
 11 33  1  0  0  0  0
 11 32  1  0  0  0  0
 12 34  1  0  0  0  0
 12 10  1  0  0  0  0
 13 36  1  0  0  0  0
 13 35  1  0  0  0  0
 14 37  1  0  0  0  0
 14 13  1  0  0  0  0
 15 16  2  0  0  0  0
 16 17  1  0  0  0  0
 16 38  1  0  0  0  0
 18 19  1  0  0  0  0
 18 17  2  0  0  0  0
 19 20  1  0  0  0  0
 20 21  2  0  0  0  0
 22 27  1  0  0  0  0
 22 20  1  0  0  0  0
 23 22  2  0  0  0  0
 24 25  2  0  0  0  0
 24 23  1  0  0  0  0
 25 26  1  0  0  0  0
 26 43  1  0  0  0  0
 26 27  2  0  0  0  0
 27 44  1  0  0  0  0
 28  6  1  0  0  0  0
 39 19  1  0  0  0  0
 40 23  1  0  0  0  0
 41 24  1  0  0  0  0
 42 25  1  0  0  0  0
M  END
>  <Pose>
1

>  <Score>
-6.94

$$$$
