
 OpenBabel03212208413D

 35 38  0  0  1  0  0  0  0  0999 V2000
   16.8840   27.9030   74.9470 B   0  0  0  0  0  0  0  0  0  0  0  0
   18.0710   29.2100   74.2420 C   0  0  0  0  0  0  0  0  0  0  0  0
   17.6430   30.3220   73.5230 C   0  0  0  0  0  0  0  0  0  0  0  0
   18.5480   31.2460   73.0280 C   0  0  0  0  0  0  0  0  0  0  0  0
   19.9000   31.0740   73.2450 C   0  0  0  0  0  0  0  0  0  0  0  0
   20.3290   29.9850   73.9510 C   0  0  0  0  0  0  0  0  0  0  0  0
   19.4270   29.0730   74.4380 C   0  0  0  0  0  0  0  0  0  0  0  0
   19.9440   27.9790   75.1560 O   0  0  0  0  0  0  0  0  0  0  0  0
   22.2220   29.8070   74.2190 B   0  0  0  0  0  0  0  0  0  0  0  0
   18.1510   32.3550   72.3130 C   0  0  0  0  0  0  0  0  0  0  0  0
   16.7980   32.5200   72.1010 C   0  0  0  0  0  0  0  0  0  0  0  0
   15.9120   31.4920   72.6600 C   0  0  0  0  0  0  0  0  0  0  0  0
   14.5460   31.6730   72.4360 C   0  0  1  0  0  0  0  0  0  0  0  0
   14.0890   32.7610   71.7290 C   0  0  0  0  0  0  0  0  0  0  0  0
   12.8500   32.8820   71.5530 O   0  0  0  0  0  0  0  0  0  0  0  0
   14.9550   33.7180   71.2110 C   0  0  0  0  0  0  0  0  0  0  0  0
   16.3030   33.6040   71.3930 C   0  0  0  0  0  0  0  0  0  0  0  0
   14.2340   35.1990   70.2420 B   0  0  0  0  0  0  0  0  0  0  0  0
   13.3260   30.3640   73.1380 B   0  0  0  0  0  0  0  0  0  0  0  0
   16.3550   30.4570   73.3340 O   0  0  0  0  0  0  0  0  0  0  0  0
   19.1100   33.3260   71.7840 C   0  0  0  0  0  0  0  0  0  0  0  0
   19.1720   34.6070   72.3000 C   0  0  0  0  0  0  0  0  0  0  0  0
   20.0630   35.5420   71.8160 C   0  0  0  0  0  0  0  0  0  0  0  0
   20.9100   35.1760   70.7900 C   0  0  0  0  0  0  0  0  0  0  0  0
   20.8830   33.9250   70.2530 C   0  0  0  0  0  0  0  0  0  0  0  0
   19.9850   33.0050   70.7490 C   0  0  0  0  0  0  0  0  0  0  0  0
   19.9460   31.6780   70.1820 C   0  0  0  0  0  0  0  0  0  0  0  0
   20.9530   30.9190   70.1710 O   0  0  0  0  0  0  0  0  0  0  0  0
   18.7700   31.1870   69.6190 O   0  0  0  0  0  0  0  0  0  0  0  0
   21.9970   33.5440   68.9500 Cl  0  0  0  0  0  0  0  0  0  0  0  0
   18.0780   35.0510   73.6150 Cl  0  0  0  0  0  0  0  0  0  0  0  0
   20.6040   31.8190   72.8440 H   0  0  0  0  0  0  0  0  0  0  0  0
   17.0180   34.3160   71.0160 H   0  0  0  0  0  0  0  0  0  0  0  0
   20.0880   36.5500   72.2460 H   0  0  0  0  0  0  0  0  0  0  0  0
   21.6130   35.9050   70.4040 H   0  0  0  0  0  0  0  0  0  0  0  0
  2  7  1  0  0  0  0
  2  1  1  0  0  0  0
  3  2  2  0  0  0  0
  4  5  1  0  0  0  0
  4  3  1  0  0  0  0
  5  6  1  0  0  0  0
  6  9  1  0  0  0  0
  6  7  2  0  0  0  0
  7  8  1  0  0  0  0
 10  4  2  0  0  0  0
 11 10  1  0  0  0  0
 11 12  2  0  0  0  0
 12 20  1  0  0  0  0
 13 12  1  0  0  0  0
 13 19  1  6  0  0  0
 14 13  1  0  0  0  0
 15 14  2  0  0  0  0
 16 17  2  0  0  0  0
 16 14  1  0  0  0  0
 17 11  1  0  0  0  0
 18 16  1  0  0  0  0
 20  3  1  0  0  0  0
 21 22  1  0  0  0  0
 21 10  1  0  0  0  0
 22 31  1  0  0  0  0
 23 34  1  0  0  0  0
 23 22  2  0  0  0  0
 24 23  1  0  0  0  0
 25 26  1  0  0  0  0
 25 24  2  0  0  0  0
 26 21  2  0  0  0  0
 27 26  1  0  0  0  0
 28 27  1  0  0  0  0
 29 27  2  0  0  0  0
 30 25  1  0  0  0  0
 32  5  1  0  0  0  0
 33 17  1  0  0  0  0
 35 24  1  0  0  0  0
M  END
>  <Pose>
1

>  <Score>
-6.19

$$$$
