
 OpenBabel03212208413D

 35 38  0  0  1  0  0  0  0  0999 V2000
   19.7540   33.5230   71.6040 I   0  0  0  0  0  0  0  0  0  0  0  0
   19.2970   31.8240   72.7620 C   0  0  0  0  0  0  0  0  0  0  0  0
   18.0030   31.3820   72.9550 C   0  0  1  0  0  0  0  0  0  0  0  0
   17.7000   30.2710   73.7130 C   0  0  0  0  0  0  0  0  0  0  0  0
   18.7530   29.5880   74.2930 C   0  0  0  0  0  0  0  0  0  0  0  0
   20.0550   30.0240   74.1040 C   0  0  0  0  0  0  0  0  0  0  0  0
   20.3520   31.1460   73.3400 C   0  0  0  0  0  0  0  0  0  0  0  0
   21.6780   31.5390   73.1830 O   0  0  0  0  0  0  0  0  0  0  0  0
   16.4140   29.8140   73.9170 C   0  0  0  0  0  0  0  0  0  0  0  0
   15.4060   30.5510   73.3030 C   0  0  0  0  0  0  0  0  0  0  0  0
   15.7680   31.7220   72.5090 C   0  0  0  0  0  0  0  0  0  0  0  0
   14.7250   32.4110   71.9250 C   0  0  2  0  0  0  0  0  0  0  0  0
   13.4060   32.0370   72.0670 C   0  0  0  0  0  0  0  0  0  0  0  0
   12.4620   32.6830   71.5230 O   0  0  0  0  0  0  0  0  0  0  0  0
   13.0630   30.9300   72.8190 C   0  0  0  0  0  0  0  0  0  0  0  0
   14.0840   30.2180   73.4160 C   0  0  0  0  0  0  0  0  0  0  0  0
   15.1470   34.1100   70.7620 I   0  0  0  0  0  0  0  0  0  0  0  0
   17.0310   32.0520   72.3920 O   0  0  0  0  0  0  0  0  0  0  0  0
   16.0890   28.6390   74.7180 C   0  0  0  0  0  0  0  0  0  0  0  0
   16.2450   27.3810   74.1420 C   0  0  0  0  0  0  0  0  0  0  0  0
   15.9540   26.2490   74.8550 C   0  0  0  0  0  0  0  0  0  0  0  0
   15.5020   26.3590   76.1520 C   0  0  0  0  0  0  0  0  0  0  0  0
   15.3390   27.5910   76.7450 C   0  0  0  0  0  0  0  0  0  0  0  0
   15.6390   28.7160   76.0100 C   0  0  0  0  0  0  0  0  0  0  0  0
   16.7240   27.2530   72.7690 C   0  0  0  0  0  0  0  0  0  0  0  0
   16.6930   28.1960   71.9470 O   0  0  0  0  0  0  0  0  0  0  0  0
   17.2420   26.0500   72.3120 O   0  0  0  0  0  0  0  0  0  0  0  0
   18.5120   28.7170   74.8860 H   0  0  0  0  0  0  0  0  0  0  0  0
   20.8350   29.4450   74.5860 H   0  0  0  0  0  0  0  0  0  0  0  0
   12.0200   30.6590   72.9130 H   0  0  0  0  0  0  0  0  0  0  0  0
   13.8320   29.3500   74.0060 H   0  0  0  0  0  0  0  0  0  0  0  0
   16.0660   25.2410   74.4300 H   0  0  0  0  0  0  0  0  0  0  0  0
   15.2760   25.4510   76.7010 H   0  0  0  0  0  0  0  0  0  0  0  0
   14.9770   27.6390   77.7780 H   0  0  0  0  0  0  0  0  0  0  0  0
   15.5220   29.7020   76.4440 H   0  0  0  0  0  0  0  0  0  0  0  0
  1  2  1  0  0  0  0
  2  3  1  0  0  0  0
  2  7  2  0  0  0  0
  3 18  1  1  0  0  0
  3  4  1  0  0  0  0
  4  9  2  0  0  0  0
  4  5  1  0  0  0  0
  5 28  1  0  0  0  0
  6  5  2  0  0  0  0
  6 29  1  0  0  0  0
  7  6  1  0  0  0  0
  8  7  1  0  0  0  0
  9 19  1  0  0  0  0
 10 16  1  0  0  0  0
 10  9  1  0  0  0  0
 11 10  2  0  0  0  0
 12 17  1  6  0  0  0
 12 13  1  0  0  0  0
 12 11  1  0  0  0  0
 13 15  1  0  0  0  0
 14 13  2  0  0  0  0
 15 30  1  0  0  0  0
 15 16  2  0  0  0  0
 16 31  1  0  0  0  0
 18 11  1  0  0  0  0
 19 24  1  0  0  0  0
 20 19  2  0  0  0  0
 20 21  1  0  0  0  0
 21 22  2  0  0  0  0
 22 33  1  0  0  0  0
 22 23  1  0  0  0  0
 23 34  1  0  0  0  0
 24 35  1  0  0  0  0
 24 23  2  0  0  0  0
 25 20  1  0  0  0  0
 26 25  2  0  0  0  0
 27 25  1  0  0  0  0
 32 21  1  0  0  0  0
M  END
>  <Pose>
1

>  <Score>
-5.63

$$$$
