
 OpenBabel03212208413D

 34 37  0  0  1  0  0  0  0  0999 V2000
   20.4720   31.8440   72.5840 P   0  0  1  0  0  0  0  0  0  0  0  0
   19.9710   30.8910   73.6470 O   0  0  0  0  0  0  0  0  0  0  0  0
   19.5050   31.7550   71.1800 O   0  0  0  0  0  0  0  0  0  0  0  0
   18.8010   32.9550   71.1150 C   0  0  2  0  0  0  0  0  0  0  0  0
   18.3890   33.2780   72.5560 C   0  0  2  0  0  0  0  0  0  0  0  0
   17.1780   33.8950   72.3680 O   0  0  0  0  0  0  0  0  0  0  0  0
   16.5030   32.9470   71.6000 C   0  0  2  0  0  0  0  0  0  0  0  0
   17.4640   32.7980   70.4210 C   0  0  2  0  0  0  0  0  0  0  0  0
   17.3230   31.5970   69.7730 O   0  0  0  0  0  0  0  0  0  0  0  0
   15.2060   33.4150   71.1760 N   0  0  0  0  0  0  0  0  0  0  0  0
   15.0010   34.6110   70.6130 C   0  0  0  0  0  0  0  0  0  0  0  0
   15.8540   35.6270   70.3060 N   0  0  0  0  0  0  0  0  0  0  0  0
   15.4600   36.7630   69.7370 C   0  0  0  0  0  0  0  0  0  0  0  0
   14.1540   36.9190   69.4520 N   0  0  0  0  0  0  0  0  0  0  0  0
   13.2560   35.9520   69.7300 C   0  0  0  0  0  0  0  0  0  0  0  0
   13.6620   34.7730   70.3190 C   0  0  0  0  0  0  0  0  0  0  0  0
   13.0590   33.6430   70.7180 N   0  0  0  0  0  0  0  0  0  0  0  0
   14.0000   32.8210   71.2380 C   0  0  0  0  0  0  0  0  0  0  0  0
   13.6950   31.0730   71.9610 B   0  0  0  0  0  0  0  0  0  0  0  0
   11.9040   36.1080   69.4360 O   0  0  0  0  0  0  0  0  0  0  0  0
   16.3910   37.7980   69.4350 N   0  0  0  0  0  0  0  0  0  0  0  0
   19.4480   34.1220   73.1610 C   0  0  0  0  0  0  0  0  0  0  0  0
   20.6510   33.4080   73.1320 O   0  0  0  0  0  0  0  0  0  0  0  0
   22.0130   31.2630   72.1190 O   0  0  0  0  0  0  0  0  0  0  0  0
   19.4110   33.7660   70.6840 H   0  0  0  0  0  0  0  0  0  0  0  0
   18.2180   32.3480   73.1300 H   0  0  0  0  0  0  0  0  0  0  0  0
   16.4690   31.9490   72.0900 H   0  0  0  0  0  0  0  0  0  0  0  0
   17.2860   33.6730   69.7310 H   0  0  0  0  0  0  0  0  0  0  0  0
   17.4690   31.7230   68.7820 H   0  0  0  0  0  0  0  0  0  0  0  0
   11.2470   35.7950   70.1660 H   0  0  0  0  0  0  0  0  0  0  0  0
   15.9970   38.6800   69.0430 H   0  0  0  0  0  0  0  0  0  0  0  0
   17.4240   37.6910   69.5940 H   0  0  0  0  0  0  0  0  0  0  0  0
   19.6160   35.0160   72.5080 H   0  0  0  0  0  0  0  0  0  0  0  0
   19.1720   34.4360   74.1840 H   0  0  0  0  0  0  0  0  0  0  0  0
  1 24  2  6  0  0  0
  1 23  1  0  0  0  0
  1  2  1  0  0  0  0
  3  1  1  0  0  0  0
  4 25  1  6  0  0  0
  4  3  1  0  0  0  0
  4  5  1  0  0  0  0
  5 26  1  1  0  0  0
  5 22  1  0  0  0  0
  6  5  1  0  0  0  0
  7 27  1  1  0  0  0
  7  6  1  0  0  0  0
  8 28  1  6  0  0  0
  8  4  1  0  0  0  0
  8  7  1  0  0  0  0
  9  8  1  0  0  0  0
 10 18  1  0  0  0  0
 10  7  1  0  0  0  0
 11 10  1  0  0  0  0
 12 11  1  0  0  0  0
 13 12  2  0  0  0  0
 14 15  2  0  0  0  0
 14 13  1  0  0  0  0
 15 16  1  0  0  0  0
 16 11  2  0  0  0  0
 16 17  1  0  0  0  0
 17 18  2  0  0  0  0
 18 19  1  0  0  0  0
 20 15  1  0  0  0  0
 20 30  1  0  0  0  0
 21 32  1  0  0  0  0
 21 13  1  0  0  0  0
 22 34  1  0  0  0  0
 23 22  1  0  0  0  0
 29  9  1  0  0  0  0
 31 21  1  0  0  0  0
 33 22  1  0  0  0  0
M  END
>  <Pose>
1

>  <Score>
-6.82

$$$$
