
 OpenBabel03212208413D

 54 57  0  0  0  0  0  0  0  0999 V2000
   16.3670   29.5300   73.2700 S   0  0  0  0  0  0  0  0  0  0  0  0
   17.1900   28.4860   74.0160 O   0  0  0  0  0  0  0  0  0  0  0  0
   16.2880   29.0590   71.8570 O   0  0  0  0  0  0  0  0  0  0  0  0
   17.2440   31.0060   73.4160 N   0  0  0  0  0  0  0  0  0  0  0  0
   16.7300   32.0500   72.5530 C   0  0  0  0  0  0  0  0  0  0  0  0
   17.6130   33.2670   72.7860 C   0  0  0  0  0  0  0  0  0  0  0  0
   17.9780   33.9250   71.4810 C   0  0  0  0  0  0  0  0  0  0  0  0
   19.3830   34.0800   71.4230 N   0  0  0  0  0  0  0  0  0  0  0  0
   20.1060   33.0690   70.7400 C   0  0  0  0  0  0  0  0  0  0  0  0
   21.5520   33.1150   71.2050 C   0  0  0  0  0  0  0  0  0  0  0  0
   22.0100   34.4130   71.3080 O   0  0  0  0  0  0  0  0  0  0  0  0
   21.2410   35.3310   70.6030 C   0  0  0  0  0  0  0  0  0  0  0  0
   19.8810   35.4010   71.3030 C   0  0  0  0  0  0  0  0  0  0  0  0
   14.7920   29.6760   74.0010 C   0  0  0  0  0  0  0  0  0  0  0  0
   14.5680   29.1330   75.2700 C   0  0  0  0  0  0  0  0  0  0  0  0
   13.3290   29.2330   75.8640 C   0  0  0  0  0  0  0  0  0  0  0  0
   12.2600   29.8620   75.2510 C   0  0  0  0  0  0  0  0  0  0  0  0
   12.4690   30.3950   74.0100 C   0  0  0  0  0  0  0  0  0  0  0  0
   13.7240   30.2980   73.4000 C   0  0  0  0  0  0  0  0  0  0  0  0
   14.0110   31.0570   71.6630 B   0  0  0  0  0  0  0  0  0  0  0  0
   11.0760   29.8110   76.1540 C   0  0  0  0  0  0  0  0  0  0  0  0
   11.7380   29.5410   77.5220 C   0  0  0  0  0  0  0  0  0  0  0  0
   12.8930   28.7420   77.1460 N   0  0  0  0  0  0  0  0  0  0  0  0
   13.5190   27.6770   77.8350 C   0  0  0  0  0  0  0  0  0  0  0  0
   12.9860   26.5530   77.9770 O   0  0  0  0  0  0  0  0  0  0  0  0
   14.8640   27.8990   78.4160 C   0  0  0  0  0  0  0  0  0  0  0  0
   14.9570   27.6810   79.8700 C   0  0  0  0  0  0  0  0  0  0  0  0
   15.1160   29.0680   79.2970 C   0  0  0  0  0  0  0  0  0  0  0  0
   17.2150   31.2990   74.4130 H   0  0  0  0  0  0  0  0  0  0  0  0
   15.6660   32.2680   72.7090 H   0  0  0  0  0  0  0  0  0  0  0  0
   16.9530   31.7140   71.5000 H   0  0  0  0  0  0  0  0  0  0  0  0
   17.1150   34.0120   73.4490 H   0  0  0  0  0  0  0  0  0  0  0  0
   18.5580   32.8730   73.2320 H   0  0  0  0  0  0  0  0  0  0  0  0
   17.5160   34.9470   71.4040 H   0  0  0  0  0  0  0  0  0  0  0  0
   17.5960   33.3400   70.6340 H   0  0  0  0  0  0  0  0  0  0  0  0
   20.1010   33.2910   69.6560 H   0  0  0  0  0  0  0  0  0  0  0  0
   19.6480   32.0910   70.9640 H   0  0  0  0  0  0  0  0  0  0  0  0
   21.6320   32.6340   72.2050 H   0  0  0  0  0  0  0  0  0  0  0  0
   22.1730   32.4950   70.5240 H   0  0  0  0  0  0  0  0  0  0  0  0
   21.7630   36.3050   70.6340 H   0  0  0  0  0  0  0  0  0  0  0  0
   21.1110   35.0550   69.5340 H   0  0  0  0  0  0  0  0  0  0  0  0
   20.0010   35.9440   72.2440 H   0  0  0  0  0  0  0  0  0  0  0  0
   19.2490   36.0310   70.6330 H   0  0  0  0  0  0  0  0  0  0  0  0
   15.4040   28.6320   75.7680 H   0  0  0  0  0  0  0  0  0  0  0  0
   11.6840   30.9040   73.4600 H   0  0  0  0  0  0  0  0  0  0  0  0
   10.3750   29.0100   75.9100 H   0  0  0  0  0  0  0  0  0  0  0  0
   10.5410   30.7660   76.2230 H   0  0  0  0  0  0  0  0  0  0  0  0
   12.1360   30.4910   77.9340 H   0  0  0  0  0  0  0  0  0  0  0  0
   11.0440   29.0430   78.1950 H   0  0  0  0  0  0  0  0  0  0  0  0
   15.7290   27.5660   77.7830 H   0  0  0  0  0  0  0  0  0  0  0  0
   14.0280   27.6010   80.4990 H   0  0  0  0  0  0  0  0  0  0  0  0
   15.8080   27.1710   80.3220 H   0  0  0  0  0  0  0  0  0  0  0  0
   14.3550   29.8450   79.4590 H   0  0  0  0  0  0  0  0  0  0  0  0
   16.1600   29.4380   79.3450 H   0  0  0  0  0  0  0  0  0  0  0  0
  1  4  1  0  0  0  0
  1 14  1  0  0  0  0
  1  2  2  0  0  0  0
  3  1  2  0  0  0  0
  4 29  1  0  0  0  0
  5 30  1  0  0  0  0
  5  6  1  0  0  0  0
  5  4  1  0  0  0  0
  6 33  1  0  0  0  0
  6 32  1  0  0  0  0
  7  6  1  0  0  0  0
  8  7  1  0  0  0  0
  9 37  1  0  0  0  0
  9 10  1  0  0  0  0
  9  8  1  0  0  0  0
 10 11  1  0  0  0  0
 10 38  1  0  0  0  0
 12 40  1  0  0  0  0
 12 13  1  0  0  0  0
 12 11  1  0  0  0  0
 13  8  1  0  0  0  0
 13 42  1  0  0  0  0
 14 15  1  0  0  0  0
 15 44  1  0  0  0  0
 15 16  2  0  0  0  0
 16 23  1  0  0  0  0
 17 16  1  0  0  0  0
 17 21  1  0  0  0  0
 18 17  2  0  0  0  0
 19 14  2  0  0  0  0
 19 18  1  0  0  0  0
 20 19  1  0  0  0  0
 21 47  1  0  0  0  0
 21 22  1  0  0  0  0
 22 48  1  0  0  0  0
 22 49  1  0  0  0  0
 23 22  1  0  0  0  0
 23 24  1  0  0  0  0
 24 25  2  0  0  0  0
 24 26  1  0  0  0  0
 26 28  1  0  0  0  0
 26 27  1  0  0  0  0
 27 52  1  0  0  0  0
 27 51  1  0  0  0  0
 28 54  1  0  0  0  0
 28 53  1  0  0  0  0
 28 27  1  0  0  0  0
 31  5  1  0  0  0  0
 34  7  1  0  0  0  0
 35  7  1  0  0  0  0
 36  9  1  0  0  0  0
 39 10  1  0  0  0  0
 41 12  1  0  0  0  0
 43 13  1  0  0  0  0
 45 18  1  0  0  0  0
 46 21  1  0  0  0  0
 50 26  1  0  0  0  0
M  END
>  <Pose>
1

>  <Score>
-5.90

$$$$
