
 OpenBabel03212208413D

 41 44  0  0  0  0  0  0  0  0999 V2000
   16.3520   29.1420   72.8560 S   0  0  0  0  0  0  0  0  0  0  0  0
   17.7490   29.6080   73.1560 O   0  0  0  0  0  0  0  0  0  0  0  0
   16.4850   27.7840   72.2100 O   0  0  0  0  0  0  0  0  0  0  0  0
   15.6090   30.2630   71.8350 N   0  0  0  0  0  0  0  0  0  0  0  0
   14.1930   30.2980   71.7450 C   0  0  0  0  0  0  0  0  0  0  0  0
   14.1510   31.6210   72.4050 C   0  0  0  0  0  0  0  0  0  0  0  0
   15.6350   31.6090   72.2850 C   0  0  0  0  0  0  0  0  0  0  0  0
   13.5360   32.6990   71.6560 N   0  0  0  0  0  0  0  0  0  0  0  0
   12.2730   33.0320   71.5980 N   0  0  0  0  0  0  0  0  0  0  0  0
   12.1070   34.0890   70.7910 N   0  0  0  0  0  0  0  0  0  0  0  0
   13.3070   34.4550   70.3090 C   0  0  0  0  0  0  0  0  0  0  0  0
   14.2060   33.5590   70.8690 C   0  0  0  0  0  0  0  0  0  0  0  0
   13.6180   35.5840   69.3690 C   0  0  0  0  0  0  0  0  0  0  0  0
   14.8140   36.2470   69.8540 N   0  0  0  0  0  0  0  0  0  0  0  0
   16.1420   35.7120   69.8110 C   0  0  0  0  0  0  0  0  0  0  0  0
   17.0410   36.7880   70.3500 C   0  0  0  0  0  0  0  0  0  0  0  0
   16.2490   38.0500   70.4670 C   0  0  0  0  0  0  0  0  0  0  0  0
   14.8340   37.5420   70.4480 C   0  0  0  0  0  0  0  0  0  0  0  0
   13.8680   38.1880   70.8930 O   0  0  0  0  0  0  0  0  0  0  0  0
   15.5370   28.9490   74.4070 C   0  0  0  0  0  0  0  0  0  0  0  0
   16.2200   28.4590   75.9010 S   0  0  0  0  0  0  0  0  0  0  0  0
   14.8190   28.5210   76.8760 C   0  0  0  0  0  0  0  0  0  0  0  0
   13.8530   28.9260   75.9920 C   0  0  0  0  0  0  0  0  0  0  0  0
   14.2280   29.1440   74.7300 C   0  0  0  0  0  0  0  0  0  0  0  0
   14.6130   28.1260   78.7500 B   0  0  0  0  0  0  0  0  0  0  0  0
   13.7410   29.4420   72.3150 H   0  0  0  0  0  0  0  0  0  0  0  0
   13.8300   30.2720   70.6870 H   0  0  0  0  0  0  0  0  0  0  0  0
   13.7370   31.5350   73.4300 H   0  0  0  0  0  0  0  0  0  0  0  0
   16.2100   31.8350   73.2030 H   0  0  0  0  0  0  0  0  0  0  0  0
   15.9890   32.2880   71.4750 H   0  0  0  0  0  0  0  0  0  0  0  0
   15.2790   33.5850   70.6750 H   0  0  0  0  0  0  0  0  0  0  0  0
   13.7750   35.2040   68.3330 H   0  0  0  0  0  0  0  0  0  0  0  0
   12.7840   36.2950   69.4070 H   0  0  0  0  0  0  0  0  0  0  0  0
   16.2100   34.8000   70.4430 H   0  0  0  0  0  0  0  0  0  0  0  0
   16.4880   35.4840   68.7670 H   0  0  0  0  0  0  0  0  0  0  0  0
   17.5080   36.4750   71.3090 H   0  0  0  0  0  0  0  0  0  0  0  0
   17.9000   37.0000   69.6580 H   0  0  0  0  0  0  0  0  0  0  0  0
   16.4510   38.5500   71.4490 H   0  0  0  0  0  0  0  0  0  0  0  0
   16.4300   38.7790   69.6540 H   0  0  0  0  0  0  0  0  0  0  0  0
   12.8150   29.0550   76.3570 H   0  0  0  0  0  0  0  0  0  0  0  0
   13.5260   29.4730   73.9380 H   0  0  0  0  0  0  0  0  0  0  0  0
  1  2  2  0  0  0  0
  1 20  1  0  0  0  0
  3  1  2  0  0  0  0
  4  7  1  0  0  0  0
  4  1  1  0  0  0  0
  5  4  1  0  0  0  0
  5 26  1  0  0  0  0
  5  6  1  0  0  0  0
  6 28  1  0  0  0  0
  7  6  1  0  0  0  0
  7 29  1  0  0  0  0
  8  6  1  0  0  0  0
  9  8  1  0  0  0  0
 10  9  2  0  0  0  0
 11 10  1  0  0  0  0
 11 12  2  0  0  0  0
 12  8  1  0  0  0  0
 13 33  1  0  0  0  0
 13 14  1  0  0  0  0
 13 11  1  0  0  0  0
 14 18  1  0  0  0  0
 15 14  1  0  0  0  0
 15 16  1  0  0  0  0
 15 34  1  0  0  0  0
 16 17  1  0  0  0  0
 16 36  1  0  0  0  0
 17 38  1  0  0  0  0
 18 17  1  0  0  0  0
 18 19  2  0  0  0  0
 20 24  2  0  0  0  0
 20 21  1  0  0  0  0
 21 22  1  0  0  0  0
 22 25  1  0  0  0  0
 23 40  1  0  0  0  0
 23 22  2  0  0  0  0
 24 23  1  0  0  0  0
 27  5  1  0  0  0  0
 30  7  1  0  0  0  0
 31 12  1  0  0  0  0
 32 13  1  0  0  0  0
 35 15  1  0  0  0  0
 37 16  1  0  0  0  0
 39 17  1  0  0  0  0
 41 24  1  0  0  0  0
M  END
>  <Pose>
1

>  <Score>
-6.74

$$$$
