
 OpenBabel03212208413D

 60 64  0  0  0  0  0  0  0  0999 V2000
   18.3210   32.7050   70.8790 S   0  0  0  0  0  0  0  0  0  0  0  0
   18.4730   31.4130   70.1740 O   0  0  0  0  0  0  0  0  0  0  0  0
   19.1590   33.6980   70.0650 O   0  0  0  0  0  0  0  0  0  0  0  0
   19.0320   32.7270   72.4460 N   0  0  0  0  0  0  0  0  0  0  0  0
   20.3380   33.2910   72.4870 C   0  0  0  0  0  0  0  0  0  0  0  0
   21.4570   32.2940   72.2180 C   0  0  0  0  0  0  0  0  0  0  0  0
   21.2880   31.1700   73.0770 N   0  0  0  0  0  0  0  0  0  0  0  0
   19.9760   30.4830   72.8510 C   0  0  0  0  0  0  0  0  0  0  0  0
   18.9170   31.4910   73.1430 C   0  0  0  0  0  0  0  0  0  0  0  0
   22.1030   30.6270   74.0500 C   0  0  0  0  0  0  0  0  0  0  0  0
   22.5890   31.4950   74.9140 O   0  0  0  0  0  0  0  0  0  0  0  0
   22.5190   29.2760   74.2930 C   0  0  0  0  0  0  0  0  0  0  0  0
   22.0920   28.2380   73.4280 N   0  0  0  0  0  0  0  0  0  0  0  0
   22.4400   28.0390   72.1580 N   0  0  0  0  0  0  0  0  0  0  0  0
   21.8670   26.9310   71.6730 C   0  0  0  0  0  0  0  0  0  0  0  0
   21.1200   26.4110   72.7010 C   0  0  0  0  0  0  0  0  0  0  0  0
   21.2620   27.2230   73.7860 C   0  0  0  0  0  0  0  0  0  0  0  0
   20.0540   24.8110   72.6280 B   0  0  0  0  0  0  0  0  0  0  0  0
   16.7120   33.3550   70.8810 C   0  0  0  0  0  0  0  0  0  0  0  0
   16.4490   34.6970   70.5700 C   0  0  0  0  0  0  0  0  0  0  0  0
   15.1670   35.2070   70.5760 C   0  0  0  0  0  0  0  0  0  0  0  0
   14.0840   34.4110   70.8890 C   0  0  0  0  0  0  0  0  0  0  0  0
   14.3330   33.1010   71.1940 C   0  0  0  0  0  0  0  0  0  0  0  0
   15.6300   32.6000   71.1840 C   0  0  0  0  0  0  0  0  0  0  0  0
   15.7400   31.1770   71.5450 C   0  0  0  0  0  0  0  0  0  0  0  0
   14.7450   30.3440   70.7670 C   0  0  0  0  0  0  0  0  0  0  0  0
   13.4800   30.9730   70.7220 N   0  0  0  0  0  0  0  0  0  0  0  0
   13.2800   32.1220   71.5470 C   0  0  0  0  0  0  0  0  0  0  0  0
   12.8170   30.9950   69.4650 C   0  0  0  0  0  0  0  0  0  0  0  0
   12.7710   34.9260   70.8970 O   0  0  0  0  0  0  0  0  0  0  0  0
   12.2890   35.5920   69.7210 C   0  0  0  0  0  0  0  0  0  0  0  0
   15.2500   36.5390   70.2310 O   0  0  0  0  0  0  0  0  0  0  0  0
   16.5990   36.9010   70.1410 C   0  0  0  0  0  0  0  0  0  0  0  0
   17.3490   35.7000   70.2230 O   0  0  0  0  0  0  0  0  0  0  0  0
   20.4230   34.0890   71.7240 H   0  0  0  0  0  0  0  0  0  0  0  0
   20.5300   33.7210   73.4900 H   0  0  0  0  0  0  0  0  0  0  0  0
   22.3810   32.8480   72.2700 H   0  0  0  0  0  0  0  0  0  0  0  0
   21.3860   31.9040   71.1690 H   0  0  0  0  0  0  0  0  0  0  0  0
   19.8670   29.6430   73.5590 H   0  0  0  0  0  0  0  0  0  0  0  0
   19.9060   30.1120   71.8300 H   0  0  0  0  0  0  0  0  0  0  0  0
   17.9230   31.0350   72.9850 H   0  0  0  0  0  0  0  0  0  0  0  0
   18.9670   31.7180   74.2420 H   0  0  0  0  0  0  0  0  0  0  0  0
   22.2250   28.9370   75.3570 H   0  0  0  0  0  0  0  0  0  0  0  0
   23.6670   29.2560   74.3900 H   0  0  0  0  0  0  0  0  0  0  0  0
   21.9790   26.5300   70.6590 H   0  0  0  0  0  0  0  0  0  0  0  0
   20.7980   27.0770   74.7400 H   0  0  0  0  0  0  0  0  0  0  0  0
   16.7370   30.7590   71.5940 H   0  0  0  0  0  0  0  0  0  0  0  0
   15.3580   31.1260   72.6150 H   0  0  0  0  0  0  0  0  0  0  0  0
   15.1450   30.3070   69.7150 H   0  0  0  0  0  0  0  0  0  0  0  0
   14.7250   29.2940   71.1280 H   0  0  0  0  0  0  0  0  0  0  0  0
   12.2690   32.5230   71.3600 H   0  0  0  0  0  0  0  0  0  0  0  0
   13.3630   31.9040   72.6330 H   0  0  0  0  0  0  0  0  0  0  0  0
   11.7640   30.6490   69.4950 H   0  0  0  0  0  0  0  0  0  0  0  0
   13.4230   30.3990   68.7390 H   0  0  0  0  0  0  0  0  0  0  0  0
   12.8220   32.0340   69.0610 H   0  0  0  0  0  0  0  0  0  0  0  0
   13.0900   35.6680   68.9580 H   0  0  0  0  0  0  0  0  0  0  0  0
   11.9730   36.6220   69.9700 H   0  0  0  0  0  0  0  0  0  0  0  0
   11.3730   35.0810   69.3310 H   0  0  0  0  0  0  0  0  0  0  0  0
   16.9230   37.6280   70.8990 H   0  0  0  0  0  0  0  0  0  0  0  0
   16.7570   37.2870   69.0960 H   0  0  0  0  0  0  0  0  0  0  0  0
  1 19  1  0  0  0  0
  1  4  1  0  0  0  0
  2  1  2  0  0  0  0
  3  1  2  0  0  0  0
  4  5  1  0  0  0  0
  4  9  1  0  0  0  0
  5 36  1  0  0  0  0
  6 37  1  0  0  0  0
  6  5  1  0  0  0  0
  6  7  1  0  0  0  0
  7 10  1  0  0  0  0
  8  7  1  0  0  0  0
  8  9  1  0  0  0  0
  8 39  1  0  0  0  0
  9 42  1  0  0  0  0
 10 12  1  0  0  0  0
 10 11  2  0  0  0  0
 12 44  1  0  0  0  0
 12 43  1  0  0  0  0
 13 17  1  0  0  0  0
 13 12  1  0  0  0  0
 14 13  1  0  0  0  0
 15 14  2  0  0  0  0
 15 16  1  0  0  0  0
 16 17  2  0  0  0  0
 17 46  1  0  0  0  0
 18 16  1  0  0  0  0
 19 24  1  0  0  0  0
 20 21  1  0  0  0  0
 20 19  2  0  0  0  0
 21 22  2  0  0  0  0
 22 30  1  0  0  0  0
 22 23  1  0  0  0  0
 23 28  1  0  0  0  0
 24 23  2  0  0  0  0
 24 25  1  0  0  0  0
 25 47  1  0  0  0  0
 25 48  1  0  0  0  0
 26 50  1  0  0  0  0
 26 25  1  0  0  0  0
 27 26  1  0  0  0  0
 27 28  1  0  0  0  0
 28 52  1  0  0  0  0
 29 53  1  0  0  0  0
 29 27  1  0  0  0  0
 31 57  1  0  0  0  0
 31 30  1  0  0  0  0
 32 21  1  0  0  0  0
 33 34  1  0  0  0  0
 33 32  1  0  0  0  0
 33 59  1  0  0  0  0
 34 20  1  0  0  0  0
 35  5  1  0  0  0  0
 38  6  1  0  0  0  0
 40  8  1  0  0  0  0
 41  9  1  0  0  0  0
 45 15  1  0  0  0  0
 49 26  1  0  0  0  0
 51 28  1  0  0  0  0
 54 29  1  0  0  0  0
 55 29  1  0  0  0  0
 56 31  1  0  0  0  0
 58 31  1  0  0  0  0
 60 33  1  0  0  0  0
M  END
>  <Pose>
1

>  <Score>
-7.07

$$$$
