
 OpenBabel03212208413D

 53 56  0  0  0  0  0  0  0  0999 V2000
   24.8040   36.0190   68.6790 S   0  0  0  0  0  0  0  0  0  0  0  0
   24.7580   37.5200   68.9980 O   0  0  0  0  0  0  0  0  0  0  0  0
   25.9500   35.5170   69.5630 O   0  0  0  0  0  0  0  0  0  0  0  0
   23.3490   35.3540   69.1090 N   0  0  0  0  0  0  0  0  0  0  0  0
   23.2150   34.2660   69.9560 C   0  0  0  0  0  0  0  0  0  0  0  0
   21.7490   33.7610   69.8630 C   0  0  0  0  0  0  0  0  0  0  0  0
   20.8470   34.8590   70.0740 N   0  0  0  0  0  0  0  0  0  0  0  0
   20.9560   35.9750   69.1630 C   0  0  0  0  0  0  0  0  0  0  0  0
   22.2030   35.7490   68.3370 C   0  0  0  0  0  0  0  0  0  0  0  0
   19.8850   34.8940   71.1010 C   0  0  0  0  0  0  0  0  0  0  0  0
   20.2270   35.2700   72.2450 O   0  0  0  0  0  0  0  0  0  0  0  0
   18.4970   34.5010   70.8520 C   0  0  0  0  0  0  0  0  0  0  0  0
   18.0410   33.5530   71.8650 N   0  0  0  0  0  0  0  0  0  0  0  0
   17.6040   33.7870   73.1880 C   0  0  0  0  0  0  0  0  0  0  0  0
   17.5310   34.9320   73.7430 O   0  0  0  0  0  0  0  0  0  0  0  0
   17.2710   32.5270   73.7570 N   0  0  0  0  0  0  0  0  0  0  0  0
   17.0490   31.6170   72.6640 C   0  0  0  0  0  0  0  0  0  0  0  0
   15.6290   31.5620   72.2030 C   0  0  0  0  0  0  0  0  0  0  0  0
   15.6260   30.2790   71.3630 C   0  0  0  0  0  0  0  0  0  0  0  0
   16.5410   29.3530   72.1150 C   0  0  0  0  0  0  0  0  0  0  0  0
   17.3670   30.1870   73.0380 C   0  0  0  0  0  0  0  0  0  0  0  0
   17.9740   32.1330   71.6280 C   0  0  0  0  0  0  0  0  0  0  0  0
   18.5630   31.4690   70.7440 O   0  0  0  0  0  0  0  0  0  0  0  0
   25.2950   35.9190   67.0160 C   0  0  0  0  0  0  0  0  0  0  0  0
   25.1800   34.8250   66.2000 C   0  0  0  0  0  0  0  0  0  0  0  0
   25.6560   34.8320   64.8840 C   0  0  0  0  0  0  0  0  0  0  0  0
   26.2570   35.9260   64.3470 C   0  0  0  0  0  0  0  0  0  0  0  0
   26.3850   37.0370   65.1360 C   0  0  0  0  0  0  0  0  0  0  0  0
   25.9200   37.0350   66.4300 C   0  0  0  0  0  0  0  0  0  0  0  0
   24.2920   33.2780   66.8440 B   0  0  0  0  0  0  0  0  0  0  0  0
   23.4660   34.4240   71.0240 H   0  0  0  0  0  0  0  0  0  0  0  0
   23.7950   33.3950   69.5960 H   0  0  0  0  0  0  0  0  0  0  0  0
   21.6320   33.3310   68.8630 H   0  0  0  0  0  0  0  0  0  0  0  0
   21.6770   32.9590   70.6010 H   0  0  0  0  0  0  0  0  0  0  0  0
   20.1010   35.9220   68.4360 H   0  0  0  0  0  0  0  0  0  0  0  0
   20.9370   36.9550   69.6360 H   0  0  0  0  0  0  0  0  0  0  0  0
   22.4670   36.6260   67.7210 H   0  0  0  0  0  0  0  0  0  0  0  0
   21.9740   34.9220   67.6320 H   0  0  0  0  0  0  0  0  0  0  0  0
   18.3450   34.1080   69.8160 H   0  0  0  0  0  0  0  0  0  0  0  0
   17.7830   35.3710   70.9220 H   0  0  0  0  0  0  0  0  0  0  0  0
   17.2190   32.3760   74.7950 H   0  0  0  0  0  0  0  0  0  0  0  0
   14.9820   31.3850   73.0770 H   0  0  0  0  0  0  0  0  0  0  0  0
   15.3290   32.4320   71.5860 H   0  0  0  0  0  0  0  0  0  0  0  0
   16.0800   30.4990   70.3720 H   0  0  0  0  0  0  0  0  0  0  0  0
   14.6020   29.8870   71.2610 H   0  0  0  0  0  0  0  0  0  0  0  0
   17.2170   28.8030   71.4400 H   0  0  0  0  0  0  0  0  0  0  0  0
   15.9110   28.6870   72.7310 H   0  0  0  0  0  0  0  0  0  0  0  0
   17.1440   30.0290   74.1030 H   0  0  0  0  0  0  0  0  0  0  0  0
   18.4680   30.0000   72.9040 H   0  0  0  0  0  0  0  0  0  0  0  0
   25.5290   33.9370   64.3150 H   0  0  0  0  0  0  0  0  0  0  0  0
   26.6000   35.8660   63.3300 H   0  0  0  0  0  0  0  0  0  0  0  0
   26.8610   37.9080   64.7070 H   0  0  0  0  0  0  0  0  0  0  0  0
   26.0220   37.9140   67.0500 H   0  0  0  0  0  0  0  0  0  0  0  0
  1  2  2  0  0  0  0
  1  4  1  0  0  0  0
  1  3  2  0  0  0  0
  4  5  1  0  0  0  0
  5 31  1  0  0  0  0
  6  5  1  0  0  0  0
  6  7  1  0  0  0  0
  6 34  1  0  0  0  0
  7 10  1  0  0  0  0
  8 36  1  0  0  0  0
  8  7  1  0  0  0  0
  9  4  1  0  0  0  0
  9  8  1  0  0  0  0
 10 11  2  0  0  0  0
 12 40  1  0  0  0  0
 12 10  1  0  0  0  0
 12 13  1  0  0  0  0
 13 14  1  0  0  0  0
 14 15  2  0  0  0  0
 14 16  1  0  0  0  0
 16 41  1  0  0  0  0
 17 21  1  0  0  0  0
 17 16  1  0  0  0  0
 18 17  1  0  0  0  0
 18 42  1  0  0  0  0
 19 20  1  0  0  0  0
 19 18  1  0  0  0  0
 20 47  1  0  0  0  0
 20 21  1  0  0  0  0
 21 48  1  0  0  0  0
 22 13  1  0  0  0  0
 22 17  1  0  0  0  0
 23 22  2  0  0  0  0
 24  1  1  0  0  0  0
 25 30  1  0  0  0  0
 25 24  2  0  0  0  0
 26 25  1  0  0  0  0
 27 26  2  0  0  0  0
 27 28  1  0  0  0  0
 28 29  2  0  0  0  0
 29 24  1  0  0  0  0
 29 53  1  0  0  0  0
 32  5  1  0  0  0  0
 33  6  1  0  0  0  0
 35  8  1  0  0  0  0
 37  9  1  0  0  0  0
 38  9  1  0  0  0  0
 39 12  1  0  0  0  0
 43 18  1  0  0  0  0
 44 19  1  0  0  0  0
 45 19  1  0  0  0  0
 46 20  1  0  0  0  0
 49 21  1  0  0  0  0
 50 26  1  0  0  0  0
 51 27  1  0  0  0  0
 52 28  1  0  0  0  0
M  END
>  <Pose>
1

>  <Score>
-7.25

$$$$
