
 OpenBabel03212208413D

 53 56  0  0  0  0  0  0  0  0999 V2000
   15.2880   29.8910   71.9090 S   0  0  0  0  0  0  0  0  0  0  0  0
   16.0900   28.6030   71.9700 O   0  0  0  0  0  0  0  0  0  0  0  0
   14.6000   29.8800   70.5670 O   0  0  0  0  0  0  0  0  0  0  0  0
   16.4070   31.1780   71.9580 N   0  0  0  0  0  0  0  0  0  0  0  0
   16.9500   31.4120   73.2800 C   0  0  0  0  0  0  0  0  0  0  0  0
   18.4310   31.6910   73.2200 C   0  0  0  0  0  0  0  0  0  0  0  0
   18.6240   32.7700   72.2290 N   0  0  0  0  0  0  0  0  0  0  0  0
   18.1010   32.5040   70.9250 C   0  0  0  0  0  0  0  0  0  0  0  0
   17.4330   31.1100   70.9770 C   0  0  0  0  0  0  0  0  0  0  0  0
   19.2770   33.9590   72.5860 C   0  0  0  0  0  0  0  0  0  0  0  0
   18.7580   34.5750   73.6280 O   0  0  0  0  0  0  0  0  0  0  0  0
   20.4140   34.6530   72.0380 C   0  0  0  0  0  0  0  0  0  0  0  0
   20.7160   34.5620   70.6440 N   0  0  0  0  0  0  0  0  0  0  0  0
   21.0290   33.3670   69.8840 C   0  0  0  0  0  0  0  0  0  0  0  0
   21.0510   32.2160   70.4030 O   0  0  0  0  0  0  0  0  0  0  0  0
   21.2800   33.7580   68.5440 N   0  0  0  0  0  0  0  0  0  0  0  0
   21.5550   35.1550   68.5550 C   0  0  0  0  0  0  0  0  0  0  0  0
   23.0280   35.4760   68.6350 C   0  0  0  0  0  0  0  0  0  0  0  0
   23.0330   36.9550   68.2990 C   0  0  0  0  0  0  0  0  0  0  0  0
   21.8350   37.1840   67.4090 C   0  0  0  0  0  0  0  0  0  0  0  0
   21.1610   35.8410   67.2580 C   0  0  0  0  0  0  0  0  0  0  0  0
   20.7950   35.6510   69.7010 C   0  0  0  0  0  0  0  0  0  0  0  0
   20.2930   36.7910   69.8710 O   0  0  0  0  0  0  0  0  0  0  0  0
   14.1070   29.9560   73.1950 C   0  0  0  0  0  0  0  0  0  0  0  0
   14.0240   28.9800   74.1670 C   0  0  0  0  0  0  0  0  0  0  0  0
   13.0810   29.0410   75.1860 C   0  0  0  0  0  0  0  0  0  0  0  0
   12.1940   30.0830   75.2580 C   0  0  0  0  0  0  0  0  0  0  0  0
   12.2670   31.0660   74.2940 C   0  0  0  0  0  0  0  0  0  0  0  0
   13.2110   30.9990   73.2800 C   0  0  0  0  0  0  0  0  0  0  0  0
   10.8840   30.1760   76.6680 B   0  0  0  0  0  0  0  0  0  0  0  0
   16.4720   32.3690   73.6380 H   0  0  0  0  0  0  0  0  0  0  0  0
   16.7230   30.5770   73.9680 H   0  0  0  0  0  0  0  0  0  0  0  0
   18.9620   30.7780   72.9670 H   0  0  0  0  0  0  0  0  0  0  0  0
   18.7540   32.0410   74.2240 H   0  0  0  0  0  0  0  0  0  0  0  0
   18.8310   32.5150   70.1090 H   0  0  0  0  0  0  0  0  0  0  0  0
   17.2680   33.2410   70.7240 H   0  0  0  0  0  0  0  0  0  0  0  0
   18.2370   30.3960   71.1390 H   0  0  0  0  0  0  0  0  0  0  0  0
   16.9850   30.8890   69.9800 H   0  0  0  0  0  0  0  0  0  0  0  0
   21.3680   34.3240   72.5940 H   0  0  0  0  0  0  0  0  0  0  0  0
   20.3830   35.7690   72.2860 H   0  0  0  0  0  0  0  0  0  0  0  0
   21.2500   33.0750   67.7390 H   0  0  0  0  0  0  0  0  0  0  0  0
   23.5310   34.9470   67.8040 H   0  0  0  0  0  0  0  0  0  0  0  0
   23.4630   35.2610   69.6140 H   0  0  0  0  0  0  0  0  0  0  0  0
   23.9530   37.2640   67.7650 H   0  0  0  0  0  0  0  0  0  0  0  0
   22.9370   37.4910   69.2680 H   0  0  0  0  0  0  0  0  0  0  0  0
   22.1220   37.6210   66.4320 H   0  0  0  0  0  0  0  0  0  0  0  0
   21.1290   37.8450   67.9620 H   0  0  0  0  0  0  0  0  0  0  0  0
   21.6370   35.2320   66.4430 H   0  0  0  0  0  0  0  0  0  0  0  0
   20.0750   35.9130   67.1360 H   0  0  0  0  0  0  0  0  0  0  0  0
   14.7190   28.1590   74.1140 H   0  0  0  0  0  0  0  0  0  0  0  0
   13.0050   28.2810   75.9530 H   0  0  0  0  0  0  0  0  0  0  0  0
   11.5530   31.8840   74.3740 H   0  0  0  0  0  0  0  0  0  0  0  0
   13.2310   31.8050   72.5320 H   0  0  0  0  0  0  0  0  0  0  0  0
  1  4  1  0  0  0  0
  1  2  2  0  0  0  0
  1 24  1  0  0  0  0
  3  1  2  0  0  0  0
  4  5  1  0  0  0  0
  5 31  1  0  0  0  0
  5 32  1  0  0  0  0
  6  5  1  0  0  0  0
  6 34  1  0  0  0  0
  7 10  1  0  0  0  0
  7  6  1  0  0  0  0
  8  9  1  0  0  0  0
  8  7  1  0  0  0  0
  9 37  1  0  0  0  0
  9  4  1  0  0  0  0
 10 11  2  0  0  0  0
 12 40  1  0  0  0  0
 12 10  1  0  0  0  0
 12 39  1  0  0  0  0
 13 12  1  0  0  0  0
 14 15  2  0  0  0  0
 14 13  1  0  0  0  0
 16 17  1  0  0  0  0
 16 14  1  0  0  0  0
 17 18  1  0  0  0  0
 17 22  1  0  0  0  0
 18 43  1  0  0  0  0
 19 18  1  0  0  0  0
 19 45  1  0  0  0  0
 20 47  1  0  0  0  0
 20 19  1  0  0  0  0
 21 20  1  0  0  0  0
 21 17  1  0  0  0  0
 22 23  2  0  0  0  0
 22 13  1  0  0  0  0
 24 29  2  0  0  0  0
 24 25  1  0  0  0  0
 25 26  2  0  0  0  0
 26 27  1  0  0  0  0
 26 51  1  0  0  0  0
 27 30  1  0  0  0  0
 28 52  1  0  0  0  0
 28 27  2  0  0  0  0
 29 28  1  0  0  0  0
 33  6  1  0  0  0  0
 35  8  1  0  0  0  0
 36  8  1  0  0  0  0
 38  9  1  0  0  0  0
 41 16  1  0  0  0  0
 42 18  1  0  0  0  0
 44 19  1  0  0  0  0
 46 20  1  0  0  0  0
 48 21  1  0  0  0  0
 49 21  1  0  0  0  0
 50 25  1  0  0  0  0
 53 29  1  0  0  0  0
M  END
>  <Pose>
1

>  <Score>
-7.16

$$$$
