
 OpenBabel03212208413D

 43 46  0  0  0  0  0  0  0  0999 V2000
   13.7930   31.5250   71.9570 S   0  0  0  0  0  0  0  0  0  0  0  0
   12.7170   31.6560   72.9870 O   0  0  0  0  0  0  0  0  0  0  0  0
   13.3610   30.4730   70.9450 O   0  0  0  0  0  0  0  0  0  0  0  0
   15.2410   30.9390   72.6810 N   0  0  0  0  0  0  0  0  0  0  0  0
   15.8740   31.8710   73.5400 C   0  0  0  0  0  0  0  0  0  0  0  0
   17.2120   32.3700   73.1140 C   0  0  0  0  0  0  0  0  0  0  0  0
   18.0070   31.3950   72.4160 N   0  0  0  0  0  0  0  0  0  0  0  0
   17.4200   30.0850   72.2490 C   0  0  0  0  0  0  0  0  0  0  0  0
   16.0460   30.3460   71.6680 C   0  0  0  0  0  0  0  0  0  0  0  0
   19.2940   31.6390   71.9000 C   0  0  0  0  0  0  0  0  0  0  0  0
   20.1820   30.7650   72.0050 O   0  0  0  0  0  0  0  0  0  0  0  0
   19.6020   32.9040   71.2420 C   0  0  0  0  0  0  0  0  0  0  0  0
   20.0560   33.0460   70.0010 N   0  0  0  0  0  0  0  0  0  0  0  0
   20.2330   34.3380   69.7150 N   0  0  0  0  0  0  0  0  0  0  0  0
   19.8890   35.0850   70.7890 C   0  0  0  0  0  0  0  0  0  0  0  0
   19.4860   34.1670   71.7650 C   0  0  0  0  0  0  0  0  0  0  0  0
   19.9710   36.4390   70.7760 N   0  0  0  0  0  0  0  0  0  0  0  0
   20.4120   37.0720   69.6510 C   0  0  0  0  0  0  0  0  0  0  0  0
   20.7680   36.3380   68.5410 C   0  0  0  0  0  0  0  0  0  0  0  0
   20.6680   34.9660   68.6030 C   0  0  0  0  0  0  0  0  0  0  0  0
   21.3900   37.2330   66.9560 B   0  0  0  0  0  0  0  0  0  0  0  0
   14.0290   33.0710   71.1800 C   0  0  0  0  0  0  0  0  0  0  0  0
   13.0660   33.8800   70.6200 C   0  0  0  0  0  0  0  0  0  0  0  0
   13.6360   34.9790   70.1240 N   0  0  0  0  0  0  0  0  0  0  0  0
   14.9350   34.9120   70.3430 N   0  0  0  0  0  0  0  0  0  0  0  0
   15.2290   33.7550   70.9900 C   0  0  0  0  0  0  0  0  0  0  0  0
   12.9840   36.0750   69.4580 C   0  0  0  0  0  0  0  0  0  0  0  0
   15.2030   32.7400   73.6960 H   0  0  0  0  0  0  0  0  0  0  0  0
   15.9930   31.3930   74.5390 H   0  0  0  0  0  0  0  0  0  0  0  0
   17.1260   33.2780   72.4470 H   0  0  0  0  0  0  0  0  0  0  0  0
   17.8130   32.7130   73.9830 H   0  0  0  0  0  0  0  0  0  0  0  0
   18.0050   29.4390   71.5680 H   0  0  0  0  0  0  0  0  0  0  0  0
   17.3220   29.6480   73.2690 H   0  0  0  0  0  0  0  0  0  0  0  0
   15.5880   29.3740   71.3850 H   0  0  0  0  0  0  0  0  0  0  0  0
   16.1550   30.9640   70.7640 H   0  0  0  0  0  0  0  0  0  0  0  0
   19.1440   34.4060   72.7500 H   0  0  0  0  0  0  0  0  0  0  0  0
   20.4930   38.1500   69.5950 H   0  0  0  0  0  0  0  0  0  0  0  0
   20.9460   34.3740   67.7380 H   0  0  0  0  0  0  0  0  0  0  0  0
   11.9890   33.7000   70.5640 H   0  0  0  0  0  0  0  0  0  0  0  0
   16.2050   33.4120   71.3070 H   0  0  0  0  0  0  0  0  0  0  0  0
   13.2300   36.0220   68.3770 H   0  0  0  0  0  0  0  0  0  0  0  0
   13.3970   37.0380   69.8190 H   0  0  0  0  0  0  0  0  0  0  0  0
   11.8840   36.0350   69.5840 H   0  0  0  0  0  0  0  0  0  0  0  0
  1  4  1  0  0  0  0
  1  2  2  0  0  0  0
  3  1  2  0  0  0  0
  4  5  1  0  0  0  0
  5 28  1  0  0  0  0
  5 29  1  0  0  0  0
  6  5  1  0  0  0  0
  6 31  1  0  0  0  0
  7  6  1  0  0  0  0
  8  7  1  0  0  0  0
  8 33  1  0  0  0  0
  9  8  1  0  0  0  0
  9  4  1  0  0  0  0
 10 11  2  0  0  0  0
 10  7  1  0  0  0  0
 12 16  1  0  0  0  0
 12 10  1  0  0  0  0
 13 12  2  0  0  0  0
 14 13  1  0  0  0  0
 14 15  1  0  0  0  0
 15 16  2  0  0  0  0
 16 36  1  0  0  0  0
 17 15  1  0  0  0  0
 18 17  2  0  0  0  0
 19 20  2  0  0  0  0
 19 18  1  0  0  0  0
 20 14  1  0  0  0  0
 21 19  1  0  0  0  0
 22  1  1  0  0  0  0
 23 22  2  0  0  0  0
 24 25  1  0  0  0  0
 24 23  1  0  0  0  0
 25 26  2  0  0  0  0
 26 22  1  0  0  0  0
 26 40  1  0  0  0  0
 27 43  1  0  0  0  0
 27 42  1  0  0  0  0
 27 24  1  0  0  0  0
 30  6  1  0  0  0  0
 32  8  1  0  0  0  0
 34  9  1  0  0  0  0
 35  9  1  0  0  0  0
 37 18  1  0  0  0  0
 38 20  1  0  0  0  0
 39 23  1  0  0  0  0
 41 27  1  0  0  0  0
M  END
>  <Pose>
1

>  <Score>
-6.86

$$$$
