
 OpenBabel03212208413D

 49 52  0  0  1  0  0  0  0  0999 V2000
   14.4160   36.1570   70.1670 S   0  0  0  0  0  0  0  0  0  0  0  0
   14.4520   36.7250   68.7920 O   0  0  0  0  0  0  0  0  0  0  0  0
   14.2300   37.2890   71.1480 O   0  0  0  0  0  0  0  0  0  0  0  0
   13.1160   35.0860   70.3320 N   0  0  0  0  0  0  0  0  0  0  0  0
   12.8690   34.5900   71.6310 C   0  0  0  0  0  0  0  0  0  0  0  0
   13.3120   33.2160   71.9260 C   0  0  0  0  0  0  0  0  0  0  0  0
   13.0980   32.3310   70.8200 N   0  0  0  0  0  0  0  0  0  0  0  0
   12.4510   32.8250   69.6390 C   0  0  0  0  0  0  0  0  0  0  0  0
   12.8880   34.2020   69.2470 C   0  0  0  0  0  0  0  0  0  0  0  0
   13.5160   30.9870   70.8810 C   0  0  0  0  0  0  0  0  0  0  0  0
   13.3930   30.2670   69.8640 O   0  0  0  0  0  0  0  0  0  0  0  0
   14.0890   30.3710   72.0710 C   0  0  1  0  0  0  0  0  0  0  0  0
   13.3040   30.1820   73.1940 C   0  0  0  0  0  0  0  0  0  0  0  0
   13.8300   29.6140   74.2900 N   0  0  0  0  0  0  0  0  0  0  0  0
   15.1170   29.2080   74.3500 C   0  0  1  0  0  0  0  0  0  0  0  0
   15.9070   29.3770   73.2750 N   0  0  0  0  0  0  0  0  0  0  0  0
   17.2070   28.9690   73.3310 C   0  0  0  0  0  0  0  0  0  0  0  0
   17.7400   28.3860   74.4620 C   0  0  0  0  0  0  0  0  0  0  0  0
   16.9440   28.2030   75.5810 C   0  0  0  0  0  0  0  0  0  0  0  0
   15.6360   28.6230   75.5000 C   0  0  0  0  0  0  0  0  0  0  0  0
   19.1490   27.9300   74.5610 C   0  0  0  0  0  0  0  0  0  0  0  0
   15.4010   29.9500   72.1510 C   0  0  0  0  0  0  0  0  0  0  0  0
   16.1310   30.1040   71.1610 O   0  0  0  0  0  0  0  0  0  0  0  0
   15.9120   35.3470   70.5480 C   0  0  0  0  0  0  0  0  0  0  0  0
   17.1190   35.9450   70.2520 C   0  0  0  0  0  0  0  0  0  0  0  0
   18.2730   35.2430   70.5840 C   0  0  0  0  0  0  0  0  0  0  0  0
   18.2340   34.0100   71.1800 C   0  0  0  0  0  0  0  0  0  0  0  0
   17.0140   33.4180   71.4740 C   0  0  0  0  0  0  0  0  0  0  0  0
   15.8400   34.1070   71.1490 C   0  0  0  0  0  0  0  0  0  0  0  0
   19.9690   36.0130   70.2000 B   0  0  0  0  0  0  0  0  0  0  0  0
   13.3380   35.2910   72.3690 H   0  0  0  0  0  0  0  0  0  0  0  0
   11.7680   34.6580   71.8300 H   0  0  0  0  0  0  0  0  0  0  0  0
   14.4120   33.2660   72.1830 H   0  0  0  0  0  0  0  0  0  0  0  0
   12.7850   32.7550   72.8070 H   0  0  0  0  0  0  0  0  0  0  0  0
   12.5920   32.1110   68.8020 H   0  0  0  0  0  0  0  0  0  0  0  0
   11.3410   32.7990   69.8510 H   0  0  0  0  0  0  0  0  0  0  0  0
   12.1180   34.6380   68.5770 H   0  0  0  0  0  0  0  0  0  0  0  0
   13.8180   34.1160   68.6510 H   0  0  0  0  0  0  0  0  0  0  0  0
   12.2580   30.5050   73.1620 H   0  0  0  0  0  0  0  0  0  0  0  0
   17.8360   29.1090   72.4630 H   0  0  0  0  0  0  0  0  0  0  0  0
   17.3050   27.7520   76.4950 H   0  0  0  0  0  0  0  0  0  0  0  0
   15.0020   28.4870   76.3650 H   0  0  0  0  0  0  0  0  0  0  0  0
   19.2400   26.8700   74.2020 H   0  0  0  0  0  0  0  0  0  0  0  0
   19.5100   27.9770   75.6170 H   0  0  0  0  0  0  0  0  0  0  0  0
   19.8130   28.5190   73.8920 H   0  0  0  0  0  0  0  0  0  0  0  0
   17.1540   36.9130   69.7830 H   0  0  0  0  0  0  0  0  0  0  0  0
   19.1580   33.5030   71.4200 H   0  0  0  0  0  0  0  0  0  0  0  0
   16.9960   32.4490   71.9430 H   0  0  0  0  0  0  0  0  0  0  0  0
   14.8860   33.6640   71.3700 H   0  0  0  0  0  0  0  0  0  0  0  0
  1  4  1  0  0  0  0
  1 24  1  0  0  0  0
  1  3  2  0  0  0  0
  2  1  2  0  0  0  0
  4  5  1  0  0  0  0
  5 32  1  0  0  0  0
  5  6  1  0  0  0  0
  5 31  1  0  0  0  0
  6 33  1  0  0  0  0
  6 34  1  0  0  0  0
  7 10  1  0  0  0  0
  7  6  1  0  0  0  0
  8 36  1  0  0  0  0
  8  7  1  0  0  0  0
  9  8  1  0  0  0  0
  9  4  1  0  0  0  0
 11 10  2  0  0  0  0
 12 10  1  6  0  0  0
 12 22  1  0  0  0  0
 12 13  1  0  0  0  0
 13 14  2  0  0  0  0
 15 14  1  1  0  0  0
 15 20  1  0  0  0  0
 16 17  1  0  0  0  0
 16 15  1  0  0  0  0
 17 18  2  0  0  0  0
 18 21  1  0  0  0  0
 18 19  1  0  0  0  0
 19 41  1  0  0  0  0
 20 19  2  0  0  0  0
 20 42  1  0  0  0  0
 21 44  1  0  0  0  0
 22 16  1  0  0  0  0
 23 22  2  0  0  0  0
 24 29  1  0  0  0  0
 25 24  2  0  0  0  0
 25 26  1  0  0  0  0
 26 27  2  0  0  0  0
 27 47  1  0  0  0  0
 27 28  1  0  0  0  0
 28 48  1  0  0  0  0
 29 49  1  0  0  0  0
 29 28  2  0  0  0  0
 30 26  1  0  0  0  0
 35  8  1  0  0  0  0
 37  9  1  0  0  0  0
 38  9  1  0  0  0  0
 39 13  1  0  0  0  0
 40 17  1  0  0  0  0
 43 21  1  0  0  0  0
 45 21  1  0  0  0  0
 46 25  1  0  0  0  0
M  END
>  <Pose>
1

>  <Score>
-5.96

$$$$
