
 OpenBabel03212208413D

 45 48  0  0  0  0  0  0  0  0999 V2000
   18.3920   32.2380   72.2470 S   0  0  0  0  0  0  0  0  0  0  0  0
   18.2740   30.8580   71.6940 O   0  0  0  0  0  0  0  0  0  0  0  0
   18.2620   32.1730   73.7350 O   0  0  0  0  0  0  0  0  0  0  0  0
   19.8110   32.9860   71.8160 N   0  0  0  0  0  0  0  0  0  0  0  0
   20.9830   32.2150   71.7140 C   0  0  0  0  0  0  0  0  0  0  0  0
   22.1810   33.0060   71.2660 C   0  0  0  0  0  0  0  0  0  0  0  0
   21.8680   34.2190   70.5990 N   0  0  0  0  0  0  0  0  0  0  0  0
   21.0540   35.0560   71.4060 C   0  0  0  0  0  0  0  0  0  0  0  0
   19.9400   34.3640   72.0990 C   0  0  0  0  0  0  0  0  0  0  0  0
   21.4770   34.0050   69.2560 C   0  0  0  0  0  0  0  0  0  0  0  0
   21.3790   35.1520   68.4190 N   0  0  0  0  0  0  0  0  0  0  0  0
   20.3010   35.9100   68.4390 N   0  0  0  0  0  0  0  0  0  0  0  0
   20.1260   37.0020   67.6790 C   0  0  0  0  0  0  0  0  0  0  0  0
   21.1540   37.3360   66.8290 C   0  0  0  0  0  0  0  0  0  0  0  0
   22.3070   36.5840   66.7610 C   0  0  0  0  0  0  0  0  0  0  0  0
   22.3850   35.4730   67.5910 C   0  0  0  0  0  0  0  0  0  0  0  0
   23.4580   34.7770   67.5260 O   0  0  0  0  0  0  0  0  0  0  0  0
   18.9420   37.8060   67.7240 N   0  0  0  0  0  0  0  0  0  0  0  0
   18.0060   37.8620   68.6770 C   0  0  0  0  0  0  0  0  0  0  0  0
   17.0690   38.7540   68.3070 N   0  0  0  0  0  0  0  0  0  0  0  0
   17.4010   39.2750   67.1120 C   0  0  0  0  0  0  0  0  0  0  0  0
   18.5860   38.6660   66.7570 C   0  0  0  0  0  0  0  0  0  0  0  0
   17.0230   33.1760   71.6120 C   0  0  0  0  0  0  0  0  0  0  0  0
   15.3930   32.7120   71.4300 S   0  0  0  0  0  0  0  0  0  0  0  0
   14.7710   34.1550   70.7730 C   0  0  0  0  0  0  0  0  0  0  0  0
   15.8720   34.9740   70.7110 C   0  0  0  0  0  0  0  0  0  0  0  0
   17.0330   34.4600   71.1470 C   0  0  0  0  0  0  0  0  0  0  0  0
   12.9770   34.5640   70.2390 B   0  0  0  0  0  0  0  0  0  0  0  0
   21.1810   31.7130   72.6850 H   0  0  0  0  0  0  0  0  0  0  0  0
   20.8280   31.3920   70.9750 H   0  0  0  0  0  0  0  0  0  0  0  0
   22.8340   32.3910   70.6180 H   0  0  0  0  0  0  0  0  0  0  0  0
   22.7880   33.2520   72.1680 H   0  0  0  0  0  0  0  0  0  0  0  0
   20.7230   35.9920   70.8670 H   0  0  0  0  0  0  0  0  0  0  0  0
   21.7350   35.4740   72.2090 H   0  0  0  0  0  0  0  0  0  0  0  0
   18.9820   34.8800   71.8210 H   0  0  0  0  0  0  0  0  0  0  0  0
   19.9950   34.4810   73.2140 H   0  0  0  0  0  0  0  0  0  0  0  0
   22.2640   33.3380   68.7910 H   0  0  0  0  0  0  0  0  0  0  0  0
   20.5410   33.3820   69.1790 H   0  0  0  0  0  0  0  0  0  0  0  0
   21.0530   38.2110   66.1990 H   0  0  0  0  0  0  0  0  0  0  0  0
   23.1200   36.8350   66.0990 H   0  0  0  0  0  0  0  0  0  0  0  0
   18.0150   37.2760   69.5960 H   0  0  0  0  0  0  0  0  0  0  0  0
   16.8340   40.0300   66.5470 H   0  0  0  0  0  0  0  0  0  0  0  0
   19.1160   38.8690   65.8440 H   0  0  0  0  0  0  0  0  0  0  0  0
   15.7550   36.0110   70.3100 H   0  0  0  0  0  0  0  0  0  0  0  0
   17.9690   35.0650   71.1280 H   0  0  0  0  0  0  0  0  0  0  0  0
  1  3  2  0  0  0  0
  2  1  2  0  0  0  0
  4  9  1  0  0  0  0
  4  1  1  0  0  0  0
  5  4  1  0  0  0  0
  5 29  1  0  0  0  0
  6  5  1  0  0  0  0
  6 32  1  0  0  0  0
  7  6  1  0  0  0  0
  7  8  1  0  0  0  0
  8  9  1  0  0  0  0
  8 34  1  0  0  0  0
  9 36  1  0  0  0  0
 10  7  1  0  0  0  0
 11 12  1  0  0  0  0
 11 10  1  0  0  0  0
 13 18  1  0  0  0  0
 13 12  2  0  0  0  0
 14 13  1  0  0  0  0
 15 14  2  0  0  0  0
 15 16  1  0  0  0  0
 16 11  1  0  0  0  0
 17 16  2  0  0  0  0
 18 19  1  0  0  0  0
 19 41  1  0  0  0  0
 20 19  2  0  0  0  0
 21 20  1  0  0  0  0
 22 21  2  0  0  0  0
 22 18  1  0  0  0  0
 23  1  1  0  0  0  0
 24 23  1  0  0  0  0
 25 24  1  0  0  0  0
 26 25  2  0  0  0  0
 26 27  1  0  0  0  0
 27 23  2  0  0  0  0
 28 25  1  0  0  0  0
 30  5  1  0  0  0  0
 31  6  1  0  0  0  0
 33  8  1  0  0  0  0
 35  9  1  0  0  0  0
 37 10  1  0  0  0  0
 38 10  1  0  0  0  0
 39 14  1  0  0  0  0
 40 15  1  0  0  0  0
 42 21  1  0  0  0  0
 43 22  1  0  0  0  0
 44 26  1  0  0  0  0
 45 27  1  0  0  0  0
M  END
>  <Pose>
1

>  <Score>
-7.35

$$$$
