
 OpenBabel03212208413D

 52 55  0  0  0  0  0  0  0  0999 V2000
   15.5470   32.1920   71.8550 S   0  0  0  0  0  0  0  0  0  0  0  0
   15.0950   32.0660   73.2870 O   0  0  0  0  0  0  0  0  0  0  0  0
   14.9180   31.0390   71.1080 O   0  0  0  0  0  0  0  0  0  0  0  0
   17.2440   32.0310   71.7000 N   0  0  0  0  0  0  0  0  0  0  0  0
   17.7630   30.8070   72.2230 C   0  0  0  0  0  0  0  0  0  0  0  0
   19.2880   30.9970   72.3010 C   0  0  0  0  0  0  0  0  0  0  0  0
   19.7550   31.8490   71.2960 N   0  0  0  0  0  0  0  0  0  0  0  0
   19.0250   31.8340   70.0580 C   0  0  0  0  0  0  0  0  0  0  0  0
   17.5340   31.9890   70.2550 C   0  0  0  0  0  0  0  0  0  0  0  0
   20.3930   33.0590   71.6060 C   0  0  0  0  0  0  0  0  0  0  0  0
   21.4640   33.4990   70.7710 N   0  0  0  0  0  0  0  0  0  0  0  0
   22.8160   33.3230   71.1610 N   0  0  0  0  0  0  0  0  0  0  0  0
   23.5970   33.8590   70.0960 C   0  0  0  0  0  0  0  0  0  0  0  0
   24.9240   33.8700   70.1080 C   0  0  0  0  0  0  0  0  0  0  0  0
   25.9620   34.3480   69.1660 C   0  0  0  0  0  0  0  0  0  0  0  0
   25.4390   35.4800   68.3150 C   0  0  0  0  0  0  0  0  0  0  0  0
   24.4620   34.8550   67.3360 C   0  0  0  0  0  0  0  0  0  0  0  0
   23.0440   34.9900   67.8010 C   0  0  0  0  0  0  0  0  0  0  0  0
   22.7710   34.3630   69.0580 N   0  0  0  0  0  0  0  0  0  0  0  0
   21.4370   34.1300   69.4990 C   0  0  0  0  0  0  0  0  0  0  0  0
   20.4220   34.4500   68.8320 O   0  0  0  0  0  0  0  0  0  0  0  0
   14.9220   33.6540   71.1960 C   0  0  0  0  0  0  0  0  0  0  0  0
   15.6430   34.7670   70.8780 C   0  0  0  0  0  0  0  0  0  0  0  0
   15.0390   35.8980   70.3500 C   0  0  0  0  0  0  0  0  0  0  0  0
   13.6950   35.9460   70.1250 C   0  0  0  0  0  0  0  0  0  0  0  0
   12.9350   34.8300   70.4380 C   0  0  0  0  0  0  0  0  0  0  0  0
   13.5440   33.7170   70.9610 C   0  0  0  0  0  0  0  0  0  0  0  0
   16.0770   37.4540   69.9100 B   0  0  0  0  0  0  0  0  0  0  0  0
   17.3440   30.5060   73.1950 H   0  0  0  0  0  0  0  0  0  0  0  0
   17.6000   29.9530   71.5110 H   0  0  0  0  0  0  0  0  0  0  0  0
   19.4670   31.4190   73.3020 H   0  0  0  0  0  0  0  0  0  0  0  0
   19.7860   29.9970   72.3000 H   0  0  0  0  0  0  0  0  0  0  0  0
   19.3640   32.7010   69.4550 H   0  0  0  0  0  0  0  0  0  0  0  0
   19.2980   30.9230   69.4980 H   0  0  0  0  0  0  0  0  0  0  0  0
   17.0590   31.0550   69.8870 H   0  0  0  0  0  0  0  0  0  0  0  0
   17.0960   32.8270   69.7190 H   0  0  0  0  0  0  0  0  0  0  0  0
   20.7120   33.0300   72.6780 H   0  0  0  0  0  0  0  0  0  0  0  0
   19.6050   33.8710   71.5920 H   0  0  0  0  0  0  0  0  0  0  0  0
   23.1680   32.8900   72.0470 H   0  0  0  0  0  0  0  0  0  0  0  0
   25.3190   33.4180   71.0310 H   0  0  0  0  0  0  0  0  0  0  0  0
   26.3700   33.5170   68.5540 H   0  0  0  0  0  0  0  0  0  0  0  0
   26.7940   34.7690   69.7990 H   0  0  0  0  0  0  0  0  0  0  0  0
   26.2700   35.9920   67.8050 H   0  0  0  0  0  0  0  0  0  0  0  0
   24.8470   36.1480   68.9760 H   0  0  0  0  0  0  0  0  0  0  0  0
   24.6060   35.3690   66.3660 H   0  0  0  0  0  0  0  0  0  0  0  0
   24.6930   33.7860   67.1840 H   0  0  0  0  0  0  0  0  0  0  0  0
   22.8320   36.0830   67.8870 H   0  0  0  0  0  0  0  0  0  0  0  0
   22.3830   34.5850   66.9990 H   0  0  0  0  0  0  0  0  0  0  0  0
   16.7100   34.7400   71.0520 H   0  0  0  0  0  0  0  0  0  0  0  0
   13.2260   36.8380   69.7100 H   0  0  0  0  0  0  0  0  0  0  0  0
   11.8690   34.8570   70.2640 H   0  0  0  0  0  0  0  0  0  0  0  0
   12.9180   32.8620   71.1940 H   0  0  0  0  0  0  0  0  0  0  0  0
  1  2  2  0  0  0  0
  3  1  2  0  0  0  0
  4  1  1  0  0  0  0
  4  5  1  0  0  0  0
  5  6  1  0  0  0  0
  5 29  1  0  0  0  0
  6 31  1  0  0  0  0
  7 10  1  0  0  0  0
  7  6  1  0  0  0  0
  8  9  1  0  0  0  0
  8  7  1  0  0  0  0
  9  4  1  0  0  0  0
 10 37  1  0  0  0  0
 11 12  1  0  0  0  0
 11 10  1  0  0  0  0
 12 39  1  0  0  0  0
 13 14  2  0  0  0  0
 13 12  1  0  0  0  0
 14 40  1  0  0  0  0
 15 42  1  0  0  0  0
 15 14  1  0  0  0  0
 16 44  1  0  0  0  0
 16 15  1  0  0  0  0
 17 18  1  0  0  0  0
 17 16  1  0  0  0  0
 18 47  1  0  0  0  0
 18 19  1  0  0  0  0
 19 20  1  0  0  0  0
 19 13  1  0  0  0  0
 20 11  1  0  0  0  0
 21 20  2  0  0  0  0
 22  1  1  0  0  0  0
 23 49  1  0  0  0  0
 23 22  2  0  0  0  0
 24 23  1  0  0  0  0
 25 24  2  0  0  0  0
 25 26  1  0  0  0  0
 26 27  2  0  0  0  0
 27 52  1  0  0  0  0
 27 22  1  0  0  0  0
 28 24  1  0  0  0  0
 30  5  1  0  0  0  0
 32  6  1  0  0  0  0
 33  8  1  0  0  0  0
 34  8  1  0  0  0  0
 35  9  1  0  0  0  0
 36  9  1  0  0  0  0
 38 10  1  0  0  0  0
 41 15  1  0  0  0  0
 43 16  1  0  0  0  0
 45 17  1  0  0  0  0
 46 17  1  0  0  0  0
 48 18  1  0  0  0  0
 50 25  1  0  0  0  0
 51 26  1  0  0  0  0
M  END
>  <Pose>
1

>  <Score>
-6.65

$$$$
