
 OpenBabel03212208413D

 44 47  0  0  0  0  0  0  0  0999 V2000
   14.5440   30.8380   71.3100 S   0  0  0  0  0  0  0  0  0  0  0  0
   13.9670   30.4700   72.6180 O   0  0  0  0  0  0  0  0  0  0  0  0
   13.6510   30.1990   70.2520 O   0  0  0  0  0  0  0  0  0  0  0  0
   16.1320   30.2900   71.0450 N   0  0  0  0  0  0  0  0  0  0  0  0
   16.8520   29.8380   72.1730 C   0  0  0  0  0  0  0  0  0  0  0  0
   17.9930   30.6830   72.6320 C   0  0  0  0  0  0  0  0  0  0  0  0
   18.2100   31.8740   71.8490 N   0  0  0  0  0  0  0  0  0  0  0  0
   17.9600   31.8440   70.4440 C   0  0  0  0  0  0  0  0  0  0  0  0
   16.8390   30.9600   70.0210 C   0  0  0  0  0  0  0  0  0  0  0  0
   18.6820   33.0400   72.5400 C   0  0  0  0  0  0  0  0  0  0  0  0
   19.8050   33.7210   72.2560 N   0  0  0  0  0  0  0  0  0  0  0  0
   19.8530   34.7110   73.1550 N   0  0  0  0  0  0  0  0  0  0  0  0
   18.8100   34.6410   73.9520 N   0  0  0  0  0  0  0  0  0  0  0  0
   18.0590   33.6170   73.6020 N   0  0  0  0  0  0  0  0  0  0  0  0
   20.7310   33.4470   71.2140 C   0  0  0  0  0  0  0  0  0  0  0  0
   20.5770   33.9910   69.9590 C   0  0  0  0  0  0  0  0  0  0  0  0
   21.5030   33.7030   68.9580 C   0  0  0  0  0  0  0  0  0  0  0  0
   22.5810   32.8790   69.1950 C   0  0  0  0  0  0  0  0  0  0  0  0
   22.7380   32.3260   70.4720 C   0  0  0  0  0  0  0  0  0  0  0  0
   21.8000   32.6250   71.4620 C   0  0  0  0  0  0  0  0  0  0  0  0
   14.4630   32.5610   71.0670 C   0  0  0  0  0  0  0  0  0  0  0  0
   15.5120   33.4040   71.3390 C   0  0  0  0  0  0  0  0  0  0  0  0
   15.4350   34.7820   71.1370 C   0  0  0  0  0  0  0  0  0  0  0  0
   14.2390   35.3080   70.6380 C   0  0  0  0  0  0  0  0  0  0  0  0
   13.1800   34.4720   70.3620 C   0  0  0  0  0  0  0  0  0  0  0  0
   13.2960   33.1270   70.5730 C   0  0  0  0  0  0  0  0  0  0  0  0
   14.0640   37.1900   70.3340 B   0  0  0  0  0  0  0  0  0  0  0  0
   16.1060   29.6410   72.9870 H   0  0  0  0  0  0  0  0  0  0  0  0
   17.2530   28.8140   71.9060 H   0  0  0  0  0  0  0  0  0  0  0  0
   17.7960   30.9280   73.7120 H   0  0  0  0  0  0  0  0  0  0  0  0
   18.9210   30.0590   72.6740 H   0  0  0  0  0  0  0  0  0  0  0  0
   17.7380   32.8830   70.0620 H   0  0  0  0  0  0  0  0  0  0  0  0
   18.9340   31.5410   69.9590 H   0  0  0  0  0  0  0  0  0  0  0  0
   17.2650   30.1790   69.3260 H   0  0  0  0  0  0  0  0  0  0  0  0
   16.1070   31.5120   69.3640 H   0  0  0  0  0  0  0  0  0  0  0  0
   19.7430   34.6540   69.7000 H   0  0  0  0  0  0  0  0  0  0  0  0
   21.4110   34.1200   67.9490 H   0  0  0  0  0  0  0  0  0  0  0  0
   23.3140   32.6380   68.4440 H   0  0  0  0  0  0  0  0  0  0  0  0
   23.5810   31.6830   70.6510 H   0  0  0  0  0  0  0  0  0  0  0  0
   21.9860   32.1580   72.4300 H   0  0  0  0  0  0  0  0  0  0  0  0
   16.4560   33.0020   71.7320 H   0  0  0  0  0  0  0  0  0  0  0  0
   16.2390   35.4580   71.3430 H   0  0  0  0  0  0  0  0  0  0  0  0
   12.2680   34.9390   69.9730 H   0  0  0  0  0  0  0  0  0  0  0  0
   12.4260   32.4900   70.3410 H   0  0  0  0  0  0  0  0  0  0  0  0
  1  2  2  0  0  0  0
  3  1  2  0  0  0  0
  4  1  1  0  0  0  0
  4  5  1  0  0  0  0
  5  6  1  0  0  0  0
  5 28  1  0  0  0  0
  6 31  1  0  0  0  0
  6 30  1  0  0  0  0
  7 10  1  0  0  0  0
  7  6  1  0  0  0  0
  8  7  1  0  0  0  0
  9  8  1  0  0  0  0
  9  4  1  0  0  0  0
 10 14  2  0  0  0  0
 11 10  1  0  0  0  0
 11 12  1  0  0  0  0
 12 13  2  0  0  0  0
 14 13  1  0  0  0  0
 15 20  1  0  0  0  0
 15 11  1  0  0  0  0
 16 15  2  0  0  0  0
 17 18  2  0  0  0  0
 17 16  1  0  0  0  0
 18 19  1  0  0  0  0
 19 39  1  0  0  0  0
 19 20  2  0  0  0  0
 20 40  1  0  0  0  0
 21  1  1  0  0  0  0
 21 22  1  0  0  0  0
 22 41  1  0  0  0  0
 23 22  2  0  0  0  0
 23 42  1  0  0  0  0
 24 23  1  0  0  0  0
 25 26  1  0  0  0  0
 25 24  2  0  0  0  0
 26 21  2  0  0  0  0
 27 24  1  0  0  0  0
 29  5  1  0  0  0  0
 32  8  1  0  0  0  0
 33  8  1  0  0  0  0
 34  9  1  0  0  0  0
 35  9  1  0  0  0  0
 36 16  1  0  0  0  0
 37 17  1  0  0  0  0
 38 18  1  0  0  0  0
 43 25  1  0  0  0  0
 44 26  1  0  0  0  0
M  END
>  <Pose>
1

>  <Score>
-6.59

$$$$
