
 OpenBabel03212208413D

 53 56  0  0  0  0  0  0  0  0999 V2000
   16.1510   31.7440   72.0570 S   0  0  0  0  0  0  0  0  0  0  0  0
   15.9180   30.4290   71.3320 O   0  0  0  0  0  0  0  0  0  0  0  0
   15.8100   31.5400   73.5050 O   0  0  0  0  0  0  0  0  0  0  0  0
   17.8310   32.1320   71.9220 N   0  0  0  0  0  0  0  0  0  0  0  0
   18.5830   30.9760   72.2800 C   0  0  0  0  0  0  0  0  0  0  0  0
   19.9160   31.2990   72.9190 C   0  0  0  0  0  0  0  0  0  0  0  0
   20.3240   32.5880   72.4400 N   0  0  0  0  0  0  0  0  0  0  0  0
   19.5100   33.7250   72.7510 C   0  0  0  0  0  0  0  0  0  0  0  0
   18.0700   33.2800   72.7630 C   0  0  0  0  0  0  0  0  0  0  0  0
   21.5000   32.7190   71.6830 C   0  0  0  0  0  0  0  0  0  0  0  0
   21.5870   33.5240   70.6110 N   0  0  0  0  0  0  0  0  0  0  0  0
   22.6610   33.6890   69.8590 C   0  0  0  0  0  0  0  0  0  0  0  0
   23.7990   32.9780   70.2020 C   0  0  0  0  0  0  0  0  0  0  0  0
   23.7600   32.1400   71.2940 C   0  0  0  0  0  0  0  0  0  0  0  0
   22.6230   32.0310   72.0040 N   0  0  0  0  0  0  0  0  0  0  0  0
   24.9610   31.3580   71.6940 C   0  0  0  0  0  0  0  0  0  0  0  0
   22.6230   34.5700   68.7510 N   0  0  0  0  0  0  0  0  0  0  0  0
   21.5590   34.5750   67.7690 C   0  0  0  0  0  0  0  0  0  0  0  0
   21.5690   35.9670   67.1370 C   0  0  0  0  0  0  0  0  0  0  0  0
   21.7570   36.8830   68.1740 O   0  0  0  0  0  0  0  0  0  0  0  0
   23.0480   36.9100   68.6490 C   0  0  0  0  0  0  0  0  0  0  0  0
   23.6960   35.5220   68.5770 C   0  0  0  0  0  0  0  0  0  0  0  0
   15.1510   32.9660   71.3250 C   0  0  0  0  0  0  0  0  0  0  0  0
   15.7000   34.2190   71.0870 C   0  0  0  0  0  0  0  0  0  0  0  0
   14.9690   35.2350   70.5110 C   0  0  0  0  0  0  0  0  0  0  0  0
   13.6590   35.0160   70.1600 C   0  0  0  0  0  0  0  0  0  0  0  0
   13.0770   33.7820   70.3810 C   0  0  0  0  0  0  0  0  0  0  0  0
   13.8430   32.7760   70.9640 C   0  0  0  0  0  0  0  0  0  0  0  0
   12.6630   36.4320   69.3640 B   0  0  0  0  0  0  0  0  0  0  0  0
   18.0480   30.2470   72.9100 H   0  0  0  0  0  0  0  0  0  0  0  0
   18.8290   30.4210   71.3300 H   0  0  0  0  0  0  0  0  0  0  0  0
   20.6650   30.5120   72.7590 H   0  0  0  0  0  0  0  0  0  0  0  0
   19.7290   31.3290   74.0300 H   0  0  0  0  0  0  0  0  0  0  0  0
   19.6790   34.5560   72.0310 H   0  0  0  0  0  0  0  0  0  0  0  0
   19.7230   34.1510   73.7630 H   0  0  0  0  0  0  0  0  0  0  0  0
   17.4620   34.1160   72.3570 H   0  0  0  0  0  0  0  0  0  0  0  0
   17.6880   33.0830   73.7890 H   0  0  0  0  0  0  0  0  0  0  0  0
   24.6780   33.1060   69.5980 H   0  0  0  0  0  0  0  0  0  0  0  0
   25.4040   31.7680   72.6380 H   0  0  0  0  0  0  0  0  0  0  0  0
   24.6390   30.3250   71.9250 H   0  0  0  0  0  0  0  0  0  0  0  0
   25.6950   31.2930   70.8710 H   0  0  0  0  0  0  0  0  0  0  0  0
   21.7080   33.8280   66.9670 H   0  0  0  0  0  0  0  0  0  0  0  0
   20.5590   34.4480   68.2610 H   0  0  0  0  0  0  0  0  0  0  0  0
   20.6250   36.1750   66.6310 H   0  0  0  0  0  0  0  0  0  0  0  0
   22.3990   36.0390   66.4140 H   0  0  0  0  0  0  0  0  0  0  0  0
   23.0580   37.1950   69.7420 H   0  0  0  0  0  0  0  0  0  0  0  0
   23.6670   37.6430   68.1170 H   0  0  0  0  0  0  0  0  0  0  0  0
   24.1860   35.3950   67.5820 H   0  0  0  0  0  0  0  0  0  0  0  0
   24.4680   35.4100   69.3580 H   0  0  0  0  0  0  0  0  0  0  0  0
   16.7350   34.3870   71.3660 H   0  0  0  0  0  0  0  0  0  0  0  0
   15.4030   36.2090   70.3270 H   0  0  0  0  0  0  0  0  0  0  0  0
   12.0430   33.6020   70.1060 H   0  0  0  0  0  0  0  0  0  0  0  0
   13.3970   31.8000   71.1460 H   0  0  0  0  0  0  0  0  0  0  0  0
  1  3  2  0  0  0  0
  2  1  2  0  0  0  0
  4  1  1  0  0  0  0
  4  5  1  0  0  0  0
  4  9  1  0  0  0  0
  5 30  1  0  0  0  0
  5  6  1  0  0  0  0
  6 33  1  0  0  0  0
  7  8  1  0  0  0  0
  7  6  1  0  0  0  0
  8  9  1  0  0  0  0
  8 35  1  0  0  0  0
  9 37  1  0  0  0  0
 10 15  1  0  0  0  0
 10  7  1  0  0  0  0
 11 10  2  0  0  0  0
 12 13  2  0  0  0  0
 12 11  1  0  0  0  0
 13 14  1  0  0  0  0
 14 16  1  0  0  0  0
 14 15  2  0  0  0  0
 16 40  1  0  0  0  0
 16 39  1  0  0  0  0
 17 12  1  0  0  0  0
 18 43  1  0  0  0  0
 18 17  1  0  0  0  0
 19 18  1  0  0  0  0
 19 20  1  0  0  0  0
 20 21  1  0  0  0  0
 21 46  1  0  0  0  0
 22 21  1  0  0  0  0
 22 17  1  0  0  0  0
 22 49  1  0  0  0  0
 23  1  1  0  0  0  0
 24 23  1  0  0  0  0
 24 50  1  0  0  0  0
 25 24  2  0  0  0  0
 26 27  2  0  0  0  0
 26 25  1  0  0  0  0
 27 28  1  0  0  0  0
 28 53  1  0  0  0  0
 28 23  2  0  0  0  0
 29 26  1  0  0  0  0
 31  5  1  0  0  0  0
 32  6  1  0  0  0  0
 34  8  1  0  0  0  0
 36  9  1  0  0  0  0
 38 13  1  0  0  0  0
 41 16  1  0  0  0  0
 42 18  1  0  0  0  0
 44 19  1  0  0  0  0
 45 19  1  0  0  0  0
 47 21  1  0  0  0  0
 48 22  1  0  0  0  0
 51 25  1  0  0  0  0
 52 27  1  0  0  0  0
M  END
>  <Pose>
1

>  <Score>
-6.55

$$$$
