
 OpenBabel03212208413D

 43 46  0  0  0  0  0  0  0  0999 V2000
   15.9390   29.5560   72.5150 S   0  0  0  0  0  0  0  0  0  0  0  0
   16.6740   28.2710   72.1530 O   0  0  0  0  0  0  0  0  0  0  0  0
   14.9260   29.7740   71.4300 O   0  0  0  0  0  0  0  0  0  0  0  0
   17.0880   30.8100   72.5310 N   0  0  0  0  0  0  0  0  0  0  0  0
   17.7070   31.0910   71.2910 C   0  0  0  0  0  0  0  0  0  0  0  0
   17.1070   32.1950   70.4930 C   0  0  0  0  0  0  0  0  0  0  0  0
   16.7390   33.3370   71.3450 N   0  0  0  0  0  0  0  0  0  0  0  0
   17.2190   33.2510   72.7070 C   0  0  0  0  0  0  0  0  0  0  0  0
   16.6640   31.9610   73.2800 C   0  0  0  0  0  0  0  0  0  0  0  0
   15.9750   34.4100   70.8300 C   0  0  0  0  0  0  0  0  0  0  0  0
   14.6030   34.2450   70.6890 C   0  0  0  0  0  0  0  0  0  0  0  0
   13.8610   35.3100   70.1800 C   0  0  0  0  0  0  0  0  0  0  0  0
   14.4340   36.4560   69.8360 N   0  0  0  0  0  0  0  0  0  0  0  0
   13.4660   37.2720   69.3870 C   0  0  0  0  0  0  0  0  0  0  0  0
   12.3020   36.6000   69.4670 N   0  0  0  0  0  0  0  0  0  0  0  0
   12.5390   35.3940   69.9530 N   0  0  0  0  0  0  0  0  0  0  0  0
   13.6420   38.6740   68.8890 C   0  0  0  0  0  0  0  0  0  0  0  0
   15.7200   36.6240   69.9630 N   0  0  0  0  0  0  0  0  0  0  0  0
   16.4900   35.6170   70.4540 C   0  0  0  0  0  0  0  0  0  0  0  0
   15.1950   29.2770   74.0660 C   0  0  0  0  0  0  0  0  0  0  0  0
   15.9100   28.7570   75.1360 C   0  0  0  0  0  0  0  0  0  0  0  0
   15.3210   28.5370   76.3620 C   0  0  0  0  0  0  0  0  0  0  0  0
   13.9790   28.8460   76.5210 C   0  0  0  0  0  0  0  0  0  0  0  0
   13.2260   29.3670   75.4870 C   0  0  0  0  0  0  0  0  0  0  0  0
   13.8530   29.5710   74.2790 C   0  0  0  0  0  0  0  0  0  0  0  0
   13.1760   28.5340   78.2320 B   0  0  0  0  0  0  0  0  0  0  0  0
   18.7920   31.3350   71.4860 H   0  0  0  0  0  0  0  0  0  0  0  0
   17.7290   30.1670   70.6840 H   0  0  0  0  0  0  0  0  0  0  0  0
   17.8730   32.5810   69.7840 H   0  0  0  0  0  0  0  0  0  0  0  0
   16.2500   31.8550   69.8870 H   0  0  0  0  0  0  0  0  0  0  0  0
   16.9060   34.0620   73.3600 H   0  0  0  0  0  0  0  0  0  0  0  0
   18.3420   33.1240   72.6940 H   0  0  0  0  0  0  0  0  0  0  0  0
   16.9150   31.8420   74.3520 H   0  0  0  0  0  0  0  0  0  0  0  0
   15.5590   32.0270   73.2120 H   0  0  0  0  0  0  0  0  0  0  0  0
   14.0870   33.3350   70.9530 H   0  0  0  0  0  0  0  0  0  0  0  0
   14.7050   38.8400   68.5890 H   0  0  0  0  0  0  0  0  0  0  0  0
   13.0270   38.8260   68.0010 H   0  0  0  0  0  0  0  0  0  0  0  0
   13.3730   39.4130   69.6690 H   0  0  0  0  0  0  0  0  0  0  0  0
   17.5290   35.8090   70.5360 H   0  0  0  0  0  0  0  0  0  0  0  0
   16.9620   28.5270   74.9670 H   0  0  0  0  0  0  0  0  0  0  0  0
   15.9330   28.1310   77.1470 H   0  0  0  0  0  0  0  0  0  0  0  0
   12.1840   29.5880   75.6760 H   0  0  0  0  0  0  0  0  0  0  0  0
   13.2770   29.9710   73.4750 H   0  0  0  0  0  0  0  0  0  0  0  0
  1  4  1  0  0  0  0
  1 20  1  0  0  0  0
  2  1  2  0  0  0  0
  3  1  2  0  0  0  0
  4  9  1  0  0  0  0
  5 27  1  0  0  0  0
  5  4  1  0  0  0  0
  6  5  1  0  0  0  0
  6  7  1  0  0  0  0
  7  8  1  0  0  0  0
  8  9  1  0  0  0  0
  8 31  1  0  0  0  0
  9 33  1  0  0  0  0
 10  7  1  0  0  0  0
 11 10  2  0  0  0  0
 11 35  1  0  0  0  0
 12 11  1  0  0  0  0
 13 18  1  0  0  0  0
 13 12  1  0  0  0  0
 14 15  2  0  0  0  0
 14 13  1  0  0  0  0
 15 16  1  0  0  0  0
 16 12  2  0  0  0  0
 17 14  1  0  0  0  0
 17 38  1  0  0  0  0
 18 19  2  0  0  0  0
 19 39  1  0  0  0  0
 19 10  1  0  0  0  0
 20 25  2  0  0  0  0
 20 21  1  0  0  0  0
 21 22  2  0  0  0  0
 22 23  1  0  0  0  0
 22 41  1  0  0  0  0
 23 26  1  0  0  0  0
 24 42  1  0  0  0  0
 24 23  2  0  0  0  0
 25 24  1  0  0  0  0
 28  5  1  0  0  0  0
 29  6  1  0  0  0  0
 30  6  1  0  0  0  0
 32  8  1  0  0  0  0
 34  9  1  0  0  0  0
 36 17  1  0  0  0  0
 37 17  1  0  0  0  0
 40 21  1  0  0  0  0
 43 25  1  0  0  0  0
M  END
>  <Pose>
1

>  <Score>
-6.03

$$$$
