
 OpenBabel03212208413D

 57 60  0  0  1  0  0  0  0  0999 V2000
   19.4940   32.2900   71.5270 S   0  0  0  0  0  0  0  0  0  0  0  0
   19.5890   30.8170   71.7640 O   0  0  0  0  0  0  0  0  0  0  0  0
   19.7290   32.9510   72.8800 O   0  0  0  0  0  0  0  0  0  0  0  0
   18.0140   32.7960   70.8610 N   0  0  0  0  0  0  0  0  0  0  0  0
   17.9720   34.2170   70.7880 C   0  0  0  0  0  0  0  0  0  0  0  0
   16.8290   34.8570   71.5430 C   0  0  0  0  0  0  0  0  0  0  0  0
   16.6900   34.2630   72.8750 N   0  0  0  0  0  0  0  0  0  0  0  0
   16.7290   32.8180   72.8570 C   0  0  0  0  0  0  0  0  0  0  0  0
   16.6710   32.1400   73.8860 O   0  0  0  0  0  0  0  0  0  0  0  0
   16.8470   32.2680   71.4660 C   0  0  2  0  0  0  0  0  0  0  0  0
   16.6390   30.8070   71.4050 C   0  0  0  0  0  0  0  0  0  0  0  0
   15.2020   30.5010   71.5960 C   0  0  0  0  0  0  0  0  0  0  0  0
   14.4620   30.6100   70.5820 O   0  0  0  0  0  0  0  0  0  0  0  0
   14.6760   30.1030   72.8630 N   0  0  0  0  0  0  0  0  0  0  0  0
   13.4530   30.6670   73.3660 C   0  0  0  0  0  0  0  0  0  0  0  0
   12.6750   29.7490   74.2560 C   0  0  0  0  0  0  0  0  0  0  0  0
   13.5000   28.8310   75.0230 N   0  0  0  0  0  0  0  0  0  0  0  0
   14.4630   28.0830   74.2300 C   0  0  0  0  0  0  0  0  0  0  0  0
   15.3910   29.1220   73.6370 C   0  0  0  0  0  0  0  0  0  0  0  0
   13.4150   28.6230   76.4060 C   0  0  0  0  0  0  0  0  0  0  0  0
   14.5530   28.7190   77.1760 C   0  0  0  0  0  0  0  0  0  0  0  0
   14.4680   28.4980   78.5420 C   0  0  0  0  0  0  0  0  0  0  0  0
   13.2890   28.1840   79.1720 C   0  0  0  0  0  0  0  0  0  0  0  0
   12.1550   28.0900   78.3990 C   0  0  0  0  0  0  0  0  0  0  0  0
   12.2320   28.3090   77.0310 C   0  0  0  0  0  0  0  0  0  0  0  0
   20.8530   32.7710   70.5270 C   0  0  0  0  0  0  0  0  0  0  0  0
   20.7160   33.6380   69.4500 C   0  0  0  0  0  0  0  0  0  0  0  0
   21.7580   34.0240   68.6550 C   0  0  0  0  0  0  0  0  0  0  0  0
   23.0220   33.5530   68.9020 C   0  0  0  0  0  0  0  0  0  0  0  0
   23.1990   32.6780   69.9800 C   0  0  0  0  0  0  0  0  0  0  0  0
   22.1270   32.3100   70.7580 C   0  0  0  0  0  0  0  0  0  0  0  0
   24.5130   34.0540   67.8320 B   0  0  0  0  0  0  0  0  0  0  0  0
   17.8450   34.5280   69.7170 H   0  0  0  0  0  0  0  0  0  0  0  0
   18.8940   34.7280   71.1350 H   0  0  0  0  0  0  0  0  0  0  0  0
   15.9030   34.7790   70.9530 H   0  0  0  0  0  0  0  0  0  0  0  0
   17.0550   35.9270   71.6800 H   0  0  0  0  0  0  0  0  0  0  0  0
   16.5760   34.7820   73.7450 H   0  0  0  0  0  0  0  0  0  0  0  0
   15.9730   32.7380   70.9230 H   0  0  0  0  0  0  0  0  0  0  0  0
   17.2580   30.3680   72.2440 H   0  0  0  0  0  0  0  0  0  0  0  0
   17.0340   30.3040   70.5010 H   0  0  0  0  0  0  0  0  0  0  0  0
   13.6270   31.6280   73.9150 H   0  0  0  0  0  0  0  0  0  0  0  0
   12.7550   30.9610   72.5350 H   0  0  0  0  0  0  0  0  0  0  0  0
   12.0870   30.3620   74.9500 H   0  0  0  0  0  0  0  0  0  0  0  0
   11.9520   29.1260   73.6760 H   0  0  0  0  0  0  0  0  0  0  0  0
   13.9280   27.6290   73.3610 H   0  0  0  0  0  0  0  0  0  0  0  0
   15.0500   27.3540   74.7640 H   0  0  0  0  0  0  0  0  0  0  0  0
   15.9470   29.6720   74.4240 H   0  0  0  0  0  0  0  0  0  0  0  0
   16.1570   28.6370   73.0010 H   0  0  0  0  0  0  0  0  0  0  0  0
   15.5400   28.9680   76.7740 H   0  0  0  0  0  0  0  0  0  0  0  0
   15.3590   28.5710   79.1580 H   0  0  0  0  0  0  0  0  0  0  0  0
   13.2370   28.0130   80.2500 H   0  0  0  0  0  0  0  0  0  0  0  0
   11.2080   27.8430   78.8740 H   0  0  0  0  0  0  0  0  0  0  0  0
   11.2920   28.2080   76.5070 H   0  0  0  0  0  0  0  0  0  0  0  0
   19.7450   34.0350   69.2200 H   0  0  0  0  0  0  0  0  0  0  0  0
   21.6390   34.7080   67.8070 H   0  0  0  0  0  0  0  0  0  0  0  0
   24.2060   32.3290   70.1410 H   0  0  0  0  0  0  0  0  0  0  0  0
   22.2940   31.6370   71.5780 H   0  0  0  0  0  0  0  0  0  0  0  0
  1  2  2  0  0  0  0
  1  3  2  0  0  0  0
  4 10  1  0  0  0  0
  4  1  1  0  0  0  0
  5  4  1  0  0  0  0
  5 34  1  0  0  0  0
  5  6  1  0  0  0  0
  6 36  1  0  0  0  0
  6  7  1  0  0  0  0
  7 37  1  0  0  0  0
  8  7  1  0  0  0  0
  8  9  2  0  0  0  0
 10 38  1  6  0  0  0
 10  8  1  0  0  0  0
 11 10  1  0  0  0  0
 11 12  1  0  0  0  0
 11 39  1  0  0  0  0
 12 14  1  0  0  0  0
 13 12  2  0  0  0  0
 14 15  1  0  0  0  0
 14 19  1  0  0  0  0
 15 41  1  0  0  0  0
 15 16  1  0  0  0  0
 16 43  1  0  0  0  0
 16 17  1  0  0  0  0
 17 20  1  0  0  0  0
 18 46  1  0  0  0  0
 18 17  1  0  0  0  0
 19 18  1  0  0  0  0
 19 47  1  0  0  0  0
 20 25  2  0  0  0  0
 20 21  1  0  0  0  0
 21 22  2  0  0  0  0
 22 50  1  0  0  0  0
 22 23  1  0  0  0  0
 23 51  1  0  0  0  0
 24 52  1  0  0  0  0
 24 23  2  0  0  0  0
 25 24  1  0  0  0  0
 26 31  1  0  0  0  0
 26  1  1  0  0  0  0
 27 26  2  0  0  0  0
 28 29  2  0  0  0  0
 28 27  1  0  0  0  0
 29 30  1  0  0  0  0
 30 56  1  0  0  0  0
 30 31  2  0  0  0  0
 31 57  1  0  0  0  0
 32 29  1  0  0  0  0
 33  5  1  0  0  0  0
 35  6  1  0  0  0  0
 40 11  1  0  0  0  0
 42 15  1  0  0  0  0
 44 16  1  0  0  0  0
 45 18  1  0  0  0  0
 48 19  1  0  0  0  0
 49 21  1  0  0  0  0
 53 25  1  0  0  0  0
 54 27  1  0  0  0  0
 55 28  1  0  0  0  0
M  END
>  <Pose>
1

>  <Score>
-6.03

$$$$
