
 OpenBabel03212208413D

 43 46  0  0  0  0  0  0  0  0999 V2000
   13.4560   33.7720   70.8550 S   0  0  0  0  0  0  0  0  0  0  0  0
   13.3230   33.3020   69.4310 O   0  0  0  0  0  0  0  0  0  0  0  0
   12.0780   33.8660   71.4260 O   0  0  0  0  0  0  0  0  0  0  0  0
   14.2390   35.2920   70.8530 N   0  0  0  0  0  0  0  0  0  0  0  0
   13.5700   36.2980   70.1150 C   0  0  0  0  0  0  0  0  0  0  0  0
   14.4280   37.2750   69.3810 C   0  0  0  0  0  0  0  0  0  0  0  0
   15.5800   37.4940   70.1710 O   0  0  0  0  0  0  0  0  0  0  0  0
   16.3300   36.3240   70.0190 C   0  0  0  0  0  0  0  0  0  0  0  0
   15.6510   35.2200   70.7490 C   0  0  0  0  0  0  0  0  0  0  0  0
   14.4150   32.5630   71.7170 C   0  0  0  0  0  0  0  0  0  0  0  0
   15.4870   32.7780   72.4990 N   0  0  0  0  0  0  0  0  0  0  0  0
   15.9240   31.5920   72.9620 C   0  0  0  0  0  0  0  0  0  0  0  0
   15.1540   30.5970   72.4980 N   0  0  0  0  0  0  0  0  0  0  0  0
   14.2260   31.1910   71.7320 C   0  0  0  0  0  0  0  0  0  0  0  0
   15.3050   29.1830   72.7730 C   0  0  0  0  0  0  0  0  0  0  0  0
   14.5790   28.7560   73.9910 C   0  0  0  0  0  0  0  0  0  0  0  0
   15.1400   28.1090   75.0300 N   0  0  0  0  0  0  0  0  0  0  0  0
   14.2240   27.8870   75.9230 O   0  0  0  0  0  0  0  0  0  0  0  0
   13.0700   28.3560   75.5340 C   0  0  0  0  0  0  0  0  0  0  0  0
   13.2880   28.9000   74.3260 N   0  0  0  0  0  0  0  0  0  0  0  0
   11.8230   28.2790   76.2960 C   0  0  0  0  0  0  0  0  0  0  0  0
   10.6140   28.6760   75.7620 C   0  0  0  0  0  0  0  0  0  0  0  0
    9.4360   28.5970   76.5000 C   0  0  0  0  0  0  0  0  0  0  0  0
    9.4370   28.1180   77.7910 C   0  0  0  0  0  0  0  0  0  0  0  0
   10.6430   27.7200   78.3270 C   0  0  0  0  0  0  0  0  0  0  0  0
   11.8240   27.8010   77.5850 C   0  0  0  0  0  0  0  0  0  0  0  0
    7.7710   29.1530   75.7410 B   0  0  0  0  0  0  0  0  0  0  0  0
   12.8110   35.8450   69.4250 H   0  0  0  0  0  0  0  0  0  0  0  0
   12.9660   36.9040   70.8550 H   0  0  0  0  0  0  0  0  0  0  0  0
   13.9210   38.2670   69.3370 H   0  0  0  0  0  0  0  0  0  0  0  0
   14.7260   36.9680   68.3700 H   0  0  0  0  0  0  0  0  0  0  0  0
   16.4150   36.1530   68.9280 H   0  0  0  0  0  0  0  0  0  0  0  0
   17.3580   36.4330   70.4050 H   0  0  0  0  0  0  0  0  0  0  0  0
   16.0700   35.2060   71.7930 H   0  0  0  0  0  0  0  0  0  0  0  0
   15.9350   34.2200   70.3290 H   0  0  0  0  0  0  0  0  0  0  0  0
   16.7720   31.4400   73.6190 H   0  0  0  0  0  0  0  0  0  0  0  0
   13.4420   30.6760   71.1990 H   0  0  0  0  0  0  0  0  0  0  0  0
   16.3790   28.9750   72.9000 H   0  0  0  0  0  0  0  0  0  0  0  0
   14.9420   28.5440   71.9410 H   0  0  0  0  0  0  0  0  0  0  0  0
   10.6080   29.0530   74.7500 H   0  0  0  0  0  0  0  0  0  0  0  0
    8.5070   28.0610   78.3580 H   0  0  0  0  0  0  0  0  0  0  0  0
   10.6870   27.3390   79.3370 H   0  0  0  0  0  0  0  0  0  0  0  0
   12.7820   27.4940   77.9870 H   0  0  0  0  0  0  0  0  0  0  0  0
  1  3  2  0  0  0  0
  1 10  1  0  0  0  0
  2  1  2  0  0  0  0
  4  1  1  0  0  0  0
  5  4  1  0  0  0  0
  5 29  1  0  0  0  0
  6  5  1  0  0  0  0
  6  7  1  0  0  0  0
  8  7  1  0  0  0  0
  8 33  1  0  0  0  0
  8  9  1  0  0  0  0
  9  4  1  0  0  0  0
  9 34  1  0  0  0  0
 10 14  2  0  0  0  0
 10 11  1  0  0  0  0
 11 12  2  0  0  0  0
 12 36  1  0  0  0  0
 13 15  1  0  0  0  0
 13 12  1  0  0  0  0
 14 13  1  0  0  0  0
 15 38  1  0  0  0  0
 15 16  1  0  0  0  0
 16 20  1  0  0  0  0
 16 17  2  0  0  0  0
 17 18  1  0  0  0  0
 19 18  1  0  0  0  0
 19 21  1  0  0  0  0
 20 19  2  0  0  0  0
 21 26  1  0  0  0  0
 22 21  2  0  0  0  0
 22 23  1  0  0  0  0
 23 24  2  0  0  0  0
 24 25  1  0  0  0  0
 24 41  1  0  0  0  0
 25 42  1  0  0  0  0
 26 43  1  0  0  0  0
 26 25  2  0  0  0  0
 27 23  1  0  0  0  0
 28  5  1  0  0  0  0
 30  6  1  0  0  0  0
 31  6  1  0  0  0  0
 32  8  1  0  0  0  0
 35  9  1  0  0  0  0
 37 14  1  0  0  0  0
 39 15  1  0  0  0  0
 40 22  1  0  0  0  0
M  END
>  <Pose>
1

>  <Score>
-6.24

$$$$
