
 OpenBabel03212208413D

 37 40  0  0  0  0  0  0  0  0999 V2000
   16.4020   33.6440   72.2780 S   0  0  0  0  0  0  0  0  0  0  0  0
   15.2070   32.9120   71.1270 C   0  0  0  0  0  0  0  0  0  0  0  0
   13.8840   33.5640   71.3440 C   0  0  0  0  0  0  0  0  0  0  0  0
   12.8070   32.8880   71.2960 O   0  0  0  0  0  0  0  0  0  0  0  0
   13.7750   34.9450   71.6070 N   0  0  0  0  0  0  0  0  0  0  0  0
   13.9320   35.9090   70.5810 C   0  0  0  0  0  0  0  0  0  0  0  0
   14.8400   36.8960   70.5040 N   0  0  0  0  0  0  0  0  0  0  0  0
   14.6730   37.5830   69.4080 O   0  0  0  0  0  0  0  0  0  0  0  0
   13.6770   37.0660   68.7720 N   0  0  0  0  0  0  0  0  0  0  0  0
   13.1590   36.0220   69.4310 C   0  0  0  0  0  0  0  0  0  0  0  0
   12.0660   35.2290   69.0220 N   0  0  0  0  0  0  0  0  0  0  0  0
   18.0120   33.6840   71.4620 C   0  0  0  0  0  0  0  0  0  0  0  0
   18.8150   32.6070   71.4520 N   0  0  0  0  0  0  0  0  0  0  0  0
   20.0030   32.5810   70.8700 N   0  0  0  0  0  0  0  0  0  0  0  0
   20.4880   33.6690   70.2340 C   0  0  0  0  0  0  0  0  0  0  0  0
   19.6810   34.7880   70.2310 C   0  0  0  0  0  0  0  0  0  0  0  0
   20.3650   35.7280   69.5500 N   0  0  0  0  0  0  0  0  0  0  0  0
   21.5510   35.2570   69.1310 C   0  0  0  0  0  0  0  0  0  0  0  0
   21.6590   33.9480   69.5500 C   0  0  0  0  0  0  0  0  0  0  0  0
   22.7720   33.1650   69.2810 C   0  0  0  0  0  0  0  0  0  0  0  0
   23.7930   33.7570   68.5590 C   0  0  0  0  0  0  0  0  0  0  0  0
   23.7100   35.0640   68.1270 C   0  0  0  0  0  0  0  0  0  0  0  0
   22.5980   35.8230   68.4050 C   0  0  0  0  0  0  0  0  0  0  0  0
   25.3280   32.6760   68.1880 B   0  0  0  0  0  0  0  0  0  0  0  0
   19.8540   37.0650   69.3190 C   0  0  0  0  0  0  0  0  0  0  0  0
   18.4570   34.7890   70.8390 N   0  0  0  0  0  0  0  0  0  0  0  0
   15.5420   32.9720   70.0830 H   0  0  0  0  0  0  0  0  0  0  0  0
   15.0670   31.8440   71.4670 H   0  0  0  0  0  0  0  0  0  0  0  0
   13.5720   35.2500   72.5830 H   0  0  0  0  0  0  0  0  0  0  0  0
   11.1360   35.3830   69.4540 H   0  0  0  0  0  0  0  0  0  0  0  0
   12.1500   34.4870   68.2980 H   0  0  0  0  0  0  0  0  0  0  0  0
   22.8280   32.1350   69.6270 H   0  0  0  0  0  0  0  0  0  0  0  0
   24.5260   35.5130   67.5590 H   0  0  0  0  0  0  0  0  0  0  0  0
   22.4990   36.8530   68.0820 H   0  0  0  0  0  0  0  0  0  0  0  0
   18.7740   37.0410   69.1400 H   0  0  0  0  0  0  0  0  0  0  0  0
   20.1520   37.7580   70.1340 H   0  0  0  0  0  0  0  0  0  0  0  0
   20.3370   37.4480   68.3920 H   0  0  0  0  0  0  0  0  0  0  0  0
  2  3  1  0  0  0  0
  2 28  1  0  0  0  0
  2  1  1  0  0  0  0
  3  5  1  0  0  0  0
  4  3  2  0  0  0  0
  5 29  1  0  0  0  0
  6  5  1  0  0  0  0
  7  6  2  0  0  0  0
  8  7  1  0  0  0  0
  9  8  1  0  0  0  0
  9 10  2  0  0  0  0
 10  6  1  0  0  0  0
 11 10  1  0  0  0  0
 11 30  1  0  0  0  0
 12  1  1  0  0  0  0
 13 12  2  0  0  0  0
 14 13  1  0  0  0  0
 15 14  1  0  0  0  0
 16 15  2  0  0  0  0
 16 26  1  0  0  0  0
 17 16  1  0  0  0  0
 18 17  1  0  0  0  0
 18 19  1  0  0  0  0
 19 15  1  0  0  0  0
 20 19  2  0  0  0  0
 20 32  1  0  0  0  0
 21 20  1  0  0  0  0
 22 23  1  0  0  0  0
 22 21  2  0  0  0  0
 23 18  2  0  0  0  0
 24 21  1  0  0  0  0
 25 17  1  0  0  0  0
 25 36  1  0  0  0  0
 26 12  1  0  0  0  0
 27  2  1  0  0  0  0
 31 11  1  0  0  0  0
 33 22  1  0  0  0  0
 34 23  1  0  0  0  0
 35 25  1  0  0  0  0
 37 25  1  0  0  0  0
M  END
>  <Pose>
1

>  <Score>
-7.22

$$$$
