
 OpenBabel03212208413D

 34 37  0  0  1  0  0  0  0  0999 V2000
   13.1590   36.4740   69.4460 S   0  0  0  0  0  0  0  0  0  0  0  0
   14.8020   36.3380   69.8560 C   0  0  0  0  0  0  0  0  0  0  0  0
   14.9190   35.0400   70.2780 C   0  0  0  0  0  0  0  0  0  0  0  0
   13.7940   34.2890   70.2550 C   0  0  0  0  0  0  0  0  0  0  0  0
   12.6510   34.8920   69.8140 C   0  0  0  0  0  0  0  0  0  0  0  0
   13.7960   32.8350   70.6920 C   0  0  1  0  0  0  0  0  0  0  0  0
   14.2900   32.6540   72.1340 C   0  0  1  0  0  0  0  0  0  0  0  0
   12.8710   32.4490   71.7600 C   0  0  0  0  0  0  0  0  0  0  0  0
   15.1860   31.4580   72.3110 C   0  0  0  0  0  0  0  0  0  0  0  0
   16.3540   31.3990   72.9750 N   0  0  0  0  0  0  0  0  0  0  0  0
   16.8620   30.1560   72.9120 C   0  0  0  0  0  0  0  0  0  0  0  0
   15.9730   29.4540   72.1900 N   0  0  0  0  0  0  0  0  0  0  0  0
   14.9850   30.2490   71.8430 O   0  0  0  0  0  0  0  0  0  0  0  0
   18.1060   29.6490   73.4920 C   0  0  0  0  0  0  0  0  0  0  0  0
   19.3420   30.1160   73.2490 N   0  0  0  0  0  0  0  0  0  0  0  0
   20.2420   29.4170   73.9490 N   0  0  0  0  0  0  0  0  0  0  0  0
   19.5810   28.4770   74.6610 C   0  0  0  0  0  0  0  0  0  0  0  0
   18.2700   28.6390   74.3620 N   0  0  0  0  0  0  0  0  0  0  0  0
   21.6810   29.6240   73.9510 C   0  0  0  0  0  0  0  0  0  0  0  0
   21.9530   31.0400   74.2760 C   0  0  0  0  0  0  0  0  0  0  0  0
   22.3520   31.3260   75.4260 O   0  0  0  0  0  0  0  0  0  0  0  0
   21.7630   32.0410   73.2950 N   0  0  0  0  0  0  0  0  0  0  0  0
   16.2010   37.6650   69.7650 B   0  0  0  0  0  0  0  0  0  0  0  0
   15.9230   34.6650   70.6170 H   0  0  0  0  0  0  0  0  0  0  0  0
   11.6490   34.4210   69.7330 H   0  0  0  0  0  0  0  0  0  0  0  0
   14.0630   32.0730   69.9600 H   0  0  0  0  0  0  0  0  0  0  0  0
   14.5840   33.5380   72.6990 H   0  0  0  0  0  0  0  0  0  0  0  0
   12.5270   31.3840   71.8100 H   0  0  0  0  0  0  0  0  0  0  0  0
   12.1580   33.1970   72.1720 H   0  0  0  0  0  0  0  0  0  0  0  0
   20.0420   27.7580   75.3210 H   0  0  0  0  0  0  0  0  0  0  0  0
   22.0860   29.3130   72.9710 H   0  0  0  0  0  0  0  0  0  0  0  0
   22.1680   29.0150   74.7480 H   0  0  0  0  0  0  0  0  0  0  0  0
   22.5360   32.7110   73.0270 H   0  0  0  0  0  0  0  0  0  0  0  0
   20.8640   32.1860   72.7740 H   0  0  0  0  0  0  0  0  0  0  0  0
  1  5  1  0  0  0  0
  1  2  1  0  0  0  0
  2  3  2  0  0  0  0
  3 24  1  0  0  0  0
  4  3  1  0  0  0  0
  4  6  1  0  0  0  0
  5  4  2  0  0  0  0
  6 26  1  6  0  0  0
  6  8  1  0  0  0  0
  6  7  1  0  0  0  0
  7  9  1  0  0  0  0
  7 27  1  1  0  0  0
  8 28  1  0  0  0  0
  8  7  1  0  0  0  0
  8 29  1  0  0  0  0
  9 10  2  0  0  0  0
 11 10  1  0  0  0  0
 11 14  1  0  0  0  0
 12 11  2  0  0  0  0
 13 12  1  0  0  0  0
 13  9  1  0  0  0  0
 14 18  1  0  0  0  0
 15 14  2  0  0  0  0
 15 16  1  0  0  0  0
 16 19  1  0  0  0  0
 16 17  1  0  0  0  0
 17 30  1  0  0  0  0
 18 17  2  0  0  0  0
 19 20  1  0  0  0  0
 19 32  1  0  0  0  0
 20 21  2  0  0  0  0
 22 20  1  0  0  0  0
 23  2  1  0  0  0  0
 25  5  1  0  0  0  0
 31 19  1  0  0  0  0
 33 22  1  0  0  0  0
 34 22  1  0  0  0  0
M  END
>  <Pose>
1

>  <Score>
-6.48

$$$$
