
 OpenBabel03212208413D

 51 54  0  0  0  0  0  0  0  0999 V2000
   19.9040   34.7220   72.0190 S   0  0  0  0  0  0  0  0  0  0  0  0
   20.5760   35.2990   70.5680 C   0  0  0  0  0  0  0  0  0  0  0  0
   20.3520   34.2670   69.7000 C   0  0  0  0  0  0  0  0  0  0  0  0
   19.7270   33.1850   70.1700 C   0  0  0  0  0  0  0  0  0  0  0  0
   19.3550   33.1880   71.4910 C   0  0  0  0  0  0  0  0  0  0  0  0
   18.6550   32.1320   72.2300 C   0  0  0  0  0  0  0  0  0  0  0  0
   18.8800   30.9460   71.8820 O   0  0  0  0  0  0  0  0  0  0  0  0
   17.7230   32.4390   73.3420 C   0  0  0  0  0  0  0  0  0  0  0  0
   16.3910   31.9580   73.0760 N   0  0  0  0  0  0  0  0  0  0  0  0
   15.5080   32.5680   72.2500 C   0  0  0  0  0  0  0  0  0  0  0  0
   14.3430   31.8630   72.2190 C   0  0  0  0  0  0  0  0  0  0  0  0
   13.2830   32.2920   71.4420 C   0  0  0  0  0  0  0  0  0  0  0  0
   13.4220   33.4420   70.6990 C   0  0  0  0  0  0  0  0  0  0  0  0
   14.5840   34.1710   70.7130 C   0  0  0  0  0  0  0  0  0  0  0  0
   15.6200   33.7150   71.4970 C   0  0  0  0  0  0  0  0  0  0  0  0
   14.5110   30.8130   73.0290 N   0  0  0  0  0  0  0  0  0  0  0  0
   15.7690   30.8760   73.5520 C   0  0  0  0  0  0  0  0  0  0  0  0
   16.1800   29.9680   74.3570 N   0  0  0  0  0  0  0  0  0  0  0  0
   13.4970   29.8020   73.2970 C   0  0  0  0  0  0  0  0  0  0  0  0
   12.5490   30.3510   74.3750 C   0  0  0  0  0  0  0  0  0  0  0  0
   11.3170   29.6170   74.4300 N   0  0  0  0  0  4  0  0  0  0  0  0
   11.4010   28.3770   75.1760 C   0  0  0  0  0  0  0  0  0  0  0  0
   11.9910   28.5820   76.5420 C   0  0  0  0  0  0  0  0  0  0  0  0
   11.3790   29.7200   77.2870 C   0  0  0  0  0  0  0  0  0  0  0  0
   10.8110   30.8130   76.4540 C   0  0  0  0  0  0  0  0  0  0  0  0
   10.3310   30.4290   75.1000 C   0  0  0  0  0  0  0  0  0  0  0  0
   21.4290   36.9770   70.2620 B   0  0  0  0  0  0  0  0  0  0  0  0
   20.6980   34.3740   68.6420 H   0  0  0  0  0  0  0  0  0  0  0  0
   19.5040   32.3010   69.5280 H   0  0  0  0  0  0  0  0  0  0  0  0
   17.7320   33.5360   73.5810 H   0  0  0  0  0  0  0  0  0  0  0  0
   18.1040   31.9570   74.2760 H   0  0  0  0  0  0  0  0  0  0  0  0
   12.3720   31.7040   71.4450 H   0  0  0  0  0  0  0  0  0  0  0  0
   12.6170   33.8140   70.0800 H   0  0  0  0  0  0  0  0  0  0  0  0
   14.7250   35.0820   70.1400 H   0  0  0  0  0  0  0  0  0  0  0  0
   16.5450   34.2580   71.5340 H   0  0  0  0  0  0  0  0  0  0  0  0
   17.0860   29.8780   74.8120 H   0  0  0  0  0  0  0  0  0  0  0  0
   13.9210   28.8410   73.6470 H   0  0  0  0  0  0  0  0  0  0  0  0
   12.8470   29.6440   72.4010 H   0  0  0  0  0  0  0  0  0  0  0  0
   12.3140   31.3910   74.0600 H   0  0  0  0  0  0  0  0  0  0  0  0
   13.1260   30.2920   75.3180 H   0  0  0  0  0  0  0  0  0  0  0  0
   11.0080   29.3510   73.4700 H   0  0  0  0  0  0  0  0  0  0  0  0
   10.3740   27.9850   75.2600 H   0  0  0  0  0  0  0  0  0  0  0  0
   12.0370   27.6620   74.6200 H   0  0  0  0  0  0  0  0  0  0  0  0
   13.1140   28.6680   76.4860 H   0  0  0  0  0  0  0  0  0  0  0  0
   11.8080   27.6450   77.1130 H   0  0  0  0  0  0  0  0  0  0  0  0
   10.5890   29.3230   77.9680 H   0  0  0  0  0  0  0  0  0  0  0  0
   12.1830   30.1730   77.9380 H   0  0  0  0  0  0  0  0  0  0  0  0
    9.9620   31.2680   77.0490 H   0  0  0  0  0  0  0  0  0  0  0  0
   11.5450   31.6490   76.3690 H   0  0  0  0  0  0  0  0  0  0  0  0
    9.3490   29.9110   75.1690 H   0  0  0  0  0  0  0  0  0  0  0  0
   10.2470   31.3650   74.4970 H   0  0  0  0  0  0  0  0  0  0  0  0
  2  1  1  0  0  0  0
  3  4  1  0  0  0  0
  3  2  2  0  0  0  0
  4  5  2  0  0  0  0
  5  1  1  0  0  0  0
  5  6  1  0  0  0  0
  6  8  1  0  0  0  0
  7  6  2  0  0  0  0
  8 30  1  0  0  0  0
  8 31  1  0  0  0  0
  9  8  1  0  0  0  0
  9 17  1  0  0  0  0
 10  9  1  0  0  0  0
 11 10  1  0  0  0  0
 11 16  1  0  0  0  0
 12 32  1  0  0  0  0
 12 11  2  0  0  0  0
 13 14  2  0  0  0  0
 13 12  1  0  0  0  0
 14 15  1  0  0  0  0
 15 35  1  0  0  0  0
 15 10  2  0  0  0  0
 16 19  1  0  0  0  0
 16 17  1  0  0  0  0
 17 18  2  0  0  0  0
 18 36  1  0  0  0  0
 19 37  1  0  0  0  0
 19 20  1  0  0  0  0
 20 21  1  0  0  0  0
 20 40  1  0  0  0  0
 21 26  1  0  0  0  0
 21 22  1  0  0  0  0
 22 42  1  0  0  0  0
 22 23  1  0  0  0  0
 23 45  1  0  0  0  0
 23 24  1  0  0  0  0
 24 47  1  0  0  0  0
 24 46  1  0  0  0  0
 25 48  1  0  0  0  0
 25 24  1  0  0  0  0
 26 50  1  0  0  0  0
 26 25  1  0  0  0  0
 27  2  1  0  0  0  0
 28  3  1  0  0  0  0
 29  4  1  0  0  0  0
 33 13  1  0  0  0  0
 34 14  1  0  0  0  0
 38 19  1  0  0  0  0
 39 20  1  0  0  0  0
 41 21  1  0  0  0  0
 43 22  1  0  0  0  0
 44 23  1  0  0  0  0
 49 25  1  0  0  0  0
 51 26  1  0  0  0  0
M  END
>  <Pose>
1

>  <Score>
-7.13

$$$$
