
 OpenBabel03212208413D

 42 45  0  0  1  0  0  0  0  0999 V2000
   14.9360   35.7780   70.3840 S   0  0  0  0  0  0  0  0  0  0  0  0
   13.6390   36.1740   69.1780 C   0  0  0  0  0  0  0  0  0  0  0  0
   12.5780   35.0940   69.2890 C   0  0  0  0  0  0  0  0  0  0  0  0
   12.2730   34.8090   70.7450 C   0  0  0  0  0  0  0  0  0  0  0  0
   13.2590   33.8390   71.1940 N   0  0  0  0  0  0  0  0  0  0  0  0
   14.5440   34.1810   71.0760 C   0  0  1  0  0  0  0  0  0  0  0  0
   15.3220   33.1450   71.5500 N   0  0  0  0  0  0  0  0  0  0  0  0
   14.5290   32.1690   71.9590 C   0  0  0  0  0  0  0  0  0  0  0  0
   13.2330   32.6240   71.7270 C   0  0  0  0  0  0  0  0  0  0  0  0
   14.8350   30.8700   72.5370 C   0  0  0  0  0  0  0  0  0  0  0  0
   16.0070   30.2060   72.1490 C   0  0  0  0  0  0  0  0  0  0  0  0
   16.3470   28.9830   72.6570 C   0  0  0  0  0  0  0  0  0  0  0  0
   15.5740   28.3160   73.5800 C   0  0  0  0  0  0  0  0  0  0  0  0
   14.4250   28.9570   73.9670 C   0  0  0  0  0  0  0  0  0  0  0  0
   14.0570   30.2110   73.4580 C   0  0  0  0  0  0  0  0  0  0  0  0
   15.9530   27.0760   74.0740 O   0  0  0  0  0  0  0  0  0  0  0  0
   16.5050   26.1010   73.2090 C   0  0  0  0  0  0  0  0  0  0  0  0
   16.7460   33.2140   71.5550 C   0  0  0  0  0  0  0  0  0  0  0  0
   17.4910   32.5600   70.5890 C   0  0  0  0  0  0  0  0  0  0  0  0
   18.8690   32.6310   70.5490 C   0  0  0  0  0  0  0  0  0  0  0  0
   19.5080   33.3850   71.5140 C   0  0  0  0  0  0  0  0  0  0  0  0
   18.7580   34.0320   72.4720 C   0  0  0  0  0  0  0  0  0  0  0  0
   17.3820   33.9750   72.5310 C   0  0  0  0  0  0  0  0  0  0  0  0
   21.4230   33.5420   71.5400 B   0  0  0  0  0  0  0  0  0  0  0  0
   13.1740   37.1470   69.4210 H   0  0  0  0  0  0  0  0  0  0  0  0
   14.1180   36.1710   68.1820 H   0  0  0  0  0  0  0  0  0  0  0  0
   11.6640   35.3770   68.7260 H   0  0  0  0  0  0  0  0  0  0  0  0
   12.9870   34.1820   68.7980 H   0  0  0  0  0  0  0  0  0  0  0  0
   12.5020   35.7580   71.3100 H   0  0  0  0  0  0  0  0  0  0  0  0
   11.2460   34.4720   70.9050 H   0  0  0  0  0  0  0  0  0  0  0  0
   12.2960   32.1120   71.9300 H   0  0  0  0  0  0  0  0  0  0  0  0
   16.6470   30.6880   71.4270 H   0  0  0  0  0  0  0  0  0  0  0  0
   17.2720   28.4680   72.3460 H   0  0  0  0  0  0  0  0  0  0  0  0
   13.7730   28.4930   74.6850 H   0  0  0  0  0  0  0  0  0  0  0  0
   13.1480   30.6610   73.7970 H   0  0  0  0  0  0  0  0  0  0  0  0
   16.8050   25.1930   73.7290 H   0  0  0  0  0  0  0  0  0  0  0  0
   17.3700   26.5660   72.6520 H   0  0  0  0  0  0  0  0  0  0  0  0
   15.7620   25.8480   72.4370 H   0  0  0  0  0  0  0  0  0  0  0  0
   17.0260   31.9580   69.8130 H   0  0  0  0  0  0  0  0  0  0  0  0
   19.4690   32.1290   69.8050 H   0  0  0  0  0  0  0  0  0  0  0  0
   19.2390   34.6390   73.2520 H   0  0  0  0  0  0  0  0  0  0  0  0
   16.8080   34.4900   73.2900 H   0  0  0  0  0  0  0  0  0  0  0  0
  2  3  1  0  0  0  0
  2 25  1  0  0  0  0
  2  1  1  0  0  0  0
  3  4  1  0  0  0  0
  4 30  1  0  0  0  0
  4  5  1  0  0  0  0
  4 29  1  0  0  0  0
  5  9  1  0  0  0  0
  6  1  1  6  0  0  0
  6  5  1  0  0  0  0
  6  7  1  0  0  0  0
  7 18  1  0  0  0  0
  7  8  1  0  0  0  0
  8 10  1  0  0  0  0
  9 31  1  0  0  0  0
  9  8  2  0  0  0  0
 10 15  1  0  0  0  0
 11 10  2  0  0  0  0
 11 12  1  0  0  0  0
 12 13  2  0  0  0  0
 13 14  1  0  0  0  0
 13 16  1  0  0  0  0
 14 34  1  0  0  0  0
 15 35  1  0  0  0  0
 15 14  2  0  0  0  0
 17 36  1  0  0  0  0
 17 16  1  0  0  0  0
 18 23  1  0  0  0  0
 19 18  2  0  0  0  0
 20 19  1  0  0  0  0
 20 21  2  0  0  0  0
 21 24  1  0  0  0  0
 21 22  1  0  0  0  0
 22 23  2  0  0  0  0
 22 41  1  0  0  0  0
 23 42  1  0  0  0  0
 26  2  1  0  0  0  0
 27  3  1  0  0  0  0
 28  3  1  0  0  0  0
 32 11  1  0  0  0  0
 33 12  1  0  0  0  0
 37 17  1  0  0  0  0
 38 17  1  0  0  0  0
 39 19  1  0  0  0  0
 40 20  1  0  0  0  0
M  END
>  <Pose>
1

>  <Score>
-6.08

$$$$
