
 OpenBabel03212208413D

 41 44  0  0  1  0  0  0  0  0999 V2000
   17.4530   30.7690   71.5900 S   0  0  0  0  0  0  0  0  0  0  0  0
   17.4290   29.6290   73.0450 C   0  0  0  0  0  0  0  0  0  0  0  0
   18.4860   30.0310   74.0410 C   0  0  0  0  0  0  0  0  0  0  0  0
   19.6810   30.7210   73.4190 C   0  0  0  0  0  0  0  0  0  0  0  0
   19.4220   32.0320   72.9650 N   0  0  1  0  0  0  0  0  0  0  0  0
   20.0600   33.3570   72.8820 C   0  0  1  0  0  0  0  0  0  0  0  0
   18.8290   34.1930   73.1380 C   0  0  0  0  0  0  0  0  0  0  0  0
   17.8370   33.5000   72.3300 N   0  0  0  0  0  0  0  0  0  0  0  0
   18.1440   32.2900   72.3200 C   0  0  1  0  0  0  0  0  0  0  0  0
   16.7470   34.1280   71.6230 C   0  0  0  0  0  0  0  0  0  0  0  0
   16.8440   35.2620   70.8790 C   0  0  0  0  0  0  0  0  0  0  0  0
   15.7580   35.8600   70.2520 C   0  0  0  0  0  0  0  0  0  0  0  0
   14.5140   35.3000   70.3750 C   0  0  0  0  0  0  0  0  0  0  0  0
   14.4110   34.1470   71.1290 C   0  0  0  0  0  0  0  0  0  0  0  0
   15.4810   33.5600   71.7460 C   0  0  0  0  0  0  0  0  0  0  0  0
   12.9560   36.0580   69.5480 B   0  0  0  0  0  0  0  0  0  0  0  0
   20.9930   33.5650   73.8520 O   0  0  0  0  0  0  0  0  0  0  0  0
   20.5610   33.6170   71.4920 C   0  0  0  0  0  0  0  0  0  0  0  0
   21.0540   32.6180   70.6740 C   0  0  0  0  0  0  0  0  0  0  0  0
   21.4920   32.9430   69.3960 C   0  0  0  0  0  0  0  0  0  0  0  0
   21.4550   34.2390   68.8970 C   0  0  0  0  0  0  0  0  0  0  0  0
   20.9680   35.2330   69.7010 C   0  0  0  0  0  0  0  0  0  0  0  0
   20.5310   34.9100   70.9850 C   0  0  0  0  0  0  0  0  0  0  0  0
   16.4530   29.8610   73.5600 H   0  0  0  0  0  0  0  0  0  0  0  0
   17.4700   28.5880   72.7050 H   0  0  0  0  0  0  0  0  0  0  0  0
   18.8640   29.0770   74.5160 H   0  0  0  0  0  0  0  0  0  0  0  0
   18.0900   30.7150   74.8220 H   0  0  0  0  0  0  0  0  0  0  0  0
   20.5810   30.6100   74.0580 H   0  0  0  0  0  0  0  0  0  0  0  0
   19.8970   30.0890   72.4920 H   0  0  0  0  0  0  0  0  0  0  0  0
   18.9280   35.2430   72.9730 H   0  0  0  0  0  0  0  0  0  0  0  0
   18.5480   33.9880   74.2200 H   0  0  0  0  0  0  0  0  0  0  0  0
   17.8190   35.7540   70.7470 H   0  0  0  0  0  0  0  0  0  0  0  0
   15.8890   36.7650   69.6700 H   0  0  0  0  0  0  0  0  0  0  0  0
   13.4140   33.7070   71.2260 H   0  0  0  0  0  0  0  0  0  0  0  0
   15.3720   32.6410   72.3360 H   0  0  0  0  0  0  0  0  0  0  0  0
   21.8630   33.1110   73.7230 H   0  0  0  0  0  0  0  0  0  0  0  0
   21.0940   31.6020   71.0510 H   0  0  0  0  0  0  0  0  0  0  0  0
   21.8700   32.1430   68.7870 H   0  0  0  0  0  0  0  0  0  0  0  0
   21.8030   34.4600   67.8950 H   0  0  0  0  0  0  0  0  0  0  0  0
   20.9100   36.2520   69.3560 H   0  0  0  0  0  0  0  0  0  0  0  0
   20.1500   35.6910   71.6260 H   0  0  0  0  0  0  0  0  0  0  0  0
  1  2  1  0  0  0  0
  2 24  1  0  0  0  0
  2  3  1  0  0  0  0
  3 26  1  0  0  0  0
  3 27  1  0  0  0  0
  4  3  1  0  0  0  0
  4 28  1  0  0  0  0
  5  4  1  6  0  0  0
  6  5  1  0  0  0  0
  6  7  1  0  0  0  0
  6 17  1  1  0  0  0
  7 31  1  0  0  0  0
  8  7  1  0  0  0  0
  9  1  1  6  0  0  0
  9  8  1  0  0  0  0
  9  5  1  0  0  0  0
 10 15  1  0  0  0  0
 10  8  1  0  0  0  0
 11 10  2  0  0  0  0
 12 13  2  0  0  0  0
 12 11  1  0  0  0  0
 13 14  1  0  0  0  0
 14 34  1  0  0  0  0
 14 15  2  0  0  0  0
 15 35  1  0  0  0  0
 16 13  1  0  0  0  0
 18  6  1  0  0  0  0
 19 37  1  0  0  0  0
 19 18  2  0  0  0  0
 20 19  1  0  0  0  0
 21 20  2  0  0  0  0
 21 22  1  0  0  0  0
 22 23  2  0  0  0  0
 23 18  1  0  0  0  0
 23 41  1  0  0  0  0
 25  2  1  0  0  0  0
 29  4  1  0  0  0  0
 30  7  1  0  0  0  0
 32 11  1  0  0  0  0
 33 12  1  0  0  0  0
 36 17  1  0  0  0  0
 38 20  1  0  0  0  0
 39 21  1  0  0  0  0
 40 22  1  0  0  0  0
M  END
>  <Pose>
1

>  <Score>
-5.12

$$$$
