
 OpenBabel03212208413D

 45 48  0  0  1  0  0  0  0  0999 V2000
   19.3900   31.9620   69.9970 S   0  0  0  0  0  0  0  0  0  0  0  0
   20.9260   32.9180   69.6650 C   0  0  0  0  0  0  0  0  0  0  0  0
   20.5210   34.3800   69.7870 C   0  0  0  0  0  0  0  0  0  0  0  0
   20.2070   34.7580   71.2000 C   0  0  0  0  0  0  0  0  0  0  0  0
   19.0770   34.0870   71.7650 N   0  0  2  0  0  0  0  0  0  0  0  0
   17.9540   34.4680   72.6270 C   0  0  1  0  0  0  0  0  0  0  0  0
   17.9660   33.2080   73.5130 C   0  0  0  0  0  0  0  0  0  0  0  0
   18.1670   32.1640   72.5250 N   0  0  0  0  0  0  0  0  0  0  0  0
   18.8050   32.6760   71.5510 C   0  0  1  0  0  0  0  0  0  0  0  0
   17.6870   30.8130   72.7100 C   0  0  0  0  0  0  0  0  0  0  0  0
   18.4380   29.9090   73.4550 C   0  0  0  0  0  0  0  0  0  0  0  0
   18.0090   28.6140   73.6470 C   0  0  0  0  0  0  0  0  0  0  0  0
   16.8270   28.1390   73.1200 C   0  0  0  0  0  0  0  0  0  0  0  0
   16.0800   29.0250   72.3820 C   0  0  0  0  0  0  0  0  0  0  0  0
   16.5210   30.3440   72.1890 C   0  0  0  0  0  0  0  0  0  0  0  0
   16.4260   26.8250   73.3370 O   0  0  0  0  0  0  0  0  0  0  0  0
   16.8920   25.7070   72.6370 C   0  0  0  0  0  0  0  0  0  0  0  0
   18.2800   35.5910   73.3510 O   0  0  0  0  0  0  0  0  0  0  0  0
   16.6770   34.5540   71.8970 C   0  0  0  0  0  0  0  0  0  0  0  0
   15.5890   33.7300   72.0840 C   0  0  0  0  0  0  0  0  0  0  0  0
   14.4270   33.9010   71.3500 C   0  0  0  0  0  0  0  0  0  0  0  0
   14.3400   34.8990   70.4230 C   0  0  0  0  0  0  0  0  0  0  0  0
   15.4190   35.7320   70.2230 C   0  0  0  0  0  0  0  0  0  0  0  0
   16.5640   35.5520   70.9560 C   0  0  0  0  0  0  0  0  0  0  0  0
   12.7570   35.1880   69.3710 B   0  0  0  0  0  0  0  0  0  0  0  0
   21.2610   32.6810   68.6590 H   0  0  0  0  0  0  0  0  0  0  0  0
   21.6580   32.6410   70.4600 H   0  0  0  0  0  0  0  0  0  0  0  0
   19.6390   34.5400   69.1280 H   0  0  0  0  0  0  0  0  0  0  0  0
   21.3130   35.0500   69.4120 H   0  0  0  0  0  0  0  0  0  0  0  0
   21.1150   34.5510   71.8070 H   0  0  0  0  0  0  0  0  0  0  0  0
   19.9960   35.8560   71.2020 H   0  0  0  0  0  0  0  0  0  0  0  0
   18.9150   33.2890   74.0920 H   0  0  0  0  0  0  0  0  0  0  0  0
   17.0800   33.1410   74.1200 H   0  0  0  0  0  0  0  0  0  0  0  0
   19.3700   30.2210   73.8900 H   0  0  0  0  0  0  0  0  0  0  0  0
   18.5900   27.8920   74.2310 H   0  0  0  0  0  0  0  0  0  0  0  0
   15.1500   28.7240   71.9380 H   0  0  0  0  0  0  0  0  0  0  0  0
   15.9050   31.0090   71.5930 H   0  0  0  0  0  0  0  0  0  0  0  0
   16.0480   24.9840   72.4440 H   0  0  0  0  0  0  0  0  0  0  0  0
   17.3420   25.9110   71.6610 H   0  0  0  0  0  0  0  0  0  0  0  0
   17.5870   25.1360   73.3130 H   0  0  0  0  0  0  0  0  0  0  0  0
   18.8880   35.4010   74.1050 H   0  0  0  0  0  0  0  0  0  0  0  0
   15.6790   32.9560   72.8140 H   0  0  0  0  0  0  0  0  0  0  0  0
   13.5790   33.2460   71.5120 H   0  0  0  0  0  0  0  0  0  0  0  0
   15.3580   36.5280   69.4870 H   0  0  0  0  0  0  0  0  0  0  0  0
   17.3940   36.2360   70.7680 H   0  0  0  0  0  0  0  0  0  0  0  0
  2  3  1  0  0  0  0
  2  1  1  0  0  0  0
  2 27  1  0  0  0  0
  3  4  1  0  0  0  0
  4 31  1  0  0  0  0
  4 30  1  0  0  0  0
  5  4  1  1  0  0  0
  5  6  1  0  0  0  0
  6 18  1  1  0  0  0
  6  7  1  0  0  0  0
  7 32  1  0  0  0  0
  7 33  1  0  0  0  0
  8 10  1  0  0  0  0
  8  7  1  0  0  0  0
  9  1  1  6  0  0  0
  9  5  1  0  0  0  0
  9  8  1  0  0  0  0
 10 11  1  0  0  0  0
 11 12  2  0  0  0  0
 11 34  1  0  0  0  0
 12 35  1  0  0  0  0
 13 16  1  0  0  0  0
 13 12  1  0  0  0  0
 14 13  2  0  0  0  0
 15 14  1  0  0  0  0
 15 10  2  0  0  0  0
 17 40  1  0  0  0  0
 17 16  1  0  0  0  0
 18 41  1  0  0  0  0
 19 20  1  0  0  0  0
 19  6  1  0  0  0  0
 20 42  1  0  0  0  0
 21 43  1  0  0  0  0
 21 20  2  0  0  0  0
 22 21  1  0  0  0  0
 23 22  2  0  0  0  0
 23 24  1  0  0  0  0
 24 19  2  0  0  0  0
 25 22  1  0  0  0  0
 26  2  1  0  0  0  0
 28  3  1  0  0  0  0
 29  3  1  0  0  0  0
 36 14  1  0  0  0  0
 37 15  1  0  0  0  0
 38 17  1  0  0  0  0
 39 17  1  0  0  0  0
 44 23  1  0  0  0  0
 45 24  1  0  0  0  0
M  END
>  <Pose>
1

>  <Score>
-4.98

$$$$
