
 OpenBabel03212208413D

 41 44  0  0  1  0  0  0  0  0999 V2000
   15.5960   34.5480   71.4990 S   0  0  0  0  0  0  0  0  0  0  0  0
   14.0580   35.2340   70.8230 C   0  0  0  0  0  0  0  0  0  0  0  0
   13.2910   34.0500   70.2260 C   0  0  0  0  0  0  0  0  0  0  0  0
   12.8980   33.1130   71.3800 C   0  0  0  0  0  0  0  0  0  0  0  0
   14.0450   32.2400   71.6560 N   0  0  1  0  0  0  0  0  0  0  0  0
   14.1680   30.8670   71.9320 C   0  0  2  0  0  0  0  0  0  0  0  0
   15.6540   30.5680   71.7590 C   0  0  0  0  0  0  0  0  0  0  0  0
   16.2620   31.8580   71.6460 N   0  0  0  0  0  0  0  0  0  0  0  0
   15.3670   32.7590   71.6240 C   0  0  1  0  0  0  0  0  0  0  0  0
   17.6840   32.0250   71.5270 C   0  0  0  0  0  0  0  0  0  0  0  0
   18.4290   32.1620   72.6540 C   0  0  0  0  0  0  0  0  0  0  0  0
   19.8070   32.2920   72.5120 C   0  0  0  0  0  0  0  0  0  0  0  0
   20.4370   32.2870   71.2880 C   0  0  0  0  0  0  0  0  0  0  0  0
   19.6370   32.1470   70.1720 C   0  0  0  0  0  0  0  0  0  0  0  0
   18.2740   32.0170   70.2750 C   0  0  0  0  0  0  0  0  0  0  0  0
   13.5170   30.1270   70.9200 O   0  0  0  0  0  0  0  0  0  0  0  0
   13.7320   30.3590   73.2310 C   0  0  0  0  0  0  0  0  0  0  0  0
   12.6780   31.0400   73.8380 C   0  0  0  0  0  0  0  0  0  0  0  0
   12.1240   30.6720   75.0500 C   0  0  0  0  0  0  0  0  0  0  0  0
   12.6150   29.5850   75.7190 C   0  0  0  0  0  0  0  0  0  0  0  0
   13.6610   28.8960   75.1340 C   0  0  0  0  0  0  0  0  0  0  0  0
   14.2090   29.2770   73.9120 C   0  0  0  0  0  0  0  0  0  0  0  0
   11.8780   29.0100   77.4070 B   0  0  0  0  0  0  0  0  0  0  0  0
   13.4830   35.6790   71.6510 H   0  0  0  0  0  0  0  0  0  0  0  0
   14.2780   35.9550   70.0060 H   0  0  0  0  0  0  0  0  0  0  0  0
   12.3950   34.4060   69.7250 H   0  0  0  0  0  0  0  0  0  0  0  0
   13.9690   33.5290   69.5260 H   0  0  0  0  0  0  0  0  0  0  0  0
   12.5730   33.6820   72.2450 H   0  0  0  0  0  0  0  0  0  0  0  0
   12.0430   32.5320   71.0000 H   0  0  0  0  0  0  0  0  0  0  0  0
   15.8180   29.9790   70.8380 H   0  0  0  0  0  0  0  0  0  0  0  0
   16.0630   30.0720   72.6740 H   0  0  0  0  0  0  0  0  0  0  0  0
   18.0070   32.1790   73.6760 H   0  0  0  0  0  0  0  0  0  0  0  0
   20.3860   32.4040   73.4100 H   0  0  0  0  0  0  0  0  0  0  0  0
   21.5290   32.3840   71.1950 H   0  0  0  0  0  0  0  0  0  0  0  0
   20.1030   32.1400   69.1870 H   0  0  0  0  0  0  0  0  0  0  0  0
   17.6190   31.9030   69.3990 H   0  0  0  0  0  0  0  0  0  0  0  0
   12.5550   30.3670   70.9800 H   0  0  0  0  0  0  0  0  0  0  0  0
   12.2990   31.9070   73.2980 H   0  0  0  0  0  0  0  0  0  0  0  0
   11.2950   31.2430   75.4850 H   0  0  0  0  0  0  0  0  0  0  0  0
   14.0400   28.0330   75.6690 H   0  0  0  0  0  0  0  0  0  0  0  0
   15.0380   28.7200   73.4810 H   0  0  0  0  0  0  0  0  0  0  0  0
  2  1  1  0  0  0  0
  2 24  1  0  0  0  0
  3  2  1  0  0  0  0
  3  4  1  0  0  0  0
  4 28  1  0  0  0  0
  5  4  1  6  0  0  0
  5  6  1  0  0  0  0
  6 16  1  6  0  0  0
  6 17  1  0  0  0  0
  7  6  1  0  0  0  0
  7 31  1  0  0  0  0
  8  7  1  0  0  0  0
  9  1  1  6  0  0  0
  9  8  1  0  0  0  0
  9  5  1  0  0  0  0
 10  8  1  0  0  0  0
 10 11  1  0  0  0  0
 11 32  1  0  0  0  0
 12 11  2  0  0  0  0
 12 33  1  0  0  0  0
 13 12  1  0  0  0  0
 14 15  1  0  0  0  0
 14 13  2  0  0  0  0
 15 10  2  0  0  0  0
 16 37  1  0  0  0  0
 17 18  2  0  0  0  0
 17 22  1  0  0  0  0
 18 19  1  0  0  0  0
 19 39  1  0  0  0  0
 19 20  2  0  0  0  0
 20 23  1  0  0  0  0
 21 40  1  0  0  0  0
 21 20  1  0  0  0  0
 22 21  2  0  0  0  0
 25  2  1  0  0  0  0
 26  3  1  0  0  0  0
 27  3  1  0  0  0  0
 29  4  1  0  0  0  0
 30  7  1  0  0  0  0
 34 13  1  0  0  0  0
 35 14  1  0  0  0  0
 36 15  1  0  0  0  0
 38 18  1  0  0  0  0
 41 22  1  0  0  0  0
M  END
>  <Pose>
1

>  <Score>
-5.31

$$$$
