
 OpenBabel03212208413D

 49 52  0  0  0  0  0  0  0  0999 V2000
   18.0970   27.8810   74.1020 S   0  0  0  0  0  0  0  0  0  0  0  0
   18.4460   26.1340   73.7350 C   0  0  0  0  0  0  0  0  0  0  0  0
   17.3600   25.8620   72.7450 C   0  0  0  0  0  0  0  0  0  0  0  0
   16.7380   26.9940   72.2750 N   0  0  0  0  0  0  0  0  0  0  0  0
   16.9260   28.1150   72.7650 C   0  0  0  0  0  0  0  0  0  0  0  0
   16.2550   29.7200   72.3500 S   0  0  0  0  0  0  0  0  0  0  0  0
   17.5050   30.8760   71.8300 C   0  0  0  0  0  0  0  0  0  0  0  0
   17.3570   32.2710   72.2730 C   0  0  0  0  0  0  0  0  0  0  0  0
   16.2200   32.9740   72.3640 N   0  0  0  0  0  0  0  0  0  0  0  0
   16.5870   34.1980   72.7830 N   0  0  0  0  0  0  0  0  0  0  0  0
   17.8580   34.2740   72.9460 N   0  0  0  0  0  0  0  0  0  0  0  0
   18.4510   33.0640   72.6370 C   0  0  0  0  0  0  0  0  0  0  0  0
   19.8690   32.8230   72.7030 C   0  0  0  0  0  0  0  0  0  0  0  0
   20.2570   31.8630   73.4780 O   0  0  0  0  0  0  0  0  0  0  0  0
   20.8940   33.4910   72.0390 N   0  0  0  0  0  0  0  0  0  0  0  0
   20.6020   34.2430   70.8490 N   0  0  0  0  0  0  0  0  0  0  0  0
   20.7430   35.5090   70.8000 C   0  0  0  0  0  0  0  0  0  0  0  0
   20.4600   36.3070   69.6160 C   0  0  0  0  0  0  0  0  0  0  0  0
   19.2350   36.9050   69.4210 C   0  0  0  0  0  0  0  0  0  0  0  0
   18.9540   37.6690   68.3080 C   0  0  0  0  0  0  0  0  0  0  0  0
   19.8980   37.8670   67.3340 C   0  0  0  0  0  0  0  0  0  0  0  0
   21.1590   37.2730   67.5000 C   0  0  0  0  0  0  0  0  0  0  0  0
   21.4090   36.5140   68.6230 C   0  0  0  0  0  0  0  0  0  0  0  0
   22.0580   37.5110   66.4870 O   0  0  0  0  0  0  0  0  0  0  0  0
   22.9090   36.5570   65.9010 C   0  0  0  0  0  0  0  0  0  0  0  0
   19.5940   38.6390   66.2230 O   0  0  0  0  0  0  0  0  0  0  0  0
   17.2370   38.4790   68.0830 B   0  0  0  0  0  0  0  0  0  0  0  0
   14.8640   32.6430   72.0780 C   0  0  0  0  0  0  0  0  0  0  0  0
   14.0640   31.7640   72.7160 N   0  0  0  0  0  0  0  0  0  0  0  0
   12.8870   31.7290   72.2140 O   0  0  0  0  0  0  0  0  0  0  0  0
   12.8460   32.5720   71.2300 N   0  0  0  0  0  0  0  0  0  0  0  0
   14.0620   33.1810   71.0940 C   0  0  0  0  0  0  0  0  0  0  0  0
   14.4040   34.1730   70.1480 N   0  0  0  0  0  4  0  0  0  0  0  0
   19.4610   25.9850   73.3430 H   0  0  0  0  0  0  0  0  0  0  0  0
   18.2250   25.5580   74.6550 H   0  0  0  0  0  0  0  0  0  0  0  0
   16.6770   25.0490   73.0980 H   0  0  0  0  0  0  0  0  0  0  0  0
   17.8800   25.3700   71.8570 H   0  0  0  0  0  0  0  0  0  0  0  0
   17.5640   30.8300   70.7300 H   0  0  0  0  0  0  0  0  0  0  0  0
   18.5320   30.5630   72.2070 H   0  0  0  0  0  0  0  0  0  0  0  0
   21.8990   33.5310   72.2770 H   0  0  0  0  0  0  0  0  0  0  0  0
   21.0920   36.0130   71.6810 H   0  0  0  0  0  0  0  0  0  0  0  0
   18.4740   36.7560   70.1870 H   0  0  0  0  0  0  0  0  0  0  0  0
   22.3840   36.0610   68.7360 H   0  0  0  0  0  0  0  0  0  0  0  0
   23.8990   37.0130   65.6160 H   0  0  0  0  0  0  0  0  0  0  0  0
   23.0420   35.6870   66.5560 H   0  0  0  0  0  0  0  0  0  0  0  0
   22.4570   36.2580   64.9150 H   0  0  0  0  0  0  0  0  0  0  0  0
   14.1380   33.8160   69.1930 H   0  0  0  0  0  0  0  0  0  0  0  0
   15.3990   34.4570   70.1600 H   0  0  0  0  0  0  0  0  0  0  0  0
   13.8030   35.0250   70.3170 H   0  0  0  0  0  0  0  0  0  0  0  0
  2  1  1  0  0  0  0
  2 35  1  0  0  0  0
  3 36  1  0  0  0  0
  3  2  1  0  0  0  0
  4  3  1  0  0  0  0
  4  5  2  0  0  0  0
  5  1  1  0  0  0  0
  6  5  1  0  0  0  0
  7 39  1  0  0  0  0
  7  8  1  0  0  0  0
  7  6  1  0  0  0  0
  8  9  1  0  0  0  0
  8 12  2  0  0  0  0
  9 10  1  0  0  0  0
 10 11  2  0  0  0  0
 12 13  1  0  0  0  0
 12 11  1  0  0  0  0
 13 14  2  0  0  0  0
 15 40  1  0  0  0  0
 15 13  1  0  0  0  0
 16 15  1  0  0  0  0
 17 16  2  0  0  0  0
 17 41  1  0  0  0  0
 18 17  1  0  0  0  0
 19 18  1  0  0  0  0
 19 42  1  0  0  0  0
 20 19  2  0  0  0  0
 21 22  2  0  0  0  0
 21 20  1  0  0  0  0
 22 23  1  0  0  0  0
 23 43  1  0  0  0  0
 23 18  2  0  0  0  0
 24 22  1  0  0  0  0
 25 24  1  0  0  0  0
 25 45  1  0  0  0  0
 26 21  1  0  0  0  0
 27 20  1  0  0  0  0
 28  9  1  0  0  0  0
 28 29  2  0  0  0  0
 30 29  1  0  0  0  0
 31 30  1  0  0  0  0
 32 31  2  0  0  0  0
 32 28  1  0  0  0  0
 33 48  1  0  0  0  0
 33 49  1  0  0  0  0
 33 32  1  0  0  0  0
 34  2  1  0  0  0  0
 37  3  1  0  0  0  0
 38  7  1  0  0  0  0
 44 25  1  0  0  0  0
 46 25  1  0  0  0  0
 47 33  1  0  0  0  0
M  END
>  <Pose>
1

>  <Score>
-8.97

$$$$
