
 OpenBabel03212208413D

 53 56  0  0  0  0  0  0  0  0999 V2000
   11.7540   30.0810   75.1000 B   0  0  0  0  0  0  0  0  0  0  0  0
   13.2450   29.2690   75.9590 C   0  0  0  0  0  0  0  0  0  0  0  0
   14.3590   28.9000   75.2460 C   0  0  0  0  0  0  0  0  0  0  0  0
   15.4480   28.3070   75.8840 C   0  0  0  0  0  0  0  0  0  0  0  0
   15.3450   28.1180   77.2320 C   0  0  0  0  0  0  0  0  0  0  0  0
   14.2150   28.4920   77.9600 C   0  0  0  0  0  0  0  0  0  0  0  0
   13.1590   29.0690   77.3260 C   0  0  0  0  0  0  0  0  0  0  0  0
   16.6110   27.9080   75.1170 C   0  0  0  0  0  0  0  0  0  0  0  0
   16.9220   26.6560   74.8940 C   0  0  0  0  0  0  0  0  0  0  0  0
   17.4560   28.9380   74.5610 N   0  0  0  0  0  0  0  0  0  0  0  0
   16.8570   29.9230   73.7750 N   0  0  0  0  0  0  0  0  0  0  0  0
   16.2520   29.6280   72.5300 C   0  0  0  0  0  0  0  0  0  0  0  0
   16.6260   28.6130   71.8990 O   0  0  0  0  0  0  0  0  0  0  0  0
   15.2090   30.4550   71.9520 C   0  0  0  0  0  0  0  0  0  0  0  0
   14.0830   29.9740   71.4080 N   0  0  0  0  0  0  0  0  0  0  0  0
   13.4020   31.0080   70.9860 N   0  0  0  0  0  0  0  0  0  0  0  0
   14.0580   32.1360   71.2440 N   0  0  0  0  0  0  0  0  0  0  0  0
   15.2010   31.8550   71.8500 C   0  0  0  0  0  0  0  0  0  0  0  0
   16.2630   32.6770   72.3840 C   0  0  0  0  0  0  0  0  0  0  0  0
   16.9990   33.4790   71.4260 N   0  0  0  0  0  0  0  0  0  0  0  0
   17.9350   34.3680   72.1070 C   0  0  0  0  0  0  0  0  0  0  0  0
   18.7440   33.6390   73.1560 C   0  0  0  0  0  0  0  0  0  0  0  0
   19.4880   32.4770   72.5210 C   0  0  0  0  0  0  0  0  0  0  0  0
   19.2240   32.4140   71.0440 C   0  0  0  0  0  0  0  0  0  0  0  0
   17.8290   32.6060   70.6010 C   0  0  0  0  0  0  0  0  0  0  0  0
   13.5610   33.4220   70.9270 C   0  0  0  0  0  0  0  0  0  0  0  0
   12.2690   33.7930   71.1510 N   0  0  0  0  0  0  0  0  0  0  0  0
   12.1390   35.0180   70.7500 O   0  0  0  0  0  0  0  0  0  0  0  0
   13.2420   35.4790   70.2790 N   0  0  0  0  0  0  0  0  0  0  0  0
   14.1640   34.5110   70.3690 C   0  0  0  0  0  0  0  0  0  0  0  0
   15.5080   34.5730   69.9740 N   0  0  0  0  0  0  0  0  0  0  0  0
   14.3940   29.0730   74.1750 H   0  0  0  0  0  0  0  0  0  0  0  0
   16.1700   27.6570   77.7750 H   0  0  0  0  0  0  0  0  0  0  0  0
   14.1710   28.3210   79.0370 H   0  0  0  0  0  0  0  0  0  0  0  0
   12.2960   29.3540   77.8820 H   0  0  0  0  0  0  0  0  0  0  0  0
   16.3530   25.8260   75.2550 H   0  0  0  0  0  0  0  0  0  0  0  0
   17.8080   26.3880   74.3110 H   0  0  0  0  0  0  0  0  0  0  0  0
   18.4640   28.8810   74.7840 H   0  0  0  0  0  0  0  0  0  0  0  0
   16.8870   30.9010   74.1690 H   0  0  0  0  0  0  0  0  0  0  0  0
   15.9190   33.4050   73.1720 H   0  0  0  0  0  0  0  0  0  0  0  0
   17.0250   32.0440   72.9040 H   0  0  0  0  0  0  0  0  0  0  0  0
   17.3720   35.1860   72.5830 H   0  0  0  0  0  0  0  0  0  0  0  0
   18.5970   34.7880   71.3400 H   0  0  0  0  0  0  0  0  0  0  0  0
   18.1220   33.2300   73.9680 H   0  0  0  0  0  0  0  0  0  0  0  0
   19.4550   34.3730   73.5690 H   0  0  0  0  0  0  0  0  0  0  0  0
   20.5740   32.6940   72.6340 H   0  0  0  0  0  0  0  0  0  0  0  0
   19.3280   31.5300   73.0660 H   0  0  0  0  0  0  0  0  0  0  0  0
   19.8260   33.2550   70.5860 H   0  0  0  0  0  0  0  0  0  0  0  0
   19.7010   31.4990   70.6660 H   0  0  0  0  0  0  0  0  0  0  0  0
   17.3300   31.5970   70.6140 H   0  0  0  0  0  0  0  0  0  0  0  0
   17.7530   32.9690   69.5510 H   0  0  0  0  0  0  0  0  0  0  0  0
   16.3240   34.2000   70.5070 H   0  0  0  0  0  0  0  0  0  0  0  0
   15.7400   35.0310   69.0660 H   0  0  0  0  0  0  0  0  0  0  0  0
  1  2  1  0  0  0  0
  2  7  1  0  0  0  0
  3  4  1  0  0  0  0
  3  2  2  0  0  0  0
  4  5  2  0  0  0  0
  5 33  1  0  0  0  0
  5  6  1  0  0  0  0
  6 34  1  0  0  0  0
  7 35  1  0  0  0  0
  7  6  2  0  0  0  0
  8  4  1  0  0  0  0
  9  8  2  0  0  0  0
  9 36  1  0  0  0  0
 10 38  1  0  0  0  0
 10  8  1  0  0  0  0
 11 39  1  0  0  0  0
 11 10  1  0  0  0  0
 12 11  1  0  0  0  0
 13 12  2  0  0  0  0
 14 12  1  0  0  0  0
 15 14  1  0  0  0  0
 16 17  1  0  0  0  0
 16 15  2  0  0  0  0
 17 18  1  0  0  0  0
 18 14  2  0  0  0  0
 18 19  1  0  0  0  0
 19 41  1  0  0  0  0
 19 40  1  0  0  0  0
 20 21  1  0  0  0  0
 20 19  1  0  0  0  0
 21 42  1  0  0  0  0
 21 22  1  0  0  0  0
 22 45  1  0  0  0  0
 22 44  1  0  0  0  0
 23 46  1  0  0  0  0
 23 47  1  0  0  0  0
 23 22  1  0  0  0  0
 24 23  1  0  0  0  0
 25 50  1  0  0  0  0
 25 24  1  0  0  0  0
 25 20  1  0  0  0  0
 26 27  2  0  0  0  0
 26 17  1  0  0  0  0
 28 27  1  0  0  0  0
 29 30  2  0  0  0  0
 29 28  1  0  0  0  0
 30 26  1  0  0  0  0
 31 30  1  0  0  0  0
 31 52  1  0  0  0  0
 32  3  1  0  0  0  0
 37  9  1  0  0  0  0
 43 21  1  0  0  0  0
 48 24  1  0  0  0  0
 49 24  1  0  0  0  0
 51 25  1  0  0  0  0
 53 31  1  0  0  0  0
M  END
>  <Pose>
1

>  <Score>
-7.95

$$$$
