
 OpenBabel03212208413D

 48 51  0  0  1  0  0  0  0  0999 V2000
   17.1870   36.9400   69.7680 B   0  0  0  0  0  0  0  0  0  0  0  0
   18.6640   35.8410   70.2900 C   0  0  0  0  0  0  0  0  0  0  0  0
   18.4690   34.5190   70.5800 C   0  0  0  0  0  0  0  0  0  0  0  0
   19.5360   33.7140   70.9590 C   0  0  0  0  0  0  0  0  0  0  0  0
   20.7700   34.2790   71.0340 C   0  0  0  0  0  0  0  0  0  0  0  0
   20.9570   35.6200   70.7380 C   0  0  0  0  0  0  0  0  0  0  0  0
   19.9010   36.4140   70.3620 C   0  0  0  0  0  0  0  0  0  0  0  0
   19.3230   32.3110   71.2720 C   0  0  0  0  0  0  0  0  0  0  0  0
   19.3010   31.4660   70.3020 O   0  0  0  0  0  0  0  0  0  0  0  0
   19.1410   31.8540   72.5930 N   0  0  0  0  0  0  0  0  0  0  0  0
   17.8020   31.9260   73.1480 C   0  0  2  0  0  0  0  0  0  0  0  0
   17.2860   30.5530   73.5330 C   0  0  0  0  0  0  0  0  0  0  0  0
   15.8470   30.7220   73.4810 N   0  0  0  0  0  0  0  0  0  0  0  0
   15.4950   32.0040   72.9040 C   0  0  1  0  0  0  0  0  0  0  0  0
   16.7770   32.3650   72.1420 C   0  0  0  0  0  0  0  0  0  0  0  0
   14.3620   31.8140   72.0000 C   0  0  0  0  0  0  0  0  0  0  0  0
   14.3960   32.2090   70.8260 O   0  0  0  0  0  0  0  0  0  0  0  0
   13.2110   31.1590   72.5090 N   0  0  0  0  0  0  0  0  0  0  0  0
   13.3500   30.2210   73.6000 C   0  0  1  0  0  0  0  0  0  0  0  0
   14.7610   29.8760   73.8840 C   0  0  0  0  0  0  0  0  0  0  0  0
   15.0300   28.8100   74.4980 O   0  0  0  0  0  0  0  0  0  0  0  0
   12.6110   30.6640   74.8450 C   0  0  0  0  0  0  0  0  0  0  0  0
   11.3790   29.8970   75.0940 C   0  0  0  0  0  0  0  0  0  0  0  0
   11.4580   28.5500   75.3980 C   0  0  0  0  0  0  0  0  0  0  0  0
   10.3110   27.8260   75.6320 C   0  0  0  0  0  0  0  0  0  0  0  0
    9.0500   28.3890   75.5770 C   0  0  0  0  0  0  0  0  0  0  0  0
    8.9680   29.7310   75.2750 C   0  0  0  0  0  0  0  0  0  0  0  0
   10.1090   30.4740   75.0370 C   0  0  0  0  0  0  0  0  0  0  0  0
   17.4890   34.0380   70.5290 H   0  0  0  0  0  0  0  0  0  0  0  0
   21.6280   33.6730   71.3330 H   0  0  0  0  0  0  0  0  0  0  0  0
   21.9350   36.0700   70.7960 H   0  0  0  0  0  0  0  0  0  0  0  0
   20.0170   37.4720   70.1240 H   0  0  0  0  0  0  0  0  0  0  0  0
   19.9430   31.4840   73.1220 H   0  0  0  0  0  0  0  0  0  0  0  0
   17.7410   32.5560   74.0330 H   0  0  0  0  0  0  0  0  0  0  0  0
   17.5860   29.7690   72.8040 H   0  0  0  0  0  0  0  0  0  0  0  0
   17.6230   30.2560   74.5500 H   0  0  0  0  0  0  0  0  0  0  0  0
   15.2800   32.7770   73.6710 H   0  0  0  0  0  0  0  0  0  0  0  0
   16.7370   33.4550   71.9920 H   0  0  0  0  0  0  0  0  0  0  0  0
   16.7800   31.7760   71.2180 H   0  0  0  0  0  0  0  0  0  0  0  0
   12.2530   31.3250   72.1250 H   0  0  0  0  0  0  0  0  0  0  0  0
   12.8060   29.2900   73.2570 H   0  0  0  0  0  0  0  0  0  0  0  0
   13.3060   30.5960   75.7030 H   0  0  0  0  0  0  0  0  0  0  0  0
   12.3280   31.7180   74.6940 H   0  0  0  0  0  0  0  0  0  0  0  0
   12.3980   28.0160   75.4650 H   0  0  0  0  0  0  0  0  0  0  0  0
   10.3660   26.7730   75.8700 H   0  0  0  0  0  0  0  0  0  0  0  0
    8.1630   27.7800   75.7700 H   0  0  0  0  0  0  0  0  0  0  0  0
    7.9720   30.1750   75.2320 H   0  0  0  0  0  0  0  0  0  0  0  0
   10.0080   31.5260   74.8010 H   0  0  0  0  0  0  0  0  0  0  0  0
  1  2  1  0  0  0  0
  2  7  2  0  0  0  0
  2  3  1  0  0  0  0
  3  4  2  0  0  0  0
  4  5  1  0  0  0  0
  4  8  1  0  0  0  0
  5 30  1  0  0  0  0
  6 31  1  0  0  0  0
  6  5  2  0  0  0  0
  7  6  1  0  0  0  0
  8 10  1  0  0  0  0
  9  8  2  0  0  0  0
 10 33  1  0  0  0  0
 10 11  1  0  0  0  0
 11 12  1  0  0  0  0
 11 34  1  1  0  0  0
 12 36  1  0  0  0  0
 13 12  1  0  0  0  0
 13 20  1  0  0  0  0
 14 13  1  0  0  0  0
 14 37  1  1  0  0  0
 15 14  1  0  0  0  0
 15 11  1  0  0  0  0
 16 18  1  0  0  0  0
 16 14  1  0  0  0  0
 17 16  2  0  0  0  0
 18 19  1  0  0  0  0
 19 41  1  6  0  0  0
 19 20  1  0  0  0  0
 19 22  1  0  0  0  0
 20 21  2  0  0  0  0
 22 23  1  0  0  0  0
 22 42  1  0  0  0  0
 23 24  1  0  0  0  0
 24 44  1  0  0  0  0
 24 25  2  0  0  0  0
 25 45  1  0  0  0  0
 26 25  1  0  0  0  0
 26 46  1  0  0  0  0
 27 26  2  0  0  0  0
 28 23  2  0  0  0  0
 28 27  1  0  0  0  0
 29  3  1  0  0  0  0
 32  7  1  0  0  0  0
 35 12  1  0  0  0  0
 38 15  1  0  0  0  0
 39 15  1  0  0  0  0
 40 18  1  0  0  0  0
 43 22  1  0  0  0  0
 47 27  1  0  0  0  0
 48 28  1  0  0  0  0
M  END
>  <Pose>
1

>  <Score>
-6.23

$$$$
