
 OpenBabel03212208413D

 61 64  0  0  1  0  0  0  0  0999 V2000
   15.8650   37.8560   70.2090 B   0  0  0  0  0  0  0  0  0  0  0  0
   15.0350   36.1370   70.2520 C   0  0  0  0  0  0  0  0  0  0  0  0
   15.7010   34.9790   70.5090 C   0  0  0  0  0  0  0  0  0  0  0  0
   15.1370   33.7150   70.5480 C   0  0  0  0  0  0  0  0  0  0  0  0
   13.7690   33.6210   70.3040 C   0  0  0  0  0  0  0  0  0  0  0  0
   13.0610   34.7780   70.0410 C   0  0  0  0  0  0  0  0  0  0  0  0
   13.6560   36.0270   70.0080 C   0  0  0  0  0  0  0  0  0  0  0  0
   16.0120   32.5700   70.8200 C   0  0  1  0  0  0  0  0  0  0  0  0
   17.2750   32.9970   71.2910 N   0  0  0  0  0  0  0  0  0  0  0  0
   17.4500   32.5800   72.6360 C   0  0  0  0  0  0  0  0  0  0  0  0
   18.4390   32.8880   73.3710 O   0  0  0  0  0  0  0  0  0  0  0  0
   16.3250   31.7520   73.0100 C   0  0  0  0  0  0  0  0  0  0  0  0
   16.2270   31.2490   74.1620 O   0  0  0  0  0  0  0  0  0  0  0  0
   15.4470   31.6690   71.8590 C   0  0  0  0  0  0  0  0  0  0  0  0
   14.3410   30.9610   71.8120 C   0  0  0  0  0  0  0  0  0  0  0  0
   13.5560   31.0170   70.6840 O   0  0  0  0  0  0  0  0  0  0  0  0
   13.9430   30.1240   72.9160 C   0  0  0  0  0  0  0  0  0  0  0  0
   14.6810   29.0150   73.3670 C   0  0  0  0  0  0  0  0  0  0  0  0
   14.0620   28.4780   74.4260 N   0  0  0  0  0  0  0  0  0  0  0  0
   12.9800   29.2010   74.6490 N   0  0  0  0  0  0  0  0  0  0  0  0
   12.8720   30.2030   73.7630 C   0  0  0  0  0  0  0  0  0  0  0  0
   14.4790   27.3550   75.1880 C   0  0  0  0  0  0  0  0  0  0  0  0
   14.9610   27.5610   76.4740 C   0  0  0  0  0  0  0  0  0  0  0  0
   15.3740   26.5150   77.2740 C   0  0  0  0  0  0  0  0  0  0  0  0
   15.3220   25.1970   76.8180 C   0  0  0  0  0  0  0  0  0  0  0  0
   14.8420   24.9910   75.5370 C   0  0  0  0  0  0  0  0  0  0  0  0
   14.4380   26.0470   74.7610 C   0  0  0  0  0  0  0  0  0  0  0  0
   15.9490   28.5490   72.7350 C   0  0  0  0  0  0  0  0  0  0  0  0
   18.3090   33.7480   70.5240 C   0  0  0  0  0  0  0  0  0  0  0  0
   19.3990   32.8040   70.0870 C   0  0  0  0  0  0  0  0  0  0  0  0
   20.7640   33.4160   70.1140 C   0  0  0  0  0  0  0  0  0  0  0  0
   21.5320   33.2960   68.9190 N   0  0  0  0  0  4  0  0  0  0  0  0
   21.4660   34.3920   68.0090 C   0  0  0  0  0  0  0  0  0  0  0  0
   22.9500   33.0770   69.2480 C   0  0  0  0  0  0  0  0  0  0  0  0
   16.7880   35.0900   70.6950 H   0  0  0  0  0  0  0  0  0  0  0  0
   13.2960   32.6570   70.3230 H   0  0  0  0  0  0  0  0  0  0  0  0
   11.9870   34.6990   69.8510 H   0  0  0  0  0  0  0  0  0  0  0  0
   13.1020   36.9360   69.8000 H   0  0  0  0  0  0  0  0  0  0  0  0
   16.1660   32.0050   69.8640 H   0  0  0  0  0  0  0  0  0  0  0  0
   12.0850   30.9580   73.7290 H   0  0  0  0  0  0  0  0  0  0  0  0
   14.9920   28.6110   76.8130 H   0  0  0  0  0  0  0  0  0  0  0  0
   15.7410   26.7090   78.2750 H   0  0  0  0  0  0  0  0  0  0  0  0
   15.6580   24.3890   77.4710 H   0  0  0  0  0  0  0  0  0  0  0  0
   14.8090   23.9560   75.1930 H   0  0  0  0  0  0  0  0  0  0  0  0
   14.0670   25.8400   73.7680 H   0  0  0  0  0  0  0  0  0  0  0  0
   16.5690   29.4210   72.4130 H   0  0  0  0  0  0  0  0  0  0  0  0
   15.7630   27.8340   71.9130 H   0  0  0  0  0  0  0  0  0  0  0  0
   16.5700   28.0120   73.4920 H   0  0  0  0  0  0  0  0  0  0  0  0
   17.8340   34.3030   69.6950 H   0  0  0  0  0  0  0  0  0  0  0  0
   18.7930   34.4630   71.2500 H   0  0  0  0  0  0  0  0  0  0  0  0
   19.4210   32.0170   70.9010 H   0  0  0  0  0  0  0  0  0  0  0  0
   19.1500   32.2470   69.1820 H   0  0  0  0  0  0  0  0  0  0  0  0
   21.3870   32.9710   70.9520 H   0  0  0  0  0  0  0  0  0  0  0  0
   20.6800   34.5090   70.3880 H   0  0  0  0  0  0  0  0  0  0  0  0
   21.2470   32.4120   68.4000 H   0  0  0  0  0  0  0  0  0  0  0  0
   22.4840   34.7970   67.7580 H   0  0  0  0  0  0  0  0  0  0  0  0
   20.7600   35.2050   68.2670 H   0  0  0  0  0  0  0  0  0  0  0  0
   21.0880   34.0000   67.0190 H   0  0  0  0  0  0  0  0  0  0  0  0
   23.3210   32.1250   68.8330 H   0  0  0  0  0  0  0  0  0  0  0  0
   23.0220   33.0390   70.3590 H   0  0  0  0  0  0  0  0  0  0  0  0
   23.5570   33.9520   68.9250 H   0  0  0  0  0  0  0  0  0  0  0  0
  1  2  1  0  0  0  0
  2  3  1  0  0  0  0
  3  4  2  0  0  0  0
  3 35  1  0  0  0  0
  4  8  1  0  0  0  0
  5 36  1  0  0  0  0
  5  4  1  0  0  0  0
  6  5  2  0  0  0  0
  7  6  1  0  0  0  0
  7  2  2  0  0  0  0
  8 39  1  6  0  0  0
  8  9  1  0  0  0  0
  8 14  1  0  0  0  0
  9 10  1  0  0  0  0
 10 12  1  0  0  0  0
 10 11  2  0  0  0  0
 12 13  2  0  0  0  0
 14 12  1  0  0  0  0
 15 14  2  0  0  0  0
 15 17  1  0  0  0  0
 16 15  1  0  0  0  0
 17 18  2  0  0  0  0
 17 21  1  0  0  0  0
 18 19  1  0  0  0  0
 19 20  1  0  0  0  0
 19 22  1  0  0  0  0
 21 20  2  0  0  0  0
 22 23  1  0  0  0  0
 23 41  1  0  0  0  0
 23 24  2  0  0  0  0
 24 42  1  0  0  0  0
 25 24  1  0  0  0  0
 25 43  1  0  0  0  0
 26 25  2  0  0  0  0
 27 22  2  0  0  0  0
 27 26  1  0  0  0  0
 28 18  1  0  0  0  0
 28 48  1  0  0  0  0
 29 50  1  0  0  0  0
 29  9  1  0  0  0  0
 30 31  1  0  0  0  0
 30 29  1  0  0  0  0
 30 51  1  0  0  0  0
 31 54  1  0  0  0  0
 31 53  1  0  0  0  0
 32 34  1  0  0  0  0
 32 31  1  0  0  0  0
 33 57  1  0  0  0  0
 33 32  1  0  0  0  0
 34 60  1  0  0  0  0
 37  6  1  0  0  0  0
 38  7  1  0  0  0  0
 40 21  1  0  0  0  0
 44 26  1  0  0  0  0
 45 27  1  0  0  0  0
 46 28  1  0  0  0  0
 47 28  1  0  0  0  0
 49 29  1  0  0  0  0
 52 30  1  0  0  0  0
 55 32  1  0  0  0  0
 56 33  1  0  0  0  0
 58 33  1  0  0  0  0
 59 34  1  0  0  0  0
 61 34  1  0  0  0  0
M  END
>  <Pose>
1

>  <Score>
-6.63

$$$$
