
 OpenBabel03212208413D

 39 42  0  0  1  0  0  0  0  0999 V2000
   21.5490   32.9400   69.7650 B   0  0  0  0  0  0  0  0  0  0  0  0
   19.7750   32.8380   70.5000 C   0  0  0  0  0  0  0  0  0  0  0  0
   18.7510   32.2590   69.7960 C   0  0  0  0  0  0  0  0  0  0  0  0
   17.4660   32.2020   70.3630 C   0  0  0  0  0  0  0  0  0  0  0  0
   17.2210   32.7120   71.6030 C   0  0  0  0  0  0  0  0  0  0  0  0
   18.2530   33.2890   72.2990 C   0  0  0  0  0  0  0  0  0  0  0  0
   19.5420   33.3530   71.7420 C   0  0  0  0  0  0  0  0  0  0  0  0
   15.8990   32.6630   72.2210 C   0  0  1  0  0  0  0  0  0  0  0  0
   14.8400   33.3270   71.4950 C   0  0  0  0  0  0  0  0  0  0  0  0
   13.6400   32.7130   71.2730 C   0  0  0  0  0  0  0  0  0  0  0  0
   13.3550   31.3960   71.7620 N   0  0  0  0  0  0  0  0  0  0  0  0
   14.3990   30.7680   72.4960 C   0  0  0  0  0  0  0  0  0  0  0  0
   15.5510   31.3350   72.7240 C   0  0  0  0  0  0  0  0  0  0  0  0
   16.3860   30.4090   73.5500 C   0  0  0  0  0  0  0  0  0  0  0  0
   17.5620   30.6930   73.9280 O   0  0  0  0  0  0  0  0  0  0  0  0
   15.6250   29.3060   73.7590 O   0  0  0  0  0  0  0  0  0  0  0  0
   14.3920   29.3880   73.1280 C   0  0  0  0  0  0  0  0  0  0  0  0
   12.6640   33.3720   70.5690 N   0  0  0  0  0  0  0  0  0  0  0  0
   12.8770   34.6070   70.1020 C   0  0  0  0  0  0  0  0  0  0  0  0
   11.9640   35.1960   69.4560 O   0  0  0  0  0  0  0  0  0  0  0  0
   14.0600   35.2030   70.3260 N   0  0  0  0  0  0  0  0  0  0  0  0
   15.0580   34.6330   70.9980 C   0  0  0  0  0  0  0  0  0  0  0  0
   16.1660   35.1830   71.2120 O   0  0  0  0  0  0  0  0  0  0  0  0
   14.2480   36.5540   69.7950 C   0  0  0  0  0  0  0  0  0  0  0  0
   11.4090   32.6630   70.3650 C   0  0  0  0  0  0  0  0  0  0  0  0
   18.9610   31.8620   68.8200 H   0  0  0  0  0  0  0  0  0  0  0  0
   16.7140   31.7320   69.7380 H   0  0  0  0  0  0  0  0  0  0  0  0
   18.1750   33.7250   73.2860 H   0  0  0  0  0  0  0  0  0  0  0  0
   20.3670   33.8050   72.2770 H   0  0  0  0  0  0  0  0  0  0  0  0
   16.0180   33.2890   73.1860 H   0  0  0  0  0  0  0  0  0  0  0  0
   12.4330   30.9650   71.5700 H   0  0  0  0  0  0  0  0  0  0  0  0
   13.5260   29.2910   73.8120 H   0  0  0  0  0  0  0  0  0  0  0  0
   14.3460   28.6030   72.3440 H   0  0  0  0  0  0  0  0  0  0  0  0
   15.0470   37.0850   70.3500 H   0  0  0  0  0  0  0  0  0  0  0  0
   13.3240   37.1290   69.8950 H   0  0  0  0  0  0  0  0  0  0  0  0
   14.4730   36.4320   68.7170 H   0  0  0  0  0  0  0  0  0  0  0  0
   10.6540   33.3210   69.9130 H   0  0  0  0  0  0  0  0  0  0  0  0
   11.6020   31.7460   69.8020 H   0  0  0  0  0  0  0  0  0  0  0  0
   11.0170   32.4220   71.3960 H   0  0  0  0  0  0  0  0  0  0  0  0
  1  2  1  0  0  0  0
  2  7  1  0  0  0  0
  3  4  1  0  0  0  0
  3  2  2  0  0  0  0
  4  5  2  0  0  0  0
  5  8  1  0  0  0  0
  5  6  1  0  0  0  0
  6 28  1  0  0  0  0
  7 29  1  0  0  0  0
  7  6  2  0  0  0  0
  8 13  1  0  0  0  0
  8 30  1  1  0  0  0
  9  8  1  0  0  0  0
 10  9  2  0  0  0  0
 10 11  1  0  0  0  0
 11 12  1  0  0  0  0
 12 13  2  0  0  0  0
 12 17  1  0  0  0  0
 13 14  1  0  0  0  0
 14 16  1  0  0  0  0
 14 15  2  0  0  0  0
 17 16  1  0  0  0  0
 17 32  1  0  0  0  0
 18 10  1  0  0  0  0
 19 21  1  0  0  0  0
 19 18  1  0  0  0  0
 20 19  2  0  0  0  0
 21 22  1  0  0  0  0
 22 23  2  0  0  0  0
 22  9  1  0  0  0  0
 24 35  1  0  0  0  0
 24 21  1  0  0  0  0
 24 34  1  0  0  0  0
 25 18  1  0  0  0  0
 25 39  1  0  0  0  0
 26  3  1  0  0  0  0
 27  4  1  0  0  0  0
 31 11  1  0  0  0  0
 33 17  1  0  0  0  0
 36 24  1  0  0  0  0
 37 25  1  0  0  0  0
 38 25  1  0  0  0  0
M  END
>  <Pose>
1

>  <Score>
-5.92

$$$$
