
 OpenBabel03212208413D

 39 42  0  0  1  0  0  0  0  0999 V2000
   13.8380   36.8700   69.4270 B   0  0  0  0  0  0  0  0  0  0  0  0
   15.0550   35.6310   70.2060 C   0  0  0  0  0  0  0  0  0  0  0  0
   14.5570   34.4580   70.7230 C   0  0  0  0  0  0  0  0  0  0  0  0
   15.4590   33.5810   71.2800 C   0  0  0  0  0  0  0  0  0  0  0  0
   16.8250   33.8830   71.3090 C   0  0  0  0  0  0  0  0  0  0  0  0
   17.3390   35.0560   70.7940 C   0  0  0  0  0  0  0  0  0  0  0  0
   16.4190   35.9280   70.2390 C   0  0  0  0  0  0  0  0  0  0  0  0
   18.7260   35.3660   70.8240 N   0  0  0  0  0  0  0  0  0  0  0  0
   19.6820   34.7690   71.6920 C   0  0  0  0  0  0  0  0  0  0  0  0
   19.4830   34.2890   72.8280 O   0  0  0  0  0  0  0  0  0  0  0  0
   21.0260   34.7900   71.0390 C   0  0  1  0  0  0  0  0  0  0  0  0
   21.2480   33.5960   70.1720 C   0  0  1  0  0  0  0  0  0  0  0  0
   20.5170   33.9120   69.0000 O   0  0  0  0  0  0  0  0  0  0  0  0
   21.1790   35.1360   68.7300 C   0  0  1  0  0  0  0  0  0  0  0  0
   20.8890   35.8890   69.9870 C   0  0  1  0  0  0  0  0  0  0  0  0
   19.4630   36.2900   70.0340 C   0  0  0  0  0  0  0  0  0  0  0  0
   18.9830   37.2910   69.4620 O   0  0  0  0  0  0  0  0  0  0  0  0
   22.5910   34.6460   68.7220 C   0  0  0  0  0  0  0  0  0  0  0  0
   22.6320   33.6560   69.6310 C   0  0  0  0  0  0  0  0  0  0  0  0
   20.7400   35.7700   67.4800 C   0  0  0  0  0  0  0  0  0  0  0  0
   20.8770   32.2970   70.7600 C   0  0  0  0  0  0  0  0  0  0  0  0
   19.9680   31.6040   69.9640 O   0  0  0  0  0  0  0  0  0  0  0  0
   13.1020   34.1300   70.6910 C   0  0  0  0  0  0  0  0  0  0  0  0
   15.1120   32.6420   71.7010 H   0  0  0  0  0  0  0  0  0  0  0  0
   17.5020   33.1650   71.7540 H   0  0  0  0  0  0  0  0  0  0  0  0
   16.7840   36.8650   69.8180 H   0  0  0  0  0  0  0  0  0  0  0  0
   21.8200   34.9960   71.7580 H   0  0  0  0  0  0  0  0  0  0  0  0
   21.5710   36.7370   70.1880 H   0  0  0  0  0  0  0  0  0  0  0  0
   23.3640   35.0350   68.1040 H   0  0  0  0  0  0  0  0  0  0  0  0
   23.5010   33.0600   69.8810 H   0  0  0  0  0  0  0  0  0  0  0  0
   20.5530   36.8570   67.5210 H   0  0  0  0  0  0  0  0  0  0  0  0
   21.4990   35.6030   66.6830 H   0  0  0  0  0  0  0  0  0  0  0  0
   19.7960   35.2840   67.0990 H   0  0  0  0  0  0  0  0  0  0  0  0
   20.4000   32.4470   71.7430 H   0  0  0  0  0  0  0  0  0  0  0  0
   21.7620   31.6350   70.8460 H   0  0  0  0  0  0  0  0  0  0  0  0
   20.1800   31.6590   68.9900 H   0  0  0  0  0  0  0  0  0  0  0  0
   12.5680   35.0980   70.6410 H   0  0  0  0  0  0  0  0  0  0  0  0
   12.8270   33.5920   69.7490 H   0  0  0  0  0  0  0  0  0  0  0  0
   12.7940   33.4990   71.5240 H   0  0  0  0  0  0  0  0  0  0  0  0
  1  2  1  0  0  0  0
  2  7  2  0  0  0  0
  2  3  1  0  0  0  0
  3  4  2  0  0  0  0
  4  5  1  0  0  0  0
  4 24  1  0  0  0  0
  5 25  1  0  0  0  0
  6  8  1  0  0  0  0
  6  5  2  0  0  0  0
  7  6  1  0  0  0  0
  8  9  1  0  0  0  0
  9 10  2  0  0  0  0
 11  9  1  0  0  0  0
 11 27  1  1  0  0  0
 12 21  1  1  0  0  0
 12 11  1  0  0  0  0
 13 12  1  0  0  0  0
 14 20  1  6  0  0  0
 14 13  1  0  0  0  0
 14 15  1  0  0  0  0
 15 16  1  0  0  0  0
 15 28  1  1  0  0  0
 15 11  1  0  0  0  0
 16  8  1  0  0  0  0
 17 16  2  0  0  0  0
 18 14  1  0  0  0  0
 18 19  2  0  0  0  0
 19 30  1  0  0  0  0
 19 12  1  0  0  0  0
 20 31  1  0  0  0  0
 21 35  1  0  0  0  0
 21 34  1  0  0  0  0
 22 21  1  0  0  0  0
 23  3  1  0  0  0  0
 23 39  1  0  0  0  0
 26  7  1  0  0  0  0
 29 18  1  0  0  0  0
 32 20  1  0  0  0  0
 33 20  1  0  0  0  0
 36 22  1  0  0  0  0
 37 23  1  0  0  0  0
 38 23  1  0  0  0  0
M  END
>  <Pose>
1

>  <Score>
-5.53

$$$$
