
 OpenBabel03212208413D

 47 50  0  0  0  0  0  0  0  0999 V2000
   23.0470   37.3550   66.7450 B   0  0  0  0  0  0  0  0  0  0  0  0
   22.8190   35.7790   67.7590 C   0  0  0  0  0  0  0  0  0  0  0  0
   22.4430   35.8630   69.0780 C   0  0  0  0  0  0  0  0  0  0  0  0
   22.2360   34.7820   69.8320 C   0  0  0  0  0  0  0  0  0  0  0  0
   22.3970   33.4750   69.2760 C   0  0  0  0  0  0  0  0  0  0  0  0
   22.7410   33.3600   67.9720 C   0  0  0  0  0  0  0  0  0  0  0  0
   22.9570   34.5050   67.1990 C   0  0  0  0  0  0  0  0  0  0  0  0
   21.9470   37.2480   69.5630 C   0  0  0  0  0  0  0  0  0  0  0  0
   20.8580   37.1090   70.1460 N   0  0  0  0  0  0  0  0  0  0  0  0
   19.7940   37.4670   70.7850 N   0  0  0  0  0  0  0  0  0  0  0  0
   18.6560   37.2540   69.7610 C   0  0  0  0  0  0  0  0  0  0  0  0
   19.0640   37.1650   68.6090 O   0  0  0  0  0  0  0  0  0  0  0  0
   17.3070   37.1890   70.1530 C   0  0  0  0  0  0  0  0  0  0  0  0
   16.3490   38.0620   70.0850 N   0  0  0  0  0  0  0  0  0  0  0  0
   15.2190   37.4810   70.3010 N   0  0  0  0  0  0  0  0  0  0  0  0
   15.3660   36.1200   70.5360 N   0  0  0  0  0  0  0  0  0  0  0  0
   16.6600   35.9030   70.4560 C   0  0  0  0  0  0  0  0  0  0  0  0
   17.5770   34.8040   70.7440 C   0  0  0  0  0  0  0  0  0  0  0  0
   18.2440   34.4780   71.8560 N   0  0  0  0  0  0  0  0  0  0  0  0
   17.5390   33.4260   72.5750 C   0  0  0  0  0  0  0  0  0  0  0  0
   18.5620   32.3990   72.9600 C   0  0  0  0  0  0  0  0  0  0  0  0
   19.8820   32.8910   72.3740 C   0  0  0  0  0  0  0  0  0  0  0  0
   19.5680   34.3960   72.1860 C   0  0  0  0  0  0  0  0  0  0  0  0
   14.2020   35.3770   70.7240 C   0  0  0  0  0  0  0  0  0  0  0  0
   14.2110   34.1720   71.4250 N   0  0  0  0  0  0  0  0  0  0  0  0
   13.0500   33.6540   71.3480 O   0  0  0  0  0  0  0  0  0  0  0  0
   12.2510   34.3800   70.6750 N   0  0  0  0  0  0  0  0  0  0  0  0
   12.9530   35.4750   70.2670 C   0  0  0  0  0  0  0  0  0  0  0  0
   12.3240   36.4810   69.4630 N   0  0  0  0  0  0  0  0  0  0  0  0
   22.0090   34.8840   70.8770 H   0  0  0  0  0  0  0  0  0  0  0  0
   22.2820   32.6150   69.8620 H   0  0  0  0  0  0  0  0  0  0  0  0
   22.8410   32.3640   67.4670 H   0  0  0  0  0  0  0  0  0  0  0  0
   23.1780   34.3680   66.1390 H   0  0  0  0  0  0  0  0  0  0  0  0
   22.4540   38.0860   69.3760 H   0  0  0  0  0  0  0  0  0  0  0  0
   19.4890   37.8510   71.6750 H   0  0  0  0  0  0  0  0  0  0  0  0
   17.5360   33.9380   69.9920 H   0  0  0  0  0  0  0  0  0  0  0  0
   18.6210   35.2660   70.1010 H   0  0  0  0  0  0  0  0  0  0  0  0
   16.6980   33.0540   71.9910 H   0  0  0  0  0  0  0  0  0  0  0  0
   17.0500   33.8320   73.5190 H   0  0  0  0  0  0  0  0  0  0  0  0
   18.6140   32.2410   74.0480 H   0  0  0  0  0  0  0  0  0  0  0  0
   18.2690   31.3950   72.5290 H   0  0  0  0  0  0  0  0  0  0  0  0
   20.6760   32.7340   73.0850 H   0  0  0  0  0  0  0  0  0  0  0  0
   19.9960   32.5120   71.3630 H   0  0  0  0  0  0  0  0  0  0  0  0
   19.7100   34.8000   73.2490 H   0  0  0  0  0  0  0  0  0  0  0  0
   20.3160   34.8430   71.5190 H   0  0  0  0  0  0  0  0  0  0  0  0
   12.9420   37.1030   68.9230 H   0  0  0  0  0  0  0  0  0  0  0  0
   11.3140   36.6080   69.4820 H   0  0  0  0  0  0  0  0  0  0  0  0
  1  2  1  0  0  0  0
  2  3  1  0  0  0  0
  3  8  1  0  0  0  0
  3  4  2  0  0  0  0
  4 30  1  0  0  0  0
  5  4  1  0  0  0  0
  5 31  1  0  0  0  0
  6  5  2  0  0  0  0
  7  2  2  0  0  0  0
  7  6  1  0  0  0  0
  8  9  1  0  0  0  0
  9 10  1  0  0  0  0
 10 35  1  0  0  0  0
 11 13  1  0  0  0  0
 11 10  1  0  0  0  0
 12 11  2  0  0  0  0
 13 17  2  0  0  0  0
 14 13  1  0  0  0  0
 14 15  2  0  0  0  0
 15 16  1  0  0  0  0
 16 24  1  0  0  0  0
 17 16  1  0  0  0  0
 17 18  1  0  0  0  0
 18 19  1  0  0  0  0
 19 23  1  0  0  0  0
 19 20  1  0  0  0  0
 20 21  1  0  0  0  0
 20 39  1  0  0  0  0
 21 40  1  0  0  0  0
 22 21  1  0  0  0  0
 22 42  1  0  0  0  0
 23 22  1  0  0  0  0
 23 44  1  0  0  0  0
 24 25  2  0  0  0  0
 26 25  1  0  0  0  0
 27 26  1  0  0  0  0
 28 27  2  0  0  0  0
 28 24  1  0  0  0  0
 29 47  1  0  0  0  0
 29 28  1  0  0  0  0
 32  6  1  0  0  0  0
 33  7  1  0  0  0  0
 34  8  1  0  0  0  0
 36 18  1  0  0  0  0
 37 18  1  0  0  0  0
 38 20  1  0  0  0  0
 41 21  1  0  0  0  0
 43 22  1  0  0  0  0
 45 23  1  0  0  0  0
 46 29  1  0  0  0  0
M  END
>  <Pose>
1

>  <Score>
-8.27

$$$$
