
 OpenBabel03212208413D

 52 55  0  0  1  0  0  0  0  0999 V2000
   15.9000   37.3540   70.0400 B   0  0  0  0  0  0  0  0  0  0  0  0
   14.8610   35.7420   70.3060 C   0  0  0  0  0  0  0  0  0  0  0  0
   15.4190   34.6330   70.8730 C   0  0  0  0  0  0  0  0  0  0  0  0
   14.7180   33.4780   71.0700 C   0  0  0  0  0  0  0  0  0  0  0  0
   13.3780   33.4890   70.6520 C   0  0  0  0  0  0  0  0  0  0  0  0
   12.7850   34.5810   70.0800 C   0  0  0  0  0  0  0  0  0  0  0  0
   13.5430   35.7150   69.9100 C   0  0  0  0  0  0  0  0  0  0  0  0
   15.2370   32.2640   71.6450 C   0  0  2  0  0  0  0  0  0  0  0  0
   14.5460   31.8330   72.6760 O   0  0  0  0  0  0  0  0  0  0  0  0
   16.3970   31.4460   71.2700 C   0  0  0  0  0  0  0  0  0  0  0  0
   17.6440   32.1790   71.2300 N   0  0  0  0  0  0  0  0  0  0  0  0
   18.0850   33.0050   72.2340 C   0  0  0  0  0  0  0  0  0  0  0  0
   19.2540   33.5560   71.7970 C   0  0  0  0  0  0  0  0  0  0  0  0
   19.9440   34.4470   72.6240 C   0  0  0  0  0  0  0  0  0  0  0  0
   19.4320   34.7560   73.8660 C   0  0  0  0  0  0  0  0  0  0  0  0
   18.2510   34.2020   74.3100 C   0  0  0  0  0  0  0  0  0  0  0  0
   17.5700   33.3120   73.4760 C   0  0  0  0  0  0  0  0  0  0  0  0
   19.5010   33.0720   70.5600 N   0  0  0  0  0  0  0  0  0  0  0  0
   18.5290   32.2330   70.1980 C   0  0  2  0  0  0  0  0  0  0  0  0
   18.4070   31.6550   69.0240 N   0  0  0  0  0  0  0  0  0  0  0  0
   20.6580   33.4960   69.7900 C   0  0  0  0  0  0  0  0  0  0  0  0
   20.4800   34.7070   68.9700 C   0  0  0  0  0  0  0  0  0  0  0  0
   21.4290   35.7570   69.0620 N   0  0  0  0  0  0  0  0  0  0  0  0
   20.8040   36.9730   69.6430 C   0  0  0  0  0  0  0  0  0  0  0  0
   19.6020   37.4100   68.8720 C   0  0  0  0  0  0  0  0  0  0  0  0
   20.0560   37.8530   67.6280 O   0  0  0  0  0  0  0  0  0  0  0  0
   20.7450   36.8720   66.9580 C   0  0  0  0  0  0  0  0  0  0  0  0
   21.8620   36.2330   67.7370 C   0  0  0  0  0  0  0  0  0  0  0  0
   16.4360   34.7010   71.1740 H   0  0  0  0  0  0  0  0  0  0  0  0
   12.7370   32.6180   70.7680 H   0  0  0  0  0  0  0  0  0  0  0  0
   11.7310   34.5580   69.7620 H   0  0  0  0  0  0  0  0  0  0  0  0
   13.0840   36.5960   69.4560 H   0  0  0  0  0  0  0  0  0  0  0  0
   16.5210   30.5640   71.9740 H   0  0  0  0  0  0  0  0  0  0  0  0
   16.2240   31.0180   70.2360 H   0  0  0  0  0  0  0  0  0  0  0  0
   20.8750   34.8750   72.2670 H   0  0  0  0  0  0  0  0  0  0  0  0
   19.9860   35.4440   74.4850 H   0  0  0  0  0  0  0  0  0  0  0  0
   17.8720   34.4580   75.2880 H   0  0  0  0  0  0  0  0  0  0  0  0
   16.6460   32.8920   73.8220 H   0  0  0  0  0  0  0  0  0  0  0  0
   19.1050   31.7290   68.2890 H   0  0  0  0  0  0  0  0  0  0  0  0
   17.5460   31.1250   68.8280 H   0  0  0  0  0  0  0  0  0  0  0  0
   21.5260   33.5900   70.4790 H   0  0  0  0  0  0  0  0  0  0  0  0
   20.9320   32.6580   69.1070 H   0  0  0  0  0  0  0  0  0  0  0  0
   19.4180   35.0900   69.0980 H   0  0  0  0  0  0  0  0  0  0  0  0
   20.4670   34.3640   67.8900 H   0  0  0  0  0  0  0  0  0  0  0  0
   20.6220   36.8420   70.7230 H   0  0  0  0  0  0  0  0  0  0  0  0
   21.5790   37.7510   69.5260 H   0  0  0  0  0  0  0  0  0  0  0  0
   19.1860   38.2980   69.3910 H   0  0  0  0  0  0  0  0  0  0  0  0
   18.7940   36.6830   68.7870 H   0  0  0  0  0  0  0  0  0  0  0  0
   21.2410   37.3880   66.0840 H   0  0  0  0  0  0  0  0  0  0  0  0
   20.0220   36.1380   66.5430 H   0  0  0  0  0  0  0  0  0  0  0  0
   22.3200   35.4690   67.1210 H   0  0  0  0  0  0  0  0  0  0  0  0
   22.5790   37.0760   67.9840 H   0  0  0  0  0  0  0  0  0  0  0  0
  1  2  1  0  0  0  0
  2  3  1  0  0  0  0
  3  4  2  0  0  0  0
  3 29  1  0  0  0  0
  4  8  1  0  0  0  0
  5 30  1  0  0  0  0
  5  4  1  0  0  0  0
  6  5  2  0  0  0  0
  7  6  1  0  0  0  0
  7  2  2  0  0  0  0
  8  9  1  1  0  0  0
 10  8  1  0  0  0  0
 10 33  1  0  0  0  0
 11 10  1  0  0  0  0
 11 12  1  0  0  0  0
 12 17  1  0  0  0  0
 13 12  2  0  0  0  0
 13 14  1  0  0  0  0
 14 15  2  0  0  0  0
 15 16  1  0  0  0  0
 15 36  1  0  0  0  0
 16 37  1  0  0  0  0
 17 38  1  0  0  0  0
 17 16  2  0  0  0  0
 18 13  1  0  0  0  0
 19 20  1  6  0  0  0
 19 18  1  0  0  0  0
 19 11  1  0  0  0  0
 21 41  1  0  0  0  0
 21 18  1  0  0  0  0
 22 23  1  0  0  0  0
 22 43  1  0  0  0  0
 22 21  1  0  0  0  0
 23 24  1  0  0  0  0
 24 45  1  0  0  0  0
 25 47  1  0  0  0  0
 25 24  1  0  0  0  0
 26 25  1  0  0  0  0
 27 26  1  0  0  0  0
 27 28  1  0  0  0  0
 28 52  1  0  0  0  0
 28 23  1  0  0  0  0
 31  6  1  0  0  0  0
 32  7  1  0  0  0  0
 34 10  1  0  0  0  0
 35 14  1  0  0  0  0
 39 20  1  0  0  0  0
 40 20  1  0  0  0  0
 42 21  1  0  0  0  0
 44 22  1  0  0  0  0
 46 24  1  0  0  0  0
 48 25  1  0  0  0  0
 49 27  1  0  0  0  0
 50 27  1  0  0  0  0
 51 28  1  0  0  0  0
M  END
>  <Pose>
1

>  <Score>
-5.89

$$$$
