
 OpenBabel03212208413D

 51 54  0  0  1  0  0  0  0  0999 V2000
   21.2310   33.9770   69.8560 B   0  0  0  0  0  0  0  0  0  0  0  0
   19.6550   33.3320   70.7340 C   0  0  0  0  0  0  0  0  0  0  0  0
   19.2910   33.7740   71.9820 C   0  0  0  0  0  0  0  0  0  0  0  0
   18.1570   33.2970   72.5890 C   0  0  0  0  0  0  0  0  0  0  0  0
   17.3090   32.3470   71.9910 C   0  0  0  0  0  0  0  0  0  0  0  0
   17.6890   31.9230   70.7550 C   0  0  0  0  0  0  0  0  0  0  0  0
   18.8310   32.4030   70.1430 C   0  0  0  0  0  0  0  0  0  0  0  0
   16.1570   31.9090   72.7380 C   0  0  1  0  0  0  0  0  0  0  0  0
   14.8590   32.0250   72.1420 N   0  0  0  0  0  0  0  0  0  0  0  0
   14.0030   31.2550   73.0380 C   0  0  0  0  0  0  0  0  0  0  0  0
   12.7740   31.4160   73.2040 O   0  0  0  0  0  0  0  0  0  0  0  0
   14.8380   30.2690   73.6990 C   0  0  0  0  0  0  0  0  0  0  0  0
   14.5140   29.3940   74.5560 O   0  0  0  0  0  0  0  0  0  0  0  0
   16.1890   30.4820   73.1690 C   0  0  0  0  0  0  0  0  0  0  0  0
   17.1530   29.6030   73.1510 C   0  0  0  0  0  0  0  0  0  0  0  0
   18.4030   29.9970   72.6570 O   0  0  0  0  0  0  0  0  0  0  0  0
   16.9520   28.2210   73.6270 C   0  0  0  0  0  0  0  0  0  0  0  0
   17.4320   27.7200   74.7600 O   0  0  0  0  0  0  0  0  0  0  0  0
   17.0910   26.4670   74.9130 C   0  0  0  0  0  0  0  0  0  0  0  0
   16.3350   26.0560   73.8360 C   0  0  0  0  0  0  0  0  0  0  0  0
   16.2640   27.1870   73.0400 C   0  0  0  0  0  0  0  0  0  0  0  0
   15.8540   24.7680   73.7650 C   0  0  0  0  0  0  0  0  0  0  0  0
   16.0930   23.8260   74.7410 C   0  0  0  0  0  0  0  0  0  0  0  0
   16.8520   24.2320   75.8240 C   0  0  0  0  0  0  0  0  0  0  0  0
   17.3400   25.5170   75.9100 C   0  0  0  0  0  0  0  0  0  0  0  0
   14.3540   32.7480   70.9960 C   0  0  0  0  0  0  0  0  0  0  0  0
   13.8540   34.1150   71.2010 C   0  0  0  0  0  0  0  0  0  0  0  0
   13.7890   34.9750   70.0480 N   0  0  0  0  0  4  0  0  0  0  0  0
   12.5240   34.8990   69.3740 C   0  0  0  0  0  0  0  0  0  0  0  0
   14.2810   36.3070   70.2570 C   0  0  0  0  0  0  0  0  0  0  0  0
   19.9280   34.5050   72.4620 H   0  0  0  0  0  0  0  0  0  0  0  0
   17.9310   33.6900   73.5760 H   0  0  0  0  0  0  0  0  0  0  0  0
   17.1090   31.1860   70.2430 H   0  0  0  0  0  0  0  0  0  0  0  0
   19.1080   32.0420   69.1510 H   0  0  0  0  0  0  0  0  0  0  0  0
   16.0820   32.4790   73.7150 H   0  0  0  0  0  0  0  0  0  0  0  0
   15.7560   27.2470   72.0900 H   0  0  0  0  0  0  0  0  0  0  0  0
   15.2650   24.4670   72.9150 H   0  0  0  0  0  0  0  0  0  0  0  0
   15.7260   22.8080   74.7080 H   0  0  0  0  0  0  0  0  0  0  0  0
   17.0720   23.5380   76.6220 H   0  0  0  0  0  0  0  0  0  0  0  0
   17.9330   25.8370   76.7560 H   0  0  0  0  0  0  0  0  0  0  0  0
   13.5900   32.1430   70.4430 H   0  0  0  0  0  0  0  0  0  0  0  0
   15.2140   32.8120   70.2580 H   0  0  0  0  0  0  0  0  0  0  0  0
   14.4730   34.6470   71.9480 H   0  0  0  0  0  0  0  0  0  0  0  0
   12.7970   34.0540   71.5990 H   0  0  0  0  0  0  0  0  0  0  0  0
   14.4840   34.5250   69.3590 H   0  0  0  0  0  0  0  0  0  0  0  0
   11.9140   34.1520   69.9160 H   0  0  0  0  0  0  0  0  0  0  0  0
   12.0250   35.8800   69.2300 H   0  0  0  0  0  0  0  0  0  0  0  0
   12.6000   34.4800   68.3290 H   0  0  0  0  0  0  0  0  0  0  0  0
   14.6730   36.5060   71.2680 H   0  0  0  0  0  0  0  0  0  0  0  0
   15.1470   36.5530   69.5720 H   0  0  0  0  0  0  0  0  0  0  0  0
   13.5050   37.0690   69.9450 H   0  0  0  0  0  0  0  0  0  0  0  0
  1  2  1  0  0  0  0
  2  3  1  0  0  0  0
  3 31  1  0  0  0  0
  3  4  2  0  0  0  0
  4 32  1  0  0  0  0
  5  4  1  0  0  0  0
  5  8  1  0  0  0  0
  6  5  2  0  0  0  0
  7  2  2  0  0  0  0
  7  6  1  0  0  0  0
  8 14  1  0  0  0  0
  8 35  1  1  0  0  0
  9  8  1  0  0  0  0
  9 10  1  0  0  0  0
 10 11  2  0  0  0  0
 10 12  1  0  0  0  0
 12 13  2  0  0  0  0
 14 12  1  0  0  0  0
 15 14  2  0  0  0  0
 15 17  1  0  0  0  0
 16 15  1  0  0  0  0
 17 18  1  0  0  0  0
 18 19  1  0  0  0  0
 19 25  1  0  0  0  0
 20 19  2  0  0  0  0
 21 17  2  0  0  0  0
 21 20  1  0  0  0  0
 22 20  1  0  0  0  0
 22 23  2  0  0  0  0
 23 24  1  0  0  0  0
 24 25  2  0  0  0  0
 24 39  1  0  0  0  0
 25 40  1  0  0  0  0
 26 27  1  0  0  0  0
 26  9  1  0  0  0  0
 27 44  1  0  0  0  0
 27 43  1  0  0  0  0
 28 30  1  0  0  0  0
 28 27  1  0  0  0  0
 29 46  1  0  0  0  0
 29 28  1  0  0  0  0
 30 49  1  0  0  0  0
 33  6  1  0  0  0  0
 34  7  1  0  0  0  0
 36 21  1  0  0  0  0
 37 22  1  0  0  0  0
 38 23  1  0  0  0  0
 41 26  1  0  0  0  0
 42 26  1  0  0  0  0
 45 28  1  0  0  0  0
 47 29  1  0  0  0  0
 48 29  1  0  0  0  0
 50 30  1  0  0  0  0
 51 30  1  0  0  0  0
M  END
>  <Pose>
1

>  <Score>
-5.58

$$$$
