
 OpenBabel03212208413D

 50 53  0  0  1  0  0  0  0  0999 V2000
   13.0170   36.4240   69.3710 Cl  0  0  0  0  0  0  0  0  0  0  0  0
   13.6190   35.0150   70.2350 C   0  0  0  0  0  0  0  0  0  0  0  0
   12.7610   34.0790   70.7700 C   0  0  0  0  0  0  0  0  0  0  0  0
   13.2400   32.9730   71.4490 C   0  0  0  0  0  0  0  0  0  0  0  0
   14.5910   32.7490   71.6250 C   0  0  0  0  0  0  0  0  0  0  0  0
   15.4520   33.6830   71.0890 C   0  0  0  0  0  0  0  0  0  0  0  0
   14.9720   34.8040   70.4010 C   0  0  0  0  0  0  0  0  0  0  0  0
   15.0700   31.5700   72.3450 C   0  0  0  0  0  0  0  0  0  0  0  0
   16.3360   31.1630   72.5990 N   0  0  0  0  0  0  0  0  0  0  0  0
   16.2850   30.0130   73.3020 C   0  0  1  0  0  0  0  0  0  0  0  0
   15.0010   29.6520   73.5170 N   0  0  0  0  0  0  0  0  0  0  0  0
   14.2620   30.6170   72.9240 C   0  0  0  0  0  0  0  0  0  0  0  0
   14.4980   28.4920   74.2230 C   0  0  0  0  0  0  0  0  0  0  0  0
   13.4710   28.9100   75.2190 C   0  0  0  0  0  0  0  0  0  0  0  0
   13.8560   29.2300   76.3450 O   0  0  0  0  0  0  0  0  0  0  0  0
   12.1340   28.9140   74.8160 N   0  0  0  0  0  0  0  0  0  0  0  0
   11.0370   29.2360   75.6570 C   0  0  0  0  0  0  0  0  0  0  0  0
    9.9690   28.3340   75.7480 C   0  0  0  0  0  0  0  0  0  0  0  0
    8.8940   28.6180   76.5280 C   0  0  0  0  0  0  0  0  0  0  0  0
    8.8230   29.7980   77.2510 C   0  0  0  0  0  0  0  0  0  0  0  0
    9.8680   30.6710   77.1550 C   0  0  0  0  0  0  0  0  0  0  0  0
   10.9900   30.4060   76.3590 C   0  0  0  0  0  0  0  0  0  0  0  0
    7.6380   30.0870   78.0980 C   0  0  0  0  0  0  0  0  0  0  0  0
    6.4710   30.4510   77.1750 C   0  0  0  0  0  0  0  0  0  0  0  0
   17.6630   29.5420   73.5940 C   0  0  0  0  0  0  0  0  0  0  0  0
   18.5810   30.5890   73.0650 C   0  0  0  0  0  0  0  0  0  0  0  0
   17.7060   31.5610   72.3650 C   0  0  0  0  0  0  0  0  0  0  0  0
   11.7020   34.2480   70.6370 H   0  0  0  0  0  0  0  0  0  0  0  0
   12.5430   32.2490   71.8620 H   0  0  0  0  0  0  0  0  0  0  0  0
   16.5190   33.5550   71.1970 H   0  0  0  0  0  0  0  0  0  0  0  0
   15.6410   35.5330   69.9840 H   0  0  0  0  0  0  0  0  0  0  0  0
   13.1600   30.6280   72.9120 H   0  0  0  0  0  0  0  0  0  0  0  0
   15.3320   27.9400   74.7010 H   0  0  0  0  0  0  0  0  0  0  0  0
   14.0760   27.8110   73.4490 H   0  0  0  0  0  0  0  0  0  0  0  0
   11.8590   28.6690   73.8060 H   0  0  0  0  0  0  0  0  0  0  0  0
   10.0130   27.3920   75.1790 H   0  0  0  0  0  0  0  0  0  0  0  0
    8.0530   27.9080   76.6000 H   0  0  0  0  0  0  0  0  0  0  0  0
    9.8670   31.6170   77.7030 H   0  0  0  0  0  0  0  0  0  0  0  0
   11.7840   31.1720   76.3290 H   0  0  0  0  0  0  0  0  0  0  0  0
    7.8660   30.9150   78.7900 H   0  0  0  0  0  0  0  0  0  0  0  0
    7.3520   29.1920   78.6770 H   0  0  0  0  0  0  0  0  0  0  0  0
    6.1260   29.5530   76.6470 H   0  0  0  0  0  0  0  0  0  0  0  0
    6.7850   31.2760   76.5230 H   0  0  0  0  0  0  0  0  0  0  0  0
    5.6240   30.8240   77.7970 H   0  0  0  0  0  0  0  0  0  0  0  0
   17.8420   28.5380   73.1540 H   0  0  0  0  0  0  0  0  0  0  0  0
   17.8090   29.4770   74.7080 H   0  0  0  0  0  0  0  0  0  0  0  0
   19.1650   31.0710   73.9050 H   0  0  0  0  0  0  0  0  0  0  0  0
   19.3430   30.1240   72.3670 H   0  0  0  0  0  0  0  0  0  0  0  0
   17.9360   31.5900   71.2720 H   0  0  0  0  0  0  0  0  0  0  0  0
   17.8740   32.5650   72.8480 H   0  0  0  0  0  0  0  0  0  0  0  0
  1  2  1  0  0  0  0
  2  7  2  0  0  0  0
  2  3  1  0  0  0  0
  3  4  2  0  0  0  0
  4  5  1  0  0  0  0
  4 29  1  0  0  0  0
  5  8  1  0  0  0  0
  6 30  1  0  0  0  0
  6  5  2  0  0  0  0
  7  6  1  0  0  0  0
  8  9  1  0  0  0  0
  8 12  2  0  0  0  0
 10  9  1  6  0  0  0
 10 11  1  0  0  0  0
 10 25  1  0  0  0  0
 11 13  1  0  0  0  0
 12 11  1  0  0  0  0
 13 33  1  0  0  0  0
 13 14  1  0  0  0  0
 14 15  2  0  0  0  0
 16 14  1  0  0  0  0
 16 17  1  0  0  0  0
 17 18  2  0  0  0  0
 17 22  1  0  0  0  0
 18 19  1  0  0  0  0
 19 37  1  0  0  0  0
 19 20  2  0  0  0  0
 20 23  1  0  0  0  0
 21 20  1  0  0  0  0
 21 38  1  0  0  0  0
 22 21  2  0  0  0  0
 23 41  1  0  0  0  0
 23 40  1  0  0  0  0
 24 44  1  0  0  0  0
 24 23  1  0  0  0  0
 25 46  1  0  0  0  0
 26 25  1  0  0  0  0
 26 47  1  0  0  0  0
 27  9  1  0  0  0  0
 27 50  1  0  0  0  0
 27 26  1  0  0  0  0
 28  3  1  0  0  0  0
 31  7  1  0  0  0  0
 32 12  1  0  0  0  0
 34 13  1  0  0  0  0
 35 16  1  0  0  0  0
 36 18  1  0  0  0  0
 39 22  1  0  0  0  0
 42 24  1  0  0  0  0
 43 24  1  0  0  0  0
 45 25  1  0  0  0  0
 48 26  1  0  0  0  0
 49 27  1  0  0  0  0
M  END
>  <Pose>
1

>  <Score>
-5.92

$$$$
