
 OpenBabel03212208413D

 45 48  0  0  0  0  0  0  0  0999 V2000
   25.1460   35.7220   64.5060 B   0  0  0  0  0  0  0  0  0  0  0  0
   23.6950   35.9300   65.7520 C   0  0  0  0  0  0  0  0  0  0  0  0
   23.3480   34.8990   66.6060 C   0  0  0  0  0  0  0  0  0  0  0  0
   22.3280   35.0290   67.4900 N   0  0  0  0  0  0  0  0  0  0  0  0
   21.6260   36.1660   67.5620 C   0  0  0  0  0  0  0  0  0  0  0  0
   20.6170   36.2900   68.4390 N   0  0  0  0  0  0  0  0  0  0  0  0
   20.2640   35.3000   69.2760 C   0  0  0  0  0  0  0  0  0  0  0  0
   20.9830   34.1330   69.2040 C   0  0  0  0  0  0  0  0  0  0  0  0
   22.0400   33.9850   68.2940 C   0  0  0  0  0  0  0  0  0  0  0  0
   22.6780   32.9040   68.2540 O   0  0  0  0  0  0  0  0  0  0  0  0
   19.1440   35.4980   70.2180 C   0  0  0  0  0  0  0  0  0  0  0  0
   18.4950   34.2640   70.3630 O   0  0  0  0  0  0  0  0  0  0  0  0
   17.6610   34.0850   71.5010 C   0  0  0  0  0  0  0  0  0  0  0  0
   18.3120   34.1070   72.5370 O   0  0  0  0  0  0  0  0  0  0  0  0
   16.2360   33.9100   71.3000 C   0  0  0  0  0  0  0  0  0  0  0  0
   15.6350   32.7180   71.5920 N   0  0  0  0  0  0  0  0  0  0  0  0
   14.3390   32.5330   71.4180 N   0  0  0  0  0  0  0  0  0  0  0  0
   13.5490   33.5110   70.9440 C   0  0  0  0  0  0  0  0  0  0  0  0
   12.2970   33.3210   70.7790 O   0  0  0  0  0  0  0  0  0  0  0  0
   14.0750   34.7400   70.6240 C   0  0  0  0  0  0  0  0  0  0  0  0
   15.4480   34.9090   70.8180 C   0  0  0  0  0  0  0  0  0  0  0  0
   15.9310   36.1520   70.4870 C   0  0  0  0  0  0  0  0  0  0  0  0
   15.1040   37.1580   69.9970 C   0  0  0  0  0  0  0  0  0  0  0  0
   13.7560   36.9570   69.8180 C   0  0  0  0  0  0  0  0  0  0  0  0
   13.2510   35.7230   70.1420 C   0  0  0  0  0  0  0  0  0  0  0  0
   13.7140   31.2650   71.7320 C   0  0  0  0  0  0  0  0  0  0  0  0
   13.7470   30.9560   73.2060 C   0  0  0  0  0  0  0  0  0  0  0  0
   12.5260   31.1610   73.8210 O   0  0  0  0  0  0  0  0  0  0  0  0
   21.9560   37.1980   66.7250 C   0  0  0  0  0  0  0  0  0  0  0  0
   22.9860   37.1040   65.8120 C   0  0  0  0  0  0  0  0  0  0  0  0
   23.9330   33.9800   66.5300 H   0  0  0  0  0  0  0  0  0  0  0  0
   20.7460   33.3020   69.8520 H   0  0  0  0  0  0  0  0  0  0  0  0
   19.4670   35.9420   71.1800 H   0  0  0  0  0  0  0  0  0  0  0  0
   18.4690   36.2770   69.7680 H   0  0  0  0  0  0  0  0  0  0  0  0
   16.9540   36.3830   70.5960 H   0  0  0  0  0  0  0  0  0  0  0  0
   15.5330   38.1220   69.7500 H   0  0  0  0  0  0  0  0  0  0  0  0
   13.1030   37.7450   69.4330 H   0  0  0  0  0  0  0  0  0  0  0  0
   12.2030   35.5440   70.0120 H   0  0  0  0  0  0  0  0  0  0  0  0
   14.2470   30.4470   71.2090 H   0  0  0  0  0  0  0  0  0  0  0  0
   12.6700   31.2610   71.3840 H   0  0  0  0  0  0  0  0  0  0  0  0
   14.5410   31.5210   73.7270 H   0  0  0  0  0  0  0  0  0  0  0  0
   13.9910   29.8790   73.3050 H   0  0  0  0  0  0  0  0  0  0  0  0
   11.8440   30.6750   73.3000 H   0  0  0  0  0  0  0  0  0  0  0  0
   21.3890   38.1390   66.7700 H   0  0  0  0  0  0  0  0  0  0  0  0
   23.2400   37.9200   65.1560 H   0  0  0  0  0  0  0  0  0  0  0  0
  1  2  1  0  0  0  0
  2 30  2  0  0  0  0
  2  3  1  0  0  0  0
  3  4  1  0  0  0  0
  4  5  1  0  0  0  0
  4  9  1  0  0  0  0
  5  6  1  0  0  0  0
  6  7  2  0  0  0  0
  7 11  1  0  0  0  0
  8  7  1  0  0  0  0
  8 32  1  0  0  0  0
  9  8  1  0  0  0  0
 10  9  2  0  0  0  0
 11 12  1  0  0  0  0
 11 33  1  0  0  0  0
 12 13  1  0  0  0  0
 13 14  2  0  0  0  0
 15 13  1  0  0  0  0
 15 16  2  0  0  0  0
 17 16  1  0  0  0  0
 17 26  1  0  0  0  0
 18 17  1  0  0  0  0
 19 18  2  0  0  0  0
 20 21  1  0  0  0  0
 20 18  1  0  0  0  0
 21 15  1  0  0  0  0
 22 35  1  0  0  0  0
 22 21  2  0  0  0  0
 23 22  1  0  0  0  0
 24 23  2  0  0  0  0
 24 25  1  0  0  0  0
 25 20  2  0  0  0  0
 26 27  1  0  0  0  0
 27 42  1  0  0  0  0
 27 41  1  0  0  0  0
 27 28  1  0  0  0  0
 29 44  1  0  0  0  0
 29  5  2  0  0  0  0
 30 29  1  0  0  0  0
 31  3  1  0  0  0  0
 34 11  1  0  0  0  0
 36 23  1  0  0  0  0
 37 24  1  0  0  0  0
 38 25  1  0  0  0  0
 39 26  1  0  0  0  0
 40 26  1  0  0  0  0
 43 28  1  0  0  0  0
 45 30  1  0  0  0  0
M  END
>  <Pose>
1

>  <Score>
-7.35

$$$$
