
 OpenBabel03212208413D

 55 58  0  0  1  0  0  0  0  0999 V2000
    8.1020   30.3140   77.6970 Cl  0  0  0  0  0  0  0  0  0  0  0  0
    9.6020   29.7900   76.9170 C   0  0  0  0  0  0  0  0  0  0  0  0
   10.2620   30.6580   76.0790 C   0  0  0  0  0  0  0  0  0  0  0  0
   11.4390   30.2860   75.4500 C   0  0  0  0  0  0  0  0  0  0  0  0
   12.2730   30.9090   74.6040 N   0  0  0  0  0  0  0  0  0  0  0  0
   13.3120   30.0610   74.2820 C   0  0  0  0  0  0  0  0  0  0  0  0
   13.0720   28.9400   74.9520 N   0  0  0  0  0  0  0  0  0  0  0  0
   11.9260   29.0220   75.6900 C   0  0  0  0  0  0  0  0  0  0  0  0
   11.2710   28.1440   76.5280 C   0  0  0  0  0  0  0  0  0  0  0  0
   10.1050   28.5240   77.1470 C   0  0  0  0  0  0  0  0  0  0  0  0
   13.8920   27.7430   74.9960 C   0  0  0  0  0  0  0  0  0  0  0  0
   14.4580   30.4350   73.4140 C   0  0  0  0  0  0  0  0  0  0  0  0
   15.7470   29.7870   73.6890 C   0  0  0  0  0  0  0  0  0  0  0  0
   16.5750   29.3860   72.5460 C   0  0  0  0  0  0  0  0  0  0  0  0
   16.9040   28.1960   72.3380 O   0  0  0  0  0  0  0  0  0  0  0  0
   17.0290   30.4040   71.6290 N   0  0  0  0  0  0  0  0  0  0  0  0
   18.4410   30.6390   71.4940 C   0  0  0  0  0  0  0  0  0  0  0  0
   18.7220   32.0150   72.0620 C   0  0  2  0  0  0  0  0  0  0  0  0
   17.6020   32.9750   71.8790 C   0  0  1  0  0  0  0  0  0  0  0  0
   16.6250   32.6280   70.8160 C   0  0  0  0  0  0  0  0  0  0  0  0
   16.1520   31.2120   70.8270 C   0  0  0  0  0  0  0  0  0  0  0  0
   16.8870   33.2100   73.0630 O   0  0  0  0  0  0  0  0  0  0  0  0
   18.2210   34.3300   71.5070 C   0  0  0  0  0  0  0  0  0  0  0  0
   19.9740   32.4730   71.5110 N   0  0  0  0  0  0  0  0  0  0  0  0
   20.1020   32.6660   70.1840 C   0  0  0  0  0  0  0  0  0  0  0  0
   21.2780   33.1010   69.6160 C   0  0  0  0  0  0  0  0  0  0  0  0
   22.3520   33.3450   70.4390 C   0  0  0  0  0  0  0  0  0  0  0  0
   23.4690   33.7500   69.9750 O   0  0  0  0  0  0  0  0  0  0  0  0
   22.1960   33.1430   71.7570 N   0  0  0  0  0  0  0  0  0  0  0  0
   21.0460   32.7210   72.2830 C   0  0  0  0  0  0  0  0  0  0  0  0
   20.9510   32.5470   73.5320 O   0  0  0  0  0  0  0  0  0  0  0  0
    9.9060   31.6620   75.8680 H   0  0  0  0  0  0  0  0  0  0  0  0
   11.6900   27.1710   76.6830 H   0  0  0  0  0  0  0  0  0  0  0  0
    9.5650   27.8610   77.8120 H   0  0  0  0  0  0  0  0  0  0  0  0
   14.8660   27.8720   74.5110 H   0  0  0  0  0  0  0  0  0  0  0  0
   14.0350   27.3650   76.0280 H   0  0  0  0  0  0  0  0  0  0  0  0
   13.3090   26.9450   74.4670 H   0  0  0  0  0  0  0  0  0  0  0  0
   14.5280   31.5540   73.4110 H   0  0  0  0  0  0  0  0  0  0  0  0
   14.0970   30.2010   72.3630 H   0  0  0  0  0  0  0  0  0  0  0  0
   16.3550   30.3350   74.4640 H   0  0  0  0  0  0  0  0  0  0  0  0
   15.5020   28.8080   74.2250 H   0  0  0  0  0  0  0  0  0  0  0  0
   18.7900   30.5530   70.4430 H   0  0  0  0  0  0  0  0  0  0  0  0
   19.0110   29.8740   72.0600 H   0  0  0  0  0  0  0  0  0  0  0  0
   18.8740   31.8730   73.1650 H   0  0  0  0  0  0  0  0  0  0  0  0
   15.7140   33.2750   70.9760 H   0  0  0  0  0  0  0  0  0  0  0  0
   17.0100   32.9560   69.8120 H   0  0  0  0  0  0  0  0  0  0  0  0
   16.2430   30.8320   69.7670 H   0  0  0  0  0  0  0  0  0  0  0  0
   15.0860   31.0990   71.0930 H   0  0  0  0  0  0  0  0  0  0  0  0
   17.3570   32.7210   73.8080 H   0  0  0  0  0  0  0  0  0  0  0  0
   17.4380   35.0920   71.7400 H   0  0  0  0  0  0  0  0  0  0  0  0
   19.0700   34.5610   72.1910 H   0  0  0  0  0  0  0  0  0  0  0  0
   18.4710   34.3940   70.4460 H   0  0  0  0  0  0  0  0  0  0  0  0
   19.2470   32.4730   69.5260 H   0  0  0  0  0  0  0  0  0  0  0  0
   21.3780   33.2550   68.5520 H   0  0  0  0  0  0  0  0  0  0  0  0
   23.0020   33.3190   72.4300 H   0  0  0  0  0  0  0  0  0  0  0  0
  2 10  1  0  0  0  0
  2  1  1  0  0  0  0
  3  2  2  0  0  0  0
  4  8  2  0  0  0  0
  4  3  1  0  0  0  0
  5  4  1  0  0  0  0
  6  5  2  0  0  0  0
  6  7  1  0  0  0  0
  7 11  1  0  0  0  0
  7  8  1  0  0  0  0
  8  9  1  0  0  0  0
  9 33  1  0  0  0  0
  9 10  2  0  0  0  0
 10 34  1  0  0  0  0
 11 36  1  0  0  0  0
 12 13  1  0  0  0  0
 12  6  1  0  0  0  0
 13 41  1  0  0  0  0
 13 40  1  0  0  0  0
 14 13  1  0  0  0  0
 15 14  2  0  0  0  0
 16 14  1  0  0  0  0
 17 16  1  0  0  0  0
 17 43  1  0  0  0  0
 17 18  1  0  0  0  0
 18 44  1  1  0  0  0
 19 18  1  0  0  0  0
 19 22  1  1  0  0  0
 20 21  1  0  0  0  0
 20 45  1  0  0  0  0
 20 19  1  0  0  0  0
 21 48  1  0  0  0  0
 21 16  1  0  0  0  0
 22 49  1  0  0  0  0
 23 50  1  0  0  0  0
 23 19  1  0  0  0  0
 23 51  1  0  0  0  0
 24 18  1  0  0  0  0
 24 30  1  0  0  0  0
 25 24  1  0  0  0  0
 26 25  2  0  0  0  0
 26 27  1  0  0  0  0
 27 29  1  0  0  0  0
 28 27  2  0  0  0  0
 29 30  1  0  0  0  0
 29 55  1  0  0  0  0
 30 31  2  0  0  0  0
 32  3  1  0  0  0  0
 35 11  1  0  0  0  0
 37 11  1  0  0  0  0
 38 12  1  0  0  0  0
 39 12  1  0  0  0  0
 42 17  1  0  0  0  0
 46 20  1  0  0  0  0
 47 21  1  0  0  0  0
 52 23  1  0  0  0  0
 53 25  1  0  0  0  0
 54 26  1  0  0  0  0
M  END
>  <Pose>
1

>  <Score>
-6.23

$$$$
