
 OpenBabel03212208413D

 49 52  0  0  0  0  0  0  0  0999 V2000
   23.6930   33.3670   67.3840 B   0  0  0  0  0  0  0  0  0  0  0  0
   22.4410   34.5720   68.1380 C   0  0  0  0  0  0  0  0  0  0  0  0
   22.2120   34.5410   69.5020 C   0  0  0  0  0  0  0  0  0  0  0  0
   21.3110   35.3930   70.1140 C   0  0  0  0  0  0  0  0  0  0  0  0
   20.6300   36.2990   69.3130 C   0  0  0  0  0  0  0  0  0  0  0  0
   20.8620   36.3240   67.9580 C   0  0  0  0  0  0  0  0  0  0  0  0
   21.7550   35.4830   67.3330 C   0  0  0  0  0  0  0  0  0  0  0  0
   21.0490   35.3840   71.5460 C   0  0  0  0  0  0  0  0  0  0  0  0
   20.6880   36.4460   72.1150 O   0  0  0  0  0  0  0  0  0  0  0  0
   21.1800   34.2270   72.3460 N   0  0  0  0  0  0  0  0  0  0  0  0
   20.0320   33.4610   72.7810 C   0  0  0  0  0  0  0  0  0  0  0  0
   19.3670   32.7750   71.6410 C   0  0  0  0  0  0  0  0  0  0  0  0
   19.8020   31.6400   71.3280 O   0  0  0  0  0  0  0  0  0  0  0  0
   18.2990   33.3260   70.9160 N   0  0  0  0  0  0  0  0  0  0  0  0
   18.0560   34.7460   70.8530 C   0  0  0  0  0  0  0  0  0  0  0  0
   16.7230   34.9940   71.5250 C   0  0  0  0  0  0  0  0  0  0  0  0
   15.6810   34.0670   70.9460 C   0  0  0  0  0  0  0  0  0  0  0  0
   15.2130   33.2020   72.0080 N   0  0  0  0  0  0  0  0  0  0  0  0
   14.1330   32.3480   71.6530 C   0  0  0  0  0  0  0  0  0  0  0  0
   13.0780   32.9190   70.7790 C   0  0  0  0  0  0  0  0  0  0  0  0
   13.2430   34.3550   70.4690 C   0  0  0  0  0  0  0  0  0  0  0  0
   12.3560   35.3260   70.0900 N   0  0  0  0  0  0  0  0  0  0  0  0
   13.0630   36.4520   69.9400 C   0  0  0  0  0  0  0  0  0  0  0  0
   14.3540   36.2040   70.2140 N   0  0  0  0  0  0  0  0  0  0  0  0
   14.5050   34.8980   70.5500 C   0  0  0  0  0  0  0  0  0  0  0  0
   16.1510   33.2620   69.7780 C   0  0  0  0  0  0  0  0  0  0  0  0
   17.3930   32.4680   70.1970 C   0  0  0  0  0  0  0  0  0  0  0  0
   22.7530   33.8340   70.0800 H   0  0  0  0  0  0  0  0  0  0  0  0
   19.9050   37.0040   69.7130 H   0  0  0  0  0  0  0  0  0  0  0  0
   20.3390   37.0250   67.3160 H   0  0  0  0  0  0  0  0  0  0  0  0
   21.9600   35.4760   66.2870 H   0  0  0  0  0  0  0  0  0  0  0  0
   22.1310   33.9180   72.6300 H   0  0  0  0  0  0  0  0  0  0  0  0
   19.2660   34.1210   73.2370 H   0  0  0  0  0  0  0  0  0  0  0  0
   20.3940   32.7520   73.5500 H   0  0  0  0  0  0  0  0  0  0  0  0
   17.9890   35.0870   69.7890 H   0  0  0  0  0  0  0  0  0  0  0  0
   18.8680   35.3440   71.3030 H   0  0  0  0  0  0  0  0  0  0  0  0
   16.4120   36.0570   71.4410 H   0  0  0  0  0  0  0  0  0  0  0  0
   16.8930   34.7760   72.6140 H   0  0  0  0  0  0  0  0  0  0  0  0
   16.0180   32.5970   72.3190 H   0  0  0  0  0  0  0  0  0  0  0  0
   13.6310   32.0450   72.6200 H   0  0  0  0  0  0  0  0  0  0  0  0
   14.4800   31.3660   71.2300 H   0  0  0  0  0  0  0  0  0  0  0  0
   12.0420   32.7950   71.2150 H   0  0  0  0  0  0  0  0  0  0  0  0
   13.0020   32.3630   69.8000 H   0  0  0  0  0  0  0  0  0  0  0  0
   11.3150   35.1650   69.9540 H   0  0  0  0  0  0  0  0  0  0  0  0
   12.6620   37.4080   69.6460 H   0  0  0  0  0  0  0  0  0  0  0  0
   16.3190   33.8500   68.8760 H   0  0  0  0  0  0  0  0  0  0  0  0
   15.3770   32.5070   69.5510 H   0  0  0  0  0  0  0  0  0  0  0  0
   17.9160   32.0680   69.3040 H   0  0  0  0  0  0  0  0  0  0  0  0
   17.0370   31.6170   70.7830 H   0  0  0  0  0  0  0  0  0  0  0  0
  1  2  1  0  0  0  0
  2  3  1  0  0  0  0
  3 28  1  0  0  0  0
  3  4  2  0  0  0  0
  4  8  1  0  0  0  0
  5 29  1  0  0  0  0
  5  4  1  0  0  0  0
  6  5  2  0  0  0  0
  7  6  1  0  0  0  0
  7  2  2  0  0  0  0
  8  9  2  0  0  0  0
  8 10  1  0  0  0  0
 10 32  1  0  0  0  0
 10 11  1  0  0  0  0
 11 33  1  0  0  0  0
 11 34  1  0  0  0  0
 12 11  1  0  0  0  0
 13 12  2  0  0  0  0
 14 12  1  0  0  0  0
 15 14  1  0  0  0  0
 15 36  1  0  0  0  0
 15 16  1  0  0  0  0
 16 38  1  0  0  0  0
 17 16  1  0  0  0  0
 17 18  1  0  0  0  0
 18 39  1  0  0  0  0
 19 18  1  0  0  0  0
 19 40  1  0  0  0  0
 20 42  1  0  0  0  0
 20 19  1  0  0  0  0
 21 25  2  0  0  0  0
 21 20  1  0  0  0  0
 22 21  1  0  0  0  0
 23 22  1  0  0  0  0
 23 24  2  0  0  0  0
 24 25  1  0  0  0  0
 25 17  1  0  0  0  0
 26 27  1  0  0  0  0
 26 17  1  0  0  0  0
 27 49  1  0  0  0  0
 27 14  1  0  0  0  0
 30  6  1  0  0  0  0
 31  7  1  0  0  0  0
 35 15  1  0  0  0  0
 37 16  1  0  0  0  0
 41 19  1  0  0  0  0
 43 20  1  0  0  0  0
 44 22  1  0  0  0  0
 45 23  1  0  0  0  0
 46 26  1  0  0  0  0
 47 26  1  0  0  0  0
 48 27  1  0  0  0  0
M  END
>  <Pose>
1

>  <Score>
-6.96

$$$$
