
 OpenBabel03212208413D

 51 54  0  0  1  0  0  0  0  0999 V2000
   15.4930   26.7420   76.3330 B   0  0  0  0  0  0  0  0  0  0  0  0
   15.7390   27.7480   74.7310 C   0  0  0  0  0  0  0  0  0  0  0  0
   15.1530   28.9890   74.5680 C   0  0  0  0  0  0  0  0  0  0  0  0
   15.3000   29.7550   73.4310 C   0  0  0  0  0  0  0  0  0  0  0  0
   16.0940   29.2000   72.4220 C   0  0  0  0  0  0  0  0  0  0  0  0
   16.6760   27.9670   72.5850 C   0  0  0  0  0  0  0  0  0  0  0  0
   16.5200   27.2120   73.7290 C   0  0  0  0  0  0  0  0  0  0  0  0
   17.1750   25.8790   73.8510 C   0  0  0  0  0  0  0  0  0  0  0  0
   16.2200   29.9990   71.2950 O   0  0  0  0  0  0  0  0  0  0  0  0
   15.4540   31.1630   71.0490 C   0  0  0  0  0  0  0  0  0  0  0  0
   15.3350   32.0230   72.3510 C   0  0  2  0  0  0  0  0  0  0  0  0
   14.6670   31.0540   73.2530 C   0  0  0  0  0  0  0  0  0  0  0  0
   13.6090   31.2220   73.8840 O   0  0  0  0  0  0  0  0  0  0  0  0
   14.7190   33.2200   72.1600 N   0  0  0  0  0  0  0  0  0  0  0  0
   13.3950   33.3660   71.7300 C   0  0  0  0  0  0  0  0  0  0  0  0
   13.3620   33.7060   70.2550 C   0  0  0  0  0  0  0  0  0  0  0  0
   13.9390   34.9940   70.1530 O   0  0  0  0  0  0  0  0  0  0  0  0
   15.3090   34.7760   70.3810 C   0  0  0  0  0  0  0  0  0  0  0  0
   15.4790   34.3470   71.8400 C   0  0  0  0  0  0  0  0  0  0  0  0
   16.7530   32.2000   72.7620 C   0  0  0  0  0  0  0  0  0  0  0  0
   17.7780   31.9520   71.7980 N   0  0  0  0  0  0  0  0  0  0  0  0
   17.9500   32.8740   70.7410 C   0  0  0  0  0  0  0  0  0  0  0  0
   18.6620   34.1410   71.2390 C   0  0  0  0  0  0  0  0  0  0  0  0
   19.9510   33.7290   71.5950 O   0  0  0  0  0  0  0  0  0  0  0  0
   19.8200   32.9440   72.7460 C   0  0  0  0  0  0  0  0  0  0  0  0
   19.0340   31.6920   72.5040 C   0  0  0  0  0  0  0  0  0  0  0  0
   14.5270   29.4260   75.3650 H   0  0  0  0  0  0  0  0  0  0  0  0
   17.2830   27.5680   71.7830 H   0  0  0  0  0  0  0  0  0  0  0  0
   16.5630   25.1730   74.4450 H   0  0  0  0  0  0  0  0  0  0  0  0
   17.3530   25.5190   72.8120 H   0  0  0  0  0  0  0  0  0  0  0  0
   18.1770   25.9930   74.3140 H   0  0  0  0  0  0  0  0  0  0  0  0
   15.9750   31.7270   70.2590 H   0  0  0  0  0  0  0  0  0  0  0  0
   14.4320   30.8900   70.6990 H   0  0  0  0  0  0  0  0  0  0  0  0
   12.6970   32.5580   71.9280 H   0  0  0  0  0  0  0  0  0  0  0  0
   12.9630   34.2690   72.2450 H   0  0  0  0  0  0  0  0  0  0  0  0
   13.8970   32.9790   69.6510 H   0  0  0  0  0  0  0  0  0  0  0  0
   12.3000   33.8370   69.9690 H   0  0  0  0  0  0  0  0  0  0  0  0
   15.8250   35.7470   70.2850 H   0  0  0  0  0  0  0  0  0  0  0  0
   15.6310   34.0290   69.6610 H   0  0  0  0  0  0  0  0  0  0  0  0
   15.0160   35.2260   72.4080 H   0  0  0  0  0  0  0  0  0  0  0  0
   16.5280   34.3980   72.0980 H   0  0  0  0  0  0  0  0  0  0  0  0
   17.0210   31.5720   73.6610 H   0  0  0  0  0  0  0  0  0  0  0  0
   16.9570   33.2550   73.1250 H   0  0  0  0  0  0  0  0  0  0  0  0
   17.0470   33.2060   70.2660 H   0  0  0  0  0  0  0  0  0  0  0  0
   18.6700   32.4310   70.0070 H   0  0  0  0  0  0  0  0  0  0  0  0
   18.6940   34.8220   70.3490 H   0  0  0  0  0  0  0  0  0  0  0  0
   18.1250   34.6210   72.0690 H   0  0  0  0  0  0  0  0  0  0  0  0
   20.8710   32.6310   73.0030 H   0  0  0  0  0  0  0  0  0  0  0  0
   19.4500   33.5360   73.6040 H   0  0  0  0  0  0  0  0  0  0  0  0
   19.6420   30.9400   71.9810 H   0  0  0  0  0  0  0  0  0  0  0  0
   18.7520   31.2580   73.4850 H   0  0  0  0  0  0  0  0  0  0  0  0
  2  1  1  0  0  0  0
  3  2  1  0  0  0  0
  3 27  1  0  0  0  0
  4  3  2  0  0  0  0
  5  6  2  0  0  0  0
  5  4  1  0  0  0  0
  6  7  1  0  0  0  0
  7  8  1  0  0  0  0
  7  2  2  0  0  0  0
  8 31  1  0  0  0  0
  8 29  1  0  0  0  0
  9  5  1  0  0  0  0
 10  9  1  0  0  0  0
 10 11  1  0  0  0  0
 11 20  1  1  0  0  0
 11 12  1  0  0  0  0
 12  4  1  0  0  0  0
 12 13  2  0  0  0  0
 14 11  1  0  0  0  0
 15 34  1  0  0  0  0
 15 14  1  0  0  0  0
 15 35  1  0  0  0  0
 16 15  1  0  0  0  0
 17 16  1  0  0  0  0
 17 18  1  0  0  0  0
 18 19  1  0  0  0  0
 19 41  1  0  0  0  0
 19 14  1  0  0  0  0
 19 40  1  0  0  0  0
 20 43  1  0  0  0  0
 20 42  1  0  0  0  0
 21 26  1  0  0  0  0
 21 20  1  0  0  0  0
 22 23  1  0  0  0  0
 22 21  1  0  0  0  0
 23 24  1  0  0  0  0
 23 47  1  0  0  0  0
 24 25  1  0  0  0  0
 25 48  1  0  0  0  0
 25 49  1  0  0  0  0
 26 25  1  0  0  0  0
 26 51  1  0  0  0  0
 28  6  1  0  0  0  0
 30  8  1  0  0  0  0
 32 10  1  0  0  0  0
 33 10  1  0  0  0  0
 36 16  1  0  0  0  0
 37 16  1  0  0  0  0
 38 18  1  0  0  0  0
 39 18  1  0  0  0  0
 44 22  1  0  0  0  0
 45 22  1  0  0  0  0
 46 23  1  0  0  0  0
 50 26  1  0  0  0  0
M  END
>  <Pose>
1

>  <Score>
-4.32

$$$$
