
 OpenBabel03212208413D

 50 53  0  0  0  0  0  0  0  0999 V2000
   19.9270   24.3720   72.4110 B   0  0  0  0  0  0  0  0  0  0  0  0
   19.2510   25.8280   73.4160 C   0  0  0  0  0  0  0  0  0  0  0  0
   19.8930   26.2320   74.5500 C   0  0  0  0  0  0  0  0  0  0  0  0
   19.3710   27.3050   75.2680 C   0  0  0  0  0  0  0  0  0  0  0  0
   18.2150   27.9360   74.8190 C   0  0  0  0  0  0  0  0  0  0  0  0
   17.5640   27.5360   73.6830 C   0  0  0  0  0  0  0  0  0  0  0  0
   18.0920   26.4740   72.9830 C   0  0  0  0  0  0  0  0  0  0  0  0
   17.4240   26.0780   71.8340 O   0  0  0  0  0  0  0  0  0  0  0  0
   16.3560   28.2090   73.2300 C   0  0  0  0  0  0  0  0  0  0  0  0
   16.3240   29.0210   72.2340 N   0  0  0  0  0  0  0  0  0  0  0  0
   15.0770   29.6320   71.8680 N   0  0  0  0  0  0  0  0  0  0  0  0
   14.7580   30.8350   72.4820 C   0  0  0  0  0  0  0  0  0  0  0  0
   15.0000   30.9200   73.7450 O   0  0  0  0  0  0  0  0  0  0  0  0
   14.1810   32.0330   71.9000 C   0  0  0  0  0  0  0  0  0  0  0  0
   12.9180   32.1260   71.3700 N   0  0  0  0  0  0  0  0  0  0  0  0
   12.7180   33.3400   70.9390 N   0  0  0  0  0  0  0  0  0  0  0  0
   13.7780   34.1040   71.1390 N   0  0  0  0  0  0  0  0  0  0  0  0
   14.6960   33.3230   71.7330 C   0  0  0  0  0  0  0  0  0  0  0  0
   16.0550   33.7040   72.1260 C   0  0  0  0  0  0  0  0  0  0  0  0
   17.0770   33.4220   71.1150 N   0  0  0  0  0  0  0  0  0  0  0  0
   17.8330   32.2260   71.5340 C   0  0  0  0  0  0  0  0  0  0  0  0
   18.2140   32.3460   72.9680 C   0  0  0  0  0  0  0  0  0  0  0  0
   18.8830   33.5280   73.1700 O   0  0  0  0  0  0  0  0  0  0  0  0
   19.2160   34.1950   72.0200 C   0  0  0  0  0  0  0  0  0  0  0  0
   18.0530   34.5390   71.1270 C   0  0  0  0  0  0  0  0  0  0  0  0
   13.8620   35.4620   70.7430 C   0  0  0  0  0  0  0  0  0  0  0  0
   14.5980   36.4640   71.2700 N   0  0  0  0  0  0  0  0  0  0  0  0
   14.3920   37.5650   70.5970 O   0  0  0  0  0  0  0  0  0  0  0  0
   13.5400   37.3540   69.6260 N   0  0  0  0  0  0  0  0  0  0  0  0
   13.1900   36.0580   69.6870 C   0  0  0  0  0  0  0  0  0  0  0  0
   12.2820   35.4380   68.8020 N   0  0  0  0  0  0  0  0  0  0  0  0
   20.2410   27.8920   76.8470 B   0  0  0  0  0  0  0  0  0  0  0  0
   21.0470   25.6180   75.0140 O   0  0  0  0  0  0  0  0  0  0  0  0
   17.8140   28.7600   75.3720 H   0  0  0  0  0  0  0  0  0  0  0  0
   17.9150   26.0340   70.9500 H   0  0  0  0  0  0  0  0  0  0  0  0
   15.4180   28.0300   73.7500 H   0  0  0  0  0  0  0  0  0  0  0  0
   14.5080   29.1080   71.1620 H   0  0  0  0  0  0  0  0  0  0  0  0
   16.3750   33.1920   73.0370 H   0  0  0  0  0  0  0  0  0  0  0  0
   16.1030   34.7910   72.2770 H   0  0  0  0  0  0  0  0  0  0  0  0
   17.2680   31.3070   71.3110 H   0  0  0  0  0  0  0  0  0  0  0  0
   18.7490   32.2160   70.9140 H   0  0  0  0  0  0  0  0  0  0  0  0
   17.3570   32.2880   73.6600 H   0  0  0  0  0  0  0  0  0  0  0  0
   18.9520   31.5240   73.2020 H   0  0  0  0  0  0  0  0  0  0  0  0
   19.6490   35.1860   72.3520 H   0  0  0  0  0  0  0  0  0  0  0  0
   20.0340   33.6740   71.4800 H   0  0  0  0  0  0  0  0  0  0  0  0
   18.4530   34.6250   70.1080 H   0  0  0  0  0  0  0  0  0  0  0  0
   17.6100   35.4730   71.4550 H   0  0  0  0  0  0  0  0  0  0  0  0
   12.6510   34.8010   68.0720 H   0  0  0  0  0  0  0  0  0  0  0  0
   11.2590   35.5940   68.8510 H   0  0  0  0  0  0  0  0  0  0  0  0
   21.4690   25.8960   75.8850 H   0  0  0  0  0  0  0  0  0  0  0  0
  1  2  1  0  0  0  0
  2  3  1  0  0  0  0
  3 33  1  0  0  0  0
  3  4  2  0  0  0  0
  4 32  1  0  0  0  0
  5  4  1  0  0  0  0
  5 34  1  0  0  0  0
  6  5  2  0  0  0  0
  7  2  2  0  0  0  0
  7  6  1  0  0  0  0
  8  7  1  0  0  0  0
  9  6  1  0  0  0  0
  9 36  1  0  0  0  0
 10  9  2  0  0  0  0
 11 10  1  0  0  0  0
 11 12  1  0  0  0  0
 12 13  2  0  0  0  0
 14 12  1  0  0  0  0
 15 14  1  0  0  0  0
 16 17  1  0  0  0  0
 16 15  2  0  0  0  0
 17 18  1  0  0  0  0
 18 14  2  0  0  0  0
 18 19  1  0  0  0  0
 19 39  1  0  0  0  0
 19 38  1  0  0  0  0
 20 25  1  0  0  0  0
 20 21  1  0  0  0  0
 20 19  1  0  0  0  0
 21 22  1  0  0  0  0
 22 23  1  0  0  0  0
 22 43  1  0  0  0  0
 22 42  1  0  0  0  0
 24 44  1  0  0  0  0
 24 23  1  0  0  0  0
 25 47  1  0  0  0  0
 25 24  1  0  0  0  0
 26 17  1  0  0  0  0
 26 27  2  0  0  0  0
 28 27  1  0  0  0  0
 29 30  2  0  0  0  0
 29 28  1  0  0  0  0
 30 26  1  0  0  0  0
 31 49  1  0  0  0  0
 31 30  1  0  0  0  0
 33 50  1  0  0  0  0
 35  8  1  0  0  0  0
 37 11  1  0  0  0  0
 40 21  1  0  0  0  0
 41 21  1  0  0  0  0
 45 24  1  0  0  0  0
 46 25  1  0  0  0  0
 48 31  1  0  0  0  0
M  END
>  <Pose>
1

>  <Score>
-8.83

$$$$
