
 OpenBabel03212208413D

 41 44  0  0  0  0  0  0  0  0999 V2000
   22.0560   36.0450   67.3270 B   0  0  0  0  0  0  0  0  0  0  0  0
   23.4600   35.3640   68.4290 C   0  0  0  0  0  0  0  0  0  0  0  0
   24.5870   36.1340   68.6100 C   0  0  0  0  0  0  0  0  0  0  0  0
   25.6000   35.6790   69.3840 N   0  0  0  0  0  0  0  0  0  0  0  0
   25.4740   34.4700   69.9620 C   0  0  0  0  0  0  0  0  0  0  0  0
   24.3850   33.6570   69.8230 C   0  0  0  0  0  0  0  0  0  0  0  0
   23.3460   34.1130   69.0350 C   0  0  0  0  0  0  0  0  0  0  0  0
   24.3520   32.3660   70.4950 C   0  0  0  0  0  0  0  0  0  0  0  0
   25.1450   31.4600   70.0740 O   0  0  0  0  0  0  0  0  0  0  0  0
   23.4810   32.0900   71.5820 N   0  0  0  0  0  0  0  0  0  0  0  0
   22.7330   30.8420   71.5590 C   0  0  0  0  0  0  0  0  0  0  0  0
   22.2520   30.4800   72.9460 C   0  0  0  0  0  0  0  0  0  0  0  0
   20.8320   30.8480   72.9920 N   0  0  0  0  0  0  0  0  0  0  0  0
   19.8240   30.1570   73.4970 N   0  0  0  0  0  0  0  0  0  0  0  0
   18.6860   30.8210   73.3500 N   0  0  0  0  0  0  0  0  0  0  0  0
   18.9300   31.9870   72.7320 C   0  0  0  0  0  0  0  0  0  0  0  0
   20.2870   31.9960   72.5100 C   0  0  0  0  0  0  0  0  0  0  0  0
   17.9730   33.0200   72.3750 C   0  0  0  0  0  0  0  0  0  0  0  0
   16.7610   32.8470   71.8190 N   0  0  0  0  0  0  0  0  0  0  0  0
   16.1790   34.0440   71.6400 C   0  0  0  0  0  0  0  0  0  0  0  0
   17.0590   34.9480   72.0980 N   0  0  0  0  0  0  0  0  0  0  0  0
   18.1070   34.3110   72.5240 O   0  0  0  0  0  0  0  0  0  0  0  0
   14.8460   34.3120   71.0600 C   0  0  0  0  0  0  0  0  0  0  0  0
   13.8020   33.4550   71.3200 C   0  0  0  0  0  0  0  0  0  0  0  0
   12.5830   33.6890   70.7970 N   0  0  0  0  0  0  0  0  0  0  0  0
   12.3140   34.7470   70.0070 C   0  0  0  0  0  0  0  0  0  0  0  0
   13.3680   35.6020   69.7510 C   0  0  0  0  0  0  0  0  0  0  0  0
   14.6240   35.4020   70.2630 C   0  0  0  0  0  0  0  0  0  0  0  0
   24.6980   37.1220   68.1400 H   0  0  0  0  0  0  0  0  0  0  0  0
   26.3200   34.1500   70.5780 H   0  0  0  0  0  0  0  0  0  0  0  0
   22.4580   33.5190   68.8850 H   0  0  0  0  0  0  0  0  0  0  0  0
   23.3850   32.7640   72.3670 H   0  0  0  0  0  0  0  0  0  0  0  0
   21.8140   31.0270   70.9430 H   0  0  0  0  0  0  0  0  0  0  0  0
   23.3450   30.0440   71.0980 H   0  0  0  0  0  0  0  0  0  0  0  0
   22.3790   29.3930   73.0770 H   0  0  0  0  0  0  0  0  0  0  0  0
   22.7520   31.0620   73.7350 H   0  0  0  0  0  0  0  0  0  0  0  0
   20.8440   32.7810   72.0320 H   0  0  0  0  0  0  0  0  0  0  0  0
   13.9870   32.5800   71.9630 H   0  0  0  0  0  0  0  0  0  0  0  0
   11.3210   34.9210   69.5920 H   0  0  0  0  0  0  0  0  0  0  0  0
   13.1860   36.4670   69.1170 H   0  0  0  0  0  0  0  0  0  0  0  0
   15.4590   36.0740   70.0650 H   0  0  0  0  0  0  0  0  0  0  0  0
  1  2  1  0  0  0  0
  2  3  2  0  0  0  0
  2  7  1  0  0  0  0
  3  4  1  0  0  0  0
  4  5  2  0  0  0  0
  5 30  1  0  0  0  0
  6  5  1  0  0  0  0
  6  8  1  0  0  0  0
  7  6  2  0  0  0  0
  8 10  1  0  0  0  0
  9  8  2  0  0  0  0
 10 32  1  0  0  0  0
 11 10  1  0  0  0  0
 11 12  1  0  0  0  0
 12 13  1  0  0  0  0
 12 35  1  0  0  0  0
 12 36  1  0  0  0  0
 13 14  1  0  0  0  0
 15 14  2  0  0  0  0
 16 15  1  0  0  0  0
 17 16  2  0  0  0  0
 17 13  1  0  0  0  0
 18 22  1  0  0  0  0
 18 16  1  0  0  0  0
 19 18  2  0  0  0  0
 20 19  1  0  0  0  0
 20 21  2  0  0  0  0
 21 22  1  0  0  0  0
 23 24  1  0  0  0  0
 23 20  1  0  0  0  0
 24 38  1  0  0  0  0
 25 24  2  0  0  0  0
 26 25  1  0  0  0  0
 27 26  2  0  0  0  0
 27 28  1  0  0  0  0
 28 23  2  0  0  0  0
 29  3  1  0  0  0  0
 31  7  1  0  0  0  0
 33 11  1  0  0  0  0
 34 11  1  0  0  0  0
 37 17  1  0  0  0  0
 39 26  1  0  0  0  0
 40 27  1  0  0  0  0
 41 28  1  0  0  0  0
M  END
>  <Pose>
1

>  <Score>
-7.29

$$$$
