
 OpenBabel03212208413D

 54 57  0  0  0  0  0  0  0  0999 V2000
   17.1580   26.4600   72.7560 Cl  0  0  0  0  0  0  0  0  0  0  0  0
   15.9040   27.2820   73.6890 C   0  0  0  0  0  0  0  0  0  0  0  0
   15.7450   28.6440   73.5560 C   0  0  0  0  0  0  0  0  0  0  0  0
   14.7660   29.2550   74.2910 C   0  0  0  0  0  0  0  0  0  0  0  0
   13.9340   28.5610   75.1560 C   0  0  0  0  0  0  0  0  0  0  0  0
   14.1270   27.1800   75.2620 C   0  0  0  0  0  0  0  0  0  0  0  0
   15.1030   26.5450   74.5350 C   0  0  0  0  0  0  0  0  0  0  0  0
   16.5560   29.4080   72.6950 N   0  0  0  0  0  0  0  0  0  0  0  0
   17.9720   29.5390   72.9160 C   0  0  0  0  0  0  0  0  0  0  0  0
   18.4610   30.9630   72.8240 C   0  0  0  0  0  0  0  0  0  0  0  0
   17.4380   31.7480   72.1880 N   0  0  0  0  0  0  0  0  0  0  0  0
   16.7860   31.1850   71.0340 C   0  0  0  0  0  0  0  0  0  0  0  0
   15.8820   30.0620   71.5630 C   0  0  0  0  0  0  0  0  0  0  0  0
   17.0470   33.0300   72.6330 C   0  0  0  0  0  0  0  0  0  0  0  0
   17.4140   33.4730   73.7610 O   0  0  0  0  0  0  0  0  0  0  0  0
   16.2100   33.9080   71.8310 C   0  0  0  0  0  0  0  0  0  0  0  0
   16.7150   35.0640   71.3040 C   0  0  0  0  0  0  0  0  0  0  0  0
   15.9930   35.9410   70.5400 N   0  0  0  0  0  0  0  0  0  0  0  0
   14.7210   35.6390   70.3040 C   0  0  0  0  0  0  0  0  0  0  0  0
   14.1260   34.5050   70.7900 C   0  0  0  0  0  0  0  0  0  0  0  0
   14.9050   33.5860   71.5980 C   0  0  0  0  0  0  0  0  0  0  0  0
   14.0720   32.5810   71.9280 N   0  0  0  0  0  0  0  0  0  0  0  0
   12.8760   32.7970   71.4070 N   0  0  0  0  0  0  0  0  0  0  0  0
   12.8630   33.9430   70.7140 C   0  0  0  0  0  0  0  0  0  0  0  0
   11.9110   34.4870   70.0760 O   0  0  0  0  0  0  0  0  0  0  0  0
   16.6420   37.1240   69.9970 C   0  0  0  0  0  0  0  0  0  0  0  0
   17.1820   37.0000   68.6430 C   0  0  0  0  0  0  0  0  0  0  0  0
   17.7710   38.1040   67.8830 C   0  0  0  0  0  0  0  0  0  0  0  0
   19.0990   38.2510   67.7490 O   0  0  0  0  0  0  0  0  0  0  0  0
   19.9080   37.2980   67.2810 C   0  0  0  0  0  0  0  0  0  0  0  0
   14.6310   30.3160   74.1980 H   0  0  0  0  0  0  0  0  0  0  0  0
   13.1780   29.0670   75.7170 H   0  0  0  0  0  0  0  0  0  0  0  0
   13.4660   26.6630   75.9430 H   0  0  0  0  0  0  0  0  0  0  0  0
   15.2300   25.4920   74.6340 H   0  0  0  0  0  0  0  0  0  0  0  0
   18.5730   28.8970   72.2390 H   0  0  0  0  0  0  0  0  0  0  0  0
   18.1930   29.1920   73.9480 H   0  0  0  0  0  0  0  0  0  0  0  0
   18.7660   31.3690   73.8070 H   0  0  0  0  0  0  0  0  0  0  0  0
   19.3710   31.0060   72.1630 H   0  0  0  0  0  0  0  0  0  0  0  0
   17.5200   30.6530   70.3610 H   0  0  0  0  0  0  0  0  0  0  0  0
   16.2070   31.9220   70.4620 H   0  0  0  0  0  0  0  0  0  0  0  0
   15.6250   29.3400   70.7780 H   0  0  0  0  0  0  0  0  0  0  0  0
   14.9770   30.5510   71.9790 H   0  0  0  0  0  0  0  0  0  0  0  0
   17.7630   35.3680   71.4640 H   0  0  0  0  0  0  0  0  0  0  0  0
   14.0870   36.2690   69.6880 H   0  0  0  0  0  0  0  0  0  0  0  0
   12.0130   32.1900   71.4890 H   0  0  0  0  0  0  0  0  0  0  0  0
   17.3070   37.6260   70.7370 H   0  0  0  0  0  0  0  0  0  0  0  0
   15.7770   37.8780   69.9210 H   0  0  0  0  0  0  0  0  0  0  0  0
   17.8770   36.0860   68.6000 H   0  0  0  0  0  0  0  0  0  0  0  0
   16.3150   36.6020   67.9930 H   0  0  0  0  0  0  0  0  0  0  0  0
   17.2370   38.2550   66.8780 H   0  0  0  0  0  0  0  0  0  0  0  0
   17.4120   39.0650   68.4200 H   0  0  0  0  0  0  0  0  0  0  0  0
   19.6530   37.0050   66.2280 H   0  0  0  0  0  0  0  0  0  0  0  0
   20.0200   36.3730   67.8530 H   0  0  0  0  0  0  0  0  0  0  0  0
   20.9530   37.7570   67.1350 H   0  0  0  0  0  0  0  0  0  0  0  0
  1  2  1  0  0  0  0
  2  7  1  0  0  0  0
  3  2  2  0  0  0  0
  3  4  1  0  0  0  0
  4  5  2  0  0  0  0
  5  6  1  0  0  0  0
  5 32  1  0  0  0  0
  6 33  1  0  0  0  0
  7 34  1  0  0  0  0
  7  6  2  0  0  0  0
  8  9  1  0  0  0  0
  8  3  1  0  0  0  0
  9 36  1  0  0  0  0
 10  9  1  0  0  0  0
 10 37  1  0  0  0  0
 11 14  1  0  0  0  0
 11 10  1  0  0  0  0
 12 13  1  0  0  0  0
 12 11  1  0  0  0  0
 13 42  1  0  0  0  0
 13  8  1  0  0  0  0
 14 15  2  0  0  0  0
 16 14  1  0  0  0  0
 17 43  1  0  0  0  0
 17 16  1  0  0  0  0
 18 17  1  0  0  0  0
 19 18  1  0  0  0  0
 19 20  2  0  0  0  0
 20 21  1  0  0  0  0
 21 16  2  0  0  0  0
 21 22  1  0  0  0  0
 23 45  1  0  0  0  0
 23 22  1  0  0  0  0
 24 20  1  0  0  0  0
 24 23  1  0  0  0  0
 25 24  2  0  0  0  0
 26 18  1  0  0  0  0
 26 46  1  0  0  0  0
 27 26  1  0  0  0  0
 28 51  1  0  0  0  0
 28 27  1  0  0  0  0
 29 28  1  0  0  0  0
 30 29  1  0  0  0  0
 30 53  1  0  0  0  0
 31  4  1  0  0  0  0
 35  9  1  0  0  0  0
 38 10  1  0  0  0  0
 39 12  1  0  0  0  0
 40 12  1  0  0  0  0
 41 13  1  0  0  0  0
 44 19  1  0  0  0  0
 47 26  1  0  0  0  0
 48 27  1  0  0  0  0
 49 27  1  0  0  0  0
 50 28  1  0  0  0  0
 52 30  1  0  0  0  0
 54 30  1  0  0  0  0
M  END
>  <Pose>
1

>  <Score>
-7.21

$$$$
