
 OpenBabel03212208413D

 59 63  0  0  1  0  0  0  0  0999 V2000
   16.8700   25.9450   72.6230 B   0  0  0  0  0  0  0  0  0  0  0  0
   16.5030   27.7060   73.2260 C   0  0  0  0  0  0  0  0  0  0  0  0
   17.0280   28.7980   72.5700 C   0  0  0  0  0  0  0  0  0  0  0  0
   16.7620   30.1000   73.0130 C   0  0  0  0  0  0  0  0  0  0  0  0
   15.9560   30.1830   74.1280 C   0  0  0  0  0  0  0  0  0  0  0  0
   15.4160   29.1300   74.8060 C   0  0  0  0  0  0  0  0  0  0  0  0
   15.7010   27.8590   74.3390 C   0  0  0  0  0  0  0  0  0  0  0  0
   17.3640   31.2390   72.3490 C   0  0  2  0  0  0  0  0  0  0  0  0
   18.5390   31.8510   72.7910 N   0  0  0  0  0  0  0  0  0  0  0  0
   18.2140   33.2460   73.0730 C   0  0  0  0  0  0  0  0  0  0  0  0
   18.9470   34.1100   73.6180 O   0  0  0  0  0  0  0  0  0  0  0  0
   16.8630   33.5350   72.6190 C   0  0  0  0  0  0  0  0  0  0  0  0
   16.2550   34.6530   72.7140 O   0  0  0  0  0  0  0  0  0  0  0  0
   16.3600   32.3120   72.0530 C   0  0  0  0  0  0  0  0  0  0  0  0
   15.2040   32.1730   71.4370 C   0  0  0  0  0  0  0  0  0  0  0  0
   14.8970   30.8550   71.0250 O   0  0  0  0  0  0  0  0  0  0  0  0
   14.2520   33.2290   71.1480 C   0  0  0  0  0  0  0  0  0  0  0  0
   14.3910   34.4760   70.6720 N   0  0  0  0  0  0  0  0  0  0  0  0
   13.2250   35.1360   70.6030 C   0  0  0  0  0  0  0  0  0  0  0  0
   12.2870   34.2750   71.0560 N   0  0  0  0  0  0  0  0  0  0  0  0
   12.8650   33.1200   71.3920 C   0  0  0  0  0  0  0  0  0  0  0  0
   12.2010   31.9230   71.9260 C   0  0  0  0  0  0  0  0  0  0  0  0
   13.1340   36.4300   70.1260 C   0  0  0  0  0  0  0  0  0  0  0  0
   14.2750   37.0630   69.7110 C   0  0  0  0  0  0  0  0  0  0  0  0
   15.4760   36.3830   69.7800 C   0  0  0  0  0  0  0  0  0  0  0  0
   15.5310   35.0950   70.2600 C   0  0  0  0  0  0  0  0  0  0  0  0
   19.8530   31.3270   72.8730 C   0  0  0  0  0  0  0  0  0  0  0  0
   20.8860   31.6960   71.9080 C   0  0  0  0  0  0  0  0  0  0  0  0
   21.7410   32.8230   72.1430 N   0  0  0  0  0  4  0  0  0  0  0  0
   23.0590   32.4660   71.6180 C   0  0  0  0  0  0  0  0  0  0  0  0
   23.2250   32.8240   70.1760 C   0  0  0  0  0  0  0  0  0  0  0  0
   21.9930   33.1600   69.5960 O   0  0  0  0  0  0  0  0  0  0  0  0
   21.5940   34.3170   70.2280 C   0  0  0  0  0  0  0  0  0  0  0  0
   21.2240   34.0510   71.6400 C   0  0  0  0  0  0  0  0  0  0  0  0
   17.6540   28.7150   71.7020 H   0  0  0  0  0  0  0  0  0  0  0  0
   15.7310   31.1860   74.4980 H   0  0  0  0  0  0  0  0  0  0  0  0
   14.7850   29.2400   75.6840 H   0  0  0  0  0  0  0  0  0  0  0  0
   15.2700   27.0240   74.8840 H   0  0  0  0  0  0  0  0  0  0  0  0
   17.6670   30.8150   71.2920 H   0  0  0  0  0  0  0  0  0  0  0  0
   12.6260   30.9640   71.5530 H   0  0  0  0  0  0  0  0  0  0  0  0
   12.2260   31.9810   73.0400 H   0  0  0  0  0  0  0  0  0  0  0  0
   11.1300   31.9400   71.6280 H   0  0  0  0  0  0  0  0  0  0  0  0
   12.2020   36.9590   70.0730 H   0  0  0  0  0  0  0  0  0  0  0  0
   14.2920   38.0780   69.3230 H   0  0  0  0  0  0  0  0  0  0  0  0
   16.4100   36.8490   69.4600 H   0  0  0  0  0  0  0  0  0  0  0  0
   16.4810   34.5440   70.3160 H   0  0  0  0  0  0  0  0  0  0  0  0
   19.7480   30.1950   72.8490 H   0  0  0  0  0  0  0  0  0  0  0  0
   20.2560   31.5060   73.9090 H   0  0  0  0  0  0  0  0  0  0  0  0
   21.5770   30.7940   71.8410 H   0  0  0  0  0  0  0  0  0  0  0  0
   20.5000   31.7420   70.8440 H   0  0  0  0  0  0  0  0  0  0  0  0
   21.9360   32.9580   73.1790 H   0  0  0  0  0  0  0  0  0  0  0  0
   23.8170   33.0080   72.2040 H   0  0  0  0  0  0  0  0  0  0  0  0
   23.2540   31.3740   71.7670 H   0  0  0  0  0  0  0  0  0  0  0  0
   23.9080   33.7070   70.0620 H   0  0  0  0  0  0  0  0  0  0  0  0
   23.6120   31.9410   69.6290 H   0  0  0  0  0  0  0  0  0  0  0  0
   20.6830   34.6680   69.6450 H   0  0  0  0  0  0  0  0  0  0  0  0
   22.3960   35.1060   70.1340 H   0  0  0  0  0  0  0  0  0  0  0  0
   20.1090   34.1120   71.7210 H   0  0  0  0  0  0  0  0  0  0  0  0
   21.6760   34.8890   72.2540 H   0  0  0  0  0  0  0  0  0  0  0  0
  1  2  1  0  0  0  0
  2  7  1  0  0  0  0
  3  4  1  0  0  0  0
  3  2  2  0  0  0  0
  4  5  2  0  0  0  0
  5 36  1  0  0  0  0
  5  6  1  0  0  0  0
  6 37  1  0  0  0  0
  7  6  2  0  0  0  0
  7 38  1  0  0  0  0
  8 39  1  6  0  0  0
  8  9  1  0  0  0  0
  8  4  1  0  0  0  0
  9 27  1  0  0  0  0
  9 10  1  0  0  0  0
 10 11  2  0  0  0  0
 12 13  2  0  0  0  0
 12 10  1  0  0  0  0
 14  8  1  0  0  0  0
 14 12  1  0  0  0  0
 15 14  2  0  0  0  0
 16 15  1  0  0  0  0
 17 21  2  0  0  0  0
 17 15  1  0  0  0  0
 18 17  1  0  0  0  0
 19 18  1  0  0  0  0
 19 20  2  0  0  0  0
 20 21  1  0  0  0  0
 21 22  1  0  0  0  0
 22 41  1  0  0  0  0
 23 19  1  0  0  0  0
 24 25  1  0  0  0  0
 24 23  2  0  0  0  0
 25 26  2  0  0  0  0
 26 46  1  0  0  0  0
 26 18  1  0  0  0  0
 27 48  1  0  0  0  0
 28 29  1  0  0  0  0
 28 27  1  0  0  0  0
 29 51  1  0  0  0  0
 30 53  1  0  0  0  0
 30 29  1  0  0  0  0
 30 52  1  0  0  0  0
 31 30  1  0  0  0  0
 32 31  1  0  0  0  0
 32 33  1  0  0  0  0
 33 34  1  0  0  0  0
 34 58  1  0  0  0  0
 34 29  1  0  0  0  0
 34 59  1  0  0  0  0
 35  3  1  0  0  0  0
 40 22  1  0  0  0  0
 42 22  1  0  0  0  0
 43 23  1  0  0  0  0
 44 24  1  0  0  0  0
 45 25  1  0  0  0  0
 47 27  1  0  0  0  0
 49 28  1  0  0  0  0
 50 28  1  0  0  0  0
 54 31  1  0  0  0  0
 55 31  1  0  0  0  0
 56 33  1  0  0  0  0
 57 33  1  0  0  0  0
M  END
>  <Pose>
1

>  <Score>
-7.25

$$$$
