
 OpenBabel03212208413D

 56 59  0  0  1  0  0  0  0  0999 V2000
   13.0900   36.4600   69.6880 B   0  0  0  0  0  0  0  0  0  0  0  0
   13.9560   34.9410   70.4920 C   0  0  0  0  0  0  0  0  0  0  0  0
   13.1980   33.8780   70.9520 C   0  0  0  0  0  0  0  0  0  0  0  0
   13.8180   32.7770   71.5340 C   0  0  0  0  0  0  0  0  0  0  0  0
   15.1860   32.7140   71.6680 C   0  0  0  0  0  0  0  0  0  0  0  0
   15.9100   33.7880   71.2010 C   0  0  0  0  0  0  0  0  0  0  0  0
   15.3240   34.8870   70.6220 C   0  0  0  0  0  0  0  0  0  0  0  0
   15.8450   31.5760   72.2710 C   0  0  0  0  0  0  0  0  0  0  0  0
   15.6290   31.3070   73.4820 O   0  0  0  0  0  0  0  0  0  0  0  0
   16.7800   30.6900   71.5270 C   0  0  0  0  0  0  0  0  0  0  0  0
   17.9830   30.4460   72.2640 N   0  0  0  0  0  0  0  0  0  0  0  0
   19.1240   31.0870   72.1450 N   0  0  0  0  0  0  0  0  0  0  0  0
   20.0350   30.5900   72.9950 C   0  0  0  0  0  0  0  0  0  0  0  0
   19.4370   29.5990   73.6720 N   0  0  0  0  0  0  0  0  0  0  0  0
   18.1550   29.5160   73.2090 C   0  0  2  0  0  0  0  0  0  0  0  0
   17.1360   28.5710   73.6630 C   0  0  0  0  0  0  0  0  0  0  0  0
   16.8520   28.6740   75.1430 C   0  0  0  0  0  0  0  0  0  0  0  0
   17.9850   28.1160   75.9760 C   0  0  0  0  0  0  0  0  0  0  0  0
   19.2090   28.9770   75.9590 C   0  0  0  0  0  0  0  0  0  0  0  0
   20.0400   28.7740   74.7000 C   0  0  0  0  0  0  0  0  0  0  0  0
   21.4270   31.0220   73.1780 C   0  0  0  0  0  0  0  0  0  0  0  0
   21.6220   32.4020   72.8570 N   0  0  0  0  0  0  0  0  0  0  0  0
   21.4990   32.9170   71.5350 C   0  0  0  0  0  0  0  0  0  0  0  0
   20.5760   33.8820   71.2040 C   0  0  0  0  0  0  0  0  0  0  0  0
   20.4700   34.3730   69.9290 C   0  0  0  0  0  0  0  0  0  0  0  0
   21.2940   33.9000   68.9570 C   0  0  0  0  0  0  0  0  0  0  0  0
   22.2200   32.9330   69.2830 C   0  0  0  0  0  0  0  0  0  0  0  0
   22.3360   32.4330   70.5640 C   0  0  0  0  0  0  0  0  0  0  0  0
   21.2110   34.3730   67.6690 O   0  0  0  0  0  0  0  0  0  0  0  0
   21.1690   35.7440   67.3590 C   0  0  0  0  0  0  0  0  0  0  0  0
   12.1310   33.9350   70.8430 H   0  0  0  0  0  0  0  0  0  0  0  0
   13.2070   31.9640   71.8830 H   0  0  0  0  0  0  0  0  0  0  0  0
   17.0030   33.7560   71.2990 H   0  0  0  0  0  0  0  0  0  0  0  0
   15.9410   35.6930   70.2770 H   0  0  0  0  0  0  0  0  0  0  0  0
   16.2800   29.7630   71.1850 H   0  0  0  0  0  0  0  0  0  0  0  0
   17.0660   31.2710   70.6010 H   0  0  0  0  0  0  0  0  0  0  0  0
   16.1770   28.7300   73.1390 H   0  0  0  0  0  0  0  0  0  0  0  0
   17.4110   27.4940   73.4720 H   0  0  0  0  0  0  0  0  0  0  0  0
   16.5880   29.6790   75.4740 H   0  0  0  0  0  0  0  0  0  0  0  0
   15.9650   28.0220   75.3410 H   0  0  0  0  0  0  0  0  0  0  0  0
   18.2000   27.0730   75.7350 H   0  0  0  0  0  0  0  0  0  0  0  0
   17.6070   28.1160   77.0390 H   0  0  0  0  0  0  0  0  0  0  0  0
   18.9670   30.0370   76.0320 H   0  0  0  0  0  0  0  0  0  0  0  0
   19.8320   28.6930   76.8520 H   0  0  0  0  0  0  0  0  0  0  0  0
   20.1030   27.7130   74.4170 H   0  0  0  0  0  0  0  0  0  0  0  0
   21.0610   29.1360   74.8960 H   0  0  0  0  0  0  0  0  0  0  0  0
   22.0730   30.3890   72.5150 H   0  0  0  0  0  0  0  0  0  0  0  0
   21.7730   30.8370   74.2080 H   0  0  0  0  0  0  0  0  0  0  0  0
   21.8630   33.0760   73.5990 H   0  0  0  0  0  0  0  0  0  0  0  0
   19.9360   34.2290   72.0270 H   0  0  0  0  0  0  0  0  0  0  0  0
   19.7350   35.1270   69.7180 H   0  0  0  0  0  0  0  0  0  0  0  0
   22.8970   32.5330   68.5240 H   0  0  0  0  0  0  0  0  0  0  0  0
   23.0830   31.6630   70.8050 H   0  0  0  0  0  0  0  0  0  0  0  0
   20.8490   35.9000   66.3210 H   0  0  0  0  0  0  0  0  0  0  0  0
   20.4480   36.2360   68.0410 H   0  0  0  0  0  0  0  0  0  0  0  0
   22.1580   36.2310   67.5140 H   0  0  0  0  0  0  0  0  0  0  0  0
  1  2  1  0  0  0  0
  2  7  2  0  0  0  0
  2  3  1  0  0  0  0
  3  4  2  0  0  0  0
  4  5  1  0  0  0  0
  4 32  1  0  0  0  0
  5  8  1  0  0  0  0
  6 33  1  0  0  0  0
  6  5  2  0  0  0  0
  7  6  1  0  0  0  0
  8  9  2  0  0  0  0
 10 11  1  0  0  0  0
 10  8  1  0  0  0  0
 12 11  1  0  0  0  0
 12 13  2  0  0  0  0
 13 21  1  0  0  0  0
 13 14  1  0  0  0  0
 14 20  1  0  0  0  0
 15 11  1  6  0  0  0
 15 16  1  0  0  0  0
 15 14  1  0  0  0  0
 16 17  1  0  0  0  0
 17 40  1  0  0  0  0
 17 39  1  0  0  0  0
 17 18  1  0  0  0  0
 18 42  1  0  0  0  0
 19 18  1  0  0  0  0
 19 43  1  0  0  0  0
 19 44  1  0  0  0  0
 20 46  1  0  0  0  0
 20 19  1  0  0  0  0
 21 48  1  0  0  0  0
 22 21  1  0  0  0  0
 22 49  1  0  0  0  0
 23 22  1  0  0  0  0
 24 23  1  0  0  0  0
 24 50  1  0  0  0  0
 25 24  2  0  0  0  0
 26 27  2  0  0  0  0
 26 25  1  0  0  0  0
 27 28  1  0  0  0  0
 28 53  1  0  0  0  0
 28 23  2  0  0  0  0
 29 26  1  0  0  0  0
 30 56  1  0  0  0  0
 30 29  1  0  0  0  0
 30 55  1  0  0  0  0
 31  3  1  0  0  0  0
 34  7  1  0  0  0  0
 35 10  1  0  0  0  0
 36 10  1  0  0  0  0
 37 16  1  0  0  0  0
 38 16  1  0  0  0  0
 41 18  1  0  0  0  0
 45 20  1  0  0  0  0
 47 21  1  0  0  0  0
 51 25  1  0  0  0  0
 52 27  1  0  0  0  0
 54 30  1  0  0  0  0
M  END
>  <Pose>
1

>  <Score>
-6.83

$$$$
