
 OpenBabel03212208413D

 48 51  0  0  1  0  0  0  0  0999 V2000
   17.1140   25.8840   72.5620 Cl  0  0  0  0  0  0  0  0  0  0  0  0
   18.3100   27.0230   73.1640 C   0  0  0  0  0  0  0  0  0  0  0  0
   17.9740   28.3570   73.3770 C   0  0  0  0  0  0  0  0  0  0  0  0
   18.8830   29.2850   73.8210 C   0  0  0  0  0  0  0  0  0  0  0  0
   20.1790   28.8110   74.0530 C   0  0  0  0  0  0  0  0  0  0  0  0
   20.5360   27.4840   73.8450 C   0  0  0  0  0  0  0  0  0  0  0  0
   19.5990   26.5900   73.3990 C   0  0  0  0  0  0  0  0  0  0  0  0
   18.5230   30.6200   74.1490 N   0  0  0  0  0  4  0  0  0  0  0  0
   17.1110   30.8580   74.3150 C   0  0  0  0  0  0  0  0  0  0  0  0
   16.6640   32.0220   73.5350 C   0  0  2  0  0  0  0  0  0  0  0  0
   17.8720   32.5000   72.9240 N   0  0  0  0  0  0  0  0  0  0  0  0
   18.2490   33.7890   72.3940 C   0  0  0  0  0  0  0  0  0  0  0  0
   18.6090   33.7970   70.9430 C   0  0  0  0  0  0  0  0  0  0  0  0
   18.7570   32.4530   70.3190 C   0  0  0  0  0  0  0  0  0  0  0  0
   20.1010   31.8540   70.7920 C   0  0  0  0  0  0  0  0  0  0  0  0
   19.7390   31.1060   72.0630 C   0  0  0  0  0  0  0  0  0  0  0  0
   18.8100   31.3900   72.9470 C   0  0  0  0  0  0  0  0  0  0  0  0
   16.2310   33.0470   74.4220 O   0  0  0  0  0  0  0  0  0  0  0  0
   15.5670   31.8270   72.6190 C   0  0  0  0  0  0  0  0  0  0  0  0
   14.8920   32.8760   71.9950 C   0  0  0  0  0  0  0  0  0  0  0  0
   13.8520   32.6810   71.0950 C   0  0  0  0  0  0  0  0  0  0  0  0
   13.4630   31.3750   70.7980 C   0  0  0  0  0  0  0  0  0  0  0  0
   14.0960   30.3190   71.3890 C   0  0  0  0  0  0  0  0  0  0  0  0
   15.1430   30.5580   72.2930 C   0  0  0  0  0  0  0  0  0  0  0  0
   13.2130   33.7920   70.5000 N   0  0  0  0  0  0  0  0  0  0  0  0
   13.7500   34.3630   69.5000 O   0  0  0  0  0  0  0  0  0  0  0  0
   12.0470   34.2990   70.9370 O   0  0  0  0  0  0  0  0  0  0  0  0
   16.9300   28.6110   73.1250 H   0  0  0  0  0  0  0  0  0  0  0  0
   20.9180   29.5100   74.4080 H   0  0  0  0  0  0  0  0  0  0  0  0
   21.5670   27.1320   74.0320 H   0  0  0  0  0  0  0  0  0  0  0  0
   19.8530   25.5650   73.2280 H   0  0  0  0  0  0  0  0  0  0  0  0
   19.1470   30.9690   74.8680 H   0  0  0  0  0  0  0  0  0  0  0  0
   16.5900   29.9220   74.3040 H   0  0  0  0  0  0  0  0  0  0  0  0
   17.0450   31.1810   75.4200 H   0  0  0  0  0  0  0  0  0  0  0  0
   17.5340   34.6050   72.6020 H   0  0  0  0  0  0  0  0  0  0  0  0
   19.2090   34.1790   72.8990 H   0  0  0  0  0  0  0  0  0  0  0  0
   19.5200   34.4040   70.7370 H   0  0  0  0  0  0  0  0  0  0  0  0
   17.7940   34.3240   70.3370 H   0  0  0  0  0  0  0  0  0  0  0  0
   17.9450   31.7280   70.5270 H   0  0  0  0  0  0  0  0  0  0  0  0
   18.8710   32.5070   69.1990 H   0  0  0  0  0  0  0  0  0  0  0  0
   20.8060   32.6520   70.9880 H   0  0  0  0  0  0  0  0  0  0  0  0
   20.4470   31.0920   70.0630 H   0  0  0  0  0  0  0  0  0  0  0  0
   20.3500   30.2330   72.2130 H   0  0  0  0  0  0  0  0  0  0  0  0
   16.4640   33.9170   73.9570 H   0  0  0  0  0  0  0  0  0  0  0  0
   15.2010   33.8550   72.2290 H   0  0  0  0  0  0  0  0  0  0  0  0
   12.6490   31.2700   70.0890 H   0  0  0  0  0  0  0  0  0  0  0  0
   13.7800   29.2860   71.1480 H   0  0  0  0  0  0  0  0  0  0  0  0
   15.5690   29.6440   72.6970 H   0  0  0  0  0  0  0  0  0  0  0  0
  1  2  1  0  0  0  0
  2  3  2  0  0  0  0
  2  7  1  0  0  0  0
  3  4  1  0  0  0  0
  4  5  2  0  0  0  0
  4  8  1  0  0  0  0
  5 29  1  0  0  0  0
  6 30  1  0  0  0  0
  6  5  1  0  0  0  0
  7  6  2  0  0  0  0
  8  9  1  0  0  0  0
  8 32  1  0  0  0  0
  9 34  1  0  0  0  0
 10  9  1  0  0  0  0
 10 18  1  1  0  0  0
 11 17  1  0  0  0  0
 11 10  1  0  0  0  0
 12 35  1  0  0  0  0
 12 36  1  0  0  0  0
 12 11  1  0  0  0  0
 13 12  1  0  0  0  0
 14 39  1  0  0  0  0
 14 15  1  0  0  0  0
 14 13  1  0  0  0  0
 15 41  1  0  0  0  0
 15 16  1  0  0  0  0
 16 43  1  0  0  0  0
 16 17  2  0  0  0  0
 17  8  1  0  0  0  0
 19 10  1  0  0  0  0
 20 45  1  0  0  0  0
 20 19  2  0  0  0  0
 21 20  1  0  0  0  0
 22 21  2  0  0  0  0
 22 23  1  0  0  0  0
 23 24  2  0  0  0  0
 24 19  1  0  0  0  0
 24 48  1  0  0  0  0
 25 27  2  0  0  0  0
 25 21  1  0  0  0  0
 26 25  2  0  0  0  0
 28  3  1  0  0  0  0
 31  7  1  0  0  0  0
 33  9  1  0  0  0  0
 37 13  1  0  0  0  0
 38 13  1  0  0  0  0
 40 14  1  0  0  0  0
 42 15  1  0  0  0  0
 44 18  1  0  0  0  0
 46 22  1  0  0  0  0
 47 23  1  0  0  0  0
M  END
>  <Pose>
1

>  <Score>
-4.64

$$$$
