
 OpenBabel03212208413D

 54 58  0  0  0  0  0  0  0  0999 V2000
   20.0770   31.4270   72.8440 F   0  0  0  0  0  0  0  0  0  0  0  0
   18.9660   32.0900   72.4770 C   0  0  0  0  0  0  0  0  0  0  0  0
   19.2120   33.2840   71.8060 C   0  0  0  0  0  0  0  0  0  0  0  0
   18.1680   34.0650   71.3630 C   0  0  0  0  0  0  0  0  0  0  0  0
   16.8870   33.6280   71.6030 C   0  0  0  0  0  0  0  0  0  0  0  0
   16.6610   32.4310   72.2750 C   0  0  0  0  0  0  0  0  0  0  0  0
   17.6910   31.6470   72.7210 C   0  0  0  0  0  0  0  0  0  0  0  0
   17.4240   30.4580   73.4000 N   0  0  0  0  0  4  0  0  0  0  0  0
   18.5640   29.6120   73.6480 C   0  0  0  0  0  0  0  0  0  0  0  0
   18.1440   28.4140   74.5320 C   0  0  0  0  0  0  0  0  0  0  0  0
   17.2160   27.6840   73.7620 N   0  0  0  0  0  0  0  0  0  0  0  0
   15.9340   28.4760   73.6040 C   0  0  0  0  0  0  0  0  0  0  0  0
   16.3810   29.6740   72.8240 C   0  0  0  0  0  0  0  0  0  0  0  0
   17.2670   26.4910   73.1240 C   0  0  0  0  0  0  0  0  0  0  0  0
   16.4900   26.3830   72.0730 O   0  0  0  0  0  0  0  0  0  0  0  0
   18.0270   25.3030   73.3930 C   0  0  0  0  0  0  0  0  0  0  0  0
   19.1820   24.9730   72.7610 C   0  0  0  0  0  0  0  0  0  0  0  0
   19.9140   23.8400   73.0930 C   0  0  0  0  0  0  0  0  0  0  0  0
   19.4590   23.0190   74.0920 C   0  0  0  0  0  0  0  0  0  0  0  0
   18.3010   23.3040   74.7590 C   0  0  0  0  0  0  0  0  0  0  0  0
   17.6070   24.4220   74.4120 C   0  0  0  0  0  0  0  0  0  0  0  0
   21.4120   23.4530   72.2440 Cl  0  0  0  0  0  0  0  0  0  0  0  0
   15.8800   34.4080   71.1590 N   0  0  0  0  0  0  0  0  0  0  0  0
   16.0930   35.5660   70.5080 C   0  0  0  0  0  0  0  0  0  0  0  0
   17.3640   36.0310   70.2530 C   0  0  0  0  0  0  0  0  0  0  0  0
   18.4210   35.2670   70.6870 C   0  0  0  0  0  0  0  0  0  0  0  0
   19.6030   35.6320   70.4860 O   0  0  0  0  0  0  0  0  0  0  0  0
   17.5790   37.3040   69.5380 C   0  0  0  0  0  0  0  0  0  0  0  0
   18.6790   37.8790   69.5180 O   0  0  0  0  0  0  0  0  0  0  0  0
   16.5110   37.8590   68.8710 O   0  0  0  0  0  0  0  0  0  0  0  0
   14.5200   33.9260   71.4250 C   0  0  0  0  0  0  0  0  0  0  0  0
   13.4480   34.1070   70.4410 C   0  0  0  0  0  0  0  0  0  0  0  0
   13.4630   35.0740   71.5390 C   0  0  0  0  0  0  0  0  0  0  0  0
   20.2080   33.6490   71.6050 H   0  0  0  0  0  0  0  0  0  0  0  0
   15.6100   32.1760   72.4150 H   0  0  0  0  0  0  0  0  0  0  0  0
   17.0730   30.7410   74.3670 H   0  0  0  0  0  0  0  0  0  0  0  0
   18.8800   29.1560   72.6990 H   0  0  0  0  0  0  0  0  0  0  0  0
   19.3610   30.0800   74.2500 H   0  0  0  0  0  0  0  0  0  0  0  0
   19.0280   27.9510   74.9220 H   0  0  0  0  0  0  0  0  0  0  0  0
   17.6370   28.8610   75.4630 H   0  0  0  0  0  0  0  0  0  0  0  0
   15.6860   28.7910   74.6300 H   0  0  0  0  0  0  0  0  0  0  0  0
   15.1710   27.8810   73.1180 H   0  0  0  0  0  0  0  0  0  0  0  0
   15.4760   30.3460   72.7430 H   0  0  0  0  0  0  0  0  0  0  0  0
   16.5710   29.3420   71.7880 H   0  0  0  0  0  0  0  0  0  0  0  0
   19.5870   25.5400   71.9400 H   0  0  0  0  0  0  0  0  0  0  0  0
   20.0430   22.1400   74.3360 H   0  0  0  0  0  0  0  0  0  0  0  0
   17.9980   22.6150   75.5360 H   0  0  0  0  0  0  0  0  0  0  0  0
   16.6800   24.6490   74.9490 H   0  0  0  0  0  0  0  0  0  0  0  0
   15.2530   36.1560   70.1730 H   0  0  0  0  0  0  0  0  0  0  0  0
   14.4190   33.1560   72.2100 H   0  0  0  0  0  0  0  0  0  0  0  0
   13.6400   34.4540   69.4050 H   0  0  0  0  0  0  0  0  0  0  0  0
   12.6370   33.3210   70.4540 H   0  0  0  0  0  0  0  0  0  0  0  0
   13.8440   36.0980   71.3570 H   0  0  0  0  0  0  0  0  0  0  0  0
   12.7850   35.0190   72.4120 H   0  0  0  0  0  0  0  0  0  0  0  0
  2  7  1  0  0  0  0
  2  1  1  0  0  0  0
  3  2  2  0  0  0  0
  4  5  2  0  0  0  0
  4  3  1  0  0  0  0
  5  6  1  0  0  0  0
  6 35  1  0  0  0  0
  6  7  2  0  0  0  0
  7  8  1  0  0  0  0
  8  9  1  0  0  0  0
  8 36  1  0  0  0  0
  9 38  1  0  0  0  0
  9 10  1  0  0  0  0
 10 39  1  0  0  0  0
 10 40  1  0  0  0  0
 11 10  1  0  0  0  0
 12 11  1  0  0  0  0
 12 41  1  0  0  0  0
 13  8  1  0  0  0  0
 13 12  1  0  0  0  0
 14 16  1  0  0  0  0
 14 11  1  0  0  0  0
 15 14  2  0  0  0  0
 16 21  1  0  0  0  0
 17 18  1  0  0  0  0
 17 16  2  0  0  0  0
 18 19  2  0  0  0  0
 19 46  1  0  0  0  0
 19 20  1  0  0  0  0
 20 47  1  0  0  0  0
 21 20  2  0  0  0  0
 21 48  1  0  0  0  0
 22 18  1  0  0  0  0
 23 31  1  0  0  0  0
 23  5  1  0  0  0  0
 24 23  1  0  0  0  0
 25 24  2  0  0  0  0
 25 26  1  0  0  0  0
 26  4  1  0  0  0  0
 27 26  2  0  0  0  0
 28 25  1  0  0  0  0
 29 28  1  0  0  0  0
 30 28  2  0  0  0  0
 31 33  1  0  0  0  0
 31 50  1  0  0  0  0
 32 52  1  0  0  0  0
 32 31  1  0  0  0  0
 32 33  1  0  0  0  0
 33 54  1  0  0  0  0
 34  3  1  0  0  0  0
 37  9  1  0  0  0  0
 42 12  1  0  0  0  0
 43 13  1  0  0  0  0
 44 13  1  0  0  0  0
 45 17  1  0  0  0  0
 49 24  1  0  0  0  0
 51 32  1  0  0  0  0
 53 33  1  0  0  0  0
M  END
>  <Pose>
1

>  <Score>
-6.93

$$$$
