
 OpenBabel03212208413D

 51 54  0  0  0  0  0  0  0  0999 V2000
   10.1490   29.9000   81.0050 Cl  0  0  0  0  0  0  0  0  0  0  0  0
   10.3070   29.8900   79.2560 C   0  0  0  0  0  0  0  0  0  0  0  0
   10.1590   31.0700   78.5470 C   0  0  0  0  0  0  0  0  0  0  0  0
   10.2860   31.0540   77.1780 C   0  0  0  0  0  0  0  0  0  0  0  0
   10.5570   29.8920   76.4890 C   0  0  0  0  0  0  0  0  0  0  0  0
   10.6990   28.7360   77.2120 C   0  0  0  0  0  0  0  0  0  0  0  0
   10.5760   28.7170   78.6030 C   0  0  0  0  0  0  0  0  0  0  0  0
   10.6750   29.9250   75.0120 C   0  0  0  0  0  0  0  0  0  0  0  0
    9.6220   29.6890   74.3820 O   0  0  0  0  0  0  0  0  0  0  0  0
   11.8720   30.1980   74.3660 N   0  0  0  0  0  0  0  0  0  0  0  0
   13.2110   30.1440   74.8130 C   0  0  0  0  0  0  0  0  0  0  0  0
   14.2370   29.6000   73.9090 C   0  0  0  0  0  0  0  0  0  0  0  0
   15.6140   29.7850   74.1420 N   0  0  0  0  0  0  0  0  0  0  0  0
   16.4860   29.7560   72.9940 C   0  0  0  0  0  0  0  0  0  0  0  0
   16.4350   28.7860   72.2210 O   0  0  0  0  0  0  0  0  0  0  0  0
   17.4400   30.8550   72.7170 C   0  0  0  0  0  0  0  0  0  0  0  0
   16.9420   32.0970   73.4230 C   0  0  0  0  0  0  0  0  0  0  0  0
   15.7130   32.5710   72.6790 C   0  0  0  0  0  0  0  0  0  0  0  0
   16.2010   33.0820   71.4020 N   0  0  0  0  0  0  0  0  0  0  0  0
   17.3050   32.4540   70.7580 C   0  0  0  0  0  0  0  0  0  0  0  0
   17.6610   31.1060   71.2710 C   0  0  0  0  0  0  0  0  0  0  0  0
   15.5370   34.2030   70.8510 C   0  0  0  0  0  0  0  0  0  0  0  0
   14.2230   34.2020   70.5530 N   0  0  0  0  0  0  0  0  0  0  0  0
   13.5890   35.2380   70.0380 N   0  0  0  0  0  0  0  0  0  0  0  0
   12.3200   35.4180   69.6860 N   0  0  0  0  0  0  0  0  0  0  0  0
   12.1410   36.6220   69.2130 N   0  0  0  0  0  0  0  0  0  0  0  0
   13.2980   37.2480   69.2520 N   0  0  0  0  0  0  0  0  0  0  0  0
   14.2080   36.3920   69.7640 C   0  0  0  0  0  0  0  0  0  0  0  0
   15.5600   36.4560   70.0470 C   0  0  0  0  0  0  0  0  0  0  0  0
   16.2250   35.3740   70.5860 C   0  0  0  0  0  0  0  0  0  0  0  0
    9.9450   31.9920   79.0900 H   0  0  0  0  0  0  0  0  0  0  0  0
   10.1740   31.9710   76.5990 H   0  0  0  0  0  0  0  0  0  0  0  0
   10.9060   27.7960   76.7550 H   0  0  0  0  0  0  0  0  0  0  0  0
   10.6870   27.8090   79.1740 H   0  0  0  0  0  0  0  0  0  0  0  0
   11.7090   30.5040   73.3090 H   0  0  0  0  0  0  0  0  0  0  0  0
   13.5270   31.1790   75.1580 H   0  0  0  0  0  0  0  0  0  0  0  0
   13.2020   29.5110   75.7610 H   0  0  0  0  0  0  0  0  0  0  0  0
   13.9630   29.8620   72.8240 H   0  0  0  0  0  0  0  0  0  0  0  0
   14.0860   28.4610   73.8710 H   0  0  0  0  0  0  0  0  0  0  0  0
   16.0800   29.9710   75.0270 H   0  0  0  0  0  0  0  0  0  0  0  0
   18.4260   30.6270   73.2020 H   0  0  0  0  0  0  0  0  0  0  0  0
   17.7290   32.8750   73.3010 H   0  0  0  0  0  0  0  0  0  0  0  0
   16.7440   31.9150   74.4950 H   0  0  0  0  0  0  0  0  0  0  0  0
   15.1990   33.3920   73.2310 H   0  0  0  0  0  0  0  0  0  0  0  0
   15.0010   31.7720   72.4310 H   0  0  0  0  0  0  0  0  0  0  0  0
   18.2090   33.1150   70.8830 H   0  0  0  0  0  0  0  0  0  0  0  0
   17.1430   32.3660   69.6530 H   0  0  0  0  0  0  0  0  0  0  0  0
   18.7250   30.8240   71.0170 H   0  0  0  0  0  0  0  0  0  0  0  0
   17.0580   30.3280   70.7130 H   0  0  0  0  0  0  0  0  0  0  0  0
   16.0740   37.3910   69.8260 H   0  0  0  0  0  0  0  0  0  0  0  0
   17.2910   35.4400   70.8060 H   0  0  0  0  0  0  0  0  0  0  0  0
  2  1  1  0  0  0  0
  3 31  1  0  0  0  0
  3  2  2  0  0  0  0
  4  3  1  0  0  0  0
  5  4  2  0  0  0  0
  5  6  1  0  0  0  0
  6  7  2  0  0  0  0
  7 34  1  0  0  0  0
  7  2  1  0  0  0  0
  8  5  1  0  0  0  0
  9  8  2  0  0  0  0
 10 11  1  0  0  0  0
 10  8  1  0  0  0  0
 11 36  1  0  0  0  0
 11 37  1  0  0  0  0
 12 13  1  0  0  0  0
 12 11  1  0  0  0  0
 13 40  1  0  0  0  0
 14 13  1  0  0  0  0
 15 14  2  0  0  0  0
 16 14  1  0  0  0  0
 16 41  1  0  0  0  0
 16 17  1  0  0  0  0
 17 43  1  0  0  0  0
 18 44  1  0  0  0  0
 18 17  1  0  0  0  0
 19 18  1  0  0  0  0
 20 46  1  0  0  0  0
 20 21  1  0  0  0  0
 20 19  1  0  0  0  0
 21 16  1  0  0  0  0
 22 19  1  0  0  0  0
 23 22  2  0  0  0  0
 24 23  1  0  0  0  0
 25 24  1  0  0  0  0
 26 27  1  0  0  0  0
 26 25  2  0  0  0  0
 27 28  2  0  0  0  0
 28 24  1  0  0  0  0
 28 29  1  0  0  0  0
 29 30  2  0  0  0  0
 30 51  1  0  0  0  0
 30 22  1  0  0  0  0
 32  4  1  0  0  0  0
 33  6  1  0  0  0  0
 35 10  1  0  0  0  0
 38 12  1  0  0  0  0
 39 12  1  0  0  0  0
 42 17  1  0  0  0  0
 45 18  1  0  0  0  0
 47 20  1  0  0  0  0
 48 21  1  0  0  0  0
 49 21  1  0  0  0  0
 50 29  1  0  0  0  0
M  END
>  <Pose>
1

>  <Score>
-7.05

$$$$
