
 OpenBabel03212208413D

 52 55  0  0  0  0  0  0  0  0999 V2000
   21.8850   39.6380   65.9660 Cl  0  0  0  0  0  0  0  0  0  0  0  0
   22.1020   37.9660   66.4450 C   0  0  0  0  0  0  0  0  0  0  0  0
   21.0080   37.2680   66.9360 C   0  0  0  0  0  0  0  0  0  0  0  0
   21.1100   35.9430   67.3320 C   0  0  0  0  0  0  0  0  0  0  0  0
   22.3220   35.2960   67.2410 C   0  0  0  0  0  0  0  0  0  0  0  0
   23.4040   36.0220   66.7440 C   0  0  0  0  0  0  0  0  0  0  0  0
   23.3210   37.3290   66.3480 C   0  0  0  0  0  0  0  0  0  0  0  0
   22.4940   33.9020   67.6410 C   0  0  0  0  0  0  0  0  0  0  0  0
   23.3770   33.2340   67.0450 O   0  0  0  0  0  0  0  0  0  0  0  0
   21.7250   33.3090   68.6420 N   0  0  0  0  0  0  0  0  0  0  0  0
   21.5940   33.8410   69.9850 C   0  0  0  0  0  0  0  0  0  0  0  0
   20.2130   34.3820   70.1790 C   0  0  0  0  0  0  0  0  0  0  0  0
   19.7370   34.2540   71.5740 C   0  0  0  0  0  0  0  0  0  0  0  0
   20.2950   34.9490   72.4580 O   0  0  0  0  0  0  0  0  0  0  0  0
   18.6840   33.3740   71.9160 N   0  0  0  0  0  0  0  0  0  0  0  0
   17.3730   33.8350   72.3280 C   0  0  0  0  0  0  0  0  0  0  0  0
   16.8240   32.8300   73.3300 C   0  0  0  0  0  0  0  0  0  0  0  0
   16.6240   31.4700   72.6630 C   0  0  0  0  0  0  0  0  0  0  0  0
   16.9040   30.4760   73.6580 N   0  0  0  0  0  0  0  0  0  0  0  0
   16.3100   29.1980   73.3330 C   0  0  0  0  0  0  0  0  0  0  0  0
   14.7970   29.3080   73.5070 C   0  0  0  0  0  0  0  0  0  0  0  0
   14.3440   30.3660   72.5580 C   0  0  0  0  0  0  0  0  0  0  0  0
   13.1480   30.5740   71.9310 N   0  0  0  0  0  0  0  0  0  0  0  0
   13.2650   31.6800   71.1750 C   0  0  0  0  0  0  0  0  0  0  0  0
   14.5150   32.1540   71.3270 N   0  0  0  0  0  0  0  0  0  0  0  0
   15.2210   31.3600   72.1850 C   0  0  0  0  0  0  0  0  0  0  0  0
   17.5830   31.2950   71.5040 C   0  0  0  0  0  0  0  0  0  0  0  0
   18.8890   31.9400   71.8640 C   0  0  0  0  0  0  0  0  0  0  0  0
   20.0590   37.7810   67.0060 H   0  0  0  0  0  0  0  0  0  0  0  0
   20.2170   35.4200   67.7180 H   0  0  0  0  0  0  0  0  0  0  0  0
   24.3500   35.5050   66.6770 H   0  0  0  0  0  0  0  0  0  0  0  0
   24.1520   37.8960   65.9650 H   0  0  0  0  0  0  0  0  0  0  0  0
   21.1920   32.4250   68.4610 H   0  0  0  0  0  0  0  0  0  0  0  0
   22.2980   34.7000   70.0530 H   0  0  0  0  0  0  0  0  0  0  0  0
   21.8880   33.0990   70.7400 H   0  0  0  0  0  0  0  0  0  0  0  0
   20.2010   35.4730   69.8810 H   0  0  0  0  0  0  0  0  0  0  0  0
   19.5290   33.8920   69.4830 H   0  0  0  0  0  0  0  0  0  0  0  0
   17.5070   34.7860   72.9100 H   0  0  0  0  0  0  0  0  0  0  0  0
   16.6910   33.9930   71.4940 H   0  0  0  0  0  0  0  0  0  0  0  0
   17.4580   32.7530   74.2110 H   0  0  0  0  0  0  0  0  0  0  0  0
   15.8170   33.1850   73.6320 H   0  0  0  0  0  0  0  0  0  0  0  0
   17.9250   30.3670   73.8180 H   0  0  0  0  0  0  0  0  0  0  0  0
   16.4730   29.0200   72.2510 H   0  0  0  0  0  0  0  0  0  0  0  0
   16.7330   28.3680   73.8940 H   0  0  0  0  0  0  0  0  0  0  0  0
   14.3680   28.3210   73.2660 H   0  0  0  0  0  0  0  0  0  0  0  0
   14.5370   29.6170   74.5400 H   0  0  0  0  0  0  0  0  0  0  0  0
   12.3340   29.9340   72.0730 H   0  0  0  0  0  0  0  0  0  0  0  0
   12.4560   32.0670   70.5710 H   0  0  0  0  0  0  0  0  0  0  0  0
   17.7720   30.2440   71.2650 H   0  0  0  0  0  0  0  0  0  0  0  0
   17.1890   31.8050   70.5930 H   0  0  0  0  0  0  0  0  0  0  0  0
   19.6240   31.6530   71.0850 H   0  0  0  0  0  0  0  0  0  0  0  0
   19.2620   31.5630   72.8490 H   0  0  0  0  0  0  0  0  0  0  0  0
  1  2  1  0  0  0  0
  2  3  1  0  0  0  0
  3 29  1  0  0  0  0
  3  4  2  0  0  0  0
  4 30  1  0  0  0  0
  5  4  1  0  0  0  0
  5  8  1  0  0  0  0
  6  5  2  0  0  0  0
  7  2  2  0  0  0  0
  7  6  1  0  0  0  0
  8 10  1  0  0  0  0
  9  8  2  0  0  0  0
 10 11  1  0  0  0  0
 11 34  1  0  0  0  0
 11 12  1  0  0  0  0
 11 35  1  0  0  0  0
 12 13  1  0  0  0  0
 13 15  1  0  0  0  0
 13 14  2  0  0  0  0
 15 16  1  0  0  0  0
 16 38  1  0  0  0  0
 16 17  1  0  0  0  0
 17 41  1  0  0  0  0
 17 40  1  0  0  0  0
 18 17  1  0  0  0  0
 18 19  1  0  0  0  0
 19 42  1  0  0  0  0
 20 21  1  0  0  0  0
 20 19  1  0  0  0  0
 20 44  1  0  0  0  0
 21 46  1  0  0  0  0
 22 21  1  0  0  0  0
 23 47  1  0  0  0  0
 23 22  1  0  0  0  0
 24 25  2  0  0  0  0
 24 23  1  0  0  0  0
 25 26  1  0  0  0  0
 26 22  2  0  0  0  0
 26 18  1  0  0  0  0
 27 28  1  0  0  0  0
 27 18  1  0  0  0  0
 28 15  1  0  0  0  0
 28 52  1  0  0  0  0
 31  6  1  0  0  0  0
 32  7  1  0  0  0  0
 33 10  1  0  0  0  0
 36 12  1  0  0  0  0
 37 12  1  0  0  0  0
 39 16  1  0  0  0  0
 43 20  1  0  0  0  0
 45 21  1  0  0  0  0
 48 24  1  0  0  0  0
 49 27  1  0  0  0  0
 50 27  1  0  0  0  0
 51 28  1  0  0  0  0
M  END
>  <Pose>
1

>  <Score>
-7.28

$$$$
