
 OpenBabel03212208413D

 41 44  0  0  1  0  0  0  0  0999 V2000
   12.2760   35.0750   70.0120 Cl  0  0  0  0  0  0  0  0  0  0  0  0
   13.9520   35.5050   70.2820 C   0  0  0  0  0  0  0  0  0  0  0  0
   14.7460   34.6810   71.0430 C   0  0  0  0  0  0  0  0  0  0  0  0
   14.5520   33.5230   71.6950 N   0  0  0  0  0  0  0  0  0  0  0  0
   15.6760   33.1070   72.3100 C   0  0  0  0  0  0  0  0  0  0  0  0
   16.6270   34.0640   72.0240 C   0  0  0  0  0  0  0  0  0  0  0  0
   16.0670   35.0480   71.2390 C   0  0  0  0  0  0  0  0  0  0  0  0
   16.5380   36.2140   70.6710 C   0  0  0  0  0  0  0  0  0  0  0  0
   15.7650   37.0530   69.9060 C   0  0  0  0  0  0  0  0  0  0  0  0
   14.4390   36.6820   69.7120 C   0  0  0  0  0  0  0  0  0  0  0  0
   17.9740   33.8220   72.5990 C   0  0  0  0  0  0  0  0  0  0  0  0
   18.3020   32.4680   72.2140 N   0  0  0  0  0  0  0  0  0  0  0  0
   17.5050   31.4710   72.8160 C   0  0  0  0  0  0  0  0  0  0  0  0
   16.1210   31.9780   73.1530 C   0  0  0  0  0  0  0  0  0  0  0  0
   19.6670   32.2220   72.0210 C   0  0  0  0  0  0  0  0  0  0  0  0
   20.0740   32.2530   70.5790 C   0  0  1  0  0  0  0  0  0  0  0  0
   19.9850   33.6070   69.9650 C   0  0  0  0  0  0  0  0  0  0  0  0
   21.2410   33.9860   69.4150 N   0  0  0  0  0  0  0  0  0  0  0  0
   22.2010   32.9660   69.6860 C   0  0  0  0  0  0  0  0  0  0  0  0
   21.5340   31.8990   70.4870 C   0  0  0  0  0  0  0  0  0  0  0  0
   19.3780   31.2900   69.8380 O   0  0  0  0  0  0  0  0  0  0  0  0
   13.6500   32.9710   71.7480 H   0  0  0  0  0  0  0  0  0  0  0  0
   17.5690   36.4750   70.8380 H   0  0  0  0  0  0  0  0  0  0  0  0
   16.1410   37.9680   69.4620 H   0  0  0  0  0  0  0  0  0  0  0  0
   13.8140   37.3300   69.1130 H   0  0  0  0  0  0  0  0  0  0  0  0
   17.8480   33.9110   73.7160 H   0  0  0  0  0  0  0  0  0  0  0  0
   18.7450   34.4830   72.2080 H   0  0  0  0  0  0  0  0  0  0  0  0
   17.3430   30.6020   72.1180 H   0  0  0  0  0  0  0  0  0  0  0  0
   17.9310   31.0770   73.7760 H   0  0  0  0  0  0  0  0  0  0  0  0
   15.3820   31.1550   73.0520 H   0  0  0  0  0  0  0  0  0  0  0  0
   16.0650   32.2840   74.2290 H   0  0  0  0  0  0  0  0  0  0  0  0
   20.0560   31.2850   72.4670 H   0  0  0  0  0  0  0  0  0  0  0  0
   20.2520   33.0440   72.5310 H   0  0  0  0  0  0  0  0  0  0  0  0
   19.1420   33.7270   69.2450 H   0  0  0  0  0  0  0  0  0  0  0  0
   19.7560   34.3370   70.7940 H   0  0  0  0  0  0  0  0  0  0  0  0
   21.2010   34.2410   68.4000 H   0  0  0  0  0  0  0  0  0  0  0  0
   22.6650   32.5950   68.7510 H   0  0  0  0  0  0  0  0  0  0  0  0
   23.0470   33.3630   70.3070 H   0  0  0  0  0  0  0  0  0  0  0  0
   21.6920   30.9350   69.9270 H   0  0  0  0  0  0  0  0  0  0  0  0
   21.9810   31.7680   71.5000 H   0  0  0  0  0  0  0  0  0  0  0  0
   20.0200   30.9550   69.1580 H   0  0  0  0  0  0  0  0  0  0  0  0
  1  2  1  0  0  0  0
  2  3  1  0  0  0  0
  3  7  2  0  0  0  0
  3  4  1  0  0  0  0
  4 22  1  0  0  0  0
  4  5  1  0  0  0  0
  5 14  1  0  0  0  0
  6  5  2  0  0  0  0
  6 11  1  0  0  0  0
  7  6  1  0  0  0  0
  8 23  1  0  0  0  0
  8  7  1  0  0  0  0
  9  8  2  0  0  0  0
 10  9  1  0  0  0  0
 10  2  2  0  0  0  0
 11 26  1  0  0  0  0
 12 11  1  0  0  0  0
 12 13  1  0  0  0  0
 13 14  1  0  0  0  0
 13 29  1  0  0  0  0
 14 31  1  0  0  0  0
 15 12  1  0  0  0  0
 15 32  1  0  0  0  0
 15 33  1  0  0  0  0
 16 21  1  6  0  0  0
 16 15  1  0  0  0  0
 17 16  1  0  0  0  0
 17 35  1  0  0  0  0
 18 19  1  0  0  0  0
 18 17  1  0  0  0  0
 19 38  1  0  0  0  0
 19 20  1  0  0  0  0
 20 16  1  0  0  0  0
 20 40  1  0  0  0  0
 24  9  1  0  0  0  0
 25 10  1  0  0  0  0
 27 11  1  0  0  0  0
 28 13  1  0  0  0  0
 30 14  1  0  0  0  0
 34 17  1  0  0  0  0
 36 18  1  0  0  0  0
 37 19  1  0  0  0  0
 39 20  1  0  0  0  0
 41 21  1  0  0  0  0
M  END
>  <Pose>
1

>  <Score>
-5.41

$$$$
