
 OpenBabel03212208413D

 44 47  0  0  1  0  0  0  0  0999 V2000
   26.0000   32.6760   68.1530 B   0  0  0  0  0  0  0  0  0  0  0  0
   25.0840   34.3110   68.4860 C   0  0  0  0  0  0  0  0  0  0  0  0
   23.7590   34.3260   68.9130 C   0  0  0  0  0  0  0  0  0  0  0  0
   23.1010   35.5140   69.1520 C   0  0  0  0  0  0  0  0  0  0  0  0
   23.8330   36.6770   68.9420 C   0  0  0  0  0  0  0  0  0  0  0  0
   25.1360   36.6830   68.5240 C   0  0  0  0  0  0  0  0  0  0  0  0
   25.7720   35.4880   68.2900 C   0  0  0  0  0  0  0  0  0  0  0  0
   21.7430   35.5840   69.5880 N   0  0  0  0  0  0  0  0  0  0  0  0
   20.7150   34.7080   69.1430 C   0  0  0  0  0  0  0  0  0  0  0  0
   20.7660   34.0760   68.0600 O   0  0  0  0  0  0  0  0  0  0  0  0
   19.6750   34.7230   70.1650 C   0  0  2  0  0  0  0  0  0  0  0  0
   19.7940   36.1120   70.7550 C   0  0  0  0  0  0  0  0  0  0  0  0
   21.1950   36.5150   70.5290 C   0  0  0  0  0  0  0  0  0  0  0  0
   21.8090   37.4840   71.0500 O   0  0  0  0  0  0  0  0  0  0  0  0
   19.7290   33.7050   71.1360 N   0  0  0  0  0  0  0  0  0  0  0  0
   19.6580   32.3690   70.7010 C   0  0  0  0  0  0  0  0  0  0  0  0
   18.2080   31.8860   70.8380 C   0  0  0  0  0  0  0  0  0  0  0  0
   17.4740   32.7770   71.7220 N   0  0  0  0  0  0  0  0  0  0  0  0
   18.0970   33.4030   72.8710 C   0  0  0  0  0  0  0  0  0  0  0  0
   19.4380   33.9740   72.4740 C   0  0  0  0  0  0  0  0  0  0  0  0
   16.0960   33.0900   71.4760 C   0  0  0  0  0  0  0  0  0  0  0  0
   15.7360   34.2810   70.9540 N   0  0  0  0  0  0  0  0  0  0  0  0
   14.4410   34.5620   70.7100 C   0  0  0  0  0  0  0  0  0  0  0  0
   13.4340   33.6430   70.9830 C   0  0  0  0  0  0  0  0  0  0  0  0
   13.8110   32.4230   71.5170 C   0  0  0  0  0  0  0  0  0  0  0  0
   15.1190   32.2030   71.7380 N   0  0  0  0  0  0  0  0  0  0  0  0
   23.2410   33.3920   69.0590 H   0  0  0  0  0  0  0  0  0  0  0  0
   23.3190   37.6200   69.1280 H   0  0  0  0  0  0  0  0  0  0  0  0
   25.7030   37.6060   68.3600 H   0  0  0  0  0  0  0  0  0  0  0  0
   26.8010   35.5000   67.9590 H   0  0  0  0  0  0  0  0  0  0  0  0
   18.6680   34.6790   69.6600 H   0  0  0  0  0  0  0  0  0  0  0  0
   19.1610   36.7930   70.1620 H   0  0  0  0  0  0  0  0  0  0  0  0
   19.5230   36.1180   71.8330 H   0  0  0  0  0  0  0  0  0  0  0  0
   20.2570   31.7270   71.3800 H   0  0  0  0  0  0  0  0  0  0  0  0
   20.0100   32.1870   69.6980 H   0  0  0  0  0  0  0  0  0  0  0  0
   17.7060   31.9120   69.8360 H   0  0  0  0  0  0  0  0  0  0  0  0
   18.1330   30.8850   71.2700 H   0  0  0  0  0  0  0  0  0  0  0  0
   18.1800   32.6630   73.7180 H   0  0  0  0  0  0  0  0  0  0  0  0
   17.4840   34.2840   73.2130 H   0  0  0  0  0  0  0  0  0  0  0  0
   19.5330   35.0480   72.7310 H   0  0  0  0  0  0  0  0  0  0  0  0
   20.1990   33.4400   73.1190 H   0  0  0  0  0  0  0  0  0  0  0  0
   14.1330   35.5180   70.2870 H   0  0  0  0  0  0  0  0  0  0  0  0
   12.3900   33.9000   70.7730 H   0  0  0  0  0  0  0  0  0  0  0  0
   13.0430   31.6710   71.7390 H   0  0  0  0  0  0  0  0  0  0  0  0
  1  2  1  0  0  0  0
  2  3  1  0  0  0  0
  3 27  1  0  0  0  0
  3  4  2  0  0  0  0
  4  8  1  0  0  0  0
  5 28  1  0  0  0  0
  5  4  1  0  0  0  0
  6  5  2  0  0  0  0
  7  2  2  0  0  0  0
  7  6  1  0  0  0  0
  8 13  1  0  0  0  0
  9  8  1  0  0  0  0
  9 11  1  0  0  0  0
 10  9  2  0  0  0  0
 11 31  1  6  0  0  0
 11 12  1  0  0  0  0
 11 15  1  0  0  0  0
 12 33  1  0  0  0  0
 13 12  1  0  0  0  0
 13 14  2  0  0  0  0
 15 20  1  0  0  0  0
 16 17  1  0  0  0  0
 16 15  1  0  0  0  0
 16 34  1  0  0  0  0
 17 37  1  0  0  0  0
 17 18  1  0  0  0  0
 18 19  1  0  0  0  0
 19 39  1  0  0  0  0
 19 38  1  0  0  0  0
 20 40  1  0  0  0  0
 20 19  1  0  0  0  0
 20 41  1  0  0  0  0
 21 18  1  0  0  0  0
 21 26  1  0  0  0  0
 22 21  2  0  0  0  0
 23 22  1  0  0  0  0
 23 24  2  0  0  0  0
 24 25  1  0  0  0  0
 25 26  2  0  0  0  0
 25 44  1  0  0  0  0
 29  6  1  0  0  0  0
 30  7  1  0  0  0  0
 32 12  1  0  0  0  0
 35 16  1  0  0  0  0
 36 17  1  0  0  0  0
 42 23  1  0  0  0  0
 43 24  1  0  0  0  0
M  END
>  <Pose>
1

>  <Score>
-5.28

$$$$
