
 OpenBabel03212208413D

 44 47  0  0  1  0  0  0  0  0999 V2000
   18.8550   25.5010   72.3750 Cl  0  0  0  0  0  0  0  0  0  0  0  0
   17.6740   26.2220   73.4470 C   0  0  0  0  0  0  0  0  0  0  0  0
   17.5610   25.7320   74.7150 C   0  0  0  0  0  0  0  0  0  0  0  0
   16.6410   26.2800   75.5780 C   0  0  0  0  0  0  0  0  0  0  0  0
   15.8380   27.3340   75.1360 C   0  0  0  0  0  0  0  0  0  0  0  0
   15.9470   27.8340   73.8580 C   0  0  0  0  0  0  0  0  0  0  0  0
   16.8670   27.2730   73.0210 C   0  0  0  0  0  0  0  0  0  0  0  0
   15.0620   28.9280   73.4570 C   0  0  0  0  0  0  0  0  0  0  0  0
   13.9870   29.4640   74.0890 N   0  0  0  0  0  0  0  0  0  0  0  0
   13.4820   30.4530   73.3430 C   0  0  2  0  0  0  0  0  0  0  0  0
   14.2140   30.5920   72.1960 N   0  0  0  0  0  0  0  0  0  0  0  0
   15.1730   29.6550   72.2800 C   0  0  0  0  0  0  0  0  0  0  0  0
   14.0180   31.5680   71.1630 C   0  0  0  0  0  0  0  0  0  0  0  0
   14.4470   32.9330   71.2970 C   0  0  2  0  0  0  0  0  0  0  0  0
   15.4300   33.0870   72.1800 O   0  0  0  0  0  0  0  0  0  0  0  0
   14.0470   34.1750   70.6860 C   0  0  0  0  0  0  0  0  0  0  0  0
   14.9300   35.2790   70.7000 C   0  0  0  0  0  0  0  0  0  0  0  0
   14.6410   36.4980   70.1450 C   0  0  0  0  0  0  0  0  0  0  0  0
   13.4060   36.6250   69.5430 C   0  0  0  0  0  0  0  0  0  0  0  0
   12.5280   35.5650   69.5160 C   0  0  0  0  0  0  0  0  0  0  0  0
   12.8280   34.3250   70.0830 C   0  0  0  0  0  0  0  0  0  0  0  0
   15.5390   37.5910   70.1710 N   0  0  0  0  0  0  0  0  0  0  0  0
   15.4750   38.4050   71.0980 O   0  0  0  0  0  0  0  0  0  0  0  0
   16.4790   37.7740   69.1980 O   0  0  0  0  0  0  0  0  0  0  0  0
   12.3120   31.0730   74.0050 C   0  0  0  0  0  0  0  0  0  0  0  0
   11.8800   29.9800   74.9430 C   0  0  0  0  0  0  0  0  0  0  0  0
   13.1890   29.3170   75.3070 C   0  0  0  0  0  0  0  0  0  0  0  0
   18.5640   24.4010   75.2930 Cl  0  0  0  0  0  0  0  0  0  0  0  0
   16.5660   25.8800   76.5700 H   0  0  0  0  0  0  0  0  0  0  0  0
   15.1360   27.7210   75.8610 H   0  0  0  0  0  0  0  0  0  0  0  0
   17.0260   27.5810   72.0030 H   0  0  0  0  0  0  0  0  0  0  0  0
   15.9370   29.4950   71.5120 H   0  0  0  0  0  0  0  0  0  0  0  0
   14.4370   31.0910   70.2120 H   0  0  0  0  0  0  0  0  0  0  0  0
   12.8960   31.5300   70.9520 H   0  0  0  0  0  0  0  0  0  0  0  0
   15.9070   35.1820   71.1760 H   0  0  0  0  0  0  0  0  0  0  0  0
   13.1640   37.5870   69.0990 H   0  0  0  0  0  0  0  0  0  0  0  0
   11.5500   35.6760   69.0350 H   0  0  0  0  0  0  0  0  0  0  0  0
   12.0820   33.5620   70.0100 H   0  0  0  0  0  0  0  0  0  0  0  0
   11.4800   31.2690   73.3080 H   0  0  0  0  0  0  0  0  0  0  0  0
   12.5920   31.9970   74.5800 H   0  0  0  0  0  0  0  0  0  0  0  0
   11.2470   29.2800   74.3540 H   0  0  0  0  0  0  0  0  0  0  0  0
   11.3560   30.3570   75.8450 H   0  0  0  0  0  0  0  0  0  0  0  0
   13.6240   29.8920   76.1510 H   0  0  0  0  0  0  0  0  0  0  0  0
   13.0130   28.2450   75.5700 H   0  0  0  0  0  0  0  0  0  0  0  0
  1  2  1  0  0  0  0
  2  3  1  0  0  0  0
  3 28  1  0  0  0  0
  3  4  2  0  0  0  0
  4 29  1  0  0  0  0
  5  4  1  0  0  0  0
  5 30  1  0  0  0  0
  6  5  2  0  0  0  0
  7  2  2  0  0  0  0
  7  6  1  0  0  0  0
  8  6  1  0  0  0  0
  8  9  1  0  0  0  0
  9 27  1  0  0  0  0
 10 11  1  1  0  0  0
 10 25  1  0  0  0  0
 10  9  1  0  0  0  0
 11 12  1  0  0  0  0
 12  8  2  0  0  0  0
 13 14  1  0  0  0  0
 13 11  1  0  0  0  0
 14 15  1  1  0  0  0
 16 17  1  0  0  0  0
 16 14  1  0  0  0  0
 17 35  1  0  0  0  0
 18 22  1  0  0  0  0
 18 17  2  0  0  0  0
 19 18  1  0  0  0  0
 20 19  2  0  0  0  0
 20 21  1  0  0  0  0
 21 16  2  0  0  0  0
 22 23  2  0  0  0  0
 24 22  2  0  0  0  0
 25 40  1  0  0  0  0
 25 26  1  0  0  0  0
 26 27  1  0  0  0  0
 26 42  1  0  0  0  0
 27 44  1  0  0  0  0
 27 43  1  0  0  0  0
 31  7  1  0  0  0  0
 32 12  1  0  0  0  0
 33 13  1  0  0  0  0
 34 13  1  0  0  0  0
 36 19  1  0  0  0  0
 37 20  1  0  0  0  0
 38 21  1  0  0  0  0
 39 25  1  0  0  0  0
 41 26  1  0  0  0  0
M  END
>  <Pose>
1

>  <Score>
-6.10

$$$$
