
 OpenBabel03212208413D

 60 63  0  0  1  0  0  0  0  0999 V2000
   19.1000   24.7160   72.8720 Cl  0  0  0  0  0  0  0  0  0  0  0  0
   18.5280   26.3680   73.0990 C   0  0  0  0  0  0  0  0  0  0  0  0
   19.4010   27.3900   73.4240 C   0  0  0  0  0  0  0  0  0  0  0  0
   18.9380   28.6770   73.5990 C   0  0  0  0  0  0  0  0  0  0  0  0
   17.6090   29.0170   73.4620 C   0  0  0  0  0  0  0  0  0  0  0  0
   16.7400   27.9690   73.1330 C   0  0  0  0  0  0  0  0  0  0  0  0
   17.1990   26.6840   72.9580 C   0  0  0  0  0  0  0  0  0  0  0  0
   17.1390   30.4100   73.6560 C   0  0  2  0  0  0  0  0  0  0  0  0
   15.8610   30.5060   72.9380 N   0  0  0  0  0  0  0  0  0  0  0  0
   16.2110   30.4830   71.5620 C   0  0  0  0  0  0  0  0  0  0  0  0
   15.5090   30.0770   70.6210 O   0  0  0  0  0  0  0  0  0  0  0  0
   17.5610   31.0310   71.4750 C   0  0  0  0  0  0  0  0  0  0  0  0
   18.3100   31.2160   70.4700 O   0  0  0  0  0  0  0  0  0  0  0  0
   17.9560   31.3640   72.8510 C   0  0  0  0  0  0  0  0  0  0  0  0
   18.8410   32.2700   73.2200 C   0  0  0  0  0  0  0  0  0  0  0  0
   19.1150   32.4140   74.5830 O   0  0  0  0  0  0  0  0  0  0  0  0
   19.5390   33.1270   72.2730 C   0  0  0  0  0  0  0  0  0  0  0  0
   20.7140   32.7370   71.6510 C   0  0  0  0  0  0  0  0  0  0  0  0
   21.3870   33.5630   70.7750 C   0  0  0  0  0  0  0  0  0  0  0  0
   20.9040   34.8310   70.4830 C   0  0  0  0  0  0  0  0  0  0  0  0
   19.7380   35.2310   71.0950 C   0  0  0  0  0  0  0  0  0  0  0  0
   19.0640   34.3840   71.9810 C   0  0  0  0  0  0  0  0  0  0  0  0
   21.5700   35.6770   69.6000 O   0  0  0  0  0  0  0  0  0  0  0  0
   21.3070   37.0510   69.6440 C   0  0  0  0  0  0  0  0  0  0  0  0
   22.6390   33.1040   70.1340 C   0  0  0  0  0  0  0  0  0  0  0  0
   14.5240   30.5990   73.5250 C   0  0  0  0  0  0  0  0  0  0  0  0
   14.3240   29.3440   74.3410 C   0  0  0  0  0  0  0  0  0  0  0  0
   12.9400   28.9680   74.4470 N   0  0  0  0  0  4  0  0  0  0  0  0
   12.0860   30.0770   74.1690 C   0  0  0  0  0  0  0  0  0  0  0  0
   11.5820   30.8300   75.3550 C   0  0  0  0  0  0  0  0  0  0  0  0
   11.3820   30.0800   76.4820 O   0  0  0  0  0  0  0  0  0  0  0  0
   12.4900   29.3250   76.8440 C   0  0  0  0  0  0  0  0  0  0  0  0
   12.7320   28.3470   75.7250 C   0  0  0  0  0  0  0  0  0  0  0  0
   20.4480   27.1620   73.5400 H   0  0  0  0  0  0  0  0  0  0  0  0
   19.6070   29.5090   73.8580 H   0  0  0  0  0  0  0  0  0  0  0  0
   15.7000   28.2450   73.0270 H   0  0  0  0  0  0  0  0  0  0  0  0
   16.5130   25.8980   72.7040 H   0  0  0  0  0  0  0  0  0  0  0  0
   17.0450   30.6990   74.7060 H   0  0  0  0  0  0  0  0  0  0  0  0
   21.0750   31.7290   71.9010 H   0  0  0  0  0  0  0  0  0  0  0  0
   19.3440   36.2330   70.8710 H   0  0  0  0  0  0  0  0  0  0  0  0
   18.1670   34.7600   72.4430 H   0  0  0  0  0  0  0  0  0  0  0  0
   20.2300   37.2500   69.3730 H   0  0  0  0  0  0  0  0  0  0  0  0
   21.8910   37.5970   68.8720 H   0  0  0  0  0  0  0  0  0  0  0  0
   21.5510   37.5120   70.6240 H   0  0  0  0  0  0  0  0  0  0  0  0
   23.5390   33.4710   70.7080 H   0  0  0  0  0  0  0  0  0  0  0  0
   22.7530   33.4980   69.1060 H   0  0  0  0  0  0  0  0  0  0  0  0
   22.6970   31.9900   70.1220 H   0  0  0  0  0  0  0  0  0  0  0  0
   13.7390   30.6260   72.7510 H   0  0  0  0  0  0  0  0  0  0  0  0
   14.4620   31.5120   74.1140 H   0  0  0  0  0  0  0  0  0  0  0  0
   14.8820   28.5010   73.8940 H   0  0  0  0  0  0  0  0  0  0  0  0
   14.7080   29.4510   75.3810 H   0  0  0  0  0  0  0  0  0  0  0  0
   12.7820   28.2500   73.6840 H   0  0  0  0  0  0  0  0  0  0  0  0
   11.1740   29.6900   73.6220 H   0  0  0  0  0  0  0  0  0  0  0  0
   12.5790   30.7500   73.4150 H   0  0  0  0  0  0  0  0  0  0  0  0
   10.6270   31.3590   75.1160 H   0  0  0  0  0  0  0  0  0  0  0  0
   12.3230   31.6510   75.5840 H   0  0  0  0  0  0  0  0  0  0  0  0
   12.1630   28.7130   77.7300 H   0  0  0  0  0  0  0  0  0  0  0  0
   13.3690   29.9380   77.0900 H   0  0  0  0  0  0  0  0  0  0  0  0
   13.6090   27.7270   76.0420 H   0  0  0  0  0  0  0  0  0  0  0  0
   11.8660   27.6410   75.7220 H   0  0  0  0  0  0  0  0  0  0  0  0
  1  2  1  0  0  0  0
  2  3  1  0  0  0  0
  3 34  1  0  0  0  0
  3  4  2  0  0  0  0
  4 35  1  0  0  0  0
  5  4  1  0  0  0  0
  5  8  1  0  0  0  0
  6  5  2  0  0  0  0
  7  2  2  0  0  0  0
  7  6  1  0  0  0  0
  8 38  1  1  0  0  0
  9 26  1  0  0  0  0
  9  8  1  0  0  0  0
 10  9  1  0  0  0  0
 11 10  2  0  0  0  0
 12 10  1  0  0  0  0
 12 14  1  0  0  0  0
 13 12  2  0  0  0  0
 14 15  2  0  0  0  0
 14  8  1  0  0  0  0
 15 16  1  0  0  0  0
 17 15  1  0  0  0  0
 18 39  1  0  0  0  0
 18 17  2  0  0  0  0
 19 18  1  0  0  0  0
 20 19  2  0  0  0  0
 20 21  1  0  0  0  0
 21 22  2  0  0  0  0
 22 17  1  0  0  0  0
 22 41  1  0  0  0  0
 23 24  1  0  0  0  0
 23 20  1  0  0  0  0
 24 44  1  0  0  0  0
 25 45  1  0  0  0  0
 25 19  1  0  0  0  0
 26 49  1  0  0  0  0
 26 27  1  0  0  0  0
 27 28  1  0  0  0  0
 27 51  1  0  0  0  0
 28 33  1  0  0  0  0
 29 28  1  0  0  0  0
 29 30  1  0  0  0  0
 30 56  1  0  0  0  0
 30 31  1  0  0  0  0
 31 32  1  0  0  0  0
 32 58  1  0  0  0  0
 32 57  1  0  0  0  0
 33 59  1  0  0  0  0
 33 32  1  0  0  0  0
 36  6  1  0  0  0  0
 37  7  1  0  0  0  0
 40 21  1  0  0  0  0
 42 24  1  0  0  0  0
 43 24  1  0  0  0  0
 46 25  1  0  0  0  0
 47 25  1  0  0  0  0
 48 26  1  0  0  0  0
 50 27  1  0  0  0  0
 52 28  1  0  0  0  0
 53 29  1  0  0  0  0
 54 29  1  0  0  0  0
 55 30  1  0  0  0  0
 60 33  1  0  0  0  0
M  END
>  <Pose>
1

>  <Score>
-5.34

$$$$
