
 OpenBabel03212208413D

 39 42  0  0  1  0  0  0  0  0999 V2000
   13.3630   35.2400   70.6780 B   0  0  0  0  0  0  0  0  0  0  0  0
   14.5440   33.9320   71.4240 C   0  0  0  0  0  0  0  0  0  0  0  0
   14.1580   32.5890   71.4800 C   0  0  0  0  0  0  0  0  0  0  0  0
   15.0040   31.6330   72.0130 C   0  0  0  0  0  0  0  0  0  0  0  0
   16.2320   32.0520   72.4840 C   0  0  0  0  0  0  0  0  0  0  0  0
   16.6070   33.3880   72.4230 C   0  0  0  0  0  0  0  0  0  0  0  0
   15.7640   34.3360   71.8920 C   0  0  0  0  0  0  0  0  0  0  0  0
   18.3350   33.9160   73.0910 B   0  0  0  0  0  0  0  0  0  0  0  0
   14.6120   30.1790   72.0950 C   0  0  1  0  0  0  0  0  0  0  0  0
   15.7760   29.3800   72.0220 N   0  0  0  0  0  4  0  0  0  0  0  0
   15.9120   28.3390   72.9990 C   0  0  2  0  0  0  0  0  0  0  0  0
   15.7710   28.9500   74.4030 C   0  0  0  0  0  0  0  0  0  0  0  0
   14.3800   29.4400   74.4360 C   0  0  0  0  0  0  0  0  0  0  0  0
   13.4240   29.4240   75.4390 C   0  0  0  0  0  0  0  0  0  0  0  0
   12.2950   30.0100   74.9100 C   0  0  0  0  0  0  0  0  0  0  0  0
   12.5310   30.3740   73.6400 N   0  0  0  0  0  0  0  0  0  0  0  0
   13.8250   30.0230   73.3400 C   0  0  0  0  0  0  0  0  0  0  0  0
   11.1810   30.1140   75.7240 C   0  0  0  0  0  0  0  0  0  0  0  0
   11.2490   29.6360   77.0080 C   0  0  0  0  0  0  0  0  0  0  0  0
   12.3790   29.0510   77.5340 C   0  0  0  0  0  0  0  0  0  0  0  0
   13.5080   28.9390   76.7260 C   0  0  0  0  0  0  0  0  0  0  0  0
   17.2220   27.6740   72.8440 C   0  0  0  0  0  0  0  0  0  0  0  0
   18.1710   28.0150   73.5970 O   0  0  0  0  0  0  0  0  0  0  0  0
   17.3810   26.6950   71.8780 O   0  0  0  0  0  0  0  0  0  0  0  0
   12.9160   32.2950   70.9820 O   0  0  0  0  0  0  0  0  0  0  0  0
   16.9410   31.3450   72.9180 H   0  0  0  0  0  0  0  0  0  0  0  0
   16.0500   35.3870   71.8390 H   0  0  0  0  0  0  0  0  0  0  0  0
   13.9230   30.0230   71.2160 H   0  0  0  0  0  0  0  0  0  0  0  0
   15.7810   28.9060   71.0630 H   0  0  0  0  0  0  0  0  0  0  0  0
   16.6760   29.9240   72.0430 H   0  0  0  0  0  0  0  0  0  0  0  0
   15.0750   27.6190   72.8520 H   0  0  0  0  0  0  0  0  0  0  0  0
   15.9670   28.1630   75.1600 H   0  0  0  0  0  0  0  0  0  0  0  0
   16.5280   29.7550   74.4360 H   0  0  0  0  0  0  0  0  0  0  0  0
   11.8870   30.8450   72.9540 H   0  0  0  0  0  0  0  0  0  0  0  0
   10.2870   30.5770   75.3110 H   0  0  0  0  0  0  0  0  0  0  0  0
   10.3610   29.7240   77.6450 H   0  0  0  0  0  0  0  0  0  0  0  0
   12.4280   28.6680   78.5650 H   0  0  0  0  0  0  0  0  0  0  0  0
   14.4260   28.4890   77.0770 H   0  0  0  0  0  0  0  0  0  0  0  0
   12.2620   31.6680   71.3620 H   0  0  0  0  0  0  0  0  0  0  0  0
  1  2  1  0  0  0  0
  2  3  2  0  0  0  0
  2  7  1  0  0  0  0
  3  4  1  0  0  0  0
  4  9  1  0  0  0  0
  4  5  2  0  0  0  0
  5 26  1  0  0  0  0
  6  5  1  0  0  0  0
  6  8  1  0  0  0  0
  7  6  2  0  0  0  0
  9 28  1  6  0  0  0
  9 17  1  0  0  0  0
 10 30  1  0  0  0  0
 10  9  1  0  0  0  0
 10 11  1  0  0  0  0
 11 31  1  6  0  0  0
 11 12  1  0  0  0  0
 12 33  1  0  0  0  0
 12 13  1  0  0  0  0
 12 32  1  0  0  0  0
 13 14  1  0  0  0  0
 14 21  1  0  0  0  0
 15 14  2  0  0  0  0
 15 18  1  0  0  0  0
 16 15  1  0  0  0  0
 17 16  1  0  0  0  0
 17 13  2  0  0  0  0
 18 19  2  0  0  0  0
 19 20  1  0  0  0  0
 19 36  1  0  0  0  0
 20 37  1  0  0  0  0
 21 38  1  0  0  0  0
 21 20  2  0  0  0  0
 22 11  1  0  0  0  0
 22 23  1  0  0  0  0
 24 22  2  0  0  0  0
 25 39  1  0  0  0  0
 25  3  1  0  0  0  0
 27  7  1  0  0  0  0
 29 10  1  0  0  0  0
 34 16  1  0  0  0  0
 35 18  1  0  0  0  0
M  END
>  <Pose>
1

>  <Score>
-6.61

$$$$
