
 OpenBabel03212208413D

 41 44  0  0  0  0  0  0  0  0999 V2000
   24.8100   33.9040   66.2010 Cl  0  0  0  0  0  0  0  0  0  0  0  0
   23.7860   34.3280   67.5600 C   0  0  0  0  0  0  0  0  0  0  0  0
   23.1560   33.3530   68.2990 C   0  0  0  0  0  0  0  0  0  0  0  0
   22.3680   33.7190   69.3480 N   0  0  0  0  0  0  0  0  0  0  0  0
   22.2220   35.0160   69.6410 C   0  0  0  0  0  0  0  0  0  0  0  0
   21.4080   35.1290   70.7030 N   0  0  0  0  0  0  0  0  0  0  0  0
   21.0290   33.9140   71.0980 C   0  0  0  0  0  0  0  0  0  0  0  0
   21.6480   33.0060   70.2250 C   0  0  0  0  0  0  0  0  0  0  0  0
   20.1560   33.5470   72.2000 C   0  0  0  0  0  0  0  0  0  0  0  0
   20.6920   32.9060   73.1780 O   0  0  0  0  0  0  0  0  0  0  0  0
   18.8050   33.8150   72.3040 N   0  0  0  0  0  0  0  0  0  0  0  0
   18.0060   34.3540   71.2300 C   0  0  0  0  0  0  0  0  0  0  0  0
   17.0210   33.3240   70.7190 C   0  0  0  0  0  0  0  0  0  0  0  0
   16.5080   32.5100   71.8730 C   0  0  0  0  0  0  0  0  0  0  0  0
   16.9630   32.6070   73.1590 C   0  0  0  0  0  0  0  0  0  0  0  0
   16.2360   31.7050   73.8690 N   0  0  0  0  0  0  0  0  0  0  0  0
   15.3810   31.0780   73.0930 N   0  0  0  0  0  0  0  0  0  0  0  0
   15.5010   31.5330   71.8400 C   0  0  0  0  0  0  0  0  0  0  0  0
   14.8500   31.1770   70.8050 O   0  0  0  0  0  0  0  0  0  0  0  0
   14.4190   30.0330   73.4730 C   0  0  0  0  0  0  0  0  0  0  0  0
   13.0860   30.6420   73.8450 C   0  0  0  0  0  0  0  0  0  0  0  0
   12.0930   29.6820   73.9970 O   0  0  0  0  0  0  0  0  0  0  0  0
   18.0420   33.5590   73.5500 C   0  0  0  0  0  0  0  0  0  0  0  0
   22.8530   36.0330   68.9030 C   0  0  0  0  0  0  0  0  0  0  0  0
   23.6410   35.6730   67.8550 C   0  0  0  0  0  0  0  0  0  0  0  0
   23.2690   32.3050   68.0710 H   0  0  0  0  0  0  0  0  0  0  0  0
   21.5480   31.9210   70.2690 H   0  0  0  0  0  0  0  0  0  0  0  0
   18.5360   34.8050   70.4080 H   0  0  0  0  0  0  0  0  0  0  0  0
   17.4210   35.2040   71.7180 H   0  0  0  0  0  0  0  0  0  0  0  0
   17.4390   32.6710   69.9530 H   0  0  0  0  0  0  0  0  0  0  0  0
   16.1820   33.9000   70.2410 H   0  0  0  0  0  0  0  0  0  0  0  0
   16.3790   31.5660   74.8980 H   0  0  0  0  0  0  0  0  0  0  0  0
   14.8240   29.5610   74.3920 H   0  0  0  0  0  0  0  0  0  0  0  0
   14.3130   29.2660   72.7100 H   0  0  0  0  0  0  0  0  0  0  0  0
   13.2240   31.1200   74.8360 H   0  0  0  0  0  0  0  0  0  0  0  0
   12.7590   31.3740   73.0990 H   0  0  0  0  0  0  0  0  0  0  0  0
   11.5860   29.5270   73.1460 H   0  0  0  0  0  0  0  0  0  0  0  0
   17.6450   34.5140   73.9310 H   0  0  0  0  0  0  0  0  0  0  0  0
   18.7500   33.0650   74.2450 H   0  0  0  0  0  0  0  0  0  0  0  0
   22.7010   37.0770   69.1830 H   0  0  0  0  0  0  0  0  0  0  0  0
   24.1390   36.4500   67.2700 H   0  0  0  0  0  0  0  0  0  0  0  0
  1  2  1  0  0  0  0
  2 25  1  0  0  0  0
  2  3  2  0  0  0  0
  3  4  1  0  0  0  0
  4  5  1  0  0  0  0
  4  8  1  0  0  0  0
  5  6  2  0  0  0  0
  6  7  1  0  0  0  0
  7  9  1  0  0  0  0
  8 27  1  0  0  0  0
  8  7  2  0  0  0  0
  9 11  1  0  0  0  0
  9 10  2  0  0  0  0
 11 23  1  0  0  0  0
 12 29  1  0  0  0  0
 12 11  1  0  0  0  0
 13 12  1  0  0  0  0
 13 14  1  0  0  0  0
 14 15  2  0  0  0  0
 15 23  1  0  0  0  0
 15 16  1  0  0  0  0
 16 32  1  0  0  0  0
 17 20  1  0  0  0  0
 17 16  1  0  0  0  0
 18 14  1  0  0  0  0
 18 17  1  0  0  0  0
 19 18  2  0  0  0  0
 20 21  1  0  0  0  0
 20 33  1  0  0  0  0
 21 22  1  0  0  0  0
 21 35  1  0  0  0  0
 23 38  1  0  0  0  0
 23 39  1  0  0  0  0
 24 40  1  0  0  0  0
 24  5  1  0  0  0  0
 25 24  2  0  0  0  0
 26  3  1  0  0  0  0
 28 12  1  0  0  0  0
 30 13  1  0  0  0  0
 31 13  1  0  0  0  0
 34 20  1  0  0  0  0
 36 21  1  0  0  0  0
 37 22  1  0  0  0  0
 41 25  1  0  0  0  0
M  END
>  <Pose>
1

>  <Score>
-6.32

$$$$
