
 OpenBabel03212208413D

 45 48  0  0  0  0  0  0  0  0999 V2000
   15.8200   33.7600   70.8640 Cl  0  0  0  0  0  0  0  0  0  0  0  0
   15.9420   32.0940   71.4440 C   0  0  0  0  0  0  0  0  0  0  0  0
   17.1500   31.4410   71.3300 C   0  0  0  0  0  0  0  0  0  0  0  0
   17.2580   30.1430   71.7790 C   0  0  0  0  0  0  0  0  0  0  0  0
   16.1790   29.4910   72.3370 C   0  0  0  0  0  0  0  0  0  0  0  0
   14.9850   30.1860   72.4320 C   0  0  0  0  0  0  0  0  0  0  0  0
   14.8350   31.4820   71.9970 C   0  0  0  0  0  0  0  0  0  0  0  0
   16.2670   28.1470   72.8090 N   0  0  0  0  0  0  0  0  0  0  0  0
   16.8800   27.1270   72.2620 N   0  0  0  0  0  0  0  0  0  0  0  0
   16.7150   26.0200   73.0430 C   0  0  0  0  0  0  0  0  0  0  0  0
   15.9560   26.3780   74.1350 C   0  0  0  0  0  0  0  0  0  0  0  0
   15.6900   27.7380   73.9520 C   0  0  0  0  0  0  0  0  0  0  0  0
   18.3080   32.1190   70.7390 C   0  0  0  0  0  0  0  0  0  0  0  0
   18.3930   32.0740   69.4850 O   0  0  0  0  0  0  0  0  0  0  0  0
   19.2730   32.7830   71.5420 N   0  0  0  0  0  0  0  0  0  0  0  0
   20.6300   32.8920   71.0510 C   0  0  0  0  0  0  0  0  0  0  0  0
   21.2330   34.1280   71.6930 C   0  0  0  0  0  0  0  0  0  0  0  0
   20.2120   35.2320   71.8650 C   0  0  0  0  0  0  0  0  0  0  0  0
   20.9310   36.4180   72.2690 N   0  0  0  0  0  0  0  0  0  0  0  0
   21.3790   37.0880   71.1000 C   0  0  0  0  0  0  0  0  0  0  0  0
   22.3120   37.9460   70.9980 O   0  0  0  0  0  0  0  0  0  0  0  0
   20.5610   36.6010   70.0320 N   0  0  0  0  0  0  0  0  0  0  0  0
   19.6360   35.6510   70.5620 C   0  0  0  0  0  0  0  0  0  0  0  0
   18.5680   35.2760   70.0060 O   0  0  0  0  0  0  0  0  0  0  0  0
   20.6210   36.9800   68.6180 C   0  0  0  0  0  0  0  0  0  0  0  0
   19.1280   34.8580   72.8310 C   0  0  0  0  0  0  0  0  0  0  0  0
   18.9870   33.3660   72.8330 C   0  0  0  0  0  0  0  0  0  0  0  0
   18.1790   29.5750   71.7180 H   0  0  0  0  0  0  0  0  0  0  0  0
   14.1300   29.6790   72.8710 H   0  0  0  0  0  0  0  0  0  0  0  0
   13.8670   31.9980   72.0900 H   0  0  0  0  0  0  0  0  0  0  0  0
   17.0880   25.0180   72.8860 H   0  0  0  0  0  0  0  0  0  0  0  0
   15.6350   25.7420   74.9590 H   0  0  0  0  0  0  0  0  0  0  0  0
   15.1090   28.3450   74.6350 H   0  0  0  0  0  0  0  0  0  0  0  0
   21.1990   31.9890   71.3520 H   0  0  0  0  0  0  0  0  0  0  0  0
   20.6430   33.0580   69.9550 H   0  0  0  0  0  0  0  0  0  0  0  0
   21.6700   33.8640   72.6760 H   0  0  0  0  0  0  0  0  0  0  0  0
   22.0700   34.5170   71.0790 H   0  0  0  0  0  0  0  0  0  0  0  0
   21.0820   36.7090   73.2530 H   0  0  0  0  0  0  0  0  0  0  0  0
   20.3800   36.1120   67.9580 H   0  0  0  0  0  0  0  0  0  0  0  0
   21.6270   37.3700   68.3810 H   0  0  0  0  0  0  0  0  0  0  0  0
   19.8590   37.7500   68.3960 H   0  0  0  0  0  0  0  0  0  0  0  0
   18.1930   35.3520   72.4870 H   0  0  0  0  0  0  0  0  0  0  0  0
   19.4330   35.2100   73.8400 H   0  0  0  0  0  0  0  0  0  0  0  0
   19.7590   32.9590   73.5450 H   0  0  0  0  0  0  0  0  0  0  0  0
   18.0050   33.0250   73.2350 H   0  0  0  0  0  0  0  0  0  0  0  0
  1  2  1  0  0  0  0
  2  7  1  0  0  0  0
  3  2  2  0  0  0  0
  3  4  1  0  0  0  0
  4  5  2  0  0  0  0
  5  6  1  0  0  0  0
  5  8  1  0  0  0  0
  6 29  1  0  0  0  0
  7 30  1  0  0  0  0
  7  6  2  0  0  0  0
  8 12  1  0  0  0  0
  9  8  1  0  0  0  0
  9 10  2  0  0  0  0
 10 11  1  0  0  0  0
 11 32  1  0  0  0  0
 12 11  2  0  0  0  0
 12 33  1  0  0  0  0
 13  3  1  0  0  0  0
 13 15  1  0  0  0  0
 14 13  2  0  0  0  0
 15 27  1  0  0  0  0
 16 34  1  0  0  0  0
 16 15  1  0  0  0  0
 16 17  1  0  0  0  0
 17 18  1  0  0  0  0
 17 36  1  0  0  0  0
 18 19  1  0  0  0  0
 18 26  1  0  0  0  0
 19 38  1  0  0  0  0
 20 19  1  0  0  0  0
 21 20  2  0  0  0  0
 22 23  1  0  0  0  0
 22 20  1  0  0  0  0
 23 18  1  0  0  0  0
 24 23  2  0  0  0  0
 25 22  1  0  0  0  0
 26 27  1  0  0  0  0
 26 43  1  0  0  0  0
 27 45  1  0  0  0  0
 27 44  1  0  0  0  0
 28  4  1  0  0  0  0
 31 10  1  0  0  0  0
 35 16  1  0  0  0  0
 37 17  1  0  0  0  0
 39 25  1  0  0  0  0
 40 25  1  0  0  0  0
 41 25  1  0  0  0  0
 42 26  1  0  0  0  0
M  END
>  <Pose>
1

>  <Score>
-6.56

$$$$
