
 OpenBabel03212208413D

 63 66  0  0  0  0  0  0  0  0999 V2000
   22.4300   31.9680   70.7350 S   0  0  0  0  0  0  0  0  0  0  0  0
   23.1400   31.6980   72.0220 O   0  0  0  0  0  0  0  0  0  0  0  0
   22.3360   30.7330   69.8750 O   0  0  0  0  0  0  0  0  0  0  0  0
   20.7990   32.5470   71.0030 C   0  0  0  0  0  0  0  0  0  0  0  0
   20.3030   32.7440   72.2850 C   0  0  0  0  0  0  0  0  0  0  0  0
   19.0300   33.1930   72.4530 N   0  0  0  0  0  0  0  0  0  0  0  0
   18.2140   33.4600   71.4250 C   0  0  0  0  0  0  0  0  0  0  0  0
   18.6880   33.2710   70.1810 N   0  0  0  0  0  0  0  0  0  0  0  0
   19.9380   32.8290   69.9640 C   0  0  0  0  0  0  0  0  0  0  0  0
   16.8780   33.9260   71.6040 N   0  0  0  0  0  0  0  0  0  0  0  0
   16.0730   34.3940   70.5020 C   0  0  0  0  0  0  0  0  0  0  0  0
   14.7430   33.7050   70.3700 C   0  0  0  0  0  0  0  0  0  0  0  0
   14.2620   33.1270   71.6910 C   0  0  0  0  0  0  0  0  0  0  0  0
   14.7920   34.1250   72.7340 C   0  0  0  0  0  0  0  0  0  0  0  0
   16.2630   33.9550   72.9190 C   0  0  0  0  0  0  0  0  0  0  0  0
   14.7400   31.8630   71.9910 N   0  0  0  0  0  0  0  0  0  0  0  0
   14.6230   30.7840   71.0900 C   0  0  0  0  0  0  0  0  0  0  0  0
   15.8470   29.8780   71.3030 C   0  0  0  0  0  0  0  0  0  0  0  0
   16.3630   30.1160   72.6960 C   0  0  0  0  0  0  0  0  0  0  0  0
   15.2520   30.2880   73.7010 C   0  0  0  0  0  0  0  0  0  0  0  0
   14.2950   31.3880   73.2730 C   0  0  0  0  0  0  0  0  0  0  0  0
   12.7870   33.2540   71.7290 C   0  0  0  0  0  0  0  0  0  0  0  0
   12.2130   34.3110   71.2980 O   0  0  0  0  0  0  0  0  0  0  0  0
   11.9400   32.2570   72.2230 N   0  0  0  0  0  0  0  0  0  0  0  0
   21.1640   32.4620   73.3610 N   0  0  0  0  0  0  0  0  0  0  0  0
   23.2930   33.2030   69.8060 C   0  0  0  0  0  0  0  0  0  0  0  0
   24.5120   32.9080   69.2300 C   0  0  0  0  0  0  0  0  0  0  0  0
   25.1480   33.9010   68.5150 C   0  0  0  0  0  0  0  0  0  0  0  0
   24.5920   35.1670   68.3700 C   0  0  0  0  0  0  0  0  0  0  0  0
   23.3730   35.4230   68.9600 C   0  0  0  0  0  0  0  0  0  0  0  0
   22.7110   34.4500   69.6820 C   0  0  0  0  0  0  0  0  0  0  0  0
   22.6500   37.0280   68.7860 Cl  0  0  0  0  0  0  0  0  0  0  0  0
   25.0280   31.6530   69.3940 O   0  0  0  0  0  0  0  0  0  0  0  0
   26.3550   31.2810   69.1470 C   0  0  0  0  0  0  0  0  0  0  0  0
   20.3270   32.6740   68.9460 H   0  0  0  0  0  0  0  0  0  0  0  0
   15.9440   35.5040   70.6840 H   0  0  0  0  0  0  0  0  0  0  0  0
   16.6330   34.3560   69.5360 H   0  0  0  0  0  0  0  0  0  0  0  0
   14.0120   34.5000   70.1040 H   0  0  0  0  0  0  0  0  0  0  0  0
   14.7010   32.9690   69.5500 H   0  0  0  0  0  0  0  0  0  0  0  0
   14.1870   34.1710   73.6370 H   0  0  0  0  0  0  0  0  0  0  0  0
   14.6690   35.1540   72.2630 H   0  0  0  0  0  0  0  0  0  0  0  0
   16.5790   33.0840   73.5070 H   0  0  0  0  0  0  0  0  0  0  0  0
   16.7000   34.8840   73.4050 H   0  0  0  0  0  0  0  0  0  0  0  0
   13.7640   30.1060   71.3810 H   0  0  0  0  0  0  0  0  0  0  0  0
   14.5910   31.0060   70.0330 H   0  0  0  0  0  0  0  0  0  0  0  0
   15.5850   28.8080   71.1360 H   0  0  0  0  0  0  0  0  0  0  0  0
   16.6350   30.1880   70.5540 H   0  0  0  0  0  0  0  0  0  0  0  0
   16.9720   31.0600   72.7090 H   0  0  0  0  0  0  0  0  0  0  0  0
   16.9850   29.2640   73.0620 H   0  0  0  0  0  0  0  0  0  0  0  0
   15.7370   30.5420   74.6790 H   0  0  0  0  0  0  0  0  0  0  0  0
   14.7590   29.3150   73.8600 H   0  0  0  0  0  0  0  0  0  0  0  0
   14.1190   32.1240   74.0420 H   0  0  0  0  0  0  0  0  0  0  0  0
   13.3220   30.8370   73.0800 H   0  0  0  0  0  0  0  0  0  0  0  0
   12.2160   31.2480   72.0730 H   0  0  0  0  0  0  0  0  0  0  0  0
   11.0500   32.3970   72.7420 H   0  0  0  0  0  0  0  0  0  0  0  0
   22.0740   32.9450   73.5140 H   0  0  0  0  0  0  0  0  0  0  0  0
   20.8900   31.7330   74.0510 H   0  0  0  0  0  0  0  0  0  0  0  0
   26.1100   33.7100   68.0450 H   0  0  0  0  0  0  0  0  0  0  0  0
   25.1230   35.9070   67.8050 H   0  0  0  0  0  0  0  0  0  0  0  0
   21.7370   34.6720   70.1460 H   0  0  0  0  0  0  0  0  0  0  0  0
   26.9880   31.6200   69.9840 H   0  0  0  0  0  0  0  0  0  0  0  0
   26.4090   30.1610   69.1510 H   0  0  0  0  0  0  0  0  0  0  0  0
   26.7360   31.5980   68.1630 H   0  0  0  0  0  0  0  0  0  0  0  0
  1  4  1  0  0  0  0
  1  2  2  0  0  0  0
  3  1  2  0  0  0  0
  4  5  2  0  0  0  0
  5  6  1  0  0  0  0
  5 25  1  0  0  0  0
  7 10  1  0  0  0  0
  7  6  2  0  0  0  0
  8  7  1  0  0  0  0
  9  8  2  0  0  0  0
  9  4  1  0  0  0  0
 10 15  1  0  0  0  0
 11 36  1  0  0  0  0
 11 10  1  0  0  0  0
 12 11  1  0  0  0  0
 12 13  1  0  0  0  0
 13 22  1  0  0  0  0
 13 16  1  0  0  0  0
 13 14  1  0  0  0  0
 14 15  1  0  0  0  0
 14 40  1  0  0  0  0
 15 43  1  0  0  0  0
 15 42  1  0  0  0  0
 16 21  1  0  0  0  0
 17 18  1  0  0  0  0
 17 44  1  0  0  0  0
 17 16  1  0  0  0  0
 18 19  1  0  0  0  0
 19 48  1  0  0  0  0
 19 49  1  0  0  0  0
 19 20  1  0  0  0  0
 20 51  1  0  0  0  0
 20 50  1  0  0  0  0
 21 20  1  0  0  0  0
 21 52  1  0  0  0  0
 22 24  1  0  0  0  0
 23 22  2  0  0  0  0
 24 55  1  0  0  0  0
 25 56  1  0  0  0  0
 25 57  1  0  0  0  0
 26  1  1  0  0  0  0
 27 33  1  0  0  0  0
 27 26  2  0  0  0  0
 28 27  1  0  0  0  0
 29 28  2  0  0  0  0
 29 30  1  0  0  0  0
 30 31  2  0  0  0  0
 31 26  1  0  0  0  0
 31 60  1  0  0  0  0
 32 30  1  0  0  0  0
 34 62  1  0  0  0  0
 34 33  1  0  0  0  0
 34 61  1  0  0  0  0
 35  9  1  0  0  0  0
 37 11  1  0  0  0  0
 38 12  1  0  0  0  0
 39 12  1  0  0  0  0
 41 14  1  0  0  0  0
 45 17  1  0  0  0  0
 46 18  1  0  0  0  0
 47 18  1  0  0  0  0
 53 21  1  0  0  0  0
 54 24  1  0  0  0  0
 58 28  1  0  0  0  0
 59 29  1  0  0  0  0
 63 34  1  0  0  0  0
M  END
>  <Pose>
1

>  <Score>
-5.56

$$$$
