
 OpenBabel03212208413D

 61 64  0  0  1  0  0  0  0  0999 V2000
   16.3980   36.8840   69.7880 Cl  0  0  0  0  0  0  0  0  0  0  0  0
   15.9520   35.4510   70.7230 C   0  0  0  0  0  0  0  0  0  0  0  0
   14.6470   35.0060   70.7290 C   0  0  0  0  0  0  0  0  0  0  0  0
   14.3090   33.9040   71.4470 C   0  0  0  0  0  0  0  0  0  0  0  0
   15.2780   33.2140   72.1870 C   0  0  0  0  0  0  0  0  0  0  0  0
   16.5720   33.6770   72.1670 C   0  0  0  0  0  0  0  0  0  0  0  0
   16.9360   34.8020   71.4370 C   0  0  0  0  0  0  0  0  0  0  0  0
   14.9310   32.0580   72.9410 N   0  0  0  0  0  0  0  0  0  0  0  0
   13.7840   31.2640   72.5250 C   0  0  2  0  0  0  0  0  0  0  0  0
   12.7050   32.1970   72.2980 N   0  0  0  0  0  0  0  0  0  0  0  0
   12.9570   33.3540   71.5170 C   0  0  0  0  0  0  0  0  0  0  0  0
   12.0630   33.9510   70.8640 O   0  0  0  0  0  0  0  0  0  0  0  0
   13.4320   30.3270   73.6310 C   0  0  0  0  0  0  0  0  0  0  0  0
   14.2000   29.0260   73.5830 C   0  0  0  0  0  0  0  0  0  0  0  0
   15.6190   29.2410   73.3880 N   0  0  0  0  0  0  0  0  0  0  0  0
   16.1650   29.8930   72.2150 C   0  0  0  0  0  0  0  0  0  0  0  0
   17.3940   30.1290   72.2600 O   0  0  0  0  0  0  0  0  0  0  0  0
   15.5000   30.3220   70.9740 C   0  0  0  0  0  0  0  0  0  0  0  0
   14.0400   30.5820   71.1960 C   0  0  0  0  0  0  0  0  0  0  0  0
   16.5550   28.8400   74.3580 C   0  0  0  0  0  0  0  0  0  0  0  0
   17.1640   27.5290   74.3500 C   0  0  0  0  0  0  0  0  0  0  0  0
   17.1260   26.9750   75.5620 O   0  0  0  0  0  0  0  0  0  0  0  0
   17.7420   26.8060   73.3310 N   0  0  0  0  0  0  0  0  0  0  0  0
   19.2190   26.8530   73.1790 C   0  0  0  0  0  0  0  0  0  0  0  0
   19.6170   25.3850   72.9580 C   0  0  0  0  0  0  0  0  0  0  0  0
   18.6200   24.4960   73.4520 N   0  0  0  0  0  0  0  0  0  0  0  0
   17.3770   24.4920   72.7410 C   0  0  0  0  0  0  0  0  0  0  0  0
   17.0930   25.9800   72.3900 C   0  0  0  0  0  0  0  0  0  0  0  0
   19.0740   23.2120   73.8670 C   0  0  0  0  0  0  0  0  0  0  0  0
   20.5310   22.9470   73.5480 C   0  0  0  0  0  0  0  0  0  0  0  0
   18.8300   22.9280   75.3240 C   0  0  0  0  0  0  0  0  0  0  0  0
   13.8660   35.5060   70.1740 H   0  0  0  0  0  0  0  0  0  0  0  0
   17.3230   33.1270   72.7510 H   0  0  0  0  0  0  0  0  0  0  0  0
   17.9560   35.1540   71.4300 H   0  0  0  0  0  0  0  0  0  0  0  0
   15.5260   31.8350   73.7660 H   0  0  0  0  0  0  0  0  0  0  0  0
   11.7480   32.0640   72.6780 H   0  0  0  0  0  0  0  0  0  0  0  0
   12.3480   30.0460   73.4880 H   0  0  0  0  0  0  0  0  0  0  0  0
   13.5220   30.8580   74.5830 H   0  0  0  0  0  0  0  0  0  0  0  0
   13.9710   28.4310   74.4650 H   0  0  0  0  0  0  0  0  0  0  0  0
   13.8180   28.4730   72.7030 H   0  0  0  0  0  0  0  0  0  0  0  0
   15.9820   31.2610   70.6030 H   0  0  0  0  0  0  0  0  0  0  0  0
   15.5880   29.5330   70.1700 H   0  0  0  0  0  0  0  0  0  0  0  0
   13.4250   29.6640   71.1020 H   0  0  0  0  0  0  0  0  0  0  0  0
   13.6930   31.2370   70.3410 H   0  0  0  0  0  0  0  0  0  0  0  0
   16.1300   28.9650   75.4240 H   0  0  0  0  0  0  0  0  0  0  0  0
   17.3740   29.6210   74.3800 H   0  0  0  0  0  0  0  0  0  0  0  0
   19.4710   27.4520   72.2810 H   0  0  0  0  0  0  0  0  0  0  0  0
   19.6820   27.2930   74.0590 H   0  0  0  0  0  0  0  0  0  0  0  0
   19.8700   25.2370   71.8820 H   0  0  0  0  0  0  0  0  0  0  0  0
   20.5380   25.2320   73.5550 H   0  0  0  0  0  0  0  0  0  0  0  0
   16.5650   24.2100   73.4410 H   0  0  0  0  0  0  0  0  0  0  0  0
   17.3490   23.8740   71.8410 H   0  0  0  0  0  0  0  0  0  0  0  0
   16.0470   26.1260   72.1740 H   0  0  0  0  0  0  0  0  0  0  0  0
   17.6070   26.1750   71.3790 H   0  0  0  0  0  0  0  0  0  0  0  0
   18.4920   22.4510   73.2950 H   0  0  0  0  0  0  0  0  0  0  0  0
   20.6550   23.0090   72.4420 H   0  0  0  0  0  0  0  0  0  0  0  0
   21.1920   23.6180   74.0950 H   0  0  0  0  0  0  0  0  0  0  0  0
   20.7270   21.8810   73.8160 H   0  0  0  0  0  0  0  0  0  0  0  0
   19.5310   23.4560   75.9900 H   0  0  0  0  0  0  0  0  0  0  0  0
   17.7560   23.2030   75.5440 H   0  0  0  0  0  0  0  0  0  0  0  0
   18.9440   21.8300   75.4600 H   0  0  0  0  0  0  0  0  0  0  0  0
  1  2  1  0  0  0  0
  2  3  2  0  0  0  0
  2  7  1  0  0  0  0
  3  4  1  0  0  0  0
  4 11  1  0  0  0  0
  4  5  2  0  0  0  0
  5  8  1  0  0  0  0
  6  5  1  0  0  0  0
  6 33  1  0  0  0  0
  7  6  2  0  0  0  0
  8 35  1  0  0  0  0
  9 19  1  6  0  0  0
  9  8  1  0  0  0  0
  9 13  1  0  0  0  0
 10  9  1  0  0  0  0
 10 36  1  0  0  0  0
 11 10  1  0  0  0  0
 12 11  2  0  0  0  0
 13 38  1  0  0  0  0
 14 13  1  0  0  0  0
 14 39  1  0  0  0  0
 15 14  1  0  0  0  0
 15 20  1  0  0  0  0
 16 17  2  0  0  0  0
 16 15  1  0  0  0  0
 18 19  1  0  0  0  0
 18 16  1  0  0  0  0
 20 46  1  0  0  0  0
 20 45  1  0  0  0  0
 21 20  1  0  0  0  0
 21 22  2  0  0  0  0
 23 21  1  0  0  0  0
 24 23  1  0  0  0  0
 24 48  1  0  0  0  0
 25 24  1  0  0  0  0
 25 26  1  0  0  0  0
 25 50  1  0  0  0  0
 26 29  1  0  0  0  0
 27 51  1  0  0  0  0
 27 26  1  0  0  0  0
 28 27  1  0  0  0  0
 28 23  1  0  0  0  0
 29 31  1  0  0  0  0
 30 58  1  0  0  0  0
 30 29  1  0  0  0  0
 30 57  1  0  0  0  0
 31 61  1  0  0  0  0
 31 60  1  0  0  0  0
 31 59  1  0  0  0  0
 32  3  1  0  0  0  0
 34  7  1  0  0  0  0
 37 13  1  0  0  0  0
 40 14  1  0  0  0  0
 41 18  1  0  0  0  0
 42 18  1  0  0  0  0
 43 19  1  0  0  0  0
 44 19  1  0  0  0  0
 47 24  1  0  0  0  0
 49 25  1  0  0  0  0
 52 27  1  0  0  0  0
 53 28  1  0  0  0  0
 54 28  1  0  0  0  0
 55 29  1  0  0  0  0
 56 30  1  0  0  0  0
M  END
>  <Pose>
1

>  <Score>
-6.72

$$$$
