
 OpenBabel03212208413D

 61 64  0  0  1  0  0  0  0  0999 V2000
   13.5720   25.8990   75.5830 B   0  0  0  0  0  0  0  0  0  0  0  0
   14.4790   27.3150   74.6400 C   0  0  0  0  0  0  0  0  0  0  0  0
   15.6850   27.1020   74.0250 C   0  0  0  0  0  0  0  0  0  0  0  0
   16.3810   28.0880   73.3330 C   0  0  0  0  0  0  0  0  0  0  0  0
   15.8290   29.3470   73.2590 C   0  0  0  0  0  0  0  0  0  0  0  0
   14.6090   29.5490   73.8850 C   0  0  0  0  0  0  0  0  0  0  0  0
   13.9220   28.5750   74.5690 C   0  0  0  0  0  0  0  0  0  0  0  0
   16.4730   30.4290   72.5280 C   0  0  0  0  0  0  0  0  0  0  0  0
   16.4100   30.3240   71.2550 O   0  0  0  0  0  0  0  0  0  0  0  0
   17.1590   31.5770   73.1230 C   0  0  2  0  0  0  0  0  0  0  0  0
   17.2270   32.7980   72.2460 C   0  0  1  0  0  0  0  0  0  0  0  0
   18.3880   32.6890   71.4810 N   0  0  0  0  0  0  0  0  0  0  0  0
   19.3500   32.1390   72.4670 C   0  0  0  0  0  0  0  0  0  0  0  0
   20.5890   32.3630   72.5260 O   0  0  0  0  0  0  0  0  0  0  0  0
   18.5890   31.2820   73.3620 C   0  0  0  0  0  0  0  0  0  0  0  0
   19.0790   30.4520   74.1790 O   0  0  0  0  0  0  0  0  0  0  0  0
   18.9290   33.0290   70.2030 C   0  0  0  0  0  0  0  0  0  0  0  0
   20.3940   33.2330   70.1170 C   0  0  0  0  0  0  0  0  0  0  0  0
   21.0500   33.4770   68.9030 N   0  0  0  0  0  4  0  0  0  0  0  0
   20.8770   34.8550   68.4260 C   0  0  0  0  0  0  0  0  0  0  0  0
   21.4810   35.8640   69.3450 C   0  0  0  0  0  0  0  0  0  0  0  0
   22.2140   35.2260   70.3190 O   0  0  0  0  0  0  0  0  0  0  0  0
   23.1560   34.4060   69.6780 C   0  0  0  0  0  0  0  0  0  0  0  0
   22.4900   33.2000   69.0510 C   0  0  0  0  0  0  0  0  0  0  0  0
   15.9620   33.3380   71.8170 C   0  0  0  0  0  0  0  0  0  0  0  0
   15.7110   34.6430   71.5340 C   0  0  0  0  0  0  0  0  0  0  0  0
   14.4590   35.0590   71.1080 C   0  0  0  0  0  0  0  0  0  0  0  0
   13.4340   34.1110   70.9710 C   0  0  0  0  0  0  0  0  0  0  0  0
   13.6870   32.8000   71.2570 C   0  0  0  0  0  0  0  0  0  0  0  0
   14.9160   32.3930   71.6730 C   0  0  0  0  0  0  0  0  0  0  0  0
   12.1690   34.4730   70.5520 O   0  0  0  0  0  0  0  0  0  0  0  0
   14.1790   36.3550   70.8150 O   0  0  0  0  0  0  0  0  0  0  0  0
   14.7660   37.0670   69.7740 C   0  0  0  0  0  0  0  0  0  0  0  0
   16.1740   37.5460   70.0790 C   0  0  0  0  0  0  0  0  0  0  0  0
   16.1400   26.1090   74.0720 H   0  0  0  0  0  0  0  0  0  0  0  0
   17.3380   27.8330   72.8970 H   0  0  0  0  0  0  0  0  0  0  0  0
   14.1220   30.5370   73.8570 H   0  0  0  0  0  0  0  0  0  0  0  0
   12.9680   28.7540   75.0530 H   0  0  0  0  0  0  0  0  0  0  0  0
   16.6770   31.8490   74.1180 H   0  0  0  0  0  0  0  0  0  0  0  0
   17.6080   33.6100   73.0820 H   0  0  0  0  0  0  0  0  0  0  0  0
   18.6740   32.2480   69.4280 H   0  0  0  0  0  0  0  0  0  0  0  0
   18.4500   34.0050   69.8870 H   0  0  0  0  0  0  0  0  0  0  0  0
   20.9480   32.3560   70.6140 H   0  0  0  0  0  0  0  0  0  0  0  0
   20.7110   34.0740   70.8410 H   0  0  0  0  0  0  0  0  0  0  0  0
   20.7270   32.8710   68.1520 H   0  0  0  0  0  0  0  0  0  0  0  0
   19.8160   35.0030   68.2010 H   0  0  0  0  0  0  0  0  0  0  0  0
   21.4310   34.8920   67.4560 H   0  0  0  0  0  0  0  0  0  0  0  0
   22.1610   36.5520   68.7950 H   0  0  0  0  0  0  0  0  0  0  0  0
   20.6420   36.4200   69.8280 H   0  0  0  0  0  0  0  0  0  0  0  0
   23.7210   34.9320   68.9060 H   0  0  0  0  0  0  0  0  0  0  0  0
   23.8230   34.0240   70.4840 H   0  0  0  0  0  0  0  0  0  0  0  0
   22.9160   32.9320   68.0670 H   0  0  0  0  0  0  0  0  0  0  0  0
   22.5490   32.2950   69.6890 H   0  0  0  0  0  0  0  0  0  0  0  0
   16.4640   35.4300   71.6470 H   0  0  0  0  0  0  0  0  0  0  0  0
   12.8800   32.0580   71.1480 H   0  0  0  0  0  0  0  0  0  0  0  0
   15.0830   31.3440   71.8910 H   0  0  0  0  0  0  0  0  0  0  0  0
   14.8060   36.4670   68.8340 H   0  0  0  0  0  0  0  0  0  0  0  0
   14.1710   37.9770   69.5100 H   0  0  0  0  0  0  0  0  0  0  0  0
   16.8940   36.9030   69.5070 H   0  0  0  0  0  0  0  0  0  0  0  0
   16.3000   38.5800   69.7270 H   0  0  0  0  0  0  0  0  0  0  0  0
   16.4230   37.4520   71.1350 H   0  0  0  0  0  0  0  0  0  0  0  0
  2  1  1  0  0  0  0
  3 35  1  0  0  0  0
  3  2  2  0  0  0  0
  4  3  1  0  0  0  0
  5  4  2  0  0  0  0
  5  6  1  0  0  0  0
  6  7  2  0  0  0  0
  7  2  1  0  0  0  0
  7 38  1  0  0  0  0
  8 10  1  0  0  0  0
  8  5  1  0  0  0  0
  9  8  2  0  0  0  0
 10 15  1  0  0  0  0
 10 39  1  1  0  0  0
 11 40  1  1  0  0  0
 11 10  1  0  0  0  0
 12 11  1  0  0  0  0
 12 13  1  0  0  0  0
 13 14  2  0  0  0  0
 13 15  1  0  0  0  0
 15 16  2  0  0  0  0
 17 12  1  0  0  0  0
 18 17  1  0  0  0  0
 18 43  1  0  0  0  0
 18 44  1  0  0  0  0
 19 24  1  0  0  0  0
 19 18  1  0  0  0  0
 20 19  1  0  0  0  0
 20 21  1  0  0  0  0
 21 49  1  0  0  0  0
 21 22  1  0  0  0  0
 23 22  1  0  0  0  0
 23 51  1  0  0  0  0
 24 23  1  0  0  0  0
 24 53  1  0  0  0  0
 25 11  1  0  0  0  0
 26 54  1  0  0  0  0
 26 25  2  0  0  0  0
 27 26  1  0  0  0  0
 28 27  2  0  0  0  0
 28 29  1  0  0  0  0
 29 30  2  0  0  0  0
 30 25  1  0  0  0  0
 30 56  1  0  0  0  0
 31 28  1  0  0  0  0
 32 27  1  0  0  0  0
 33 34  1  0  0  0  0
 33 32  1  0  0  0  0
 34 61  1  0  0  0  0
 36  4  1  0  0  0  0
 37  6  1  0  0  0  0
 41 17  1  0  0  0  0
 42 17  1  0  0  0  0
 45 19  1  0  0  0  0
 46 20  1  0  0  0  0
 47 20  1  0  0  0  0
 48 21  1  0  0  0  0
 50 23  1  0  0  0  0
 52 24  1  0  0  0  0
 55 29  1  0  0  0  0
 57 33  1  0  0  0  0
 58 33  1  0  0  0  0
 59 34  1  0  0  0  0
 60 34  1  0  0  0  0
M  END
>  <Pose>
1

>  <Score>
-6.70

$$$$
