
 OpenBabel03212208413D

 55 58  0  0  1  0  0  0  0  0999 V2000
   26.2260   35.2010   64.9620 Cl  0  0  0  0  0  0  0  0  0  0  0  0
   25.0540   35.2450   66.2590 C   0  0  0  0  0  0  0  0  0  0  0  0
   24.0650   34.2860   66.3970 C   0  0  0  0  0  0  0  0  0  0  0  0
   23.1490   34.3290   67.4210 C   0  0  0  0  0  0  0  0  0  0  0  0
   22.1200   33.5440   67.7690 N   0  0  0  0  0  0  0  0  0  0  0  0
   21.5080   34.0260   68.8850 C   0  0  0  0  0  0  0  0  0  0  0  0
   22.1890   35.1170   69.2020 N   0  0  0  0  0  0  0  0  0  0  0  0
   23.1890   35.3420   68.3460 C   0  0  0  0  0  0  0  0  0  0  0  0
   24.1640   36.3090   68.2300 C   0  0  0  0  0  0  0  0  0  0  0  0
   25.0900   36.2630   67.1950 C   0  0  0  0  0  0  0  0  0  0  0  0
   20.3430   33.3930   69.5480 C   0  0  0  0  0  0  0  0  0  0  0  0
   20.8080   32.7070   70.8000 C   0  0  0  0  0  0  0  0  0  0  0  0
   20.1900   33.3500   71.9720 C   0  0  0  0  0  0  0  0  0  0  0  0
   20.7370   34.3380   72.5260 O   0  0  0  0  0  0  0  0  0  0  0  0
   18.9590   32.8230   72.4650 N   0  0  0  0  0  0  0  0  0  0  0  0
   18.3230   31.6340   71.9420 C   0  0  0  0  0  0  0  0  0  0  0  0
   16.7940   31.8020   71.9390 C   0  0  1  0  0  0  0  0  0  0  0  0
   16.5320   33.2670   71.8460 C   0  0  2  0  0  0  0  0  0  0  0  0
   16.8870   33.9200   73.1610 C   0  0  0  0  0  0  0  0  0  0  0  0
   18.2920   33.5080   73.5510 C   0  0  0  0  0  0  0  0  0  0  0  0
   15.2550   33.6440   71.3530 N   0  0  0  0  0  0  0  0  0  0  0  0
   14.1150   33.0220   71.6870 C   0  0  0  0  0  0  0  0  0  0  0  0
   12.8820   33.4200   71.1840 C   0  0  0  0  0  0  0  0  0  0  0  0
   12.8270   34.4850   70.3160 C   0  0  0  0  0  0  0  0  0  0  0  0
   11.7020   34.8530   69.8540 O   0  0  0  0  0  0  0  0  0  0  0  0
   13.9680   35.1040   69.9830 N   0  0  0  0  0  0  0  0  0  0  0  0
   15.1360   34.6820   70.4970 C   0  0  0  0  0  0  0  0  0  0  0  0
   16.2250   35.2760   70.1760 O   0  0  0  0  0  0  0  0  0  0  0  0
   11.6370   32.6840   71.5970 C   0  0  0  0  0  0  0  0  0  0  0  0
   16.3520   31.1070   70.8030 O   0  0  0  0  0  0  0  0  0  0  0  0
   16.2800   31.1360   73.1750 C   0  0  0  0  0  0  0  0  0  0  0  0
   24.0600   33.5020   65.6520 H   0  0  0  0  0  0  0  0  0  0  0  0
   21.8020   32.6680   67.2710 H   0  0  0  0  0  0  0  0  0  0  0  0
   24.1800   37.0940   68.9640 H   0  0  0  0  0  0  0  0  0  0  0  0
   25.8370   37.0390   67.1390 H   0  0  0  0  0  0  0  0  0  0  0  0
   19.9250   32.5920   68.8860 H   0  0  0  0  0  0  0  0  0  0  0  0
   19.5650   34.1380   69.8190 H   0  0  0  0  0  0  0  0  0  0  0  0
   20.5410   31.6200   70.7580 H   0  0  0  0  0  0  0  0  0  0  0  0
   21.9240   32.7040   70.8590 H   0  0  0  0  0  0  0  0  0  0  0  0
   18.6990   31.3680   70.9560 H   0  0  0  0  0  0  0  0  0  0  0  0
   18.6170   30.7940   72.6390 H   0  0  0  0  0  0  0  0  0  0  0  0
   17.2880   33.6720   71.1070 H   0  0  0  0  0  0  0  0  0  0  0  0
   16.9240   35.0400   73.0580 H   0  0  0  0  0  0  0  0  0  0  0  0
   16.1600   33.7260   73.9640 H   0  0  0  0  0  0  0  0  0  0  0  0
   18.8990   34.3640   73.9050 H   0  0  0  0  0  0  0  0  0  0  0  0
   18.2010   32.7530   74.3880 H   0  0  0  0  0  0  0  0  0  0  0  0
   14.1820   32.1950   72.3660 H   0  0  0  0  0  0  0  0  0  0  0  0
   13.9400   35.9120   69.3270 H   0  0  0  0  0  0  0  0  0  0  0  0
   10.9270   32.7510   70.7240 H   0  0  0  0  0  0  0  0  0  0  0  0
   11.9180   31.6240   71.6830 H   0  0  0  0  0  0  0  0  0  0  0  0
   11.1880   33.1200   72.4920 H   0  0  0  0  0  0  0  0  0  0  0  0
   15.3510   30.9890   70.8630 H   0  0  0  0  0  0  0  0  0  0  0  0
   17.1040   30.7000   73.8130 H   0  0  0  0  0  0  0  0  0  0  0  0
   15.6520   30.2310   72.9230 H   0  0  0  0  0  0  0  0  0  0  0  0
   15.6680   31.7530   73.8280 H   0  0  0  0  0  0  0  0  0  0  0  0
  1  2  1  0  0  0  0
  2  3  2  0  0  0  0
  2 10  1  0  0  0  0
  3  4  1  0  0  0  0
  4  5  1  0  0  0  0
  4  8  2  0  0  0  0
  5  6  1  0  0  0  0
  6  7  2  0  0  0  0
  6 11  1  0  0  0  0
  8  7  1  0  0  0  0
  9  8  1  0  0  0  0
  9 34  1  0  0  0  0
 10  9  2  0  0  0  0
 11 37  1  0  0  0  0
 11 12  1  0  0  0  0
 12 39  1  0  0  0  0
 12 13  1  0  0  0  0
 13 15  1  0  0  0  0
 13 14  2  0  0  0  0
 15 20  1  0  0  0  0
 16 15  1  0  0  0  0
 16 41  1  0  0  0  0
 17 30  1  6  0  0  0
 17 16  1  0  0  0  0
 17 31  1  0  0  0  0
 18 42  1  6  0  0  0
 18 17  1  0  0  0  0
 18 19  1  0  0  0  0
 19 20  1  0  0  0  0
 19 44  1  0  0  0  0
 20 45  1  0  0  0  0
 20 46  1  0  0  0  0
 21 22  1  0  0  0  0
 21 18  1  0  0  0  0
 22 47  1  0  0  0  0
 23 29  1  0  0  0  0
 23 22  2  0  0  0  0
 24 23  1  0  0  0  0
 25 24  2  0  0  0  0
 26 24  1  0  0  0  0
 26 27  1  0  0  0  0
 27 21  1  0  0  0  0
 28 27  2  0  0  0  0
 29 50  1  0  0  0  0
 29 51  1  0  0  0  0
 30 52  1  0  0  0  0
 31 53  1  0  0  0  0
 31 55  1  0  0  0  0
 32  3  1  0  0  0  0
 33  5  1  0  0  0  0
 35 10  1  0  0  0  0
 36 11  1  0  0  0  0
 38 12  1  0  0  0  0
 40 16  1  0  0  0  0
 43 19  1  0  0  0  0
 48 26  1  0  0  0  0
 49 29  1  0  0  0  0
 54 31  1  0  0  0  0
M  END
>  <Pose>
1

>  <Score>
-6.92

$$$$
