
 OpenBabel03212208413D

 30 33  0  0  1  0  0  0  0  0999 V2000
   12.2640   29.4040   73.7940 F   0  0  0  0  0  0  0  0  0  0  0  0
   13.5980   29.7280   73.7050 C   0  0  0  0  0  0  0  0  0  0  0  0
   13.9690   30.8280   72.9220 C   0  0  0  0  0  0  0  0  0  0  0  0
   15.2850   31.1650   72.8210 C   0  0  0  0  0  0  0  0  0  0  0  0
   16.2600   30.4170   73.4940 C   0  0  0  0  0  0  0  0  0  0  0  0
   15.8690   29.3470   74.2520 C   0  0  0  0  0  0  0  0  0  0  0  0
   14.5470   28.9890   74.3670 C   0  0  0  0  0  0  0  0  0  0  0  0
   14.0480   27.6050   75.3480 Cl  0  0  0  0  0  0  0  0  0  0  0  0
   15.4030   32.3580   71.9410 C   0  0  2  0  0  0  0  0  0  0  0  0
   16.2360   32.0410   70.8240 N   0  0  0  0  0  0  0  0  0  0  0  0
   17.6370   32.1840   70.8970 C   0  0  0  0  0  0  0  0  0  0  0  0
   18.4700   31.5930   70.0010 N   0  0  0  0  0  0  0  0  0  0  0  0
   19.8020   31.6960   70.0250 C   0  0  0  0  0  0  0  0  0  0  0  0
   20.4050   32.4550   71.0220 C   0  0  0  0  0  0  0  0  0  0  0  0
   19.6380   33.0820   71.9640 C   0  0  0  0  0  0  0  0  0  0  0  0
   18.2710   32.9330   71.8780 C   0  0  0  0  0  0  0  0  0  0  0  0
   17.3620   33.5650   72.8390 C   0  0  0  0  0  0  0  0  0  0  0  0
   17.9020   34.2640   73.7620 O   0  0  0  0  0  0  0  0  0  0  0  0
   15.9650   33.4180   72.7590 N   0  0  0  0  0  0  0  0  0  0  0  0
   14.0220   32.6640   71.5510 C   0  0  0  0  0  0  0  0  0  0  0  0
   13.6250   33.6190   70.7870 O   0  0  0  0  0  0  0  0  0  0  0  0
   13.1630   31.7310   72.1530 N   0  0  0  0  0  0  0  0  0  0  0  0
   17.3100   30.7090   73.3970 H   0  0  0  0  0  0  0  0  0  0  0  0
   16.6110   28.7610   74.7770 H   0  0  0  0  0  0  0  0  0  0  0  0
   15.8290   31.6950   69.9210 H   0  0  0  0  0  0  0  0  0  0  0  0
   20.4480   31.2180   69.3030 H   0  0  0  0  0  0  0  0  0  0  0  0
   21.4740   32.5550   71.0660 H   0  0  0  0  0  0  0  0  0  0  0  0
   20.0340   33.6900   72.7710 H   0  0  0  0  0  0  0  0  0  0  0  0
   15.3780   34.0910   73.3040 H   0  0  0  0  0  0  0  0  0  0  0  0
   12.1130   31.6530   72.0900 H   0  0  0  0  0  0  0  0  0  0  0  0
  2  1  1  0  0  0  0
  2  7  1  0  0  0  0
  3  2  2  0  0  0  0
  4  3  1  0  0  0  0
  4  5  2  0  0  0  0
  5  6  1  0  0  0  0
  6  7  2  0  0  0  0
  6 24  1  0  0  0  0
  7  8  1  0  0  0  0
  9 20  1  6  0  0  0
  9 19  1  0  0  0  0
  9  4  1  0  0  0  0
 10 11  1  0  0  0  0
 10  9  1  0  0  0  0
 11 16  1  0  0  0  0
 12 13  1  0  0  0  0
 12 11  2  0  0  0  0
 13 14  2  0  0  0  0
 14 27  1  0  0  0  0
 14 15  1  0  0  0  0
 15 28  1  0  0  0  0
 16 15  2  0  0  0  0
 16 17  1  0  0  0  0
 17 18  2  0  0  0  0
 19 17  1  0  0  0  0
 19 29  1  0  0  0  0
 20 22  1  0  0  0  0
 21 20  2  0  0  0  0
 22  3  1  0  0  0  0
 23  5  1  0  0  0  0
 25 10  1  0  0  0  0
 26 13  1  0  0  0  0
 30 22  1  0  0  0  0
M  END
>  <Pose>
1

>  <Score>
-5.82

$$$$
