
 OpenBabel03212208413D

 51 50  0  0  1  0  0  0  0  0999 V2000
   16.4190   26.8620   73.3250 Cl  0  0  0  0  0  0  0  0  0  0  0  0
   15.4750   28.3220   73.5110 C   0  0  0  0  0  0  0  0  0  0  0  0
   15.8940   29.4460   72.7980 C   0  0  0  0  0  0  0  0  0  0  0  0
   15.1770   30.6160   72.9180 C   0  0  0  0  0  0  0  0  0  0  0  0
   14.0580   30.6160   73.7540 C   0  0  0  0  0  0  0  0  0  0  0  0
   13.6520   29.5010   74.4540 C   0  0  0  0  0  0  0  0  0  0  0  0
   14.3710   28.3300   74.3330 C   0  0  0  0  0  0  0  0  0  0  0  0
   15.7700   31.6750   72.1030 C   0  0  1  0  0  0  0  0  0  0  0  0
   14.8380   32.2400   71.1450 N   0  0  0  0  0  0  0  0  0  0  0  0
   15.3770   33.5530   70.8160 C   0  0  0  0  0  0  0  0  0  0  0  0
   16.0450   34.0580   72.0650 C   0  0  1  0  0  0  0  0  0  0  0  0
   16.2790   32.8390   72.9230 C   0  0  2  0  0  0  0  0  0  0  0  0
   17.7470   32.7640   73.1290 C   0  0  0  0  0  0  0  0  0  0  0  0
   18.2850   31.7730   73.6990 O   0  0  0  0  0  0  0  0  0  0  0  0
   18.3610   33.9280   72.6030 N   0  0  0  0  0  0  0  0  0  0  0  0
   17.4300   34.5260   71.7130 C   0  0  0  0  0  0  0  0  0  0  0  0
   17.6550   35.3260   70.7610 O   0  0  0  0  0  0  0  0  0  0  0  0
   19.6590   34.4080   72.9110 C   0  0  0  0  0  0  0  0  0  0  0  0
   20.7430   34.0900   71.9600 C   0  0  2  0  0  0  0  0  0  0  0  0
   20.7120   34.7970   70.7680 O   0  0  0  0  0  0  0  0  0  0  0  0
   21.8930   34.3600   70.1670 C   0  0  0  0  0  0  0  0  0  0  0  0
   21.8970   32.8400   70.3730 C   0  0  0  0  0  0  0  0  0  0  0  0
   20.8700   32.6820   71.5080 C   0  0  0  0  0  0  0  0  0  0  0  0
   14.2550   34.4420   70.3670 C   0  0  0  0  0  0  0  0  0  0  0  0
   12.9930   33.8860   70.9520 C   0  0  0  0  0  0  0  0  0  0  0  0
   11.9340   34.5210   70.7110 O   0  0  0  0  0  0  0  0  0  0  0  0
   12.9700   32.7060   71.7380 N   0  0  0  0  0  0  0  0  0  0  0  0
   16.9280   31.0400   71.4530 C   0  0  0  0  0  0  0  0  0  0  0  0
   17.7560   31.5800   70.6320 O   0  0  0  0  0  0  0  0  0  0  0  0
   16.9690   29.6970   71.9020 N   0  0  0  0  0  0  0  0  0  0  0  0
   13.4560   31.5100   73.8870 H   0  0  0  0  0  0  0  0  0  0  0  0
   12.7850   29.5050   75.1010 H   0  0  0  0  0  0  0  0  0  0  0  0
   14.0360   27.4640   74.8900 H   0  0  0  0  0  0  0  0  0  0  0  0
   13.8710   32.3100   71.5340 H   0  0  0  0  0  0  0  0  0  0  0  0
   16.1160   33.3950   70.0140 H   0  0  0  0  0  0  0  0  0  0  0  0
   15.4590   34.8380   72.5550 H   0  0  0  0  0  0  0  0  0  0  0  0
   15.7430   32.9290   73.8670 H   0  0  0  0  0  0  0  0  0  0  0  0
   19.6470   35.5350   73.0130 H   0  0  0  0  0  0  0  0  0  0  0  0
   20.0190   34.0770   73.9300 H   0  0  0  0  0  0  0  0  0  0  0  0
   21.7080   34.3670   72.4520 H   0  0  0  0  0  0  0  0  0  0  0  0
   22.7900   34.7590   70.6650 H   0  0  0  0  0  0  0  0  0  0  0  0
   21.9480   34.6270   69.0990 H   0  0  0  0  0  0  0  0  0  0  0  0
   21.5760   32.3680   69.4490 H   0  0  0  0  0  0  0  0  0  0  0  0
   22.8890   32.4920   70.7440 H   0  0  0  0  0  0  0  0  0  0  0  0
   19.9920   32.2360   71.0450 H   0  0  0  0  0  0  0  0  0  0  0  0
   21.3030   32.0100   72.2850 H   0  0  0  0  0  0  0  0  0  0  0  0
   14.2190   34.3880   69.2570 H   0  0  0  0  0  0  0  0  0  0  0  0
   14.4320   35.4710   70.6990 H   0  0  0  0  0  0  0  0  0  0  0  0
   12.0530   32.2450   71.8990 H   0  0  0  0  0  0  0  0  0  0  0  0
   13.8120   32.2720   72.1640 H   0  0  0  0  0  0  0  0  0  0  0  0
   17.6880   28.9770   71.6200 H   0  0  0  0  0  0  0  0  0  0  0  0
  1  2  1  0  0  0  0
  2  7  1  0  0  0  0
  3  4  1  0  0  0  0
  3  2  2  0  0  0  0
  4  5  2  0  0  0  0
  5 31  1  0  0  0  0
  5  6  1  0  0  0  0
  6 32  1  0  0  0  0
  7  6  2  0  0  0  0
  7 33  1  0  0  0  0
  8 28  1  1  0  0  0
  8  4  1  0  0  0  0
  8 12  1  0  0  0  0
 10 11  1  0  0  0  0
 11 36  1  1  0  0  0
 11 12  1  0  0  0  0
 12 13  1  0  0  0  0
 12 37  1  1  0  0  0
 13 14  2  0  0  0  0
 15 18  1  0  0  0  0
 15 13  1  0  0  0  0
 16 11  1  0  0  0  0
 16 15  1  0  0  0  0
 17 16  2  0  0  0  0
 18 38  1  0  0  0  0
 18 39  1  0  0  0  0
 19 40  1  1  0  0  0
 19 18  1  0  0  0  0
 20 19  1  0  0  0  0
 21 22  1  0  0  0  0
 21 41  1  0  0  0  0
 21 20  1  0  0  0  0
 22 44  1  0  0  0  0
 22 23  1  0  0  0  0
 23 19  1  0  0  0  0
 23 46  1  0  0  0  0
 24 48  1  0  0  0  0
 24 10  1  0  0  0  0
 24 25  1  0  0  0  0
 26 25  2  0  0  0  0
 28 30  1  0  0  0  0
 29 28  2  0  0  0  0
 30  3  1  0  0  0  0
 34 27  1  0  0  0  0
 35 10  1  0  0  0  0
 42 21  1  0  0  0  0
 43 22  1  0  0  0  0
 45 23  1  0  0  0  0
 47 24  1  0  0  0  0
 51 30  1  0  0  0  0
M  END
>  <Pose>
1

>  <Score>
-7.05

$$$$
