
 OpenBabel03212208413D

 43 46  0  0  1  0  0  0  0  0999 V2000
   21.8180   37.6730   70.0960 Cl  0  0  0  0  0  0  0  0  0  0  0  0
   22.2450   36.1530   69.3560 C   0  0  0  0  0  0  0  0  0  0  0  0
   23.1410   36.0790   68.3800 N   0  0  0  0  0  4  0  0  0  0  0  0
   23.5260   34.9580   67.7610 C   0  0  0  0  0  0  0  0  0  0  0  0
   24.3880   34.6530   66.7780 N   0  0  0  0  0  0  0  0  0  0  0  0
   24.3620   33.3270   66.5630 C   0  0  0  0  0  0  0  0  0  0  0  0
   23.4690   32.8150   67.4300 N   0  0  0  0  0  0  0  0  0  0  0  0
   22.9260   33.7770   68.1900 C   0  0  1  0  0  0  0  0  0  0  0  0
   21.9970   33.8420   69.2010 C   0  0  0  0  0  0  0  0  0  0  0  0
   21.6630   35.0060   69.7740 N   0  0  0  0  0  0  0  0  0  0  0  0
   21.4010   32.5920   69.6170 N   0  0  0  0  0  0  0  0  0  0  0  0
   21.4430   32.2240   70.9820 C   0  0  0  0  0  0  0  0  0  0  0  0
   20.1590   32.0630   71.6460 C   0  0  0  0  0  0  0  0  0  0  0  0
   19.9870   30.8150   72.1330 O   0  0  0  0  0  0  0  0  0  0  0  0
   19.1210   32.9270   71.8580 N   0  0  0  0  0  0  0  0  0  0  0  0
   18.8290   33.6900   73.0230 C   0  0  0  0  0  0  0  0  0  0  0  0
   17.5060   33.2690   73.6600 C   0  0  0  0  0  0  0  0  0  0  0  0
   16.6820   32.8260   72.5720 N   0  0  0  0  0  0  0  0  0  0  0  0
   16.8050   33.5100   71.3180 C   0  0  0  0  0  0  0  0  0  0  0  0
   18.1440   33.0740   70.7130 C   0  0  0  0  0  0  0  0  0  0  0  0
   15.7700   31.7630   72.6950 C   0  0  0  0  0  0  0  0  0  0  0  0
   14.5150   31.8260   72.1620 N   0  0  0  0  0  0  0  0  0  0  0  0
   13.6110   30.8660   72.2420 C   0  0  0  0  0  0  0  0  0  0  0  0
   13.8700   29.6910   72.8910 C   0  0  0  0  0  0  0  0  0  0  0  0
   15.1290   29.5600   73.4580 C   0  0  0  0  0  0  0  0  0  0  0  0
   16.0610   30.5810   73.3600 C   0  0  0  0  0  0  0  0  0  0  0  0
   24.9350   32.7420   65.8400 H   0  0  0  0  0  0  0  0  0  0  0  0
   23.1930   31.8020   67.5410 H   0  0  0  0  0  0  0  0  0  0  0  0
   20.9630   31.9840   68.9190 H   0  0  0  0  0  0  0  0  0  0  0  0
   22.1120   31.3190   71.1490 H   0  0  0  0  0  0  0  0  0  0  0  0
   21.9590   33.0960   71.5240 H   0  0  0  0  0  0  0  0  0  0  0  0
   19.6050   33.6480   73.7610 H   0  0  0  0  0  0  0  0  0  0  0  0
   18.6760   34.7790   72.6810 H   0  0  0  0  0  0  0  0  0  0  0  0
   17.0240   34.1640   74.1220 H   0  0  0  0  0  0  0  0  0  0  0  0
   17.7000   32.5420   74.4340 H   0  0  0  0  0  0  0  0  0  0  0  0
   16.8650   34.6120   71.4370 H   0  0  0  0  0  0  0  0  0  0  0  0
   16.0130   33.2020   70.6160 H   0  0  0  0  0  0  0  0  0  0  0  0
   18.5100   33.8320   70.0320 H   0  0  0  0  0  0  0  0  0  0  0  0
   18.0920   32.0770   70.2670 H   0  0  0  0  0  0  0  0  0  0  0  0
   12.6230   31.0030   71.7820 H   0  0  0  0  0  0  0  0  0  0  0  0
   13.1350   28.9210   72.9510 H   0  0  0  0  0  0  0  0  0  0  0  0
   15.3590   28.6230   73.9840 H   0  0  0  0  0  0  0  0  0  0  0  0
   17.0090   30.4340   73.8100 H   0  0  0  0  0  0  0  0  0  0  0  0
  2 10  1  0  0  0  0
  2  1  1  0  0  0  0
  3  2  2  0  0  0  0
  4  3  2  0  0  0  0
  5  4  1  0  0  0  0
  6  5  2  0  0  0  0
  6  7  1  0  0  0  0
  7 28  1  0  0  0  0
  7  8  1  0  0  0  0
  8  4  1  1  0  0  0
  8  9  1  0  0  0  0
  9 11  1  0  0  0  0
  9 10  2  0  0  0  0
 11 12  1  0  0  0  0
 12 30  1  0  0  0  0
 12 31  1  0  0  0  0
 12 13  1  0  0  0  0
 13 15  1  0  0  0  0
 13 14  2  0  0  0  0
 15 16  1  0  0  0  0
 16 17  1  0  0  0  0
 16 32  1  0  0  0  0
 17 34  1  0  0  0  0
 17 35  1  0  0  0  0
 18 21  1  0  0  0  0
 18 17  1  0  0  0  0
 19 36  1  0  0  0  0
 19 18  1  0  0  0  0
 20 19  1  0  0  0  0
 20 15  1  0  0  0  0
 21 26  1  0  0  0  0
 22 23  1  0  0  0  0
 22 21  2  0  0  0  0
 23 24  2  0  0  0  0
 24 41  1  0  0  0  0
 24 25  1  0  0  0  0
 25 42  1  0  0  0  0
 26 25  2  0  0  0  0
 26 43  1  0  0  0  0
 27  6  1  0  0  0  0
 29 11  1  0  0  0  0
 33 16  1  0  0  0  0
 37 19  1  0  0  0  0
 38 20  1  0  0  0  0
 39 20  1  0  0  0  0
 40 23  1  0  0  0  0
M  END
>  <Pose>
1

>  <Score>
-6.55

$$$$
