
 OpenBabel03212208413D

 53 56  0  0  1  0  0  0  0  0999 V2000
   17.5780   29.3280   73.7440 B   0  0  0  0  0  0  0  0  0  0  0  0
   16.7060   30.7520   72.8270 C   0  0  0  0  0  0  0  0  0  0  0  0
   17.4490   31.8560   72.4750 C   0  0  0  0  0  0  0  0  0  0  0  0
   16.8040   32.8770   71.8120 C   0  0  0  0  0  0  0  0  0  0  0  0
   15.4420   32.7910   71.5090 C   0  0  0  0  0  0  0  0  0  0  0  0
   14.7240   31.6700   71.8770 C   0  0  0  0  0  0  0  0  0  0  0  0
   15.3480   30.6510   72.5340 C   0  0  0  0  0  0  0  0  0  0  0  0
   13.2650   31.5540   71.5650 C   0  0  0  0  0  0  0  0  0  0  0  0
   17.8030   34.4170   71.3100 B   0  0  0  0  0  0  0  0  0  0  0  0
   18.7680   31.9180   72.7760 O   0  0  0  0  0  0  0  0  0  0  0  0
   19.8550   31.6810   71.9290 C   0  0  0  0  0  0  0  0  0  0  0  0
   20.5800   33.0160   71.7640 C   0  0  1  0  0  0  0  0  0  0  0  0
   20.7520   33.6550   72.9910 O   0  0  0  0  0  0  0  0  0  0  0  0
   21.9120   32.7090   71.1590 C   0  0  0  0  0  0  0  0  0  0  0  0
   21.9420   32.8220   69.7140 N   0  0  0  0  0  4  0  0  0  0  0  0
   21.1120   33.9240   69.3600 C   0  0  0  0  0  0  0  0  0  0  0  0
   21.7340   34.9240   68.4370 C   0  0  1  0  0  0  0  0  0  0  0  0
   22.7730   35.7820   69.0650 C   0  0  0  0  0  0  0  0  0  0  0  0
   24.1080   35.5740   68.5770 N   0  0  0  0  0  0  0  0  0  0  0  0
   24.5370   34.4460   67.9810 C   0  0  0  0  0  0  0  0  0  0  0  0
   25.8050   34.2470   67.5180 C   0  0  0  0  0  0  0  0  0  0  0  0
   26.7280   35.2630   67.6610 C   0  0  0  0  0  0  0  0  0  0  0  0
   26.2980   36.4190   68.2680 C   0  0  0  0  0  0  0  0  0  0  0  0
   25.0120   36.5850   68.7240 C   0  0  0  0  0  0  0  0  0  0  0  0
   24.6550   37.6580   69.2760 O   0  0  0  0  0  0  0  0  0  0  0  0
   23.4780   33.3730   67.8570 C   0  0  1  0  0  0  0  0  0  0  0  0
   23.2610   32.8220   69.2100 C   0  0  0  0  0  0  0  0  0  0  0  0
   22.2920   34.0980   67.2710 C   0  0  0  0  0  0  0  0  0  0  0  0
   14.9270   33.5860   70.9910 H   0  0  0  0  0  0  0  0  0  0  0  0
   14.7570   29.7830   72.8100 H   0  0  0  0  0  0  0  0  0  0  0  0
   12.7510   31.1190   72.4420 H   0  0  0  0  0  0  0  0  0  0  0  0
   13.1220   30.8190   70.7230 H   0  0  0  0  0  0  0  0  0  0  0  0
   12.8320   32.5350   71.2660 H   0  0  0  0  0  0  0  0  0  0  0  0
   20.5350   30.8860   72.2600 H   0  0  0  0  0  0  0  0  0  0  0  0
   19.4730   31.4090   70.9240 H   0  0  0  0  0  0  0  0  0  0  0  0
   19.9320   33.6480   71.1540 H   0  0  0  0  0  0  0  0  0  0  0  0
   21.6690   33.4080   73.3010 H   0  0  0  0  0  0  0  0  0  0  0  0
   22.6530   33.4260   71.5670 H   0  0  0  0  0  0  0  0  0  0  0  0
   22.2770   31.6960   71.4240 H   0  0  0  0  0  0  0  0  0  0  0  0
   21.4620   31.9390   69.3600 H   0  0  0  0  0  0  0  0  0  0  0  0
   20.1490   33.5920   68.8680 H   0  0  0  0  0  0  0  0  0  0  0  0
   20.7490   34.5090   70.2570 H   0  0  0  0  0  0  0  0  0  0  0  0
   20.8950   35.5280   67.9860 H   0  0  0  0  0  0  0  0  0  0  0  0
   22.5190   36.8600   68.8400 H   0  0  0  0  0  0  0  0  0  0  0  0
   22.7610   35.7340   70.1870 H   0  0  0  0  0  0  0  0  0  0  0  0
   26.0430   33.3010   67.0550 H   0  0  0  0  0  0  0  0  0  0  0  0
   27.7320   35.1130   67.2970 H   0  0  0  0  0  0  0  0  0  0  0  0
   27.0000   37.2390   68.3970 H   0  0  0  0  0  0  0  0  0  0  0  0
   23.8070   32.6300   67.0990 H   0  0  0  0  0  0  0  0  0  0  0  0
   23.6150   31.7470   69.1790 H   0  0  0  0  0  0  0  0  0  0  0  0
   23.9260   33.2850   69.9980 H   0  0  0  0  0  0  0  0  0  0  0  0
   21.5150   33.4390   66.8840 H   0  0  0  0  0  0  0  0  0  0  0  0
   22.6240   34.8610   66.5170 H   0  0  0  0  0  0  0  0  0  0  0  0
  2  1  1  0  0  0  0
  3 10  1  0  0  0  0
  3  2  2  0  0  0  0
  4  3  1  0  0  0  0
  5  4  2  0  0  0  0
  5  6  1  0  0  0  0
  6  7  2  0  0  0  0
  7 30  1  0  0  0  0
  7  2  1  0  0  0  0
  8  6  1  0  0  0  0
  8 31  1  0  0  0  0
  9  4  1  0  0  0  0
 11 34  1  0  0  0  0
 11 10  1  0  0  0  0
 12 36  1  6  0  0  0
 12 11  1  0  0  0  0
 12 13  1  0  0  0  0
 13 37  1  0  0  0  0
 14 39  1  0  0  0  0
 14 38  1  0  0  0  0
 14 12  1  0  0  0  0
 15 14  1  0  0  0  0
 16 15  1  0  0  0  0
 16 42  1  0  0  0  0
 17 43  1  6  0  0  0
 17 18  1  0  0  0  0
 17 16  1  0  0  0  0
 18 45  1  0  0  0  0
 19 24  1  0  0  0  0
 19 18  1  0  0  0  0
 20 19  1  0  0  0  0
 21 22  1  0  0  0  0
 21 20  2  0  0  0  0
 22 23  2  0  0  0  0
 23 48  1  0  0  0  0
 23 24  1  0  0  0  0
 24 25  2  0  0  0  0
 26 49  1  6  0  0  0
 26 20  1  0  0  0  0
 26 27  1  0  0  0  0
 27 15  1  0  0  0  0
 27 51  1  0  0  0  0
 28 26  1  0  0  0  0
 28 17  1  0  0  0  0
 29  5  1  0  0  0  0
 32  8  1  0  0  0  0
 33  8  1  0  0  0  0
 35 11  1  0  0  0  0
 40 15  1  0  0  0  0
 41 16  1  0  0  0  0
 44 18  1  0  0  0  0
 46 21  1  0  0  0  0
 47 22  1  0  0  0  0
 50 27  1  0  0  0  0
 52 28  1  0  0  0  0
 53 28  1  0  0  0  0
M  END
>  <Pose>
1

>  <Score>
-5.96

$$$$
