
 OpenBabel03212208413D

 47 50  0  0  1  0  0  0  0  0999 V2000
   22.9060   31.0750   76.3020 Cl  0  0  0  0  0  0  0  0  0  0  0  0
   21.7880   29.7990   76.7010 C   0  0  0  0  0  0  0  0  0  0  0  0
   20.8960   29.3720   75.7420 C   0  0  0  0  0  0  0  0  0  0  0  0
   19.9710   28.3500   75.9880 C   0  0  0  0  0  0  0  0  0  0  0  0
   20.0030   27.7960   77.2410 C   0  0  0  0  0  0  0  0  0  0  0  0
   20.8910   28.2180   78.2060 C   0  0  0  0  0  0  0  0  0  0  0  0
   21.8120   29.2380   77.9500 C   0  0  0  0  0  0  0  0  0  0  0  0
   19.1060   27.9740   74.9260 N   0  0  0  0  0  0  0  0  0  0  0  0
   19.5150   27.2800   73.7590 C   0  0  0  0  0  0  0  0  0  0  0  0
   20.7010   26.9750   73.5700 O   0  0  0  0  0  0  0  0  0  0  0  0
   18.5470   26.9170   72.7640 N   0  0  0  0  0  0  0  0  0  0  0  0
   17.1680   27.2410   72.9300 C   0  0  0  0  0  0  0  0  0  0  0  0
   16.2630   26.6120   72.3540 O   0  0  0  0  0  0  0  0  0  0  0  0
   16.8100   28.3890   73.8370 C   0  0  1  0  0  0  0  0  0  0  0  0
   17.6950   28.2710   75.0150 C   0  0  0  0  0  0  0  0  0  0  0  0
   17.2370   28.4310   76.2030 O   0  0  0  0  0  0  0  0  0  0  0  0
   16.9880   29.6740   73.0950 C   0  0  0  0  0  0  0  0  0  0  0  0
   17.0770   29.8770   71.7970 C   0  0  0  0  0  0  0  0  0  0  0  0
   17.2480   31.3360   71.5550 C   0  0  2  0  0  0  0  0  0  0  0  0
   17.8250   31.7620   72.8560 N   0  0  0  0  0  0  0  0  0  0  0  0
   17.1210   30.9440   73.7480 N   0  0  0  0  0  0  0  0  0  0  0  0
   15.9060   31.9770   71.4860 C   0  0  0  0  0  0  0  0  0  0  0  0
   15.7630   33.3780   71.3910 C   0  0  0  0  0  0  0  0  0  0  0  0
   14.5600   34.0050   71.2910 C   0  0  0  0  0  0  0  0  0  0  0  0
   13.4000   33.2540   71.2790 C   0  0  0  0  0  0  0  0  0  0  0  0
   13.5020   31.8850   71.3720 C   0  0  0  0  0  0  0  0  0  0  0  0
   14.7270   31.2630   71.4720 C   0  0  0  0  0  0  0  0  0  0  0  0
   12.1610   33.8790   71.1760 O   0  0  0  0  0  0  0  0  0  0  0  0
   14.4730   35.4020   71.2030 O   0  0  0  0  0  0  0  0  0  0  0  0
   14.0170   35.9940   70.0060 C   0  0  0  0  0  0  0  0  0  0  0  0
   20.8730   29.8170   74.7350 H   0  0  0  0  0  0  0  0  0  0  0  0
   19.3120   27.0150   77.4760 H   0  0  0  0  0  0  0  0  0  0  0  0
   20.9150   27.7810   79.2000 H   0  0  0  0  0  0  0  0  0  0  0  0
   22.5080   29.5630   78.7090 H   0  0  0  0  0  0  0  0  0  0  0  0
   18.8650   26.4150   71.9250 H   0  0  0  0  0  0  0  0  0  0  0  0
   15.7710   28.2930   74.2070 H   0  0  0  0  0  0  0  0  0  0  0  0
   17.0400   29.1510   71.0040 H   0  0  0  0  0  0  0  0  0  0  0  0
   17.8950   31.5720   70.7160 H   0  0  0  0  0  0  0  0  0  0  0  0
   18.8480   31.5790   72.8630 H   0  0  0  0  0  0  0  0  0  0  0  0
   16.7670   31.1750   74.6700 H   0  0  0  0  0  0  0  0  0  0  0  0
   16.6840   33.9360   71.4020 H   0  0  0  0  0  0  0  0  0  0  0  0
   12.5750   31.3340   71.3660 H   0  0  0  0  0  0  0  0  0  0  0  0
   14.7730   30.1800   71.5420 H   0  0  0  0  0  0  0  0  0  0  0  0
   12.0160   34.7600   71.6510 H   0  0  0  0  0  0  0  0  0  0  0  0
   12.9510   35.7970   69.8420 H   0  0  0  0  0  0  0  0  0  0  0  0
   14.1650   37.0960   70.1320 H   0  0  0  0  0  0  0  0  0  0  0  0
   14.6780   35.6530   69.1740 H   0  0  0  0  0  0  0  0  0  0  0  0
  1  2  1  0  0  0  0
  2  7  1  0  0  0  0
  3  4  1  0  0  0  0
  3  2  2  0  0  0  0
  4  5  2  0  0  0  0
  5 32  1  0  0  0  0
  5  6  1  0  0  0  0
  6 33  1  0  0  0  0
  7  6  2  0  0  0  0
  7 34  1  0  0  0  0
  8 15  1  0  0  0  0
  8  4  1  0  0  0  0
  9  8  1  0  0  0  0
 10  9  2  0  0  0  0
 11 12  1  0  0  0  0
 11  9  1  0  0  0  0
 12 14  1  0  0  0  0
 13 12  2  0  0  0  0
 14 36  1  1  0  0  0
 14 15  1  0  0  0  0
 15 16  2  0  0  0  0
 17 21  1  0  0  0  0
 17 14  1  0  0  0  0
 18 17  2  0  0  0  0
 19 38  1  6  0  0  0
 19 18  1  0  0  0  0
 19 20  1  0  0  0  0
 20 39  1  0  0  0  0
 20 21  1  0  0  0  0
 21 40  1  0  0  0  0
 22 19  1  0  0  0  0
 23 41  1  0  0  0  0
 23 22  2  0  0  0  0
 24 23  1  0  0  0  0
 25 24  2  0  0  0  0
 25 26  1  0  0  0  0
 26 27  2  0  0  0  0
 27 22  1  0  0  0  0
 27 43  1  0  0  0  0
 28 25  1  0  0  0  0
 28 44  1  0  0  0  0
 29 24  1  0  0  0  0
 30 46  1  0  0  0  0
 30 29  1  0  0  0  0
 31  3  1  0  0  0  0
 35 11  1  0  0  0  0
 37 18  1  0  0  0  0
 42 26  1  0  0  0  0
 45 30  1  0  0  0  0
 47 30  1  0  0  0  0
M  END
>  <Pose>
1

>  <Score>
-6.18

$$$$
