
 OpenBabel03212208413D

 47 50  0  0  0  0  0  0  0  0999 V2000
   16.3670   27.2650   73.6830 S   0  0  0  0  0  0  0  0  0  0  0  0
   15.3870   26.2970   74.2620 O   0  0  0  0  0  0  0  0  0  0  0  0
   16.2670   27.2020   72.1840 O   0  0  0  0  0  0  0  0  0  0  0  0
   15.9920   28.8350   74.1830 N   0  0  0  0  0  0  0  0  0  0  0  0
   14.6280   29.0580   74.5500 C   0  0  0  0  0  0  0  0  0  0  0  0
   13.7550   29.4190   73.3630 C   0  0  0  0  0  0  0  0  0  0  0  0
   14.4080   30.4480   72.5990 N   0  0  0  0  0  0  0  0  0  0  0  0
   15.6300   31.0200   73.1280 C   0  0  0  0  0  0  0  0  0  0  0  0
   16.5790   29.8740   73.4060 C   0  0  0  0  0  0  0  0  0  0  0  0
   13.9050   30.9240   71.3540 C   0  0  0  0  0  0  0  0  0  0  0  0
   13.3400   30.1600   70.5380 O   0  0  0  0  0  0  0  0  0  0  0  0
   14.0350   32.3370   70.9890 C   0  0  0  0  0  0  0  0  0  0  0  0
   13.0310   33.1630   70.5870 N   0  0  0  0  0  0  0  0  0  0  0  0
   13.5390   34.3800   70.3410 C   0  0  0  0  0  0  0  0  0  0  0  0
   14.8470   34.3170   70.5850 N   0  0  0  0  0  0  0  0  0  0  0  0
   15.1760   33.0810   70.9820 C   0  0  0  0  0  0  0  0  0  0  0  0
   15.5940   35.4250   70.4100 C   0  0  0  0  0  0  0  0  0  0  0  0
   15.0930   36.6270   69.9930 C   0  0  0  0  0  0  0  0  0  0  0  0
   13.7300   36.7120   69.7320 C   0  0  0  0  0  0  0  0  0  0  0  0
   12.9770   35.5740   69.9150 C   0  0  0  0  0  0  0  0  0  0  0  0
   16.0990   38.0550   69.7740 Cl  0  0  0  0  0  0  0  0  0  0  0  0
   17.9510   26.7570   74.1120 N   0  0  0  0  0  0  0  0  0  0  0  0
   18.1530   26.7360   75.5490 C   0  0  0  0  0  0  0  0  0  0  0  0
   19.6390   26.8550   75.7920 C   0  0  0  0  0  0  0  0  0  0  0  0
   20.3760   26.2270   74.7930 O   0  0  0  0  0  0  0  0  0  0  0  0
   20.2690   26.8700   73.5620 C   0  0  0  0  0  0  0  0  0  0  0  0
   18.9650   27.6420   73.5680 C   0  0  0  0  0  0  0  0  0  0  0  0
   14.6030   29.9450   75.2320 H   0  0  0  0  0  0  0  0  0  0  0  0
   14.2540   28.2040   75.1190 H   0  0  0  0  0  0  0  0  0  0  0  0
   13.5690   28.4870   72.7620 H   0  0  0  0  0  0  0  0  0  0  0  0
   12.7560   29.7630   73.6980 H   0  0  0  0  0  0  0  0  0  0  0  0
   15.3430   31.5160   74.0950 H   0  0  0  0  0  0  0  0  0  0  0  0
   16.0730   31.7410   72.4380 H   0  0  0  0  0  0  0  0  0  0  0  0
   17.4500   30.2860   73.9910 H   0  0  0  0  0  0  0  0  0  0  0  0
   16.9490   29.4980   72.4480 H   0  0  0  0  0  0  0  0  0  0  0  0
   16.1930   32.7800   71.2410 H   0  0  0  0  0  0  0  0  0  0  0  0
   16.6740   35.3940   70.6070 H   0  0  0  0  0  0  0  0  0  0  0  0
   13.2580   37.6300   69.3980 H   0  0  0  0  0  0  0  0  0  0  0  0
   11.9030   35.5930   69.7230 H   0  0  0  0  0  0  0  0  0  0  0  0
   17.7410   25.8170   76.0120 H   0  0  0  0  0  0  0  0  0  0  0  0
   17.6480   27.6350   75.9620 H   0  0  0  0  0  0  0  0  0  0  0  0
   19.8940   26.3380   76.7410 H   0  0  0  0  0  0  0  0  0  0  0  0
   19.9920   27.8960   75.8570 H   0  0  0  0  0  0  0  0  0  0  0  0
   20.1460   26.0780   72.7720 H   0  0  0  0  0  0  0  0  0  0  0  0
   21.1360   27.5160   73.3380 H   0  0  0  0  0  0  0  0  0  0  0  0
   19.0740   28.5710   74.1650 H   0  0  0  0  0  0  0  0  0  0  0  0
   18.6650   27.9610   72.5520 H   0  0  0  0  0  0  0  0  0  0  0  0
  1 22  1  0  0  0  0
  1  4  1  0  0  0  0
  1  2  2  0  0  0  0
  3  1  2  0  0  0  0
  4  5  1  0  0  0  0
  5 29  1  0  0  0  0
  5 28  1  0  0  0  0
  6 31  1  0  0  0  0
  6  5  1  0  0  0  0
  7  8  1  0  0  0  0
  7  6  1  0  0  0  0
  8  9  1  0  0  0  0
  8 32  1  0  0  0  0
  9 34  1  0  0  0  0
  9  4  1  0  0  0  0
 10  7  1  0  0  0  0
 11 10  2  0  0  0  0
 12 10  1  0  0  0  0
 13 12  1  0  0  0  0
 14 15  1  0  0  0  0
 14 13  2  0  0  0  0
 15 16  1  0  0  0  0
 16 12  2  0  0  0  0
 16 36  1  0  0  0  0
 17 15  1  0  0  0  0
 17 37  1  0  0  0  0
 18 17  2  0  0  0  0
 19 20  2  0  0  0  0
 19 18  1  0  0  0  0
 20 14  1  0  0  0  0
 21 18  1  0  0  0  0
 22 23  1  0  0  0  0
 23 24  1  0  0  0  0
 23 41  1  0  0  0  0
 23 40  1  0  0  0  0
 24 43  1  0  0  0  0
 24 42  1  0  0  0  0
 25 24  1  0  0  0  0
 26 27  1  0  0  0  0
 26 25  1  0  0  0  0
 27 22  1  0  0  0  0
 27 46  1  0  0  0  0
 30  6  1  0  0  0  0
 33  8  1  0  0  0  0
 35  9  1  0  0  0  0
 38 19  1  0  0  0  0
 39 20  1  0  0  0  0
 44 26  1  0  0  0  0
 45 26  1  0  0  0  0
 47 27  1  0  0  0  0
M  END
>  <Pose>
1

>  <Score>
-6.00

$$$$
