
 OpenBabel03212208413D

 39 42  0  0  0  0  0  0  0  0999 V2000
   20.8620   33.0870   72.3370 Cl  0  0  0  0  0  0  0  0  0  0  0  0
   19.4840   31.9780   72.2970 C   0  0  0  0  0  0  0  0  0  0  0  0
   19.3170   31.0230   73.2690 C   0  0  0  0  0  0  0  0  0  0  0  0
   18.2450   30.1610   73.2340 C   0  0  0  0  0  0  0  0  0  0  0  0
   17.2660   30.1880   72.2340 C   0  0  0  0  0  0  0  0  0  0  0  0
   17.4580   31.1560   71.2730 C   0  0  0  0  0  0  0  0  0  0  0  0
   18.5490   32.0420   71.2970 C   0  0  0  0  0  0  0  0  0  0  0  0
   16.1580   29.2790   72.3010 C   0  0  0  0  0  0  0  0  0  0  0  0
   16.5130   28.0190   72.3450 O   0  0  0  0  0  0  0  0  0  0  0  0
   14.7890   29.4980   72.3280 N   0  0  0  0  0  0  0  0  0  0  0  0
   13.7570   29.1240   71.4200 C   0  0  0  0  0  0  0  0  0  0  0  0
   13.4630   30.3990   70.6040 C   0  0  0  0  0  0  0  0  0  0  0  0
   13.4860   31.5300   71.5500 N   0  0  0  0  0  0  0  0  0  0  0  0
   13.2010   31.2560   72.9290 C   0  0  0  0  0  0  0  0  0  0  0  0
   14.2610   30.3150   73.4710 C   0  0  0  0  0  0  0  0  0  0  0  0
   13.7820   32.8390   71.0690 C   0  0  0  0  0  0  0  0  0  0  0  0
   12.8240   33.6120   70.5110 N   0  0  0  0  0  0  0  0  0  0  0  0
   13.0620   34.8280   70.0530 N   0  0  0  0  0  0  0  0  0  0  0  0
   14.2770   35.3910   70.1070 C   0  0  0  0  0  0  0  0  0  0  0  0
   14.2420   36.6360   69.5700 N   0  0  0  0  0  0  0  0  0  0  0  0
   12.9990   36.8510   69.1810 N   0  0  0  0  0  0  0  0  0  0  0  0
   12.2620   35.7620   69.4640 C   0  0  0  0  0  0  0  0  0  0  0  0
   15.3130   34.6620   70.6650 C   0  0  0  0  0  0  0  0  0  0  0  0
   15.0380   33.3990   71.1340 C   0  0  0  0  0  0  0  0  0  0  0  0
   20.0580   30.9760   74.0560 H   0  0  0  0  0  0  0  0  0  0  0  0
   18.1500   29.4250   74.0110 H   0  0  0  0  0  0  0  0  0  0  0  0
   16.7390   31.2640   70.4850 H   0  0  0  0  0  0  0  0  0  0  0  0
   18.6680   32.7940   70.5200 H   0  0  0  0  0  0  0  0  0  0  0  0
   13.8390   28.2250   70.8510 H   0  0  0  0  0  0  0  0  0  0  0  0
   12.7790   29.0260   72.0310 H   0  0  0  0  0  0  0  0  0  0  0  0
   12.4800   30.3360   70.1030 H   0  0  0  0  0  0  0  0  0  0  0  0
   14.2870   30.4720   69.8820 H   0  0  0  0  0  0  0  0  0  0  0  0
   12.2270   30.7360   73.0720 H   0  0  0  0  0  0  0  0  0  0  0  0
   13.2680   32.1830   73.5350 H   0  0  0  0  0  0  0  0  0  0  0  0
   13.8630   29.6150   74.2270 H   0  0  0  0  0  0  0  0  0  0  0  0
   15.1060   30.8610   73.9200 H   0  0  0  0  0  0  0  0  0  0  0  0
   11.2010   35.6330   69.2630 H   0  0  0  0  0  0  0  0  0  0  0  0
   16.3140   35.0800   70.7290 H   0  0  0  0  0  0  0  0  0  0  0  0
   15.8300   32.7810   71.5840 H   0  0  0  0  0  0  0  0  0  0  0  0
  2  1  1  0  0  0  0
  2  3  1  0  0  0  0
  3 25  1  0  0  0  0
  4  3  2  0  0  0  0
  4 26  1  0  0  0  0
  5  8  1  0  0  0  0
  5  4  1  0  0  0  0
  6  7  1  0  0  0  0
  6  5  2  0  0  0  0
  7  2  2  0  0  0  0
  8 10  1  0  0  0  0
  8  9  2  0  0  0  0
 10 15  1  0  0  0  0
 11 30  1  0  0  0  0
 11 10  1  0  0  0  0
 12 11  1  0  0  0  0
 12 13  1  0  0  0  0
 13 14  1  0  0  0  0
 14 33  1  0  0  0  0
 14 15  1  0  0  0  0
 14 34  1  0  0  0  0
 15 36  1  0  0  0  0
 15 35  1  0  0  0  0
 16 24  1  0  0  0  0
 16 13  1  0  0  0  0
 17 16  2  0  0  0  0
 18 19  1  0  0  0  0
 18 17  1  0  0  0  0
 19 23  1  0  0  0  0
 20 19  2  0  0  0  0
 21 22  2  0  0  0  0
 21 20  1  0  0  0  0
 22 18  1  0  0  0  0
 23 38  1  0  0  0  0
 23 24  2  0  0  0  0
 24 39  1  0  0  0  0
 27  6  1  0  0  0  0
 28  7  1  0  0  0  0
 29 11  1  0  0  0  0
 31 12  1  0  0  0  0
 32 12  1  0  0  0  0
 37 22  1  0  0  0  0
M  END
>  <Pose>
1

>  <Score>
-6.53

$$$$
