
 OpenBabel03212208413D

 42 45  0  0  0  0  0  0  0  0999 V2000
   12.9270   33.2920   71.0270 Cl  0  0  0  0  0  0  0  0  0  0  0  0
   14.6570   33.1760   71.3460 C   0  0  0  0  0  0  0  0  0  0  0  0
   15.2050   31.9920   71.8070 C   0  0  0  0  0  0  0  0  0  0  0  0
   16.5450   31.8880   72.0580 C   0  0  0  0  0  0  0  0  0  0  0  0
   17.3100   33.0070   71.8320 C   0  0  0  0  0  0  0  0  0  0  0  0
   16.7940   34.1910   71.3750 C   0  0  0  0  0  0  0  0  0  0  0  0
   15.4350   34.2820   71.1250 C   0  0  0  0  0  0  0  0  0  0  0  0
   18.7620   32.9320   72.0920 C   0  0  0  0  0  0  0  0  0  0  0  0
   19.7180   33.7850   71.9800 N   0  0  0  0  0  0  0  0  0  0  0  0
   20.9860   33.2320   72.3610 C   0  0  0  0  0  0  0  0  0  0  0  0
   20.6850   31.8230   72.7540 C   0  0  0  0  0  0  0  0  0  0  0  0
   19.2600   31.6910   72.5630 N   0  0  0  0  0  0  0  0  0  0  0  0
   18.4150   30.5530   72.7820 C   0  0  0  0  0  0  0  0  0  0  0  0
   18.6610   29.3070   73.2130 N   0  0  0  0  0  0  0  0  0  0  0  0
   17.5390   28.6090   73.2500 N   0  0  0  0  0  0  0  0  0  0  0  0
   16.5770   29.4490   72.8300 C   0  0  0  0  0  0  0  0  0  0  0  0
   15.3670   29.1330   72.7310 O   0  0  0  0  0  0  0  0  0  0  0  0
   17.0990   30.6690   72.5310 N   0  0  0  0  0  0  0  0  0  0  0  0
   17.3540   27.2200   73.6560 C   0  0  0  0  0  0  0  0  0  0  0  0
   17.5010   26.3490   72.4660 C   0  0  0  0  0  0  0  0  0  0  0  0
   16.4670   26.0300   71.8150 O   0  0  0  0  0  0  0  0  0  0  0  0
   18.7580   25.8560   72.0250 N   0  0  0  0  0  0  0  0  0  0  0  0
   19.6850   25.2560   72.9580 C   0  0  0  0  0  0  0  0  0  0  0  0
   19.9320   23.7880   72.6000 C   0  0  0  0  0  0  0  0  0  0  0  0
   21.0200   25.9600   72.7590 C   0  0  0  0  0  0  0  0  0  0  0  0
   14.5680   31.1500   71.9680 H   0  0  0  0  0  0  0  0  0  0  0  0
   17.3860   35.0790   71.1930 H   0  0  0  0  0  0  0  0  0  0  0  0
   15.0150   35.2320   70.7580 H   0  0  0  0  0  0  0  0  0  0  0  0
   21.6390   33.2460   71.4500 H   0  0  0  0  0  0  0  0  0  0  0  0
   21.4640   33.8170   73.1800 H   0  0  0  0  0  0  0  0  0  0  0  0
   21.2560   31.0740   72.1680 H   0  0  0  0  0  0  0  0  0  0  0  0
   20.8570   31.6940   73.8540 H   0  0  0  0  0  0  0  0  0  0  0  0
   18.1880   26.9760   74.3390 H   0  0  0  0  0  0  0  0  0  0  0  0
   16.4150   27.0600   74.2050 H   0  0  0  0  0  0  0  0  0  0  0  0
   18.9790   25.9450   71.0130 H   0  0  0  0  0  0  0  0  0  0  0  0
   19.3620   25.3730   74.0030 H   0  0  0  0  0  0  0  0  0  0  0  0
   19.8470   23.7320   71.4900 H   0  0  0  0  0  0  0  0  0  0  0  0
   20.9430   23.5440   72.9550 H   0  0  0  0  0  0  0  0  0  0  0  0
   19.1570   23.1460   73.0860 H   0  0  0  0  0  0  0  0  0  0  0  0
   21.4980   25.4880   71.8760 H   0  0  0  0  0  0  0  0  0  0  0  0
   21.6960   25.8150   73.6190 H   0  0  0  0  0  0  0  0  0  0  0  0
   20.8250   27.0160   72.5250 H   0  0  0  0  0  0  0  0  0  0  0  0
  1  2  1  0  0  0  0
  2  3  1  0  0  0  0
  3 26  1  0  0  0  0
  3  4  2  0  0  0  0
  4 18  1  0  0  0  0
  5  4  1  0  0  0  0
  5  8  2  0  0  0  0
  6  5  1  0  0  0  0
  7  2  2  0  0  0  0
  7  6  1  0  0  0  0
  8 12  1  0  0  0  0
  9  8  1  0  0  0  0
  9 10  1  0  0  0  0
 10 11  1  0  0  0  0
 10 30  1  0  0  0  0
 11 32  1  0  0  0  0
 12 11  1  0  0  0  0
 12 13  1  0  0  0  0
 13 14  2  0  0  0  0
 14 15  1  0  0  0  0
 15 19  1  0  0  0  0
 16 15  1  0  0  0  0
 17 16  2  0  0  0  0
 18 13  1  0  0  0  0
 18 16  1  0  0  0  0
 19 34  1  0  0  0  0
 19 33  1  0  0  0  0
 20 19  1  0  0  0  0
 21 20  2  0  0  0  0
 22 20  1  0  0  0  0
 22 23  1  0  0  0  0
 23 36  1  0  0  0  0
 24 38  1  0  0  0  0
 24 23  1  0  0  0  0
 24 39  1  0  0  0  0
 25 23  1  0  0  0  0
 25 41  1  0  0  0  0
 27  6  1  0  0  0  0
 28  7  1  0  0  0  0
 29 10  1  0  0  0  0
 31 11  1  0  0  0  0
 35 22  1  0  0  0  0
 37 24  1  0  0  0  0
 40 25  1  0  0  0  0
 42 25  1  0  0  0  0
M  END
>  <Pose>
1

>  <Score>
-6.48

$$$$
