
 OpenBabel03212208413D

 43 46  0  0  1  0  0  0  0  0999 V2000
   13.6350   36.8750   69.9430 Cl  0  0  0  0  0  0  0  0  0  0  0  0
   13.9130   35.2430   70.5560 C   0  0  0  0  0  0  0  0  0  0  0  0
   15.2180   34.7430   70.5370 C   0  0  0  0  0  0  0  0  0  0  0  0
   15.5070   33.4790   71.0080 C   0  0  2  0  0  0  0  0  0  0  0  0
   14.4450   32.7410   71.4930 C   0  0  0  0  0  0  0  0  0  0  0  0
   13.1660   33.1870   71.5300 C   0  0  0  0  0  0  0  0  0  0  0  0
   12.8820   34.4750   71.0490 C   0  0  0  0  0  0  0  0  0  0  0  0
   14.7760   31.3850   72.0000 C   0  0  0  0  0  0  0  0  0  0  0  0
   14.0290   30.4540   72.5110 N   0  0  0  0  0  0  0  0  0  0  0  0
   14.8240   29.2980   72.8580 C   0  0  0  0  0  0  0  0  0  0  0  0
   16.2520   29.6270   72.4980 C   0  0  0  0  0  0  0  0  0  0  0  0
   16.1150   30.9650   71.9460 N   0  0  0  0  0  0  0  0  0  0  0  0
   17.1570   31.7900   71.4270 C   0  0  0  0  0  0  0  0  0  0  0  0
   18.4840   31.5880   71.2940 N   0  0  0  0  0  0  0  0  0  0  0  0
   19.0370   32.6740   70.7590 N   0  0  0  0  0  0  0  0  0  0  0  0
   18.0320   33.5260   70.5730 C   0  0  0  0  0  0  0  0  0  0  0  0
   18.1460   34.6840   70.0820 O   0  0  0  0  0  0  0  0  0  0  0  0
   16.8430   33.0020   70.9800 N   0  0  0  0  0  0  0  0  0  0  0  0
   20.4590   32.8720   70.4610 C   0  0  0  0  0  0  0  0  0  0  0  0
   21.0740   33.1040   71.8760 C   0  0  0  0  0  0  0  0  0  0  0  0
   21.0140   34.3590   72.1280 O   0  0  0  0  0  0  0  0  0  0  0  0
   21.5520   32.0790   72.5930 N   0  0  0  0  0  0  0  0  0  0  0  0
   22.0440   31.0240   73.3300 C   0  0  0  0  0  0  0  0  0  0  0  0
   22.4620   29.8380   72.4520 C   0  0  0  0  0  0  0  0  0  0  0  0
   21.7430   28.7080   72.7590 O   0  0  0  0  0  0  0  0  0  0  0  0
   22.2790   27.5320   72.3180 C   0  0  0  0  0  0  0  0  0  0  0  0
   15.9790   35.3900   70.1400 H   0  0  0  0  0  0  0  0  0  0  0  0
   12.3630   32.5870   71.9030 H   0  0  0  0  0  0  0  0  0  0  0  0
   11.8840   34.8730   71.0600 H   0  0  0  0  0  0  0  0  0  0  0  0
   14.4430   28.4320   72.2730 H   0  0  0  0  0  0  0  0  0  0  0  0
   14.7550   29.0850   73.9560 H   0  0  0  0  0  0  0  0  0  0  0  0
   16.6500   28.9550   71.7300 H   0  0  0  0  0  0  0  0  0  0  0  0
   16.8960   29.6170   73.4160 H   0  0  0  0  0  0  0  0  0  0  0  0
   20.9070   31.9930   70.0390 H   0  0  0  0  0  0  0  0  0  0  0  0
   20.5620   33.7760   69.8790 H   0  0  0  0  0  0  0  0  0  0  0  0
   22.3380   32.9340   73.2970 H   0  0  0  0  0  0  0  0  0  0  0  0
   22.8410   31.2650   74.0650 H   0  0  0  0  0  0  0  0  0  0  0  0
   21.2260   30.5810   74.0240 H   0  0  0  0  0  0  0  0  0  0  0  0
   22.4430   30.0770   71.3770 H   0  0  0  0  0  0  0  0  0  0  0  0
   23.5250   29.6470   72.7350 H   0  0  0  0  0  0  0  0  0  0  0  0
   23.2840   27.3350   72.8070 H   0  0  0  0  0  0  0  0  0  0  0  0
   22.5680   27.5870   71.2350 H   0  0  0  0  0  0  0  0  0  0  0  0
   21.6200   26.6710   72.5150 H   0  0  0  0  0  0  0  0  0  0  0  0
  1  2  1  0  0  0  0
  2  7  1  0  0  0  0
  3  2  2  0  0  0  0
  4  3  1  1  0  0  0
  4  5  1  0  0  0  0
  5  6  1  0  0  0  0
  5  8  2  0  0  0  0
  6 28  1  0  0  0  0
  7 29  1  0  0  0  0
  7  6  2  0  0  0  0
  8  9  1  0  0  0  0
  9 10  1  0  0  0  0
 10 31  1  0  0  0  0
 11 10  1  0  0  0  0
 11 33  1  0  0  0  0
 12  8  1  0  0  0  0
 12 11  1  0  0  0  0
 13 12  1  0  0  0  0
 14 13  2  0  0  0  0
 15 14  1  0  0  0  0
 16 15  1  0  0  0  0
 16 18  1  0  0  0  0
 17 16  2  0  0  0  0
 18  4  1  0  0  0  0
 18 13  1  0  0  0  0
 19 15  1  0  0  0  0
 19 20  1  0  0  0  0
 20 21  2  0  0  0  0
 20 22  1  0  0  0  0
 22 36  1  0  0  0  0
 22 23  1  0  0  0  0
 23 38  1  0  0  0  0
 23 37  1  0  0  0  0
 24 40  1  0  0  0  0
 24 25  1  0  0  0  0
 24 23  1  0  0  0  0
 26 43  1  0  0  0  0
 26 25  1  0  0  0  0
 26 41  1  0  0  0  0
 27  3  1  0  0  0  0
 30 10  1  0  0  0  0
 32 11  1  0  0  0  0
 34 19  1  0  0  0  0
 35 19  1  0  0  0  0
 39 24  1  0  0  0  0
 42 26  1  0  0  0  0
M  END
>  <Pose>
1

>  <Score>
-6.39

$$$$
