
 OpenBabel03212208413D

 47 50  0  0  0  0  0  0  0  0999 V2000
   20.5830   23.8370   73.3160 Cl  0  0  0  0  0  0  0  0  0  0  0  0
   19.5340   25.2470   73.1770 C   0  0  0  0  0  0  0  0  0  0  0  0
   19.7400   26.3870   73.8910 C   0  0  0  0  0  0  0  0  0  0  0  0
   18.8920   27.4680   73.7490 C   0  0  0  0  0  0  0  0  0  0  0  0
   17.8270   27.4120   72.8860 C   0  0  0  0  0  0  0  0  0  0  0  0
   17.6210   26.2620   72.1690 C   0  0  0  0  0  0  0  0  0  0  0  0
   18.4690   25.1770   72.3080 C   0  0  0  0  0  0  0  0  0  0  0  0
   16.9180   28.5220   72.7130 N   0  0  0  0  0  0  0  0  0  0  0  0
   17.0920   29.7270   73.4330 C   0  0  0  0  0  0  0  0  0  0  0  0
   16.2890   30.7570   73.3030 C   0  0  0  0  0  0  0  0  0  0  0  0
   15.1510   30.8510   72.4560 N   0  0  0  0  0  0  0  0  0  0  0  0
   13.8400   31.2490   72.9260 C   0  0  0  0  0  0  0  0  0  0  0  0
   13.2850   32.2660   71.9150 C   0  0  0  0  0  0  0  0  0  0  0  0
   14.2560   32.6390   70.9440 N   0  0  0  0  0  0  0  0  0  0  0  0
   14.7270   31.5380   70.1060 C   0  0  0  0  0  0  0  0  0  0  0  0
   15.2860   30.5040   71.0550 C   0  0  0  0  0  0  0  0  0  0  0  0
   14.8320   33.9100   70.6970 C   0  0  0  0  0  0  0  0  0  0  0  0
   16.2010   34.0470   70.8580 N   0  0  0  0  0  0  0  0  0  0  0  0
   16.8600   35.1880   70.6710 C   0  0  0  0  0  0  0  0  0  0  0  0
   16.1460   36.2920   70.2960 C   0  0  0  0  0  0  0  0  0  0  0  0
   14.7940   36.1950   70.1260 C   0  0  0  0  0  0  0  0  0  0  0  0
   14.0900   34.9900   70.3220 C   0  0  0  0  0  0  0  0  0  0  0  0
   12.6780   34.9160   70.1050 C   0  0  0  0  0  0  0  0  0  0  0  0
   11.8720   34.3160   70.8140 O   0  0  0  0  0  0  0  0  0  0  0  0
   12.1300   35.5860   68.9760 N   0  0  0  0  0  0  0  0  0  0  0  0
   18.2080   29.8080   74.3470 N   0  0  0  0  0  0  0  0  0  0  0  0
   19.0810   28.7030   74.4960 C   0  0  0  0  0  0  0  0  0  0  0  0
   20.0750   28.7510   75.2990 O   0  0  0  0  0  0  0  0  0  0  0  0
   20.5560   26.4690   74.5720 H   0  0  0  0  0  0  0  0  0  0  0  0
   16.7760   26.2340   71.4920 H   0  0  0  0  0  0  0  0  0  0  0  0
   18.3040   24.2840   71.7450 H   0  0  0  0  0  0  0  0  0  0  0  0
   16.1310   28.4230   72.0470 H   0  0  0  0  0  0  0  0  0  0  0  0
   16.5280   31.6400   73.9180 H   0  0  0  0  0  0  0  0  0  0  0  0
   13.8350   31.7190   73.9090 H   0  0  0  0  0  0  0  0  0  0  0  0
   13.1880   30.3280   72.9530 H   0  0  0  0  0  0  0  0  0  0  0  0
   12.9570   33.1200   72.4930 H   0  0  0  0  0  0  0  0  0  0  0  0
   12.4580   31.6870   71.4320 H   0  0  0  0  0  0  0  0  0  0  0  0
   15.5200   31.8330   69.4170 H   0  0  0  0  0  0  0  0  0  0  0  0
   13.8910   31.0840   69.5360 H   0  0  0  0  0  0  0  0  0  0  0  0
   14.7580   29.5260   70.9410 H   0  0  0  0  0  0  0  0  0  0  0  0
   16.3590   30.3030   70.8210 H   0  0  0  0  0  0  0  0  0  0  0  0
   17.9430   35.2140   70.8190 H   0  0  0  0  0  0  0  0  0  0  0  0
   16.6520   37.2200   70.1400 H   0  0  0  0  0  0  0  0  0  0  0  0
   14.1750   37.0550   69.8250 H   0  0  0  0  0  0  0  0  0  0  0  0
   11.1060   35.7840   68.9180 H   0  0  0  0  0  0  0  0  0  0  0  0
   12.7000   35.9090   68.1640 H   0  0  0  0  0  0  0  0  0  0  0  0
   18.3670   30.6780   74.8930 H   0  0  0  0  0  0  0  0  0  0  0  0
  2  1  1  0  0  0  0
  2  3  1  0  0  0  0
  3 29  1  0  0  0  0
  4  3  2  0  0  0  0
  4 27  1  0  0  0  0
  5  4  1  0  0  0  0
  6  7  1  0  0  0  0
  6  5  2  0  0  0  0
  7  2  2  0  0  0  0
  8  5  1  0  0  0  0
  8  9  1  0  0  0  0
  9 26  1  0  0  0  0
 10  9  2  0  0  0  0
 10 33  1  0  0  0  0
 11 12  1  0  0  0  0
 11 10  1  0  0  0  0
 12 35  1  0  0  0  0
 12 34  1  0  0  0  0
 13 36  1  0  0  0  0
 13 12  1  0  0  0  0
 14 13  1  0  0  0  0
 15 14  1  0  0  0  0
 15 16  1  0  0  0  0
 16 11  1  0  0  0  0
 17 18  1  0  0  0  0
 17 14  1  0  0  0  0
 19 42  1  0  0  0  0
 19 18  2  0  0  0  0
 20 19  1  0  0  0  0
 21 20  2  0  0  0  0
 21 22  1  0  0  0  0
 22 17  2  0  0  0  0
 23 22  1  0  0  0  0
 23 24  2  0  0  0  0
 25 23  1  0  0  0  0
 26 27  1  0  0  0  0
 26 47  1  0  0  0  0
 27 28  2  0  0  0  0
 30  6  1  0  0  0  0
 31  7  1  0  0  0  0
 32  8  1  0  0  0  0
 37 13  1  0  0  0  0
 38 15  1  0  0  0  0
 39 15  1  0  0  0  0
 40 16  1  0  0  0  0
 41 16  1  0  0  0  0
 43 20  1  0  0  0  0
 44 21  1  0  0  0  0
 45 25  1  0  0  0  0
 46 25  1  0  0  0  0
M  END
>  <Pose>
1

>  <Score>
-6.83

$$$$
