
 OpenBabel03212208413D

 38 42  0  0  1  0  0  0  0  0999 V2000
   24.0300   33.6340   67.3530 B   0  0  0  0  0  0  0  0  0  0  0  0
   22.7450   33.4780   68.7400 C   0  0  0  0  0  0  0  0  0  0  0  0
   21.4690   33.9440   68.5350 C   0  0  0  0  0  0  0  0  0  0  0  0
   20.5560   33.8160   69.5590 C   0  0  0  0  0  0  0  0  0  0  0  0
   20.8840   33.2430   70.7680 C   0  0  0  0  0  0  0  0  0  0  0  0
   22.1730   32.7710   70.9750 C   0  0  0  0  0  0  0  0  0  0  0  0
   23.0950   32.9010   69.9350 C   0  0  0  0  0  0  0  0  0  0  0  0
   19.9240   33.1140   71.8240 N   0  0  0  0  0  0  0  0  0  0  0  0
   19.3200   31.8760   72.1680 C   0  0  0  0  0  0  0  0  0  0  0  0
   19.7850   30.7550   71.8530 O   0  0  0  0  0  0  0  0  0  0  0  0
   18.0790   32.1400   72.9440 C   0  0  2  0  0  0  0  0  0  0  0  0
   16.8610   32.1620   72.0740 C   0  0  1  0  0  0  0  0  0  0  0  0
   16.0650   33.0980   72.7710 O   0  0  0  0  0  0  0  0  0  0  0  0
   16.9670   34.1880   72.6820 C   0  0  1  0  0  0  0  0  0  0  0  0
   18.1760   33.6150   73.3380 C   0  0  2  0  0  0  0  0  0  0  0  0
   19.4100   34.1280   72.6860 C   0  0  0  0  0  0  0  0  0  0  0  0
   19.8920   35.2490   72.8750 O   0  0  0  0  0  0  0  0  0  0  0  0
   17.1890   34.1980   71.2120 C   0  0  0  0  0  0  0  0  0  0  0  0
   17.1840   32.9180   70.8530 C   0  0  0  0  0  0  0  0  0  0  0  0
   16.1910   30.8690   71.8850 C   0  0  0  0  0  0  0  0  0  0  0  0
   15.2480   30.8690   70.8950 O   0  0  0  0  0  0  0  0  0  0  0  0
   14.0060   30.7510   71.4670 C   0  0  0  0  0  0  0  0  0  0  0  0
   14.2270   30.6630   72.9420 C   0  0  0  0  0  0  0  0  0  0  0  0
   15.5930   30.4240   73.0500 O   0  0  0  0  0  0  0  0  0  0  0  0
   21.1570   34.4080   67.5950 H   0  0  0  0  0  0  0  0  0  0  0  0
   19.5250   34.1790   69.4280 H   0  0  0  0  0  0  0  0  0  0  0  0
   22.4150   32.3250   71.9240 H   0  0  0  0  0  0  0  0  0  0  0  0
   24.0990   32.5350   70.0970 H   0  0  0  0  0  0  0  0  0  0  0  0
   18.0090   31.4700   73.8000 H   0  0  0  0  0  0  0  0  0  0  0  0
   16.5770   35.1010   73.0950 H   0  0  0  0  0  0  0  0  0  0  0  0
   18.2130   33.7330   74.4210 H   0  0  0  0  0  0  0  0  0  0  0  0
   17.3180   35.1020   70.6320 H   0  0  0  0  0  0  0  0  0  0  0  0
   17.3920   32.6080   69.8340 H   0  0  0  0  0  0  0  0  0  0  0  0
   16.9780   30.1120   71.6230 H   0  0  0  0  0  0  0  0  0  0  0  0
   13.4400   29.8660   71.1170 H   0  0  0  0  0  0  0  0  0  0  0  0
   13.4420   31.6960   71.2550 H   0  0  0  0  0  0  0  0  0  0  0  0
   13.6350   29.8100   73.3840 H   0  0  0  0  0  0  0  0  0  0  0  0
   13.9810   31.6120   73.4840 H   0  0  0  0  0  0  0  0  0  0  0  0
  1  2  1  0  0  0  0
  2  7  1  0  0  0  0
  3  2  2  0  0  0  0
  3  4  1  0  0  0  0
  4  5  2  0  0  0  0
  5  6  1  0  0  0  0
  5  8  1  0  0  0  0
  6 27  1  0  0  0  0
  7 28  1  0  0  0  0
  7  6  2  0  0  0  0
  8  9  1  0  0  0  0
  8 16  1  0  0  0  0
  9 11  1  0  0  0  0
 10  9  2  0  0  0  0
 11 15  1  0  0  0  0
 11 29  1  1  0  0  0
 12 20  1  6  0  0  0
 12 13  1  0  0  0  0
 12 11  1  0  0  0  0
 14 13  1  0  0  0  0
 14 30  1  1  0  0  0
 14 15  1  0  0  0  0
 15 31  1  1  0  0  0
 16 17  2  0  0  0  0
 16 15  1  0  0  0  0
 18 14  1  0  0  0  0
 19 18  2  0  0  0  0
 19 12  1  0  0  0  0
 20 24  1  0  0  0  0
 21 22  1  0  0  0  0
 21 20  1  0  0  0  0
 22 23  1  0  0  0  0
 23 24  1  0  0  0  0
 23 37  1  0  0  0  0
 23 38  1  0  0  0  0
 25  3  1  0  0  0  0
 26  4  1  0  0  0  0
 32 18  1  0  0  0  0
 33 19  1  0  0  0  0
 34 20  1  0  0  0  0
 35 22  1  0  0  0  0
 36 22  1  0  0  0  0
M  END
>  <Pose>
1

>  <Score>
-4.98

$$$$
