
 OpenBabel03212208413D

 58 61  0  0  0  0  0  0  0  0999 V2000
   18.8650   36.3050   70.0280 Cl  0  0  0  0  0  0  0  0  0  0  0  0
   19.7320   34.9190   70.6480 C   0  0  0  0  0  0  0  0  0  0  0  0
   19.1280   33.9780   71.4760 C   0  0  0  0  0  0  0  0  0  0  0  0
   19.8130   32.8910   71.9630 C   0  0  0  0  0  0  0  0  0  0  0  0
   21.1350   32.7360   71.6160 C   0  0  0  0  0  0  0  0  0  0  0  0
   21.7390   33.6850   70.7810 C   0  0  0  0  0  0  0  0  0  0  0  0
   21.0540   34.7750   70.2940 C   0  0  0  0  0  0  0  0  0  0  0  0
   21.6700   35.7230   69.4570 O   0  0  0  0  0  0  0  0  0  0  0  0
   21.7850   37.0760   69.8230 C   0  0  0  0  0  0  0  0  0  0  0  0
   21.8000   31.7030   72.0730 O   0  0  0  0  0  0  0  0  0  0  0  0
   21.2610   30.8000   72.8560 C   0  0  0  0  0  0  0  0  0  0  0  0
   21.9420   29.8070   73.2800 O   0  0  0  0  0  0  0  0  0  0  0  0
   19.9320   30.8600   73.2690 C   0  0  0  0  0  0  0  0  0  0  0  0
   19.2180   31.9380   72.7960 C   0  0  0  0  0  0  0  0  0  0  0  0
   17.8140   32.1090   73.1560 C   0  0  0  0  0  0  0  0  0  0  0  0
   19.3820   29.8070   74.1530 C   0  0  0  0  0  0  0  0  0  0  0  0
   18.6540   28.7680   73.3730 C   0  0  0  0  0  0  0  0  0  0  0  0
   19.2920   27.6980   73.0840 O   0  0  0  0  0  0  0  0  0  0  0  0
   17.3450   28.8730   72.9380 N   0  0  0  0  0  0  0  0  0  0  0  0
   16.9800   28.9700   71.5590 C   0  0  0  0  0  0  0  0  0  0  0  0
   16.2280   30.2880   71.3640 C   0  0  0  0  0  0  0  0  0  0  0  0
   15.1230   30.3410   72.2610 N   0  0  0  0  0  0  0  0  0  0  0  0
   14.9570   29.1880   73.1720 C   0  0  0  0  0  0  0  0  0  0  0  0
   16.2560   28.8880   73.8870 C   0  0  0  0  0  0  0  0  0  0  0  0
   14.1890   31.3930   72.3540 C   0  0  0  0  0  0  0  0  0  0  0  0
   13.1620   31.1170   73.1520 O   0  0  0  0  0  0  0  0  0  0  0  0
   14.1460   32.6910   71.7520 C   0  0  0  0  0  0  0  0  0  0  0  0
   12.9200   33.1750   71.2300 C   0  0  0  0  0  0  0  0  0  0  0  0
   12.8390   34.4090   70.6410 C   0  0  0  0  0  0  0  0  0  0  0  0
   11.7380   34.8150   70.1850 O   0  0  0  0  0  0  0  0  0  0  0  0
   13.8950   35.2240   70.5210 N   0  0  0  0  0  0  0  0  0  0  0  0
   15.0480   34.7690   71.0120 C   0  0  0  0  0  0  0  0  0  0  0  0
   16.0840   35.5070   70.9230 O   0  0  0  0  0  0  0  0  0  0  0  0
   15.1640   33.5330   71.6110 N   0  0  0  0  0  0  0  0  0  0  0  0
   13.7890   36.5220   69.8950 C   0  0  0  0  0  0  0  0  0  0  0  0
   18.0910   34.0850   71.7580 H   0  0  0  0  0  0  0  0  0  0  0  0
   22.7780   33.5460   70.5200 H   0  0  0  0  0  0  0  0  0  0  0  0
   22.0430   37.2230   70.8880 H   0  0  0  0  0  0  0  0  0  0  0  0
   22.4850   37.5630   69.1230 H   0  0  0  0  0  0  0  0  0  0  0  0
   20.7490   37.5150   69.7180 H   0  0  0  0  0  0  0  0  0  0  0  0
   17.7320   33.1320   73.6340 H   0  0  0  0  0  0  0  0  0  0  0  0
   17.4320   31.4060   73.8830 H   0  0  0  0  0  0  0  0  0  0  0  0
   17.1610   32.1840   72.2590 H   0  0  0  0  0  0  0  0  0  0  0  0
   18.8820   30.1470   75.0510 H   0  0  0  0  0  0  0  0  0  0  0  0
   20.3020   29.2570   74.5320 H   0  0  0  0  0  0  0  0  0  0  0  0
   16.2790   28.1690   71.2400 H   0  0  0  0  0  0  0  0  0  0  0  0
   17.8440   28.9020   70.8670 H   0  0  0  0  0  0  0  0  0  0  0  0
   16.9180   31.1340   71.6080 H   0  0  0  0  0  0  0  0  0  0  0  0
   15.9620   30.3780   70.2870 H   0  0  0  0  0  0  0  0  0  0  0  0
   14.1170   29.4090   73.8350 H   0  0  0  0  0  0  0  0  0  0  0  0
   14.7240   28.3270   72.5310 H   0  0  0  0  0  0  0  0  0  0  0  0
   16.4380   29.7030   74.6080 H   0  0  0  0  0  0  0  0  0  0  0  0
   16.2290   27.9350   74.4340 H   0  0  0  0  0  0  0  0  0  0  0  0
   12.0660   32.5180   71.3250 H   0  0  0  0  0  0  0  0  0  0  0  0
   16.1070   33.2740   71.9640 H   0  0  0  0  0  0  0  0  0  0  0  0
   14.8170   36.9060   69.7170 H   0  0  0  0  0  0  0  0  0  0  0  0
   13.3180   37.2680   70.5950 H   0  0  0  0  0  0  0  0  0  0  0  0
   13.2240   36.5010   68.9450 H   0  0  0  0  0  0  0  0  0  0  0  0
  1  2  1  0  0  0  0
  2  3  1  0  0  0  0
  3 36  1  0  0  0  0
  3  4  2  0  0  0  0
  4 14  1  0  0  0  0
  5  4  1  0  0  0  0
  5 10  1  0  0  0  0
  6  5  2  0  0  0  0
  7  2  2  0  0  0  0
  7  6  1  0  0  0  0
  8  9  1  0  0  0  0
  8  7  1  0  0  0  0
  9 38  1  0  0  0  0
 10 11  1  0  0  0  0
 11 13  1  0  0  0  0
 11 12  2  0  0  0  0
 13 16  1  0  0  0  0
 14 15  1  0  0  0  0
 14 13  2  0  0  0  0
 15 41  1  0  0  0  0
 15 42  1  0  0  0  0
 16 45  1  0  0  0  0
 16 44  1  0  0  0  0
 17 16  1  0  0  0  0
 18 17  2  0  0  0  0
 19 17  1  0  0  0  0
 19 24  1  0  0  0  0
 20 19  1  0  0  0  0
 21 20  1  0  0  0  0
 21 48  1  0  0  0  0
 21 22  1  0  0  0  0
 22 25  1  0  0  0  0
 22 23  1  0  0  0  0
 23 50  1  0  0  0  0
 23 24  1  0  0  0  0
 24 53  1  0  0  0  0
 24 52  1  0  0  0  0
 25 26  2  0  0  0  0
 27 25  1  0  0  0  0
 28 54  1  0  0  0  0
 28 27  2  0  0  0  0
 29 28  1  0  0  0  0
 30 29  2  0  0  0  0
 31 29  1  0  0  0  0
 31 32  1  0  0  0  0
 32 34  1  0  0  0  0
 33 32  2  0  0  0  0
 34 27  1  0  0  0  0
 34 55  1  0  0  0  0
 35 31  1  0  0  0  0
 35 57  1  0  0  0  0
 37  6  1  0  0  0  0
 39  9  1  0  0  0  0
 40  9  1  0  0  0  0
 43 15  1  0  0  0  0
 46 20  1  0  0  0  0
 47 20  1  0  0  0  0
 49 21  1  0  0  0  0
 51 23  1  0  0  0  0
 56 35  1  0  0  0  0
 58 35  1  0  0  0  0
M  END
>  <Pose>
1

>  <Score>
-7.08

$$$$
