
 OpenBabel03212208413D

 51 54  0  0  1  0  0  0  0  0999 V2000
   16.4740   28.6110   72.9040 Cl  0  0  0  0  0  0  0  0  0  0  0  0
   14.9960   29.4900   73.2350 C   0  0  0  0  0  0  0  0  0  0  0  0
   14.4550   30.3680   72.3240 C   0  0  0  0  0  0  0  0  0  0  0  0
   13.2660   31.0750   72.6050 C   0  0  0  0  0  0  0  0  0  0  0  0
   12.6960   30.8290   73.8200 C   0  0  0  0  0  0  0  0  0  0  0  0
   13.2470   29.9300   74.7560 C   0  0  0  0  0  0  0  0  0  0  0  0
   14.4050   29.2600   74.4550 C   0  0  0  0  0  0  0  0  0  0  0  0
   12.7670   31.9540   71.6230 N   0  0  0  0  0  0  0  0  0  0  0  0
   12.9900   33.3190   71.5570 C   0  0  0  0  0  0  0  0  0  0  0  0
   12.8420   34.0800   72.5190 O   0  0  0  0  0  0  0  0  0  0  0  0
   13.4370   33.9910   70.2750 C   0  0  0  0  0  0  0  0  0  0  0  0
   14.8560   34.3510   70.4120 N   0  0  0  0  0  0  0  0  0  0  0  0
   15.3740   35.5920   70.1680 C   0  0  1  0  0  0  0  0  0  0  0  0
   16.6940   35.5740   70.4130 N   0  0  0  0  0  0  0  0  0  0  0  0
   17.0780   34.3540   70.8130 C   0  0  0  0  0  0  0  0  0  0  0  0
   15.8920   33.6050   70.8010 C   0  0  0  0  0  0  0  0  0  0  0  0
   18.3690   33.8110   71.2010 C   0  0  0  0  0  0  0  0  0  0  0  0
   19.0420   34.2300   72.3160 C   0  0  0  0  0  0  0  0  0  0  0  0
   20.2610   33.7090   72.7080 C   0  0  0  0  0  0  0  0  0  0  0  0
   20.8770   32.7100   71.9680 C   0  0  0  0  0  0  0  0  0  0  0  0
   20.2010   32.2880   70.8490 C   0  0  0  0  0  0  0  0  0  0  0  0
   18.9840   32.8080   70.4570 C   0  0  0  0  0  0  0  0  0  0  0  0
   22.0970   32.1650   72.3300 O   0  0  0  0  0  0  0  0  0  0  0  0
   22.2120   31.0260   73.1630 C   0  0  0  0  0  0  0  0  0  0  0  0
   17.2360   36.9080   70.1580 C   0  0  0  0  0  0  0  0  0  0  0  0
   16.0280   37.8260   70.1230 C   0  0  0  0  0  0  0  0  0  0  0  0
   14.9200   36.9270   69.7050 C   0  0  0  0  0  0  0  0  0  0  0  0
   15.1340   30.5700   71.0320 C   0  0  0  0  0  0  0  0  0  0  0  0
   11.7870   31.3300   74.1080 H   0  0  0  0  0  0  0  0  0  0  0  0
   12.7790   29.7480   75.7140 H   0  0  0  0  0  0  0  0  0  0  0  0
   14.8360   28.5550   75.1820 H   0  0  0  0  0  0  0  0  0  0  0  0
   12.1570   31.5360   70.8560 H   0  0  0  0  0  0  0  0  0  0  0  0
   13.3630   33.2270   69.4860 H   0  0  0  0  0  0  0  0  0  0  0  0
   12.8700   34.9090   70.0890 H   0  0  0  0  0  0  0  0  0  0  0  0
   15.8150   32.5480   71.0660 H   0  0  0  0  0  0  0  0  0  0  0  0
   18.5580   35.0280   72.9010 H   0  0  0  0  0  0  0  0  0  0  0  0
   20.7390   34.0930   73.6070 H   0  0  0  0  0  0  0  0  0  0  0  0
   20.6770   31.4990   70.2550 H   0  0  0  0  0  0  0  0  0  0  0  0
   18.4730   32.4570   69.5590 H   0  0  0  0  0  0  0  0  0  0  0  0
   22.0810   31.2950   74.2380 H   0  0  0  0  0  0  0  0  0  0  0  0
   21.5150   30.2150   72.9050 H   0  0  0  0  0  0  0  0  0  0  0  0
   23.2390   30.6230   73.0480 H   0  0  0  0  0  0  0  0  0  0  0  0
   17.8460   36.9560   69.2560 H   0  0  0  0  0  0  0  0  0  0  0  0
   17.8400   37.2840   71.0160 H   0  0  0  0  0  0  0  0  0  0  0  0
   16.1960   38.6970   69.4780 H   0  0  0  0  0  0  0  0  0  0  0  0
   15.7850   38.1490   71.1810 H   0  0  0  0  0  0  0  0  0  0  0  0
   13.9390   37.1860   70.1560 H   0  0  0  0  0  0  0  0  0  0  0  0
   14.8430   36.9260   68.5810 H   0  0  0  0  0  0  0  0  0  0  0  0
   16.0810   30.0000   71.0200 H   0  0  0  0  0  0  0  0  0  0  0  0
   14.5200   30.1450   70.1850 H   0  0  0  0  0  0  0  0  0  0  0  0
   15.3300   31.6270   70.7800 H   0  0  0  0  0  0  0  0  0  0  0  0
  1  2  1  0  0  0  0
  2  7  1  0  0  0  0
  3  4  1  0  0  0  0
  3  2  2  0  0  0  0
  4  5  2  0  0  0  0
  5 29  1  0  0  0  0
  5  6  1  0  0  0  0
  6 30  1  0  0  0  0
  7  6  2  0  0  0  0
  7 31  1  0  0  0  0
  8  4  1  0  0  0  0
  9  8  1  0  0  0  0
  9 10  2  0  0  0  0
 11 12  1  0  0  0  0
 11  9  1  0  0  0  0
 12 16  1  0  0  0  0
 13 27  1  6  0  0  0
 13 12  1  0  0  0  0
 13 14  1  0  0  0  0
 14 15  1  0  0  0  0
 15 17  1  0  0  0  0
 16 15  2  0  0  0  0
 16 35  1  0  0  0  0
 17 18  1  0  0  0  0
 18 19  2  0  0  0  0
 18 36  1  0  0  0  0
 19 37  1  0  0  0  0
 20 23  1  0  0  0  0
 20 19  1  0  0  0  0
 21 20  2  0  0  0  0
 22 21  1  0  0  0  0
 22 17  2  0  0  0  0
 23 24  1  0  0  0  0
 24 40  1  0  0  0  0
 25 14  1  0  0  0  0
 25 44  1  0  0  0  0
 26 25  1  0  0  0  0
 26 46  1  0  0  0  0
 27 26  1  0  0  0  0
 27 47  1  0  0  0  0
 28  3  1  0  0  0  0
 32  8  1  0  0  0  0
 33 11  1  0  0  0  0
 34 11  1  0  0  0  0
 38 21  1  0  0  0  0
 39 22  1  0  0  0  0
 41 24  1  0  0  0  0
 42 24  1  0  0  0  0
 43 25  1  0  0  0  0
 45 26  1  0  0  0  0
 48 27  1  0  0  0  0
 49 28  1  0  0  0  0
 50 28  1  0  0  0  0
 51 28  1  0  0  0  0
M  END
>  <Pose>
1

>  <Score>
-6.21

$$$$
