
 OpenBabel03212208413D

 47 50  0  0  1  0  0  0  0  0999 V2000
   18.8170   37.6690   68.7770 Cl  0  0  0  0  0  0  0  0  0  0  0  0
   20.1820   36.5770   68.8210 C   0  0  0  0  0  0  0  0  0  0  0  0
   20.1810   35.5730   69.7640 C   0  0  0  0  0  0  0  0  0  0  0  0
   21.2590   34.7150   69.7950 C   0  0  0  0  0  0  0  0  0  0  0  0
   22.3200   34.8470   68.9100 C   0  0  0  0  0  0  0  0  0  0  0  0
   22.3290   35.8500   67.9620 C   0  0  0  0  0  0  0  0  0  0  0  0
   21.2510   36.7080   67.9320 C   0  0  0  0  0  0  0  0  0  0  0  0
   21.2620   33.4300   70.9980 Cl  0  0  0  0  0  0  0  0  0  0  0  0
   19.0710   35.4160   70.7090 C   0  0  0  0  0  0  0  0  0  0  0  0
   18.6620   34.2640   71.0970 N   0  0  0  0  0  0  0  0  0  0  0  0
   17.5970   34.2030   71.9990 N   0  0  0  0  0  0  0  0  0  0  0  0
   16.8680   33.0060   72.2320 C   0  0  0  0  0  0  0  0  0  0  0  0
   15.5320   32.8870   72.1980 N   0  0  0  0  0  0  0  0  0  0  0  0
   15.2670   31.5980   72.4720 C   0  0  0  0  0  0  0  0  0  0  0  0
   14.1130   30.8950   72.5760 N   0  0  0  0  0  0  0  0  0  0  0  0
   14.1060   29.5800   72.8680 C   0  0  0  0  0  0  0  0  0  0  0  0
   15.2700   28.9250   73.0680 N   0  0  0  0  0  0  0  0  0  0  0  0
   16.4580   29.5530   72.9820 C   0  0  0  0  0  0  0  0  0  0  0  0
   16.4380   30.9010   72.6810 C   0  0  0  0  0  0  0  0  0  0  0  0
   17.4300   31.8090   72.5240 N   0  0  0  0  0  0  0  0  0  0  0  0
   17.6590   28.8400   73.1950 N   0  0  0  0  0  0  0  0  0  0  0  0
   14.5210   33.8690   71.9330 C   0  0  1  0  0  0  0  0  0  0  0  0
   15.0410   35.0420   71.3920 O   0  0  0  0  0  0  0  0  0  0  0  0
   13.8830   35.6660   70.9280 C   0  0  2  0  0  0  0  0  0  0  0  0
   13.3020   34.5740   70.0430 C   0  0  1  0  0  0  0  0  0  0  0  0
   13.5090   33.3580   70.9230 C   0  0  2  0  0  0  0  0  0  0  0  0
   12.2820   33.0770   71.5280 O   0  0  0  0  0  0  0  0  0  0  0  0
   11.9590   34.7920   69.7680 O   0  0  0  0  0  0  0  0  0  0  0  0
   14.1730   36.9220   70.1500 C   0  0  0  0  0  0  0  0  0  0  0  0
   14.1270   38.0570   70.9210 O   0  0  0  0  0  0  0  0  0  0  0  0
   23.1690   34.1780   68.9280 H   0  0  0  0  0  0  0  0  0  0  0  0
   23.1330   35.9920   67.2530 H   0  0  0  0  0  0  0  0  0  0  0  0
   21.2360   37.5110   67.1890 H   0  0  0  0  0  0  0  0  0  0  0  0
   18.5740   36.2910   71.0960 H   0  0  0  0  0  0  0  0  0  0  0  0
   17.3570   35.0910   72.5000 H   0  0  0  0  0  0  0  0  0  0  0  0
   13.1900   29.0120   72.9530 H   0  0  0  0  0  0  0  0  0  0  0  0
   18.1670   28.8800   74.0960 H   0  0  0  0  0  0  0  0  0  0  0  0
   18.0440   28.2610   72.4280 H   0  0  0  0  0  0  0  0  0  0  0  0
   13.9560   34.1660   72.8450 H   0  0  0  0  0  0  0  0  0  0  0  0
   13.2120   35.8140   71.7710 H   0  0  0  0  0  0  0  0  0  0  0  0
   13.9140   34.4860   69.1050 H   0  0  0  0  0  0  0  0  0  0  0  0
   13.8980   32.4880   70.3570 H   0  0  0  0  0  0  0  0  0  0  0  0
   12.0580   32.1260   71.4810 H   0  0  0  0  0  0  0  0  0  0  0  0
   11.7710   35.7520   69.9480 H   0  0  0  0  0  0  0  0  0  0  0  0
   13.4070   36.9870   69.3470 H   0  0  0  0  0  0  0  0  0  0  0  0
   15.1420   36.7650   69.6320 H   0  0  0  0  0  0  0  0  0  0  0  0
   13.6060   38.7720   70.4960 H   0  0  0  0  0  0  0  0  0  0  0  0
  1  2  1  0  0  0  0
  2  3  1  0  0  0  0
  3  4  2  0  0  0  0
  3  9  1  0  0  0  0
  4  8  1  0  0  0  0
  5 31  1  0  0  0  0
  5  4  1  0  0  0  0
  6  5  2  0  0  0  0
  7  6  1  0  0  0  0
  7  2  2  0  0  0  0
  9 34  1  0  0  0  0
  9 10  2  0  0  0  0
 10 11  1  0  0  0  0
 11 12  1  0  0  0  0
 11 35  1  0  0  0  0
 12 20  2  0  0  0  0
 13 12  1  0  0  0  0
 13 14  1  0  0  0  0
 14 15  1  0  0  0  0
 14 19  2  0  0  0  0
 15 16  2  0  0  0  0
 16 36  1  0  0  0  0
 16 17  1  0  0  0  0
 18 17  2  0  0  0  0
 18 21  1  0  0  0  0
 19 18  1  0  0  0  0
 20 19  1  0  0  0  0
 21 37  1  0  0  0  0
 22 13  1  0  0  0  0
 22 39  1  1  0  0  0
 23 22  1  0  0  0  0
 24 23  1  0  0  0  0
 24 40  1  1  0  0  0
 25 41  1  6  0  0  0
 25 26  1  0  0  0  0
 25 24  1  0  0  0  0
 26 42  1  6  0  0  0
 26 27  1  0  0  0  0
 26 22  1  0  0  0  0
 28 44  1  0  0  0  0
 28 25  1  0  0  0  0
 29 30  1  0  0  0  0
 29 24  1  0  0  0  0
 32  6  1  0  0  0  0
 33  7  1  0  0  0  0
 38 21  1  0  0  0  0
 43 27  1  0  0  0  0
 45 29  1  0  0  0  0
 46 29  1  0  0  0  0
 47 30  1  0  0  0  0
M  END
>  <Pose>
1

>  <Score>
-8.04

$$$$
