
 OpenBabel03212208413D

 49 52  0  0  1  0  0  0  0  0999 V2000
   25.0210   33.6970   66.4100 Cl  0  0  0  0  0  0  0  0  0  0  0  0
   24.1330   33.7540   67.9170 C   0  0  0  0  0  0  0  0  0  0  0  0
   24.4830   32.9520   68.9940 C   0  0  0  0  0  0  0  0  0  0  0  0
   23.7700   33.0160   70.1630 C   0  0  0  0  0  0  0  0  0  0  0  0
   22.6730   33.8750   70.3350 C   0  0  0  0  0  0  0  0  0  0  0  0
   22.3480   34.6540   69.2610 C   0  0  0  0  0  0  0  0  0  0  0  0
   23.0620   34.6000   68.0700 C   0  0  0  0  0  0  0  0  0  0  0  0
   21.9690   33.8920   71.5570 N   0  0  0  0  0  0  0  0  0  0  0  0
   20.6010   34.0910   71.7660 C   0  0  0  0  0  0  0  0  0  0  0  0
   20.1610   34.2500   72.9330 O   0  0  0  0  0  0  0  0  0  0  0  0
   19.6130   34.1180   70.6220 C   0  0  0  0  0  0  0  0  0  0  0  0
   18.4190   33.4430   71.0970 N   0  0  0  0  0  0  0  0  0  0  0  0
   18.5390   31.9820   70.9110 C   0  0  0  0  0  0  0  0  0  0  0  0
   17.0630   31.5380   70.8540 C   0  0  0  0  0  0  0  0  0  0  0  0
   16.4110   32.4380   71.8190 N   0  0  0  0  0  0  0  0  0  0  0  0
   17.1700   32.7070   72.9990 C   0  0  0  0  0  0  0  0  0  0  0  0
   18.3180   33.6320   72.5630 C   0  0  0  0  0  0  0  0  0  0  0  0
   15.1470   32.9570   71.5080 C   0  0  2  0  0  0  0  0  0  0  0  0
   14.0140   32.2680   71.8480 N   0  0  0  0  0  0  0  0  0  0  0  0
   12.7790   32.6890   71.5760 C   0  0  0  0  0  0  0  0  0  0  0  0
   12.6060   33.8490   70.9340 N   0  0  0  0  0  0  0  0  0  0  0  0
   13.6280   34.6080   70.5530 C   0  0  0  0  0  0  0  0  0  0  0  0
   13.7320   35.7860   69.9060 N   0  0  0  0  0  0  0  0  0  0  0  0
   15.0120   36.0450   69.8060 N   0  0  0  0  0  0  0  0  0  0  0  0
   15.7270   35.0790   70.3620 N   0  0  0  0  0  0  0  0  0  0  0  0
   14.9180   34.1550   70.8440 C   0  0  0  0  0  0  0  0  0  0  0  0
   12.6730   36.6370   69.3980 C   0  0  0  0  0  0  0  0  0  0  0  0
   12.6750   37.9870   70.0810 C   0  0  0  0  0  0  0  0  0  0  0  0
   25.3270   32.2920   68.8640 H   0  0  0  0  0  0  0  0  0  0  0  0
   24.0560   32.3850   70.9880 H   0  0  0  0  0  0  0  0  0  0  0  0
   21.5230   35.3420   69.2740 H   0  0  0  0  0  0  0  0  0  0  0  0
   22.7530   35.2480   67.2470 H   0  0  0  0  0  0  0  0  0  0  0  0
   22.5630   33.7630   72.4350 H   0  0  0  0  0  0  0  0  0  0  0  0
   19.4650   35.1620   70.3430 H   0  0  0  0  0  0  0  0  0  0  0  0
   20.1250   33.5680   69.8060 H   0  0  0  0  0  0  0  0  0  0  0  0
   18.9740   31.4810   71.7850 H   0  0  0  0  0  0  0  0  0  0  0  0
   19.0980   31.7280   70.0210 H   0  0  0  0  0  0  0  0  0  0  0  0
   16.7500   31.7420   69.8150 H   0  0  0  0  0  0  0  0  0  0  0  0
   16.9450   30.4940   71.1280 H   0  0  0  0  0  0  0  0  0  0  0  0
   17.6060   31.7610   73.4170 H   0  0  0  0  0  0  0  0  0  0  0  0
   16.6220   33.2480   73.7750 H   0  0  0  0  0  0  0  0  0  0  0  0
   18.1160   34.6570   72.8370 H   0  0  0  0  0  0  0  0  0  0  0  0
   19.2470   33.2960   73.0760 H   0  0  0  0  0  0  0  0  0  0  0  0
   11.9220   32.0720   71.8860 H   0  0  0  0  0  0  0  0  0  0  0  0
   12.8260   36.7690   68.3080 H   0  0  0  0  0  0  0  0  0  0  0  0
   11.6630   36.2010   69.5290 H   0  0  0  0  0  0  0  0  0  0  0  0
   13.3600   38.6420   69.4980 H   0  0  0  0  0  0  0  0  0  0  0  0
   11.6330   38.3590   70.0790 H   0  0  0  0  0  0  0  0  0  0  0  0
   12.9940   37.8940   71.1480 H   0  0  0  0  0  0  0  0  0  0  0  0
  1  2  1  0  0  0  0
  2  7  2  0  0  0  0
  2  3  1  0  0  0  0
  3  4  2  0  0  0  0
  4  5  1  0  0  0  0
  4 30  1  0  0  0  0
  5  8  1  0  0  0  0
  6 31  1  0  0  0  0
  6  5  2  0  0  0  0
  7  6  1  0  0  0  0
  8  9  1  0  0  0  0
  8 33  1  0  0  0  0
  9 10  2  0  0  0  0
 11 12  1  0  0  0  0
 11  9  1  0  0  0  0
 12 17  1  0  0  0  0
 13 12  1  0  0  0  0
 13 36  1  0  0  0  0
 14 13  1  0  0  0  0
 14 39  1  0  0  0  0
 14 15  1  0  0  0  0
 15 16  1  0  0  0  0
 16 40  1  0  0  0  0
 16 41  1  0  0  0  0
 17 42  1  0  0  0  0
 17 16  1  0  0  0  0
 17 43  1  0  0  0  0
 18 15  1  6  0  0  0
 18 19  1  0  0  0  0
 20 19  2  0  0  0  0
 20 44  1  0  0  0  0
 21 20  1  0  0  0  0
 22 26  2  0  0  0  0
 22 21  1  0  0  0  0
 23 22  1  0  0  0  0
 24 23  1  0  0  0  0
 24 25  2  0  0  0  0
 25 26  1  0  0  0  0
 26 18  1  0  0  0  0
 27 46  1  0  0  0  0
 27 23  1  0  0  0  0
 27 28  1  0  0  0  0
 28 49  1  0  0  0  0
 29  3  1  0  0  0  0
 32  7  1  0  0  0  0
 34 11  1  0  0  0  0
 35 11  1  0  0  0  0
 37 13  1  0  0  0  0
 38 14  1  0  0  0  0
 45 27  1  0  0  0  0
 47 28  1  0  0  0  0
 48 28  1  0  0  0  0
M  END
>  <Pose>
1

>  <Score>
-6.63

$$$$
