
 OpenBabel03212208413D

 49 52  0  0  1  0  0  0  0  0999 V2000
   13.4630   30.5040   71.3520 Cl  0  0  0  0  0  0  0  0  0  0  0  0
   14.6140   31.8230   71.3900 C   0  0  0  0  0  0  0  0  0  0  0  0
   15.9610   31.5660   71.4760 C   0  0  0  0  0  0  0  0  0  0  0  0
   16.7950   32.6570   71.5010 C   0  0  0  0  0  0  0  0  0  0  0  0
   16.3360   33.9750   71.4440 C   0  0  0  0  0  0  0  0  0  0  0  0
   14.9940   34.2410   71.3580 C   0  0  0  0  0  0  0  0  0  0  0  0
   14.1520   33.1140   71.3330 C   0  0  0  0  0  0  0  0  0  0  0  0
   14.4130   35.5260   71.2800 N   0  0  0  0  0  0  0  0  0  0  0  0
   14.3970   36.3010   70.1090 C   0  0  0  0  0  0  0  0  0  0  0  0
   13.8060   35.9470   69.0770 O   0  0  0  0  0  0  0  0  0  0  0  0
   15.1060   37.6250   70.0440 C   0  0  0  0  0  0  0  0  0  0  0  0
   16.4370   37.5070   69.5380 N   0  0  0  0  0  0  0  0  0  0  0  0
   17.3950   36.7400   70.1040 C   0  0  0  0  0  0  0  0  0  0  0  0
   18.6310   36.6810   69.5660 N   0  0  0  0  0  0  0  0  0  0  0  0
   18.9770   37.3600   68.4660 C   0  0  0  0  0  0  0  0  0  0  0  0
   20.2040   37.3070   67.9230 N   0  0  0  0  0  0  0  0  0  0  0  0
   20.5780   37.9780   66.8200 C   0  0  0  0  0  0  0  0  0  0  0  0
   19.6280   38.7570   66.2340 N   0  0  0  0  0  0  0  0  0  0  0  0
   18.3890   38.8380   66.7450 C   0  0  0  0  0  0  0  0  0  0  0  0
   18.0160   38.1450   67.8770 C   0  0  2  0  0  0  0  0  0  0  0  0
   16.7480   38.2150   68.4170 C   0  0  0  0  0  0  0  0  0  0  0  0
   15.9140   38.9500   67.8330 O   0  0  0  0  0  0  0  0  0  0  0  0
   21.8830   37.8950   66.2780 N   0  0  0  0  0  0  0  0  0  0  0  0
   22.6290   39.1170   66.0880 C   0  0  0  0  0  0  0  0  0  0  0  0
   24.0880   38.8660   66.4670 C   0  0  0  0  0  0  0  0  0  0  0  0
   24.5860   37.7130   65.8650 O   0  0  0  0  0  0  0  0  0  0  0  0
   23.9280   36.6360   66.4610 C   0  0  0  0  0  0  0  0  0  0  0  0
   22.5050   36.6460   65.9040 C   0  0  0  0  0  0  0  0  0  0  0  0
   16.4590   30.2570   71.5360 O   0  0  0  0  0  0  0  0  0  0  0  0
   16.0730   29.4070   72.5910 C   0  0  0  0  0  0  0  0  0  0  0  0
   17.8750   32.4740   71.5700 H   0  0  0  0  0  0  0  0  0  0  0  0
   17.0560   34.7510   71.4780 H   0  0  0  0  0  0  0  0  0  0  0  0
   13.0810   33.3370   71.2640 H   0  0  0  0  0  0  0  0  0  0  0  0
   13.9610   35.9340   72.1650 H   0  0  0  0  0  0  0  0  0  0  0  0
   14.5610   38.3510   69.4300 H   0  0  0  0  0  0  0  0  0  0  0  0
   15.1610   38.0250   71.0750 H   0  0  0  0  0  0  0  0  0  0  0  0
   17.1120   36.1920   70.9920 H   0  0  0  0  0  0  0  0  0  0  0  0
   17.6130   39.4600   66.2850 H   0  0  0  0  0  0  0  0  0  0  0  0
   22.6010   39.4620   65.0320 H   0  0  0  0  0  0  0  0  0  0  0  0
   22.2410   39.8700   66.7980 H   0  0  0  0  0  0  0  0  0  0  0  0
   24.6910   39.7140   66.0890 H   0  0  0  0  0  0  0  0  0  0  0  0
   24.1730   38.7290   67.5650 H   0  0  0  0  0  0  0  0  0  0  0  0
   23.8900   36.8080   67.5460 H   0  0  0  0  0  0  0  0  0  0  0  0
   24.4010   35.6710   66.2640 H   0  0  0  0  0  0  0  0  0  0  0  0
   22.5320   36.4970   64.8040 H   0  0  0  0  0  0  0  0  0  0  0  0
   21.9590   35.8340   66.4300 H   0  0  0  0  0  0  0  0  0  0  0  0
   14.9610   29.4360   72.6560 H   0  0  0  0  0  0  0  0  0  0  0  0
   16.4640   29.7260   73.5660 H   0  0  0  0  0  0  0  0  0  0  0  0
   16.3290   28.3580   72.3390 H   0  0  0  0  0  0  0  0  0  0  0  0
  1  2  1  0  0  0  0
  2  3  1  0  0  0  0
  3  4  2  0  0  0  0
  3 29  1  0  0  0  0
  4 31  1  0  0  0  0
  5 32  1  0  0  0  0
  5  4  1  0  0  0  0
  6  5  2  0  0  0  0
  7  6  1  0  0  0  0
  7  2  2  0  0  0  0
  8  6  1  0  0  0  0
  8 34  1  0  0  0  0
  9  8  1  0  0  0  0
 10  9  2  0  0  0  0
 11  9  1  0  0  0  0
 11 36  1  0  0  0  0
 12 11  1  0  0  0  0
 12 13  1  0  0  0  0
 13 37  1  0  0  0  0
 14 13  1  0  0  0  0
 15 14  2  0  0  0  0
 16 15  1  0  0  0  0
 17 16  2  0  0  0  0
 18 19  2  0  0  0  0
 18 17  1  0  0  0  0
 20 19  1  1  0  0  0
 20 21  1  0  0  0  0
 20 15  1  0  0  0  0
 21 12  1  0  0  0  0
 22 21  2  0  0  0  0
 23 17  1  0  0  0  0
 24 23  1  0  0  0  0
 24 25  1  0  0  0  0
 24 40  1  0  0  0  0
 25 42  1  0  0  0  0
 26 27  1  0  0  0  0
 26 25  1  0  0  0  0
 27 43  1  0  0  0  0
 28 23  1  0  0  0  0
 28 46  1  0  0  0  0
 28 27  1  0  0  0  0
 29 30  1  0  0  0  0
 30 47  1  0  0  0  0
 30 48  1  0  0  0  0
 33  7  1  0  0  0  0
 35 11  1  0  0  0  0
 38 19  1  0  0  0  0
 39 24  1  0  0  0  0
 41 25  1  0  0  0  0
 44 27  1  0  0  0  0
 45 28  1  0  0  0  0
 49 30  1  0  0  0  0
M  END
>  <Pose>
1

>  <Score>
-6.59

$$$$
