
 OpenBabel03212208413D

 38 41  0  0  0  0  0  0  0  0999 V2000
   12.4060   30.8650   74.4100 Cl  0  0  0  0  0  0  0  0  0  0  0  0
   13.7970   29.8450   74.0670 C   0  0  0  0  0  0  0  0  0  0  0  0
   14.7020   30.2010   73.0880 C   0  0  0  0  0  0  0  0  0  0  0  0
   15.7830   29.4100   72.8210 C   0  0  0  0  0  0  0  0  0  0  0  0
   15.9440   28.2540   73.5510 C   0  0  0  0  0  0  0  0  0  0  0  0
   15.0520   27.8790   74.5320 C   0  0  0  0  0  0  0  0  0  0  0  0
   13.9640   28.6860   74.7940 C   0  0  0  0  0  0  0  0  0  0  0  0
   16.7980   29.7240   71.7870 C   0  0  0  0  0  0  0  0  0  0  0  0
   16.5200   31.0560   71.3080 N   0  0  0  0  0  0  0  0  0  0  0  0
   15.1410   31.3630   71.0040 C   0  0  0  0  0  0  0  0  0  0  0  0
   14.4310   31.4740   72.3580 C   0  0  0  0  0  0  0  0  0  0  0  0
   17.5270   32.0340   71.1350 C   0  0  0  0  0  0  0  0  0  0  0  0
   18.5160   31.7850   70.3960 O   0  0  0  0  0  0  0  0  0  0  0  0
   17.4890   33.3650   71.7860 C   0  0  0  0  0  0  0  0  0  0  0  0
   17.4530   34.4050   70.8590 O   0  0  0  0  0  0  0  0  0  0  0  0
   16.3010   35.0990   70.5120 C   0  0  0  0  0  0  0  0  0  0  0  0
   15.2030   34.4110   70.1460 N   0  0  0  0  0  0  0  0  0  0  0  0
   14.0700   35.0170   69.8030 N   0  0  0  0  0  0  0  0  0  0  0  0
   13.9440   36.3500   69.7980 C   0  0  0  0  0  0  0  0  0  0  0  0
   12.6950   36.6750   69.4100 N   0  0  0  0  0  0  0  0  0  0  0  0
   12.0650   35.5480   69.1810 N   0  0  0  0  0  0  0  0  0  0  0  0
   12.8850   34.5100   69.4140 C   0  0  0  0  0  0  0  0  0  0  0  0
   15.0580   37.0940   70.1700 C   0  0  0  0  0  0  0  0  0  0  0  0
   16.2290   36.4700   70.5250 C   0  0  0  0  0  0  0  0  0  0  0  0
   16.7860   27.5870   73.3800 H   0  0  0  0  0  0  0  0  0  0  0  0
   15.2020   26.9520   75.1020 H   0  0  0  0  0  0  0  0  0  0  0  0
   13.2330   28.4440   75.5520 H   0  0  0  0  0  0  0  0  0  0  0  0
   16.7450   29.0470   70.9100 H   0  0  0  0  0  0  0  0  0  0  0  0
   17.8340   29.6850   72.1780 H   0  0  0  0  0  0  0  0  0  0  0  0
   15.0180   32.2950   70.4240 H   0  0  0  0  0  0  0  0  0  0  0  0
   14.6480   30.5390   70.4510 H   0  0  0  0  0  0  0  0  0  0  0  0
   13.3540   31.6070   72.2530 H   0  0  0  0  0  0  0  0  0  0  0  0
   14.8790   32.2870   72.9510 H   0  0  0  0  0  0  0  0  0  0  0  0
   18.3480   33.5400   72.4650 H   0  0  0  0  0  0  0  0  0  0  0  0
   16.5740   33.3990   72.4270 H   0  0  0  0  0  0  0  0  0  0  0  0
   12.6710   33.4390   69.3180 H   0  0  0  0  0  0  0  0  0  0  0  0
   14.9620   38.1540   70.1680 H   0  0  0  0  0  0  0  0  0  0  0  0
   17.1140   37.0150   70.8200 H   0  0  0  0  0  0  0  0  0  0  0  0
  2  1  1  0  0  0  0
  2  7  1  0  0  0  0
  3  2  2  0  0  0  0
  4  3  1  0  0  0  0
  4  5  2  0  0  0  0
  5  6  1  0  0  0  0
  6  7  2  0  0  0  0
  6 26  1  0  0  0  0
  7 27  1  0  0  0  0
  8 29  1  0  0  0  0
  8  4  1  0  0  0  0
  9  8  1  0  0  0  0
 10  9  1  0  0  0  0
 10 11  1  0  0  0  0
 11 33  1  0  0  0  0
 11  3  1  0  0  0  0
 12  9  1  0  0  0  0
 12 14  1  0  0  0  0
 13 12  2  0  0  0  0
 14 35  1  0  0  0  0
 14 34  1  0  0  0  0
 15 14  1  0  0  0  0
 16 24  1  0  0  0  0
 16 15  1  0  0  0  0
 17 16  2  0  0  0  0
 18 17  1  0  0  0  0
 19 18  1  0  0  0  0
 19 23  1  0  0  0  0
 20 19  2  0  0  0  0
 21 20  1  0  0  0  0
 21 22  2  0  0  0  0
 22 18  1  0  0  0  0
 23 24  2  0  0  0  0
 24 38  1  0  0  0  0
 25  5  1  0  0  0  0
 28  8  1  0  0  0  0
 30 10  1  0  0  0  0
 31 10  1  0  0  0  0
 32 11  1  0  0  0  0
 36 22  1  0  0  0  0
 37 23  1  0  0  0  0
M  END
>  <Pose>
1

>  <Score>
-6.19

$$$$
