
 OpenBabel03212208413D

 51 54  0  0  0  0  0  0  0  0999 V2000
    8.9630   31.1670   78.6170 B   0  0  0  0  0  0  0  0  0  0  0  0
   10.3970   30.2100   77.8010 C   0  0  0  0  0  0  0  0  0  0  0  0
   10.6470   30.3480   76.4680 C   0  0  0  0  0  0  0  0  0  0  0  0
   11.7040   29.6420   75.8720 C   0  0  0  0  0  0  0  0  0  0  0  0
   12.4680   28.8200   76.6540 C   0  0  0  0  0  0  0  0  0  0  0  0
   12.2040   28.6830   78.0260 C   0  0  0  0  0  0  0  0  0  0  0  0
   11.1670   29.3830   78.5870 C   0  0  0  0  0  0  0  0  0  0  0  0
   13.5200   28.1020   76.1210 O   0  0  0  0  0  0  0  0  0  0  0  0
   11.9550   29.8020   74.4480 C   0  0  0  0  0  0  0  0  0  0  0  0
   12.8130   30.7120   74.0410 N   0  0  0  0  0  0  0  0  0  0  0  0
   13.0250   30.8320   72.6670 N   0  0  0  0  0  0  0  0  0  0  0  0
   13.9820   31.7440   72.1470 C   0  0  0  0  0  0  0  0  0  0  0  0
   15.3000   31.4990   72.2120 N   0  0  0  0  0  4  0  0  0  0  0  0
   16.2520   32.3400   71.7280 C   0  0  0  0  0  0  0  0  0  0  0  0
   15.7760   33.4790   71.1570 N   0  0  0  0  0  0  0  0  0  0  0  0
   14.4710   33.7770   71.0630 C   0  0  0  0  0  0  0  0  0  0  0  0
   13.6030   32.9050   71.5590 N   0  0  0  0  0  0  0  0  0  0  0  0
   14.0470   34.9820   70.4550 N   0  0  0  0  0  0  0  0  0  0  0  0
   12.8560   35.0800   69.6360 C   0  0  0  0  0  0  0  0  0  0  0  0
   12.2710   36.4710   69.7480 C   0  0  0  0  0  0  0  0  0  0  0  0
   13.1500   37.4670   69.4150 O   0  0  0  0  0  0  0  0  0  0  0  0
   14.4750   37.0540   69.3720 C   0  0  0  0  0  0  0  0  0  0  0  0
   14.7960   36.2320   70.6170 C   0  0  0  0  0  0  0  0  0  0  0  0
   17.6270   32.0530   71.8130 N   0  0  0  0  0  0  0  0  0  0  0  0
   18.3780   31.7290   70.6380 C   0  0  0  0  0  0  0  0  0  0  0  0
   19.5720   32.6680   70.5970 C   0  0  0  0  0  0  0  0  0  0  0  0
   20.2930   32.4600   71.7820 O   0  0  0  0  0  0  0  0  0  0  0  0
   19.5670   32.9310   72.8760 C   0  0  0  0  0  0  0  0  0  0  0  0
   18.3080   32.0770   73.0720 C   0  0  0  0  0  0  0  0  0  0  0  0
   10.0560   30.9930   75.8260 H   0  0  0  0  0  0  0  0  0  0  0  0
   12.8280   28.0250   78.6160 H   0  0  0  0  0  0  0  0  0  0  0  0
   10.9370   29.2970   79.6530 H   0  0  0  0  0  0  0  0  0  0  0  0
   13.4450   27.4700   75.3500 H   0  0  0  0  0  0  0  0  0  0  0  0
   11.4590   29.1970   73.7120 H   0  0  0  0  0  0  0  0  0  0  0  0
   12.4580   30.2300   72.0380 H   0  0  0  0  0  0  0  0  0  0  0  0
   12.0950   34.3620   69.9940 H   0  0  0  0  0  0  0  0  0  0  0  0
   13.1470   34.9200   68.5850 H   0  0  0  0  0  0  0  0  0  0  0  0
   11.7880   36.6130   70.7370 H   0  0  0  0  0  0  0  0  0  0  0  0
   11.4290   36.5030   68.9960 H   0  0  0  0  0  0  0  0  0  0  0  0
   15.1380   37.9170   69.2670 H   0  0  0  0  0  0  0  0  0  0  0  0
   14.5770   36.3730   68.5000 H   0  0  0  0  0  0  0  0  0  0  0  0
   15.8610   36.0640   70.7440 H   0  0  0  0  0  0  0  0  0  0  0  0
   14.3140   36.7620   71.4680 H   0  0  0  0  0  0  0  0  0  0  0  0
   18.7860   30.7020   70.7320 H   0  0  0  0  0  0  0  0  0  0  0  0
   17.7460   31.8480   69.7330 H   0  0  0  0  0  0  0  0  0  0  0  0
   19.2650   33.7310   70.5590 H   0  0  0  0  0  0  0  0  0  0  0  0
   20.2360   32.4410   69.7400 H   0  0  0  0  0  0  0  0  0  0  0  0
   19.2170   33.9490   72.6060 H   0  0  0  0  0  0  0  0  0  0  0  0
   20.2000   32.9140   73.7700 H   0  0  0  0  0  0  0  0  0  0  0  0
   18.5740   31.0720   73.4510 H   0  0  0  0  0  0  0  0  0  0  0  0
   17.6760   32.5970   73.8270 H   0  0  0  0  0  0  0  0  0  0  0  0
  2  7  1  0  0  0  0
  2  1  1  0  0  0  0
  3  2  2  0  0  0  0
  4  3  1  0  0  0  0
  4  5  2  0  0  0  0
  5  6  1  0  0  0  0
  6  7  2  0  0  0  0
  6 31  1  0  0  0  0
  7 32  1  0  0  0  0
  8  5  1  0  0  0  0
  9  4  1  0  0  0  0
 10  9  2  0  0  0  0
 11 10  1  0  0  0  0
 12 13  2  0  0  0  0
 12 11  1  0  0  0  0
 14 24  1  0  0  0  0
 14 13  2  0  0  0  0
 15 14  1  0  0  0  0
 16 15  2  0  0  0  0
 16 17  1  0  0  0  0
 17 12  1  0  0  0  0
 18 23  1  0  0  0  0
 18 16  1  0  0  0  0
 19 20  1  0  0  0  0
 19 36  1  0  0  0  0
 19 18  1  0  0  0  0
 20 38  1  0  0  0  0
 21 20  1  0  0  0  0
 22 21  1  0  0  0  0
 22 23  1  0  0  0  0
 23 42  1  0  0  0  0
 23 43  1  0  0  0  0
 24 29  1  0  0  0  0
 25 44  1  0  0  0  0
 25 24  1  0  0  0  0
 26 25  1  0  0  0  0
 26 27  1  0  0  0  0
 27 28  1  0  0  0  0
 28 29  1  0  0  0  0
 28 49  1  0  0  0  0
 29 50  1  0  0  0  0
 29 51  1  0  0  0  0
 30  3  1  0  0  0  0
 33  8  1  0  0  0  0
 34  9  1  0  0  0  0
 35 11  1  0  0  0  0
 37 19  1  0  0  0  0
 39 20  1  0  0  0  0
 40 22  1  0  0  0  0
 41 22  1  0  0  0  0
 45 25  1  0  0  0  0
 46 26  1  0  0  0  0
 47 26  1  0  0  0  0
 48 28  1  0  0  0  0
M  END
>  <Pose>
1

>  <Score>
-6.86

$$$$
