
 OpenBabel03212208413D

 46 49  0  0  0  0  0  0  0  0999 V2000
   16.6280   27.9530   76.8820 Cl  0  0  0  0  0  0  0  0  0  0  0  0
   16.9960   28.5320   75.2690 C   0  0  0  0  0  0  0  0  0  0  0  0
   18.2710   28.8750   74.8690 C   0  0  0  0  0  0  0  0  0  0  0  0
   18.5650   29.3300   73.6040 C   0  0  0  0  0  0  0  0  0  0  0  0
   17.5560   29.4560   72.6770 C   0  0  0  0  0  0  0  0  0  0  0  0
   16.2710   29.1160   73.0610 C   0  0  0  0  0  0  0  0  0  0  0  0
   15.9900   28.6620   74.3330 C   0  0  0  0  0  0  0  0  0  0  0  0
   19.9460   29.6870   73.2150 C   0  0  0  0  0  0  0  0  0  0  0  0
   20.0820   31.0760   72.8450 N   0  0  0  0  0  0  0  0  0  0  0  0
   21.0340   32.0350   73.3300 C   0  0  0  0  0  0  0  0  0  0  0  0
   21.9370   31.7880   74.1950 O   0  0  0  0  0  0  0  0  0  0  0  0
   20.8010   33.2860   72.6890 N   0  0  0  0  0  0  0  0  0  0  0  0
   19.4360   33.2330   72.2150 C   0  0  0  0  0  0  0  0  0  0  0  0
   18.5430   33.5170   73.4080 C   0  0  0  0  0  0  0  0  0  0  0  0
   17.1510   33.0310   73.0190 C   0  0  0  0  0  0  0  0  0  0  0  0
   16.8000   33.5310   71.7030 N   0  0  0  0  0  0  0  0  0  0  0  0
   17.6710   34.4660   71.0390 C   0  0  0  0  0  0  0  0  0  0  0  0
   19.1270   34.1390   71.1010 C   0  0  0  0  0  0  0  0  0  0  0  0
   15.5990   33.1000   71.0820 C   0  0  0  0  0  0  0  0  0  0  0  0
   15.4460   31.8680   70.8020 O   0  0  0  0  0  0  0  0  0  0  0  0
   14.5090   33.9960   70.7370 C   0  0  0  0  0  0  0  0  0  0  0  0
   14.7060   35.1760   70.1160 N   0  0  0  0  0  0  0  0  0  0  0  0
   13.6500   35.9560   69.8260 C   0  0  0  0  0  0  0  0  0  0  0  0
   12.3560   35.5960   70.1390 C   0  0  0  0  0  0  0  0  0  0  0  0
   12.1560   34.4220   70.7570 N   0  0  0  0  0  0  0  0  0  0  0  0
   13.2210   33.6290   71.0520 C   0  0  0  0  0  0  0  0  0  0  0  0
   19.2840   31.7890   71.9040 C   0  0  0  0  0  0  0  0  0  0  0  0
   18.6030   31.2240   71.0060 O   0  0  0  0  0  0  0  0  0  0  0  0
   19.0500   28.7670   75.6140 H   0  0  0  0  0  0  0  0  0  0  0  0
   17.7220   29.8110   71.6560 H   0  0  0  0  0  0  0  0  0  0  0  0
   15.4760   29.2200   72.3180 H   0  0  0  0  0  0  0  0  0  0  0  0
   14.9830   28.3960   74.6330 H   0  0  0  0  0  0  0  0  0  0  0  0
   20.6150   29.3860   74.0340 H   0  0  0  0  0  0  0  0  0  0  0  0
   20.2660   29.0790   72.3210 H   0  0  0  0  0  0  0  0  0  0  0  0
   21.4680   34.0740   72.5830 H   0  0  0  0  0  0  0  0  0  0  0  0
   18.9420   32.9080   74.2450 H   0  0  0  0  0  0  0  0  0  0  0  0
   18.5410   34.5980   73.6490 H   0  0  0  0  0  0  0  0  0  0  0  0
   16.3980   33.3520   73.7330 H   0  0  0  0  0  0  0  0  0  0  0  0
   17.2050   31.9250   73.0300 H   0  0  0  0  0  0  0  0  0  0  0  0
   17.4330   35.4690   71.4580 H   0  0  0  0  0  0  0  0  0  0  0  0
   17.4120   34.5400   69.9440 H   0  0  0  0  0  0  0  0  0  0  0  0
   19.6530   35.1190   71.3130 H   0  0  0  0  0  0  0  0  0  0  0  0
   19.5450   33.8310   70.1180 H   0  0  0  0  0  0  0  0  0  0  0  0
   13.7980   36.9150   69.3240 H   0  0  0  0  0  0  0  0  0  0  0  0
   11.5490   36.2650   69.8810 H   0  0  0  0  0  0  0  0  0  0  0  0
   13.0130   32.6740   71.5590 H   0  0  0  0  0  0  0  0  0  0  0  0
  2  1  1  0  0  0  0
  3  2  1  0  0  0  0
  3 29  1  0  0  0  0
  4  3  2  0  0  0  0
  5  6  2  0  0  0  0
  5  4  1  0  0  0  0
  6  7  1  0  0  0  0
  7 32  1  0  0  0  0
  7  2  2  0  0  0  0
  8  4  1  0  0  0  0
  8 33  1  0  0  0  0
  9  8  1  0  0  0  0
  9 10  1  0  0  0  0
 10 11  2  0  0  0  0
 12 10  1  0  0  0  0
 13 12  1  0  0  0  0
 13 14  1  0  0  0  0
 14 37  1  0  0  0  0
 14 36  1  0  0  0  0
 15 39  1  0  0  0  0
 15 14  1  0  0  0  0
 15 38  1  0  0  0  0
 16 15  1  0  0  0  0
 17 18  1  0  0  0  0
 17 40  1  0  0  0  0
 17 16  1  0  0  0  0
 18 42  1  0  0  0  0
 18 13  1  0  0  0  0
 19 16  1  0  0  0  0
 20 19  2  0  0  0  0
 21 26  1  0  0  0  0
 21 19  1  0  0  0  0
 22 21  2  0  0  0  0
 23 22  1  0  0  0  0
 23 24  2  0  0  0  0
 24 25  1  0  0  0  0
 25 26  2  0  0  0  0
 26 46  1  0  0  0  0
 27 13  1  0  0  0  0
 27  9  1  0  0  0  0
 28 27  2  0  0  0  0
 30  5  1  0  0  0  0
 31  6  1  0  0  0  0
 34  8  1  0  0  0  0
 35 12  1  0  0  0  0
 41 17  1  0  0  0  0
 43 18  1  0  0  0  0
 44 23  1  0  0  0  0
 45 24  1  0  0  0  0
M  END
>  <Pose>
1

>  <Score>
-7.03

$$$$
