
 OpenBabel03212208413D

 50 53  0  0  1  0  0  0  0  0999 V2000
   21.9660   33.4190   69.0300 Cl  0  0  0  0  0  0  0  0  0  0  0  0
   20.6320   33.6240   70.1500 C   0  0  0  0  0  0  0  0  0  0  0  0
   20.7730   34.3340   71.3340 C   0  0  0  0  0  0  0  0  0  0  0  0
   19.6640   34.4540   72.1690 C   0  0  0  0  0  0  0  0  0  0  0  0
   18.4530   33.8940   71.8550 C   0  0  0  0  0  0  0  0  0  0  0  0
   18.3080   33.1850   70.6750 C   0  0  0  0  0  0  0  0  0  0  0  0
   19.4050   33.0660   69.8470 C   0  0  0  0  0  0  0  0  0  0  0  0
   17.3170   34.0680   72.7560 C   0  0  2  0  0  0  0  0  0  0  0  0
   16.1440   33.3180   72.5250 N   0  0  0  0  0  4  0  0  0  0  0  0
   15.2690   34.0180   71.6830 C   0  0  0  0  0  0  0  0  0  0  0  0
   14.0600   33.9550   71.1810 C   0  0  0  0  0  0  0  0  0  0  0  0
   13.5450   34.9930   70.2810 C   0  0  0  0  0  0  0  0  0  0  0  0
   14.4580   35.9320   69.6410 C   0  0  0  0  0  0  0  0  0  0  0  0
   15.8980   35.8340   70.0770 C   0  0  0  0  0  0  0  0  0  0  0  0
   16.0110   35.2270   71.3550 N   0  0  0  0  0  0  0  0  0  0  0  0
   16.7420   35.4850   72.5890 C   0  0  2  0  0  0  0  0  0  0  0  0
   17.7300   36.5590   72.4040 C   0  0  0  0  0  0  0  0  0  0  0  0
   16.2500   31.9310   72.4980 C   0  0  0  0  0  0  0  0  0  0  0  0
   17.4250   31.3780   72.9780 C   0  0  0  0  0  0  0  0  0  0  0  0
   17.6600   30.0240   72.9960 C   0  0  0  0  0  0  0  0  0  0  0  0
   16.7160   29.1050   72.5260 C   0  0  0  0  0  0  0  0  0  0  0  0
   15.5620   29.6810   72.0560 C   0  0  0  0  0  0  0  0  0  0  0  0
   15.3340   31.0350   72.0410 C   0  0  0  0  0  0  0  0  0  0  0  0
   16.9610   27.7460   72.5530 O   0  0  0  0  0  0  0  0  0  0  0  0
   16.3180   26.9440   73.5110 C   0  0  0  0  0  0  0  0  0  0  0  0
   17.6800   33.9750   74.0800 O   0  0  0  0  0  0  0  0  0  0  0  0
   21.7200   34.7760   71.5850 H   0  0  0  0  0  0  0  0  0  0  0  0
   19.8760   35.0310   73.0660 H   0  0  0  0  0  0  0  0  0  0  0  0
   17.3410   32.7670   70.4510 H   0  0  0  0  0  0  0  0  0  0  0  0
   19.2370   32.5000   68.9410 H   0  0  0  0  0  0  0  0  0  0  0  0
   15.6080   33.4470   73.4980 H   0  0  0  0  0  0  0  0  0  0  0  0
   13.3820   33.1180   71.4520 H   0  0  0  0  0  0  0  0  0  0  0  0
   12.7350   35.5420   70.8390 H   0  0  0  0  0  0  0  0  0  0  0  0
   12.9710   34.4230   69.4790 H   0  0  0  0  0  0  0  0  0  0  0  0
   14.0730   36.9940   69.7860 H   0  0  0  0  0  0  0  0  0  0  0  0
   14.4450   35.7950   68.5310 H   0  0  0  0  0  0  0  0  0  0  0  0
   16.2970   36.8640   70.1290 H   0  0  0  0  0  0  0  0  0  0  0  0
   16.5150   35.3280   69.3070 H   0  0  0  0  0  0  0  0  0  0  0  0
   16.0490   35.7200   73.3860 H   0  0  0  0  0  0  0  0  0  0  0  0
   18.3480   36.6870   73.3090 H   0  0  0  0  0  0  0  0  0  0  0  0
   18.2610   36.6000   71.4490 H   0  0  0  0  0  0  0  0  0  0  0  0
   17.1060   37.5080   72.4100 H   0  0  0  0  0  0  0  0  0  0  0  0
   18.2450   31.9910   73.3940 H   0  0  0  0  0  0  0  0  0  0  0  0
   18.5880   29.5880   73.3710 H   0  0  0  0  0  0  0  0  0  0  0  0
   14.7940   28.9880   71.6750 H   0  0  0  0  0  0  0  0  0  0  0  0
   14.4000   31.3380   71.6460 H   0  0  0  0  0  0  0  0  0  0  0  0
   15.2790   26.6580   73.1900 H   0  0  0  0  0  0  0  0  0  0  0  0
   16.2230   27.3920   74.5070 H   0  0  0  0  0  0  0  0  0  0  0  0
   16.8450   25.9560   73.6420 H   0  0  0  0  0  0  0  0  0  0  0  0
   18.4220   34.5340   74.3760 H   0  0  0  0  0  0  0  0  0  0  0  0
  1  2  1  0  0  0  0
  2  3  1  0  0  0  0
  3 27  1  0  0  0  0
  3  4  2  0  0  0  0
  4 28  1  0  0  0  0
  5  4  1  0  0  0  0
  5  8  1  0  0  0  0
  6  5  2  0  0  0  0
  7  2  2  0  0  0  0
  7  6  1  0  0  0  0
  8 26  1  1  0  0  0
  9  8  1  0  0  0  0
  9 31  1  0  0  0  0
 10  9  1  0  0  0  0
 11 32  1  0  0  0  0
 11 10  2  0  0  0  0
 12 33  1  0  0  0  0
 12 11  1  0  0  0  0
 13 35  1  0  0  0  0
 13 14  1  0  0  0  0
 13 12  1  0  0  0  0
 14 37  1  0  0  0  0
 14 15  1  0  0  0  0
 15 10  1  0  0  0  0
 15 16  1  0  0  0  0
 16  8  1  0  0  0  0
 16 39  1  1  0  0  0
 17 42  1  0  0  0  0
 17 16  1  0  0  0  0
 17 40  1  0  0  0  0
 18  9  1  0  0  0  0
 18 19  1  0  0  0  0
 19 20  2  0  0  0  0
 19 43  1  0  0  0  0
 20 44  1  0  0  0  0
 21 24  1  0  0  0  0
 21 20  1  0  0  0  0
 22 21  2  0  0  0  0
 23 22  1  0  0  0  0
 23 18  2  0  0  0  0
 24 25  1  0  0  0  0
 25 49  1  0  0  0  0
 25 48  1  0  0  0  0
 26 50  1  0  0  0  0
 29  6  1  0  0  0  0
 30  7  1  0  0  0  0
 34 12  1  0  0  0  0
 36 13  1  0  0  0  0
 38 14  1  0  0  0  0
 41 17  1  0  0  0  0
 45 22  1  0  0  0  0
 46 23  1  0  0  0  0
 47 25  1  0  0  0  0
M  END
>  <Pose>
1

>  <Score>
-4.53

$$$$
