
 OpenBabel03212208413D

 37 40  0  0  0  0  0  0  0  0999 V2000
   16.5730   38.2020   69.2840 Cl  0  0  0  0  0  0  0  0  0  0  0  0
   16.0560   36.6820   70.0100 C   0  0  0  0  0  0  0  0  0  0  0  0
   16.9720   35.7150   70.3660 C   0  0  0  0  0  0  0  0  0  0  0  0
   16.5690   34.5220   70.9360 C   0  0  0  0  0  0  0  0  0  0  0  0
   15.2400   34.2440   71.1740 C   0  0  0  0  0  0  0  0  0  0  0  0
   14.3290   35.2200   70.8130 C   0  0  0  0  0  0  0  0  0  0  0  0
   14.7230   36.4150   70.2430 C   0  0  0  0  0  0  0  0  0  0  0  0
   14.8330   33.0100   71.7620 N   0  0  0  0  0  0  0  0  0  0  0  0
   15.5740   32.1800   72.5300 C   0  0  0  0  0  0  0  0  0  0  0  0
   16.7650   32.3910   72.8420 O   0  0  0  0  0  0  0  0  0  0  0  0
   14.8370   31.0740   72.9200 C   0  0  0  0  0  0  0  0  0  0  0  0
   13.6210   31.2360   72.3770 C   0  0  0  0  0  0  0  0  0  0  0  0
   12.9140   30.1590   72.7630 N   0  0  0  0  0  0  0  0  0  0  0  0
   13.6700   29.3760   73.5090 N   0  0  0  0  0  0  0  0  0  0  0  0
   14.8610   29.9260   73.6160 N   0  0  0  0  0  0  0  0  0  0  0  0
   15.9990   29.4070   74.3380 C   0  0  0  0  0  0  0  0  0  0  0  0
   16.4200   28.0590   73.8980 C   0  0  0  0  0  0  0  0  0  0  0  0
   17.6150   27.9020   73.2400 C   0  0  0  0  0  0  0  0  0  0  0  0
   17.9850   26.6400   72.8360 C   0  0  0  0  0  0  0  0  0  0  0  0
   17.1840   25.5390   73.0780 C   0  0  0  0  0  0  0  0  0  0  0  0
   15.9850   25.6960   73.7370 C   0  0  0  0  0  0  0  0  0  0  0  0
   15.6320   26.9560   74.1320 C   0  0  0  0  0  0  0  0  0  0  0  0
   13.6330   32.4210   71.6730 C   0  0  0  0  0  0  0  0  0  0  0  0
   12.6500   32.8860   71.0340 O   0  0  0  0  0  0  0  0  0  0  0  0
   18.0130   35.9440   70.1750 H   0  0  0  0  0  0  0  0  0  0  0  0
   17.2950   33.7640   71.2150 H   0  0  0  0  0  0  0  0  0  0  0  0
   13.2880   35.0240   70.9890 H   0  0  0  0  0  0  0  0  0  0  0  0
   13.9960   37.1870   69.9580 H   0  0  0  0  0  0  0  0  0  0  0  0
   11.9230   29.9440   72.5280 H   0  0  0  0  0  0  0  0  0  0  0  0
   13.3770   28.4560   73.9530 H   0  0  0  0  0  0  0  0  0  0  0  0
   16.8680   30.1070   74.1970 H   0  0  0  0  0  0  0  0  0  0  0  0
   15.8130   29.4150   75.4470 H   0  0  0  0  0  0  0  0  0  0  0  0
   18.2770   28.7560   73.0310 H   0  0  0  0  0  0  0  0  0  0  0  0
   18.9420   26.5230   72.3110 H   0  0  0  0  0  0  0  0  0  0  0  0
   17.4690   24.5290   72.7610 H   0  0  0  0  0  0  0  0  0  0  0  0
   15.3410   24.8580   73.9400 H   0  0  0  0  0  0  0  0  0  0  0  0
   14.6700   27.0470   74.6540 H   0  0  0  0  0  0  0  0  0  0  0  0
  1  2  1  0  0  0  0
  2  7  2  0  0  0  0
  2  3  1  0  0  0  0
  3  4  2  0  0  0  0
  4  5  1  0  0  0  0
  4 26  1  0  0  0  0
  5  8  1  0  0  0  0
  6 27  1  0  0  0  0
  6  5  2  0  0  0  0
  7  6  1  0  0  0  0
  8  9  1  0  0  0  0
  9 10  2  0  0  0  0
  9 11  1  0  0  0  0
 11 15  1  0  0  0  0
 12 13  1  0  0  0  0
 12 11  2  0  0  0  0
 13 14  1  0  0  0  0
 14 15  1  0  0  0  0
 14 30  1  0  0  0  0
 15 16  1  0  0  0  0
 16 32  1  0  0  0  0
 17 22  1  0  0  0  0
 17 16  1  0  0  0  0
 18 17  2  0  0  0  0
 19 20  2  0  0  0  0
 19 18  1  0  0  0  0
 20 21  1  0  0  0  0
 21 36  1  0  0  0  0
 21 22  2  0  0  0  0
 22 37  1  0  0  0  0
 23  8  1  0  0  0  0
 23 12  1  0  0  0  0
 24 23  2  0  0  0  0
 25  3  1  0  0  0  0
 28  7  1  0  0  0  0
 29 13  1  0  0  0  0
 31 16  1  0  0  0  0
 33 18  1  0  0  0  0
 34 19  1  0  0  0  0
 35 20  1  0  0  0  0
M  END
>  <Pose>
1

>  <Score>
-6.81

$$$$
