
 OpenBabel03212208413D

 39 42  0  0  0  0  0  0  0  0999 V2000
   24.5690   35.1730   66.0860 Cl  0  0  0  0  0  0  0  0  0  0  0  0
   23.2850   34.6720   67.1740 C   0  0  0  0  0  0  0  0  0  0  0  0
   23.4110   33.5420   67.9600 C   0  0  0  0  0  0  0  0  0  0  0  0
   22.3890   33.1640   68.8090 C   0  0  0  0  0  0  0  0  0  0  0  0
   21.2190   33.8790   68.9120 C   0  0  0  0  0  0  0  0  0  0  0  0
   21.0870   35.0080   68.1290 C   0  0  0  0  0  0  0  0  0  0  0  0
   22.1060   35.3970   67.2740 C   0  0  0  0  0  0  0  0  0  0  0  0
   20.1480   33.4710   69.8100 C   0  0  0  0  0  0  0  0  0  0  0  0
   19.6340   32.2350   69.9020 N   0  0  0  0  0  0  0  0  0  0  0  0
   18.6940   32.2050   70.7980 O   0  0  0  0  0  0  0  0  0  0  0  0
   18.5610   33.4020   71.3150 C   0  0  0  0  0  0  0  0  0  0  0  0
   19.4700   34.2070   70.7020 N   0  0  0  0  0  0  0  0  0  0  0  0
   17.5880   33.7550   72.3670 C   0  0  0  0  0  0  0  0  0  0  0  0
   16.2300   33.7150   71.8220 N   0  0  0  0  0  0  0  0  0  0  0  0
   15.6910   34.8600   71.3530 C   0  0  0  0  0  0  0  0  0  0  0  0
   14.4230   34.8780   70.8310 C   0  0  0  0  0  0  0  0  0  0  0  0
   13.6480   33.6330   70.7880 C   0  0  0  0  0  0  0  0  0  0  0  0
   12.4560   33.9430   70.2340 N   0  0  0  0  0  0  0  0  0  0  0  0
   12.4300   35.2270   69.9420 N   0  0  0  0  0  0  0  0  0  0  0  0
   13.5770   35.8370   70.2770 C   0  0  0  0  0  0  0  0  0  0  0  0
   13.8750   37.0470   70.1330 O   0  0  0  0  0  0  0  0  0  0  0  0
   14.2400   32.4890   71.2790 C   0  0  0  0  0  0  0  0  0  0  0  0
   15.5100   32.5960   71.7740 C   0  0  0  0  0  0  0  0  0  0  0  0
   13.4990   31.2280   71.2520 C   0  0  0  0  0  0  0  0  0  0  0  0
   13.2400   30.6680   70.1780 O   0  0  0  0  0  0  0  0  0  0  0  0
   13.0660   30.6290   72.4230 O   0  0  0  0  0  0  0  0  0  0  0  0
   13.9300   30.0270   73.3580 C   0  0  0  0  0  0  0  0  0  0  0  0
   24.3310   32.9600   67.8940 H   0  0  0  0  0  0  0  0  0  0  0  0
   22.4920   32.2790   69.4230 H   0  0  0  0  0  0  0  0  0  0  0  0
   20.1650   35.5770   68.2060 H   0  0  0  0  0  0  0  0  0  0  0  0
   22.0080   36.2780   66.6610 H   0  0  0  0  0  0  0  0  0  0  0  0
   17.6390   32.9890   73.1590 H   0  0  0  0  0  0  0  0  0  0  0  0
   17.7670   34.7830   72.7650 H   0  0  0  0  0  0  0  0  0  0  0  0
   16.2570   35.7780   71.3810 H   0  0  0  0  0  0  0  0  0  0  0  0
   11.6200   35.7060   69.5080 H   0  0  0  0  0  0  0  0  0  0  0  0
   15.9640   31.6820   72.1590 H   0  0  0  0  0  0  0  0  0  0  0  0
   14.9750   29.9920   73.0230 H   0  0  0  0  0  0  0  0  0  0  0  0
   13.9230   30.5850   74.3390 H   0  0  0  0  0  0  0  0  0  0  0  0
   13.5030   29.0320   73.5990 H   0  0  0  0  0  0  0  0  0  0  0  0
  1  2  1  0  0  0  0
  2  7  2  0  0  0  0
  2  3  1  0  0  0  0
  3  4  2  0  0  0  0
  4  5  1  0  0  0  0
  4 29  1  0  0  0  0
  5  8  1  0  0  0  0
  6 30  1  0  0  0  0
  6  5  2  0  0  0  0
  7  6  1  0  0  0  0
  8  9  2  0  0  0  0
  8 12  1  0  0  0  0
  9 10  1  0  0  0  0
 10 11  1  0  0  0  0
 11 13  1  0  0  0  0
 12 11  2  0  0  0  0
 13 33  1  0  0  0  0
 13 32  1  0  0  0  0
 14 13  1  0  0  0  0
 15 34  1  0  0  0  0
 15 14  1  0  0  0  0
 16 15  1  0  0  0  0
 17 16  2  0  0  0  0
 17 22  1  0  0  0  0
 18 17  1  0  0  0  0
 19 18  1  0  0  0  0
 19 20  1  0  0  0  0
 20 16  1  0  0  0  0
 21 20  2  0  0  0  0
 22 23  2  0  0  0  0
 23 14  1  0  0  0  0
 23 36  1  0  0  0  0
 24 22  1  0  0  0  0
 24 26  1  0  0  0  0
 25 24  2  0  0  0  0
 26 27  1  0  0  0  0
 27 39  1  0  0  0  0
 27 38  1  0  0  0  0
 28  3  1  0  0  0  0
 31  7  1  0  0  0  0
 35 19  1  0  0  0  0
 37 27  1  0  0  0  0
M  END
>  <Pose>
1

>  <Score>
-7.15

$$$$
