
 OpenBabel03212208413D

 58 61  0  0  1  0  0  0  0  0999 V2000
   22.1920   37.0360   69.3200 Cl  0  0  0  0  0  0  0  0  0  0  0  0
   20.8040   36.2860   70.0930 C   0  0  0  0  0  0  0  0  0  0  0  0
   19.5100   36.5520   69.7250 C   0  0  0  0  0  0  0  0  0  0  0  0
   18.4210   35.9550   70.3400 C   0  0  0  0  0  0  0  0  0  0  0  0
   17.0860   36.0170   70.2010 N   0  0  0  0  0  0  0  0  0  0  0  0
   16.4710   35.2080   71.0800 C   0  0  0  0  0  0  0  0  0  0  0  0
   17.4800   34.6250   71.7900 N   0  0  0  0  0  0  0  0  0  0  0  0
   18.6700   35.0610   71.3600 C   0  0  0  0  0  0  0  0  0  0  0  0
   19.9560   34.7650   71.7620 C   0  0  0  0  0  0  0  0  0  0  0  0
   21.0190   35.3880   71.1170 C   0  0  0  0  0  0  0  0  0  0  0  0
   17.2190   33.6640   72.8590 C   0  0  0  0  0  0  0  0  0  0  0  0
   15.0200   34.9660   71.2770 C   0  0  0  0  0  0  0  0  0  0  0  0
   14.4170   34.0490   70.2630 C   0  0  0  0  0  0  0  0  0  0  0  0
   13.6340   32.9390   70.8570 C   0  0  0  0  0  0  0  0  0  0  0  0
   12.3900   33.0760   70.9910 O   0  0  0  0  0  0  0  0  0  0  0  0
   14.2500   31.7450   71.2720 N   0  0  0  0  0  0  0  0  0  0  0  0
   13.5350   30.7100   72.0200 C   0  0  0  0  0  0  0  0  0  0  0  0
   14.2090   30.6580   73.3770 C   0  0  2  0  0  0  0  0  0  0  0  0
   15.6930   30.4160   73.2340 C   0  0  1  0  0  0  0  0  0  0  0  0
   16.0590   30.2010   71.7610 C   0  0  0  0  0  0  0  0  0  0  0  0
   15.6430   31.4420   70.9910 C   0  0  0  0  0  0  0  0  0  0  0  0
   16.4550   31.5460   73.6190 O   0  0  0  0  0  0  0  0  0  0  0  0
   16.2020   29.2730   74.0590 C   0  0  0  0  0  0  0  0  0  0  0  0
   13.5600   29.8240   74.3270 N   0  0  0  0  0  0  0  0  0  0  0  0
   14.0940   28.6280   74.7120 C   0  0  0  0  0  0  0  0  0  0  0  0
   13.4650   27.8170   75.6330 C   0  0  0  0  0  0  0  0  0  0  0  0
   12.2680   28.2170   76.1830 C   0  0  0  0  0  0  0  0  0  0  0  0
   11.6530   27.4950   77.0390 O   0  0  0  0  0  0  0  0  0  0  0  0
   11.7480   29.3960   75.7980 N   0  0  0  0  0  0  0  0  0  0  0  0
   12.4070   30.1640   74.8830 C   0  0  0  0  0  0  0  0  0  0  0  0
   11.8750   31.2510   74.5640 O   0  0  0  0  0  0  0  0  0  0  0  0
   14.0190   26.5130   76.0730 C   0  0  0  0  0  0  0  0  0  0  0  0
   19.3300   37.2560   68.9210 H   0  0  0  0  0  0  0  0  0  0  0  0
   20.1480   34.0640   72.5620 H   0  0  0  0  0  0  0  0  0  0  0  0
   22.0260   35.1620   71.4250 H   0  0  0  0  0  0  0  0  0  0  0  0
   16.8440   32.6890   72.4380 H   0  0  0  0  0  0  0  0  0  0  0  0
   16.4080   34.0230   73.5320 H   0  0  0  0  0  0  0  0  0  0  0  0
   18.1680   33.4800   73.4160 H   0  0  0  0  0  0  0  0  0  0  0  0
   14.4520   35.9280   71.3520 H   0  0  0  0  0  0  0  0  0  0  0  0
   14.9060   34.4840   72.2710 H   0  0  0  0  0  0  0  0  0  0  0  0
   13.7350   34.6630   69.6070 H   0  0  0  0  0  0  0  0  0  0  0  0
   15.2400   33.6720   69.6200 H   0  0  0  0  0  0  0  0  0  0  0  0
   13.6730   29.7870   71.4210 H   0  0  0  0  0  0  0  0  0  0  0  0
   12.4720   30.9690   72.1660 H   0  0  0  0  0  0  0  0  0  0  0  0
   14.1150   31.7240   73.7530 H   0  0  0  0  0  0  0  0  0  0  0  0
   17.1640   30.1420   71.7010 H   0  0  0  0  0  0  0  0  0  0  0  0
   15.6470   29.2770   71.3580 H   0  0  0  0  0  0  0  0  0  0  0  0
   15.7170   31.2250   69.9050 H   0  0  0  0  0  0  0  0  0  0  0  0
   16.3160   32.2740   71.2460 H   0  0  0  0  0  0  0  0  0  0  0  0
   16.6710   31.4110   74.5750 H   0  0  0  0  0  0  0  0  0  0  0  0
   17.2300   29.4830   74.4750 H   0  0  0  0  0  0  0  0  0  0  0  0
   16.3440   28.3320   73.4570 H   0  0  0  0  0  0  0  0  0  0  0  0
   15.5650   29.0540   74.9240 H   0  0  0  0  0  0  0  0  0  0  0  0
   15.0510   28.3100   74.2720 H   0  0  0  0  0  0  0  0  0  0  0  0
   10.8470   29.7010   76.2100 H   0  0  0  0  0  0  0  0  0  0  0  0
   14.6530   26.7310   76.9680 H   0  0  0  0  0  0  0  0  0  0  0  0
   13.2150   25.8310   76.4210 H   0  0  0  0  0  0  0  0  0  0  0  0
   14.6130   26.0510   75.2570 H   0  0  0  0  0  0  0  0  0  0  0  0
  1  2  1  0  0  0  0
  2 10  1  0  0  0  0
  3  2  2  0  0  0  0
  3  4  1  0  0  0  0
  4  8  2  0  0  0  0
  5  4  1  0  0  0  0
  5  6  2  0  0  0  0
  6 12  1  0  0  0  0
  6  7  1  0  0  0  0
  7 11  1  0  0  0  0
  8  9  1  0  0  0  0
  8  7  1  0  0  0  0
  9 34  1  0  0  0  0
 10 35  1  0  0  0  0
 10  9  2  0  0  0  0
 11 38  1  0  0  0  0
 11 37  1  0  0  0  0
 12 39  1  0  0  0  0
 12 40  1  0  0  0  0
 13 14  1  0  0  0  0
 13 12  1  0  0  0  0
 14 15  2  0  0  0  0
 14 16  1  0  0  0  0
 16 17  1  0  0  0  0
 17 44  1  0  0  0  0
 17 18  1  0  0  0  0
 18 45  1  1  0  0  0
 18 24  1  0  0  0  0
 19 18  1  0  0  0  0
 19 22  1  1  0  0  0
 19 23  1  0  0  0  0
 20 19  1  0  0  0  0
 21 49  1  0  0  0  0
 21 16  1  0  0  0  0
 21 20  1  0  0  0  0
 22 50  1  0  0  0  0
 23 51  1  0  0  0  0
 23 53  1  0  0  0  0
 24 25  1  0  0  0  0
 24 30  1  0  0  0  0
 25 26  2  0  0  0  0
 26 32  1  0  0  0  0
 26 27  1  0  0  0  0
 27 28  2  0  0  0  0
 29 27  1  0  0  0  0
 29 55  1  0  0  0  0
 30 29  1  0  0  0  0
 31 30  2  0  0  0  0
 32 57  1  0  0  0  0
 32 56  1  0  0  0  0
 33  3  1  0  0  0  0
 36 11  1  0  0  0  0
 41 13  1  0  0  0  0
 42 13  1  0  0  0  0
 43 17  1  0  0  0  0
 46 20  1  0  0  0  0
 47 20  1  0  0  0  0
 48 21  1  0  0  0  0
 52 23  1  0  0  0  0
 54 25  1  0  0  0  0
 58 32  1  0  0  0  0
M  END
>  <Pose>
1

>  <Score>
-6.50

$$$$
