
 OpenBabel03212208413D

 54 57  0  0  1  0  0  0  0  0999 V2000
   23.9230   33.0860   68.8980 Cl  0  0  0  0  0  0  0  0  0  0  0  0
   23.8160   34.3090   67.6550 C   0  0  0  0  0  0  0  0  0  0  0  0
   23.0340   35.4310   67.9010 C   0  0  0  0  0  0  0  0  0  0  0  0
   23.0190   36.3910   66.9230 C   0  0  0  0  0  0  0  0  0  0  0  0
   23.7420   36.2330   65.7470 C   0  0  0  0  0  0  0  0  0  0  0  0
   24.5360   35.0960   65.4940 C   0  0  0  0  0  0  0  0  0  0  0  0
   24.5320   34.1630   66.5120 C   0  0  0  0  0  0  0  0  0  0  0  0
   22.1520   35.4220   69.0970 C   0  0  0  0  0  0  0  0  0  0  0  0
   22.1190   34.1640   69.7520 N   0  0  0  0  0  0  0  0  0  0  0  0
   21.0250   33.3080   69.8920 C   0  0  0  0  0  0  0  0  0  0  0  0
   20.0680   33.3450   69.1630 O   0  0  0  0  0  0  0  0  0  0  0  0
   21.0770   32.2730   71.0210 C   0  0  0  0  0  0  0  0  0  0  0  0
   19.8820   32.4590   71.8090 N   0  0  0  0  0  0  0  0  0  0  0  0
   19.1260   31.4030   72.3010 C   0  0  0  0  0  0  0  0  0  0  0  0
   18.1070   32.0100   73.3570 C   0  0  0  0  0  0  0  0  0  0  0  0
   17.9280   33.3330   72.8220 N   0  0  0  0  0  0  0  0  0  0  0  0
   19.0450   34.2280   73.2420 C   0  0  0  0  0  0  0  0  0  0  0  0
   20.2560   33.3960   72.9260 C   0  0  0  0  0  0  0  0  0  0  0  0
   16.8490   33.7570   72.1050 C   0  0  0  0  0  0  0  0  0  0  0  0
   15.8260   34.1600   72.7570 O   0  0  0  0  0  0  0  0  0  0  0  0
   16.6890   33.7930   70.6170 C   0  0  1  0  0  0  0  0  0  0  0  0
   16.6980   32.3810   70.2260 O   0  0  0  0  0  0  0  0  0  0  0  0
   16.0360   31.5920   71.2110 C   0  0  0  0  0  0  0  0  0  0  0  0
   14.9660   32.1560   71.8550 C   0  0  0  0  0  0  0  0  0  0  0  0
   14.2620   31.4670   72.8360 C   0  0  0  0  0  0  0  0  0  0  0  0
   14.7030   30.1800   73.1230 C   0  0  0  0  0  0  0  0  0  0  0  0
   15.7690   29.5800   72.4900 C   0  0  0  0  0  0  0  0  0  0  0  0
   16.4400   30.2970   71.5190 C   0  0  0  0  0  0  0  0  0  0  0  0
   14.5740   33.4550   71.5150 O   0  0  0  0  0  0  0  0  0  0  0  0
   15.1940   34.1600   70.4100 C   0  0  0  0  0  0  0  0  0  0  0  0
   22.4430   37.2990   67.0060 H   0  0  0  0  0  0  0  0  0  0  0  0
   23.7490   36.9570   64.9370 H   0  0  0  0  0  0  0  0  0  0  0  0
   25.0880   35.0020   64.5730 H   0  0  0  0  0  0  0  0  0  0  0  0
   25.1570   33.3060   66.3560 H   0  0  0  0  0  0  0  0  0  0  0  0
   22.6750   36.1680   69.8030 H   0  0  0  0  0  0  0  0  0  0  0  0
   21.1570   35.7710   68.8120 H   0  0  0  0  0  0  0  0  0  0  0  0
   23.0080   33.8440   70.2790 H   0  0  0  0  0  0  0  0  0  0  0  0
   21.0930   31.2530   70.6170 H   0  0  0  0  0  0  0  0  0  0  0  0
   21.9670   32.4890   71.6230 H   0  0  0  0  0  0  0  0  0  0  0  0
   19.5870   30.5680   72.7920 H   0  0  0  0  0  0  0  0  0  0  0  0
   18.3900   31.0850   71.4960 H   0  0  0  0  0  0  0  0  0  0  0  0
   18.6330   32.0340   74.3220 H   0  0  0  0  0  0  0  0  0  0  0  0
   17.1860   31.4410   73.3620 H   0  0  0  0  0  0  0  0  0  0  0  0
   18.9680   34.2660   74.3440 H   0  0  0  0  0  0  0  0  0  0  0  0
   18.9920   35.2030   72.8070 H   0  0  0  0  0  0  0  0  0  0  0  0
   20.5010   32.7170   73.7600 H   0  0  0  0  0  0  0  0  0  0  0  0
   21.1460   33.9210   72.6050 H   0  0  0  0  0  0  0  0  0  0  0  0
   17.3740   34.3970   70.0800 H   0  0  0  0  0  0  0  0  0  0  0  0
   13.4180   31.9480   73.3480 H   0  0  0  0  0  0  0  0  0  0  0  0
   14.1660   29.6500   73.9000 H   0  0  0  0  0  0  0  0  0  0  0  0
   16.0920   28.5580   72.7620 H   0  0  0  0  0  0  0  0  0  0  0  0
   17.2850   29.8790   70.9870 H   0  0  0  0  0  0  0  0  0  0  0  0
   15.1430   35.2420   70.7030 H   0  0  0  0  0  0  0  0  0  0  0  0
   14.8200   33.9040   69.4440 H   0  0  0  0  0  0  0  0  0  0  0  0
  2  3  1  0  0  0  0
  2  1  1  0  0  0  0
  3  8  1  0  0  0  0
  4 31  1  0  0  0  0
  4  3  2  0  0  0  0
  5  4  1  0  0  0  0
  6  5  2  0  0  0  0
  6  7  1  0  0  0  0
  7  2  2  0  0  0  0
  8  9  1  0  0  0  0
  8 35  1  0  0  0  0
  9 10  1  0  0  0  0
  9 37  1  0  0  0  0
 10 12  1  0  0  0  0
 11 10  2  0  0  0  0
 12 39  1  0  0  0  0
 12 13  1  0  0  0  0
 13 14  1  0  0  0  0
 13 18  1  0  0  0  0
 14 40  1  0  0  0  0
 14 15  1  0  0  0  0
 15 43  1  0  0  0  0
 15 42  1  0  0  0  0
 16 17  1  0  0  0  0
 16 15  1  0  0  0  0
 17 44  1  0  0  0  0
 18 17  1  0  0  0  0
 18 46  1  0  0  0  0
 19 20  2  0  0  0  0
 19 16  1  0  0  0  0
 21 48  1  6  0  0  0
 21 19  1  0  0  0  0
 22 21  1  0  0  0  0
 22 23  1  0  0  0  0
 23 28  2  0  0  0  0
 23 24  1  0  0  0  0
 24 25  2  0  0  0  0
 25 26  1  0  0  0  0
 25 49  1  0  0  0  0
 26 50  1  0  0  0  0
 27 51  1  0  0  0  0
 27 26  2  0  0  0  0
 28 27  1  0  0  0  0
 29 24  1  0  0  0  0
 30 21  1  0  0  0  0
 30 53  1  0  0  0  0
 30 29  1  0  0  0  0
 32  5  1  0  0  0  0
 33  6  1  0  0  0  0
 34  7  1  0  0  0  0
 36  8  1  0  0  0  0
 38 12  1  0  0  0  0
 41 14  1  0  0  0  0
 45 17  1  0  0  0  0
 47 18  1  0  0  0  0
 52 28  1  0  0  0  0
 54 30  1  0  0  0  0
M  END
>  <Pose>
1

>  <Score>
-4.40

$$$$
