
 OpenBabel03212208413D

 50 53  0  0  1  0  0  0  0  0999 V2000
   12.8910   36.5220   69.7160 Cl  0  0  0  0  0  0  0  0  0  0  0  0
   14.0820   35.3060   70.1040 C   0  0  0  0  0  0  0  0  0  0  0  0
   15.4370   35.5600   70.0740 C   0  0  0  0  0  0  0  0  0  0  0  0
   16.3250   34.5500   70.3900 C   0  0  0  0  0  0  0  0  0  0  0  0
   15.9190   33.2870   70.7390 C   0  0  0  0  0  0  0  0  0  0  0  0
   14.5440   33.0480   70.7640 C   0  0  0  0  0  0  0  0  0  0  0  0
   13.6540   34.0500   70.4490 C   0  0  0  0  0  0  0  0  0  0  0  0
   16.8810   32.2060   71.0660 C   0  0  1  0  0  0  0  0  0  0  0  0
   18.0790   32.7590   71.7100 N   0  0  0  0  0  0  0  0  0  0  0  0
   17.6340   33.2760   72.9510 C   0  0  0  0  0  0  0  0  0  0  0  0
   18.1380   34.2320   73.5870 O   0  0  0  0  0  0  0  0  0  0  0  0
   16.4630   32.4760   73.3540 C   0  0  0  0  0  0  0  0  0  0  0  0
   15.7660   32.6000   74.3860 O   0  0  0  0  0  0  0  0  0  0  0  0
   16.2930   31.5070   72.2800 C   0  0  0  0  0  0  0  0  0  0  0  0
   15.7730   30.3320   72.3620 C   0  0  0  0  0  0  0  0  0  0  0  0
   15.6890   29.5020   71.2450 O   0  0  0  0  0  0  0  0  0  0  0  0
   15.2530   29.8320   73.6310 C   0  0  0  0  0  0  0  0  0  0  0  0
   15.8370   29.3980   74.6910 O   0  0  0  0  0  0  0  0  0  0  0  0
   14.9670   29.0500   75.5950 C   0  0  0  0  0  0  0  0  0  0  0  0
   13.7020   29.2660   75.1120 C   0  0  0  0  0  0  0  0  0  0  0  0
   13.8710   29.7680   73.8520 C   0  0  0  0  0  0  0  0  0  0  0  0
   19.4260   32.7680   71.1580 C   0  0  0  0  0  0  0  0  0  0  0  0
   20.0720   34.1190   71.1320 C   0  0  0  0  0  0  0  0  0  0  0  0
   19.8380   34.9060   69.9700 N   0  0  0  0  0  4  0  0  0  0  0  0
   19.7180   36.3150   70.1610 C   0  0  0  0  0  0  0  0  0  0  0  0
   20.9800   36.9700   70.6770 C   0  0  0  0  0  0  0  0  0  0  0  0
   22.0510   36.7180   69.8260 O   0  0  0  0  0  0  0  0  0  0  0  0
   22.1880   35.3630   69.5420 C   0  0  0  0  0  0  0  0  0  0  0  0
   20.9310   34.7420   68.9900 C   0  0  0  0  0  0  0  0  0  0  0  0
   15.7390   36.5580   69.7980 H   0  0  0  0  0  0  0  0  0  0  0  0
   17.3790   34.7900   70.3590 H   0  0  0  0  0  0  0  0  0  0  0  0
   14.2210   32.0340   71.0420 H   0  0  0  0  0  0  0  0  0  0  0  0
   12.5850   33.8570   70.4720 H   0  0  0  0  0  0  0  0  0  0  0  0
   17.0990   31.5220   70.2510 H   0  0  0  0  0  0  0  0  0  0  0  0
   15.1480   28.6440   76.5970 H   0  0  0  0  0  0  0  0  0  0  0  0
   12.7350   29.0880   75.6020 H   0  0  0  0  0  0  0  0  0  0  0  0
   13.0880   30.0580   73.1700 H   0  0  0  0  0  0  0  0  0  0  0  0
   19.4310   32.3160   70.1360 H   0  0  0  0  0  0  0  0  0  0  0  0
   20.0210   32.0890   71.8300 H   0  0  0  0  0  0  0  0  0  0  0  0
   19.8730   34.6590   72.0840 H   0  0  0  0  0  0  0  0  0  0  0  0
   21.1830   33.9240   71.1630 H   0  0  0  0  0  0  0  0  0  0  0  0
   18.9590   34.5710   69.5200 H   0  0  0  0  0  0  0  0  0  0  0  0
   19.5810   36.7490   69.1220 H   0  0  0  0  0  0  0  0  0  0  0  0
   18.8560   36.6550   70.7260 H   0  0  0  0  0  0  0  0  0  0  0  0
   20.7860   38.0800   70.5860 H   0  0  0  0  0  0  0  0  0  0  0  0
   21.1860   36.7770   71.7340 H   0  0  0  0  0  0  0  0  0  0  0  0
   22.5100   34.7820   70.4350 H   0  0  0  0  0  0  0  0  0  0  0  0
   22.9790   35.2780   68.7690 H   0  0  0  0  0  0  0  0  0  0  0  0
   20.6420   35.3020   68.0850 H   0  0  0  0  0  0  0  0  0  0  0  0
   21.1560   33.6760   68.8060 H   0  0  0  0  0  0  0  0  0  0  0  0
  1  2  1  0  0  0  0
  2  7  1  0  0  0  0
  3  2  2  0  0  0  0
  3  4  1  0  0  0  0
  4  5  2  0  0  0  0
  5  6  1  0  0  0  0
  5  8  1  0  0  0  0
  6 32  1  0  0  0  0
  7 33  1  0  0  0  0
  7  6  2  0  0  0  0
  8 34  1  6  0  0  0
  8  9  1  0  0  0  0
  8 14  1  0  0  0  0
  9 10  1  0  0  0  0
 10 12  1  0  0  0  0
 10 11  2  0  0  0  0
 12 13  2  0  0  0  0
 14 15  2  0  0  0  0
 14 12  1  0  0  0  0
 15 17  1  0  0  0  0
 16 15  1  0  0  0  0
 17 21  2  0  0  0  0
 17 18  1  0  0  0  0
 18 19  1  0  0  0  0
 19 35  1  0  0  0  0
 20 19  2  0  0  0  0
 20 36  1  0  0  0  0
 21 20  1  0  0  0  0
 22  9  1  0  0  0  0
 22 39  1  0  0  0  0
 23 22  1  0  0  0  0
 23 41  1  0  0  0  0
 23 40  1  0  0  0  0
 24 25  1  0  0  0  0
 24 23  1  0  0  0  0
 25 26  1  0  0  0  0
 25 44  1  0  0  0  0
 26 46  1  0  0  0  0
 27 26  1  0  0  0  0
 28 27  1  0  0  0  0
 28 47  1  0  0  0  0
 29 28  1  0  0  0  0
 29 24  1  0  0  0  0
 30  3  1  0  0  0  0
 31  4  1  0  0  0  0
 37 21  1  0  0  0  0
 38 22  1  0  0  0  0
 42 24  1  0  0  0  0
 43 25  1  0  0  0  0
 45 26  1  0  0  0  0
 48 28  1  0  0  0  0
 49 29  1  0  0  0  0
 50 29  1  0  0  0  0
M  END
>  <Pose>
1

>  <Score>
-5.59

$$$$
