
 OpenBabel03212208413D

 40 43  0  0  0  0  0  0  0  0999 V2000
   15.7470   28.9020   73.2850 Cl  0  0  0  0  0  0  0  0  0  0  0  0
   15.1530   30.3570   72.5090 C   0  0  0  0  0  0  0  0  0  0  0  0
   16.0040   31.3450   72.0710 C   0  0  0  0  0  0  0  0  0  0  0  0
   15.5180   32.5010   71.4540 C   0  0  0  0  0  0  0  0  0  0  0  0
   14.1460   32.6290   71.2910 C   0  0  0  0  0  0  0  0  0  0  0  0
   13.2830   31.6500   71.7230 C   0  0  0  0  0  0  0  0  0  0  0  0
   13.7730   30.5220   72.3280 C   0  0  0  0  0  0  0  0  0  0  0  0
   13.5870   33.8300   70.6450 C   0  0  0  0  0  0  0  0  0  0  0  0
   12.3800   34.1940   70.3730 N   0  0  0  0  0  0  0  0  0  0  0  0
   12.3250   35.4750   69.7230 C   0  0  0  0  0  0  0  0  0  0  0  0
   13.7590   35.8940   69.6130 C   0  0  0  0  0  0  0  0  0  0  0  0
   14.5020   34.8170   70.2110 N   0  0  0  0  0  0  0  0  0  0  0  0
   15.9030   34.6560   70.3920 C   0  0  0  0  0  0  0  0  0  0  0  0
   16.7370   35.5250   70.0110 O   0  0  0  0  0  0  0  0  0  0  0  0
   16.4510   33.4840   71.0230 N   0  0  0  0  0  0  0  0  0  0  0  0
   17.8900   33.3410   71.1980 C   0  0  0  0  0  0  0  0  0  0  0  0
   18.4680   32.4510   70.1650 C   0  0  0  0  0  0  0  0  0  0  0  0
   17.6850   31.7290   69.5000 O   0  0  0  0  0  0  0  0  0  0  0  0
   19.8550   32.3780   69.8950 N   0  0  0  0  0  0  0  0  0  0  0  0
   20.8470   32.7160   70.8860 C   0  0  0  0  0  0  0  0  0  0  0  0
   22.2290   32.5620   70.3070 C   0  0  0  0  0  0  0  0  0  0  0  0
   23.2070   33.6760   70.4410 C   0  0  0  0  0  0  0  0  0  0  0  0
   22.5730   33.4220   69.1270 C   0  0  0  0  0  0  0  0  0  0  0  0
   17.0810   31.2420   72.1980 H   0  0  0  0  0  0  0  0  0  0  0  0
   12.2280   31.7600   71.5920 H   0  0  0  0  0  0  0  0  0  0  0  0
   13.1370   29.7090   72.6930 H   0  0  0  0  0  0  0  0  0  0  0  0
   11.7110   36.2130   70.2800 H   0  0  0  0  0  0  0  0  0  0  0  0
   11.9260   35.3660   68.6760 H   0  0  0  0  0  0  0  0  0  0  0  0
   14.0670   36.0760   68.5520 H   0  0  0  0  0  0  0  0  0  0  0  0
   13.8740   36.8290   70.2100 H   0  0  0  0  0  0  0  0  0  0  0  0
   18.1930   33.1090   72.2220 H   0  0  0  0  0  0  0  0  0  0  0  0
   18.3140   34.3680   70.9820 H   0  0  0  0  0  0  0  0  0  0  0  0
   20.1480   32.0670   68.9460 H   0  0  0  0  0  0  0  0  0  0  0  0
   20.7100   32.0620   71.7910 H   0  0  0  0  0  0  0  0  0  0  0  0
   20.6810   33.7570   71.2080 H   0  0  0  0  0  0  0  0  0  0  0  0
   22.5650   31.5100   70.2090 H   0  0  0  0  0  0  0  0  0  0  0  0
   22.9080   34.5620   71.0460 H   0  0  0  0  0  0  0  0  0  0  0  0
   24.2680   33.3860   70.6170 H   0  0  0  0  0  0  0  0  0  0  0  0
   21.7890   34.1500   68.8140 H   0  0  0  0  0  0  0  0  0  0  0  0
   23.2040   32.9920   68.3180 H   0  0  0  0  0  0  0  0  0  0  0  0
  2  1  1  0  0  0  0
  3 24  1  0  0  0  0
  3  2  2  0  0  0  0
  4  3  1  0  0  0  0
  5  4  2  0  0  0  0
  5  6  1  0  0  0  0
  6  7  2  0  0  0  0
  7  2  1  0  0  0  0
  7 26  1  0  0  0  0
  8  5  1  0  0  0  0
  9  8  2  0  0  0  0
 10 27  1  0  0  0  0
 10  9  1  0  0  0  0
 11 10  1  0  0  0  0
 11 30  1  0  0  0  0
 11 12  1  0  0  0  0
 12 13  1  0  0  0  0
 12  8  1  0  0  0  0
 13 15  1  0  0  0  0
 14 13  2  0  0  0  0
 15 16  1  0  0  0  0
 15  4  1  0  0  0  0
 16 31  1  0  0  0  0
 17 16  1  0  0  0  0
 18 17  2  0  0  0  0
 19 17  1  0  0  0  0
 19 20  1  0  0  0  0
 20 35  1  0  0  0  0
 20 34  1  0  0  0  0
 21 22  1  0  0  0  0
 21 20  1  0  0  0  0
 22 38  1  0  0  0  0
 22 37  1  0  0  0  0
 23 21  1  0  0  0  0
 23 22  1  0  0  0  0
 25  6  1  0  0  0  0
 28 10  1  0  0  0  0
 29 11  1  0  0  0  0
 32 16  1  0  0  0  0
 33 19  1  0  0  0  0
 36 21  1  0  0  0  0
 39 23  1  0  0  0  0
 40 23  1  0  0  0  0
M  END
>  <Pose>
1

>  <Score>
-6.66

$$$$
