
 OpenBabel03212208413D

 57 61  0  0  1  0  0  0  0  0999 V2000
   23.5800   36.1350   65.4930 Cl  0  0  0  0  0  0  0  0  0  0  0  0
   22.6250   36.3430   66.9520 C   0  0  0  0  0  0  0  0  0  0  0  0
   23.2070   36.5150   68.1920 C   0  0  0  0  0  0  0  0  0  0  0  0
   22.4520   36.6760   69.3250 C   0  0  0  0  0  0  0  0  0  0  0  0
   21.0590   36.6760   69.2770 C   0  0  0  0  0  0  0  0  0  0  0  0
   20.4680   36.5070   68.0490 C   0  0  0  0  0  0  0  0  0  0  0  0
   21.2480   36.3470   66.9290 C   0  0  0  0  0  0  0  0  0  0  0  0
   20.2620   36.8760   70.5210 C   0  0  1  0  0  0  0  0  0  0  0  0
   19.1200   37.5690   70.2140 O   0  0  0  0  0  0  0  0  0  0  0  0
   20.0190   35.5980   71.2780 C   0  0  2  0  0  0  0  0  0  0  0  0
   21.3340   35.0080   71.4920 N   0  0  0  0  0  0  0  0  0  0  0  0
   21.1800   33.5760   71.3250 C   0  0  1  0  0  0  0  0  0  0  0  0
   20.1130   33.4830   70.2730 C   0  0  2  0  0  0  0  0  0  0  0  0
   19.1740   34.6110   70.5640 C   0  0  1  0  0  0  0  0  0  0  0  0
   18.0940   34.0350   71.4120 C   0  0  0  0  0  0  0  0  0  0  0  0
   17.2520   34.6740   72.0850 O   0  0  0  0  0  0  0  0  0  0  0  0
   18.2120   32.5990   71.3020 N   0  0  0  0  0  0  0  0  0  0  0  0
   19.2460   32.2970   70.3890 C   0  0  0  0  0  0  0  0  0  0  0  0
   19.4220   31.2180   69.7710 O   0  0  0  0  0  0  0  0  0  0  0  0
   17.4140   31.6490   72.0180 C   0  0  0  0  0  0  0  0  0  0  0  0
   16.3040   31.0270   71.2570 C   0  0  0  0  0  0  0  0  0  0  0  0
   14.9640   31.6600   71.3860 C   0  0  0  0  0  0  0  0  0  0  0  0
   13.9150   30.7550   71.2910 O   0  0  0  0  0  0  0  0  0  0  0  0
   13.5750   30.2970   72.5810 C   0  0  0  0  0  0  0  0  0  0  0  0
   22.4400   32.9290   70.8850 C   0  0  0  0  0  0  0  0  0  0  0  0
   22.7940   32.0410   71.8730 C   0  0  0  0  0  0  0  0  0  0  0  0
   23.9490   31.2870   71.7150 C   0  0  0  0  0  0  0  0  0  0  0  0
   24.7060   31.4480   70.5790 C   0  0  0  0  0  0  0  0  0  0  0  0
   24.3580   32.3390   69.5780 C   0  0  0  0  0  0  0  0  0  0  0  0
   23.2090   33.0820   69.7480 C   0  0  0  0  0  0  0  0  0  0  0  0
   21.8430   32.0650   72.9530 N   0  0  0  0  0  0  0  0  0  0  0  0
   20.8470   33.0160   72.6230 C   0  0  0  0  0  0  0  0  0  0  0  0
   19.8800   33.2870   73.3520 O   0  0  0  0  0  0  0  0  0  0  0  0
   24.2990   36.5200   68.2630 H   0  0  0  0  0  0  0  0  0  0  0  0
   22.9250   36.8130   70.3110 H   0  0  0  0  0  0  0  0  0  0  0  0
   19.3940   36.5050   67.9240 H   0  0  0  0  0  0  0  0  0  0  0  0
   20.7940   36.2110   65.9410 H   0  0  0  0  0  0  0  0  0  0  0  0
   20.9410   37.5300   71.1850 H   0  0  0  0  0  0  0  0  0  0  0  0
   18.8520   38.0900   71.0140 H   0  0  0  0  0  0  0  0  0  0  0  0
   19.6200   35.8480   72.3040 H   0  0  0  0  0  0  0  0  0  0  0  0
   21.6920   35.2500   72.4230 H   0  0  0  0  0  0  0  0  0  0  0  0
   20.5680   33.5600   69.2670 H   0  0  0  0  0  0  0  0  0  0  0  0
   18.6970   35.0060   69.6520 H   0  0  0  0  0  0  0  0  0  0  0  0
   17.0220   32.1360   72.9310 H   0  0  0  0  0  0  0  0  0  0  0  0
   18.0520   30.8030   72.4080 H   0  0  0  0  0  0  0  0  0  0  0  0
   16.5800   31.1090   70.1620 H   0  0  0  0  0  0  0  0  0  0  0  0
   16.2270   29.9180   71.4100 H   0  0  0  0  0  0  0  0  0  0  0  0
   14.7650   32.4580   70.6520 H   0  0  0  0  0  0  0  0  0  0  0  0
   14.9170   32.1260   72.4020 H   0  0  0  0  0  0  0  0  0  0  0  0
   14.4310   29.7950   73.0650 H   0  0  0  0  0  0  0  0  0  0  0  0
   13.3310   31.1880   73.2000 H   0  0  0  0  0  0  0  0  0  0  0  0
   12.6740   29.6550   72.5450 H   0  0  0  0  0  0  0  0  0  0  0  0
   24.2350   30.5750   72.5030 H   0  0  0  0  0  0  0  0  0  0  0  0
   25.6070   30.8490   70.4700 H   0  0  0  0  0  0  0  0  0  0  0  0
   25.0020   32.4130   68.7120 H   0  0  0  0  0  0  0  0  0  0  0  0
   22.9240   33.7930   68.9580 H   0  0  0  0  0  0  0  0  0  0  0  0
   21.9290   31.4630   73.8030 H   0  0  0  0  0  0  0  0  0  0  0  0
  1  2  1  0  0  0  0
  2  3  1  0  0  0  0
  3 34  1  0  0  0  0
  3  4  2  0  0  0  0
  4 35  1  0  0  0  0
  5  4  1  0  0  0  0
  5  8  1  0  0  0  0
  6  5  2  0  0  0  0
  7  2  2  0  0  0  0
  7  6  1  0  0  0  0
  8 38  1  1  0  0  0
  8 10  1  0  0  0  0
  9  8  1  0  0  0  0
  9 39  1  0  0  0  0
 10 11  1  0  0  0  0
 10 40  1  1  0  0  0
 11 41  1  0  0  0  0
 12 25  1  6  0  0  0
 12 11  1  0  0  0  0
 12 32  1  0  0  0  0
 13 42  1  6  0  0  0
 13 18  1  0  0  0  0
 13 14  1  0  0  0  0
 13 12  1  0  0  0  0
 14 43  1  6  0  0  0
 14 10  1  0  0  0  0
 14 15  1  0  0  0  0
 15 16  2  0  0  0  0
 17 15  1  0  0  0  0
 17 20  1  0  0  0  0
 18 17  1  0  0  0  0
 19 18  2  0  0  0  0
 20 45  1  0  0  0  0
 20 44  1  0  0  0  0
 21 22  1  0  0  0  0
 21 47  1  0  0  0  0
 21 20  1  0  0  0  0
 22 49  1  0  0  0  0
 23 22  1  0  0  0  0
 23 24  1  0  0  0  0
 24 50  1  0  0  0  0
 24 51  1  0  0  0  0
 25 26  1  0  0  0  0
 26 31  1  0  0  0  0
 27 26  2  0  0  0  0
 27 53  1  0  0  0  0
 28 27  1  0  0  0  0
 29 30  1  0  0  0  0
 29 28  2  0  0  0  0
 30 25  2  0  0  0  0
 31 57  1  0  0  0  0
 32 31  1  0  0  0  0
 32 33  2  0  0  0  0
 36  6  1  0  0  0  0
 37  7  1  0  0  0  0
 46 21  1  0  0  0  0
 48 22  1  0  0  0  0
 52 24  1  0  0  0  0
 54 28  1  0  0  0  0
 55 29  1  0  0  0  0
 56 30  1  0  0  0  0
M  END
>  <Pose>
1

>  <Score>
-6.62

$$$$
