
 OpenBabel03212208413D

 52 55  0  0  0  0  0  0  0  0999 V2000
   12.9060   36.2150   69.4040 Cl  0  0  0  0  0  0  0  0  0  0  0  0
   13.8470   34.9680   70.1640 C   0  0  0  0  0  0  0  0  0  0  0  0
   15.2290   35.0990   70.3010 C   0  0  0  0  0  0  0  0  0  0  0  0
   15.9720   34.1020   70.9070 C   0  0  0  0  0  0  0  0  0  0  0  0
   15.3610   32.9480   71.3920 C   0  0  0  0  0  0  0  0  0  0  0  0
   14.0070   32.8150   71.2590 C   0  0  0  0  0  0  0  0  0  0  0  0
   13.2600   33.8230   70.6490 C   0  0  0  0  0  0  0  0  0  0  0  0
   16.1970   31.9000   72.0350 C   0  0  0  0  0  0  0  0  0  0  0  0
   17.5890   31.9430   71.5470 C   0  0  0  0  0  0  0  0  0  0  0  0
   17.8200   31.4610   70.4070 O   0  0  0  0  0  0  0  0  0  0  0  0
   18.6580   32.4890   72.2760 N   0  0  0  0  0  0  0  0  0  0  0  0
   19.9530   31.7910   72.3630 C   0  0  0  0  0  0  0  0  0  0  0  0
   21.0560   32.8370   72.3160 C   0  0  0  0  0  0  0  0  0  0  0  0
   20.5260   33.9680   71.5810 N   0  0  0  0  0  0  0  0  0  0  0  0
   19.5340   34.7600   72.2870 C   0  0  0  0  0  0  0  0  0  0  0  0
   18.6090   33.7540   72.9940 C   0  0  0  0  0  0  0  0  0  0  0  0
   20.9410   34.2660   70.2570 C   0  0  0  0  0  0  0  0  0  0  0  0
   20.6730   33.3790   69.2300 C   0  0  0  0  0  0  0  0  0  0  0  0
   21.0950   33.6840   67.9680 N   0  0  0  0  0  0  0  0  0  0  0  0
   21.7500   34.7910   67.6790 N   0  0  0  0  0  0  0  0  0  0  0  0
   22.0470   35.7140   68.6450 C   0  0  0  0  0  0  0  0  0  0  0  0
   21.6250   35.4050   69.9030 C   0  0  0  0  0  0  0  0  0  0  0  0
   22.7540   36.8770   68.2660 N   0  0  0  0  0  0  0  0  0  0  0  0
   22.2320   37.7680   67.2460 C   0  0  0  0  0  0  0  0  0  0  0  0
   23.3400   38.1740   66.2740 C   0  0  0  0  0  0  0  0  0  0  0  0
   24.4850   38.5630   66.9400 O   0  0  0  0  0  0  0  0  0  0  0  0
   24.9590   37.4720   67.6520 C   0  0  0  0  0  0  0  0  0  0  0  0
   24.0180   37.2460   68.8490 C   0  0  0  0  0  0  0  0  0  0  0  0
   15.6960   35.9850   69.9270 H   0  0  0  0  0  0  0  0  0  0  0  0
   17.0510   34.1710   71.0290 H   0  0  0  0  0  0  0  0  0  0  0  0
   13.4790   31.9300   71.6240 H   0  0  0  0  0  0  0  0  0  0  0  0
   12.1960   33.6890   70.5580 H   0  0  0  0  0  0  0  0  0  0  0  0
   15.7360   30.9150   71.7330 H   0  0  0  0  0  0  0  0  0  0  0  0
   16.1480   31.9840   73.1400 H   0  0  0  0  0  0  0  0  0  0  0  0
   19.9850   31.1100   71.5000 H   0  0  0  0  0  0  0  0  0  0  0  0
   19.9980   31.1770   73.2850 H   0  0  0  0  0  0  0  0  0  0  0  0
   21.9960   32.4550   71.8930 H   0  0  0  0  0  0  0  0  0  0  0  0
   21.2740   33.1860   73.3500 H   0  0  0  0  0  0  0  0  0  0  0  0
   18.9480   35.4270   71.6550 H   0  0  0  0  0  0  0  0  0  0  0  0
   20.0710   35.3050   73.0890 H   0  0  0  0  0  0  0  0  0  0  0  0
   17.6040   34.1490   73.1300 H   0  0  0  0  0  0  0  0  0  0  0  0
   19.0130   33.5380   74.0110 H   0  0  0  0  0  0  0  0  0  0  0  0
   20.1530   32.4620   69.3600 H   0  0  0  0  0  0  0  0  0  0  0  0
   21.8380   36.0970   70.6980 H   0  0  0  0  0  0  0  0  0  0  0  0
   21.4270   37.3010   66.6430 H   0  0  0  0  0  0  0  0  0  0  0  0
   21.8990   38.7020   67.7330 H   0  0  0  0  0  0  0  0  0  0  0  0
   22.9650   39.0130   65.6720 H   0  0  0  0  0  0  0  0  0  0  0  0
   23.5780   37.3560   65.5720 H   0  0  0  0  0  0  0  0  0  0  0  0
   25.9960   37.5770   67.9760 H   0  0  0  0  0  0  0  0  0  0  0  0
   24.8140   36.5600   67.0080 H   0  0  0  0  0  0  0  0  0  0  0  0
   24.4590   36.5370   69.5380 H   0  0  0  0  0  0  0  0  0  0  0  0
   23.8760   38.2560   69.3260 H   0  0  0  0  0  0  0  0  0  0  0  0
  1  2  1  0  0  0  0
  2  3  2  0  0  0  0
  2  7  1  0  0  0  0
  3  4  1  0  0  0  0
  4 30  1  0  0  0  0
  4  5  2  0  0  0  0
  5  8  1  0  0  0  0
  6  5  1  0  0  0  0
  6 31  1  0  0  0  0
  7  6  2  0  0  0  0
  8 34  1  0  0  0  0
  9  8  1  0  0  0  0
  9 11  1  0  0  0  0
 10  9  2  0  0  0  0
 11 12  1  0  0  0  0
 11 16  1  0  0  0  0
 12 36  1  0  0  0  0
 13 12  1  0  0  0  0
 13 38  1  0  0  0  0
 14 15  1  0  0  0  0
 14 13  1  0  0  0  0
 15 16  1  0  0  0  0
 15 40  1  0  0  0  0
 16 41  1  0  0  0  0
 16 42  1  0  0  0  0
 17 14  1  0  0  0  0
 18 43  1  0  0  0  0
 18 17  2  0  0  0  0
 19 18  1  0  0  0  0
 20 19  2  0  0  0  0
 20 21  1  0  0  0  0
 21 22  2  0  0  0  0
 22 17  1  0  0  0  0
 22 44  1  0  0  0  0
 23 21  1  0  0  0  0
 23 28  1  0  0  0  0
 24 46  1  0  0  0  0
 24 23  1  0  0  0  0
 25 26  1  0  0  0  0
 25 24  1  0  0  0  0
 26 27  1  0  0  0  0
 27 49  1  0  0  0  0
 27 28  1  0  0  0  0
 28 52  1  0  0  0  0
 28 51  1  0  0  0  0
 29  3  1  0  0  0  0
 32  7  1  0  0  0  0
 33  8  1  0  0  0  0
 35 12  1  0  0  0  0
 37 13  1  0  0  0  0
 39 15  1  0  0  0  0
 45 24  1  0  0  0  0
 47 25  1  0  0  0  0
 48 25  1  0  0  0  0
 50 27  1  0  0  0  0
M  END
>  <Pose>
1

>  <Score>
-5.97

$$$$
