
 OpenBabel03212208413D

 33 36  0  0  1  0  0  0  0  0999 V2000
   12.7190   34.9830   69.5180 Cl  0  0  0  0  0  0  0  0  0  0  0  0
   13.8470   33.9310   70.3450 C   0  0  0  0  0  0  0  0  0  0  0  0
   15.2100   34.1150   70.2500 C   0  0  0  0  0  0  0  0  0  0  0  0
   16.1130   33.2900   70.9000 C   0  0  0  0  0  0  0  0  0  0  0  0
   15.5870   32.2610   71.6560 C   0  0  0  0  0  0  0  0  0  0  0  0
   14.2140   32.0740   71.7520 C   0  0  0  0  0  0  0  0  0  0  0  0
   13.3220   32.9030   71.1020 C   0  0  0  0  0  0  0  0  0  0  0  0
   17.5200   33.4780   70.8020 N   0  0  0  0  0  0  0  0  0  0  0  0
   18.5530   32.4760   70.7770 C   0  0  0  0  0  0  0  0  0  0  0  0
   18.3580   31.2480   70.9370 O   0  0  0  0  0  0  0  0  0  0  0  0
   19.8470   33.1090   70.5380 C   0  0  2  0  0  0  0  0  0  0  0  0
   20.7620   33.1560   71.7170 C   0  0  1  0  0  0  0  0  0  0  0  0
   21.5390   34.2940   71.3840 O   0  0  0  0  0  0  0  0  0  0  0  0
   20.4670   35.2230   71.3670 C   0  0  1  0  0  0  0  0  0  0  0  0
   19.5650   34.6050   70.3270 C   0  0  2  0  0  0  0  0  0  0  0  0
   18.1600   34.7460   70.7140 C   0  0  0  0  0  0  0  0  0  0  0  0
   17.5740   35.8330   70.9410 O   0  0  0  0  0  0  0  0  0  0  0  0
   19.8670   34.9690   72.6930 C   0  0  0  0  0  0  0  0  0  0  0  0
   20.0870   33.6560   72.9350 C   0  0  0  0  0  0  0  0  0  0  0  0
   21.6050   31.9470   71.9180 C   0  0  0  0  0  0  0  0  0  0  0  0
   22.0530   31.9100   73.2320 O   0  0  0  0  0  0  0  0  0  0  0  0
   15.6330   34.9260   69.6560 H   0  0  0  0  0  0  0  0  0  0  0  0
   16.2800   31.6010   72.1750 H   0  0  0  0  0  0  0  0  0  0  0  0
   13.8140   31.2610   72.3530 H   0  0  0  0  0  0  0  0  0  0  0  0
   12.2520   32.7400   71.1890 H   0  0  0  0  0  0  0  0  0  0  0  0
   20.4050   32.6950   69.6810 H   0  0  0  0  0  0  0  0  0  0  0  0
   20.7790   36.2330   71.1680 H   0  0  0  0  0  0  0  0  0  0  0  0
   19.7820   34.9220   69.3050 H   0  0  0  0  0  0  0  0  0  0  0  0
   19.3640   35.6490   73.3470 H   0  0  0  0  0  0  0  0  0  0  0  0
   19.8180   33.1180   73.8330 H   0  0  0  0  0  0  0  0  0  0  0  0
   22.5020   32.0610   71.2560 H   0  0  0  0  0  0  0  0  0  0  0  0
   21.1140   31.0090   71.6200 H   0  0  0  0  0  0  0  0  0  0  0  0
   22.7870   32.5550   73.3620 H   0  0  0  0  0  0  0  0  0  0  0  0
  1  2  1  0  0  0  0
  2  7  1  0  0  0  0
  3  2  2  0  0  0  0
  3  4  1  0  0  0  0
  4  5  2  0  0  0  0
  5  6  1  0  0  0  0
  5 23  1  0  0  0  0
  6 24  1  0  0  0  0
  7 25  1  0  0  0  0
  7  6  2  0  0  0  0
  8  4  1  0  0  0  0
  9  8  1  0  0  0  0
  9 10  2  0  0  0  0
 11 26  1  6  0  0  0
 11  9  1  0  0  0  0
 11 12  1  0  0  0  0
 12 20  1  1  0  0  0
 12 19  1  0  0  0  0
 13 12  1  0  0  0  0
 14 27  1  6  0  0  0
 14 13  1  0  0  0  0
 14 18  1  0  0  0  0
 15 28  1  6  0  0  0
 15 11  1  0  0  0  0
 15 16  1  0  0  0  0
 15 14  1  0  0  0  0
 16  8  1  0  0  0  0
 16 17  2  0  0  0  0
 18 19  2  0  0  0  0
 18 29  1  0  0  0  0
 19 30  1  0  0  0  0
 20 21  1  0  0  0  0
 21 33  1  0  0  0  0
 22  3  1  0  0  0  0
 31 20  1  0  0  0  0
 32 20  1  0  0  0  0
M  END
>  <Pose>
1

>  <Score>
-5.00

$$$$
