
 OpenBabel03212208413D

 42 45  0  0  1  0  0  0  0  0999 V2000
   15.7880   36.8830   69.8030 Cl  0  0  0  0  0  0  0  0  0  0  0  0
   14.9770   35.4910   70.5190 C   0  0  0  0  0  0  0  0  0  0  0  0
   15.6580   34.5560   71.2720 C   0  0  0  0  0  0  0  0  0  0  0  0
   15.0530   33.4800   71.8320 N   0  0  0  0  0  0  0  0  0  0  0  0
   13.7340   33.2560   71.6830 C   0  0  0  0  0  0  0  0  0  0  0  0
   13.1100   32.1830   72.2360 N   0  0  0  0  0  0  0  0  0  0  0  0
   13.7660   31.2670   72.9710 C   0  0  0  0  0  0  0  0  0  0  0  0
   15.1310   31.4840   73.1340 C   0  0  1  0  0  0  0  0  0  0  0  0
   15.8580   30.4730   73.9460 C   0  0  0  0  0  0  0  0  0  0  0  0
   15.3810   29.1740   73.4590 N   0  0  0  0  0  0  0  0  0  0  0  0
   13.9840   28.8790   73.6110 C   0  0  0  0  0  0  0  0  0  0  0  0
   13.0960   30.0910   73.5830 C   0  0  0  0  0  0  0  0  0  0  0  0
   16.2730   28.2590   72.8570 C   0  0  0  0  0  0  0  0  0  0  0  0
   16.8260   28.6240   71.7650 O   0  0  0  0  0  0  0  0  0  0  0  0
   16.5790   26.9330   73.4380 C   0  0  0  0  0  0  0  0  0  0  0  0
   16.9380   27.0200   74.9050 C   0  0  0  0  0  0  0  0  0  0  0  0
   17.8410   28.2400   75.0380 C   0  0  0  0  0  0  0  0  0  0  0  0
   18.6920   28.3300   73.9380 O   0  0  0  0  0  0  0  0  0  0  0  0
   19.0150   27.0620   73.4350 C   0  0  0  0  0  0  0  0  0  0  0  0
   17.8400   26.4000   72.7410 C   0  0  0  0  0  0  0  0  0  0  0  0
   15.7370   32.5810   72.5620 C   0  0  0  0  0  0  0  0  0  0  0  0
   16.9870   32.7570   72.7260 O   0  0  0  0  0  0  0  0  0  0  0  0
   13.0320   34.1830   70.9300 C   0  0  0  0  0  0  0  0  0  0  0  0
   13.6250   35.2860   70.3510 C   0  0  0  0  0  0  0  0  0  0  0  0
   16.7260   34.6970   71.4190 H   0  0  0  0  0  0  0  0  0  0  0  0
   15.6240   30.6360   75.0020 H   0  0  0  0  0  0  0  0  0  0  0  0
   16.9480   30.5310   73.8150 H   0  0  0  0  0  0  0  0  0  0  0  0
   13.6230   28.2120   72.7950 H   0  0  0  0  0  0  0  0  0  0  0  0
   13.8850   28.3370   74.5960 H   0  0  0  0  0  0  0  0  0  0  0  0
   12.8080   30.3900   74.6330 H   0  0  0  0  0  0  0  0  0  0  0  0
   12.1540   29.9190   73.0210 H   0  0  0  0  0  0  0  0  0  0  0  0
   15.7240   26.2430   73.2630 H   0  0  0  0  0  0  0  0  0  0  0  0
   17.6090   26.1410   75.1230 H   0  0  0  0  0  0  0  0  0  0  0  0
   16.0950   27.0240   75.5890 H   0  0  0  0  0  0  0  0  0  0  0  0
   17.1930   29.1310   75.0150 H   0  0  0  0  0  0  0  0  0  0  0  0
   18.3880   28.2500   75.9980 H   0  0  0  0  0  0  0  0  0  0  0  0
   19.7970   27.2180   72.6630 H   0  0  0  0  0  0  0  0  0  0  0  0
   19.4580   26.4140   74.2120 H   0  0  0  0  0  0  0  0  0  0  0  0
   17.8120   26.5890   71.6640 H   0  0  0  0  0  0  0  0  0  0  0  0
   17.8900   25.3200   73.0120 H   0  0  0  0  0  0  0  0  0  0  0  0
   11.9620   34.0070   70.8050 H   0  0  0  0  0  0  0  0  0  0  0  0
   13.0680   36.0080   69.7620 H   0  0  0  0  0  0  0  0  0  0  0  0
  1  2  1  0  0  0  0
  2  3  1  0  0  0  0
  3 25  1  0  0  0  0
  3  4  1  0  0  0  0
  4 21  1  0  0  0  0
  5  4  1  0  0  0  0
  5  6  1  0  0  0  0
  6  7  2  0  0  0  0
  7  8  1  0  0  0  0
  7 12  1  0  0  0  0
  8 21  1  6  0  0  0
  8  9  1  0  0  0  0
  9 26  1  0  0  0  0
 10 11  1  0  0  0  0
 10  9  1  0  0  0  0
 11 29  1  0  0  0  0
 12 11  1  0  0  0  0
 12 30  1  0  0  0  0
 13 15  1  0  0  0  0
 13 10  1  0  0  0  0
 14 13  2  0  0  0  0
 15 16  1  0  0  0  0
 16 17  1  0  0  0  0
 16 33  1  0  0  0  0
 16 34  1  0  0  0  0
 17 36  1  0  0  0  0
 18 17  1  0  0  0  0
 19 18  1  0  0  0  0
 19 38  1  0  0  0  0
 20 40  1  0  0  0  0
 20 19  1  0  0  0  0
 20 15  1  0  0  0  0
 21 22  2  0  0  0  0
 23  5  2  0  0  0  0
 24  2  2  0  0  0  0
 24 23  1  0  0  0  0
 27  9  1  0  0  0  0
 28 11  1  0  0  0  0
 31 12  1  0  0  0  0
 32 15  1  0  0  0  0
 35 17  1  0  0  0  0
 37 19  1  0  0  0  0
 39 20  1  0  0  0  0
 41 23  1  0  0  0  0
 42 24  1  0  0  0  0
M  END
>  <Pose>
1

>  <Score>
-5.23

$$$$
