
 OpenBabel03212208413D

 57 60  0  0  0  0  0  0  0  0999 V2000
   13.7060   36.1700   70.2600 Cl  0  0  0  0  0  0  0  0  0  0  0  0
   14.2820   34.5780   70.6890 C   0  0  0  0  0  0  0  0  0  0  0  0
   15.5320   34.4000   71.2390 C   0  0  0  0  0  0  0  0  0  0  0  0
   15.9670   33.1430   71.5690 C   0  0  0  0  0  0  0  0  0  0  0  0
   15.1330   32.0410   71.3450 C   0  0  0  0  0  0  0  0  0  0  0  0
   13.8740   32.2100   70.7920 C   0  0  0  0  0  0  0  0  0  0  0  0
   13.4770   33.4800   70.4760 C   0  0  0  0  0  0  0  0  0  0  0  0
   15.4240   30.7140   71.6210 O   0  0  0  0  0  0  0  0  0  0  0  0
   16.3480   30.2090   72.5550 C   0  0  0  0  0  0  0  0  0  0  0  0
   17.7590   30.5590   72.2080 C   0  0  0  0  0  0  0  0  0  0  0  0
   17.9580   31.8890   71.7170 N   0  0  0  0  0  0  0  0  0  0  0  0
   17.3330   33.1120   72.1510 C   0  0  0  0  0  0  0  0  0  0  0  0
   18.8960   32.0720   70.6440 C   0  0  0  0  0  0  0  0  0  0  0  0
   18.4770   32.6640   69.6190 O   0  0  0  0  0  0  0  0  0  0  0  0
   20.2740   31.5940   70.7390 C   0  0  0  0  0  0  0  0  0  0  0  0
   21.0650   32.0700   71.8140 N   0  0  0  0  0  0  0  0  0  0  0  0
   20.6540   33.4080   72.2440 C   0  0  0  0  0  0  0  0  0  0  0  0
   20.8240   34.3370   71.1010 C   0  0  0  0  0  0  0  0  0  0  0  0
   22.1150   34.2500   70.3570 C   0  0  0  0  0  0  0  0  0  0  0  0
   22.9690   33.0730   70.6180 C   0  0  0  0  0  0  0  0  0  0  0  0
   22.4920   32.0750   71.6040 C   0  0  0  0  0  0  0  0  0  0  0  0
   21.9190   34.4520   68.9000 C   0  0  0  0  0  0  0  0  0  0  0  0
   22.4620   35.4240   68.3390 O   0  0  0  0  0  0  0  0  0  0  0  0
   21.1240   33.5480   68.1630 N   0  0  0  0  0  0  0  0  0  0  0  0
   15.9580   30.6650   73.9530 C   0  0  0  0  0  0  0  0  0  0  0  0
   15.0520   29.6370   74.6070 C   0  0  0  0  0  0  0  0  0  0  0  0
   15.7020   28.4450   74.8610 O   0  0  0  0  0  0  0  0  0  0  0  0
   16.7350   28.2390   73.9540 C   0  0  0  0  0  0  0  0  0  0  0  0
   16.2640   28.6810   72.5820 C   0  0  0  0  0  0  0  0  0  0  0  0
   16.1840   35.2420   71.4170 H   0  0  0  0  0  0  0  0  0  0  0  0
   13.2660   31.3330   70.6350 H   0  0  0  0  0  0  0  0  0  0  0  0
   12.4970   33.6550   70.0400 H   0  0  0  0  0  0  0  0  0  0  0  0
   18.3910   30.4130   73.1210 H   0  0  0  0  0  0  0  0  0  0  0  0
   18.1130   29.7950   71.4680 H   0  0  0  0  0  0  0  0  0  0  0  0
   17.3210   33.2360   73.2510 H   0  0  0  0  0  0  0  0  0  0  0  0
   17.8730   34.0040   71.7520 H   0  0  0  0  0  0  0  0  0  0  0  0
   20.7900   31.9290   69.7900 H   0  0  0  0  0  0  0  0  0  0  0  0
   20.2550   30.4760   70.6410 H   0  0  0  0  0  0  0  0  0  0  0  0
   19.6090   33.3870   72.5510 H   0  0  0  0  0  0  0  0  0  0  0  0
   21.3550   33.7060   73.0560 H   0  0  0  0  0  0  0  0  0  0  0  0
   19.9980   34.1970   70.3480 H   0  0  0  0  0  0  0  0  0  0  0  0
   20.6160   35.3750   71.5020 H   0  0  0  0  0  0  0  0  0  0  0  0
   22.7010   35.1680   70.6810 H   0  0  0  0  0  0  0  0  0  0  0  0
   24.0340   33.3870   70.8420 H   0  0  0  0  0  0  0  0  0  0  0  0
   23.0940   32.5130   69.6410 H   0  0  0  0  0  0  0  0  0  0  0  0
   22.8410   31.0480   71.4710 H   0  0  0  0  0  0  0  0  0  0  0  0
   22.9270   32.3850   72.6040 H   0  0  0  0  0  0  0  0  0  0  0  0
   20.0740   33.6650   68.2740 H   0  0  0  0  0  0  0  0  0  0  0  0
   21.4600   32.8040   67.5410 H   0  0  0  0  0  0  0  0  0  0  0  0
   15.3460   31.5980   73.8720 H   0  0  0  0  0  0  0  0  0  0  0  0
   16.8360   30.7980   74.6050 H   0  0  0  0  0  0  0  0  0  0  0  0
   14.7230   30.0560   75.5830 H   0  0  0  0  0  0  0  0  0  0  0  0
   14.1670   29.4460   73.9740 H   0  0  0  0  0  0  0  0  0  0  0  0
   17.5950   28.8560   74.3040 H   0  0  0  0  0  0  0  0  0  0  0  0
   17.0700   27.1860   73.9620 H   0  0  0  0  0  0  0  0  0  0  0  0
   15.1970   28.3820   72.5050 H   0  0  0  0  0  0  0  0  0  0  0  0
   16.8440   28.2300   71.7660 H   0  0  0  0  0  0  0  0  0  0  0  0
  1  2  1  0  0  0  0
  2  3  1  0  0  0  0
  3 30  1  0  0  0  0
  3  4  2  0  0  0  0
  4 12  1  0  0  0  0
  5  4  1  0  0  0  0
  5  8  1  0  0  0  0
  6  5  2  0  0  0  0
  7  2  2  0  0  0  0
  7  6  1  0  0  0  0
  8  9  1  0  0  0  0
  9 29  1  0  0  0  0
  9 25  1  0  0  0  0
 10  9  1  0  0  0  0
 10 33  1  0  0  0  0
 11 12  1  0  0  0  0
 11 10  1  0  0  0  0
 12 35  1  0  0  0  0
 13 15  1  0  0  0  0
 13 11  1  0  0  0  0
 14 13  2  0  0  0  0
 15 16  1  0  0  0  0
 16 17  1  0  0  0  0
 17 39  1  0  0  0  0
 17 40  1  0  0  0  0
 18 42  1  0  0  0  0
 18 17  1  0  0  0  0
 19 20  1  0  0  0  0
 19 43  1  0  0  0  0
 19 18  1  0  0  0  0
 20 44  1  0  0  0  0
 20 21  1  0  0  0  0
 21 16  1  0  0  0  0
 21 47  1  0  0  0  0
 22 19  1  0  0  0  0
 23 22  2  0  0  0  0
 24 48  1  0  0  0  0
 24 22  1  0  0  0  0
 25 51  1  0  0  0  0
 25 26  1  0  0  0  0
 26 27  1  0  0  0  0
 26 52  1  0  0  0  0
 28 55  1  0  0  0  0
 28 54  1  0  0  0  0
 28 27  1  0  0  0  0
 29 28  1  0  0  0  0
 31  6  1  0  0  0  0
 32  7  1  0  0  0  0
 34 10  1  0  0  0  0
 36 12  1  0  0  0  0
 37 15  1  0  0  0  0
 38 15  1  0  0  0  0
 41 18  1  0  0  0  0
 45 20  1  0  0  0  0
 46 21  1  0  0  0  0
 49 24  1  0  0  0  0
 50 25  1  0  0  0  0
 53 26  1  0  0  0  0
 56 29  1  0  0  0  0
 57 29  1  0  0  0  0
M  END
>  <Pose>
1

>  <Score>
-5.70

$$$$
