
 OpenBabel03212208413D

 43 46  0  0  1  0  0  0  0  0999 V2000
   14.9230   31.3180   71.7570 S   0  0  0  0  0  0  0  0  0  0  0  0
   14.7820   30.2790   70.7120 O   0  0  0  0  0  0  0  0  0  0  0  0
   14.2280   30.8680   73.0230 O   0  0  0  0  0  0  0  0  0  0  0  0
   16.5510   31.6180   72.1100 N   0  0  0  0  0  0  0  0  0  0  0  0
   17.2290   30.5400   72.7620 C   0  0  0  0  0  0  0  0  0  0  0  0
   18.7270   30.6920   72.7650 C   0  0  0  0  0  0  0  0  0  0  0  0
   19.1410   32.0680   72.9150 N   0  0  0  0  0  0  0  0  0  0  0  0
   18.2200   33.1610   73.0790 C   0  0  0  0  0  0  0  0  0  0  0  0
   16.8380   32.9160   72.6070 C   0  0  0  0  0  0  0  0  0  0  0  0
   20.5330   32.3550   72.9010 C   0  0  0  0  0  0  0  0  0  0  0  0
   21.3110   31.8940   73.8010 O   0  0  0  0  0  0  0  0  0  0  0  0
   21.1170   33.1920   71.8530 C   0  0  1  0  0  0  0  0  0  0  0  0
   22.0060   32.7130   70.9110 C   0  0  0  0  0  0  0  0  0  0  0  0
   22.5030   33.5410   69.9740 N   0  0  0  0  0  0  0  0  0  0  0  0
   22.1810   34.8450   69.8920 C   0  0  2  0  0  0  0  0  0  0  0  0
   21.3150   35.3270   70.8030 N   0  0  0  0  0  0  0  0  0  0  0  0
   20.9790   36.6310   70.7370 C   0  0  0  0  0  0  0  0  0  0  0  0
   21.4930   37.4750   69.7740 C   0  0  0  0  0  0  0  0  0  0  0  0
   22.3840   37.0110   68.8250 C   0  0  0  0  0  0  0  0  0  0  0  0
   22.7140   35.6700   68.9100 C   0  0  0  0  0  0  0  0  0  0  0  0
   20.7960   34.5310   71.7560 C   0  0  0  0  0  0  0  0  0  0  0  0
   19.9880   34.9800   72.6060 O   0  0  0  0  0  0  0  0  0  0  0  0
   14.1720   32.8280   71.2120 C   0  0  0  0  0  0  0  0  0  0  0  0
   14.8610   34.1360   70.3650 S   0  0  0  0  0  0  0  0  0  0  0  0
   13.4850   35.1370   70.2480 C   0  0  0  0  0  0  0  0  0  0  0  0
   12.5180   34.4080   70.8820 C   0  0  0  0  0  0  0  0  0  0  0  0
   12.8680   33.2180   71.3800 C   0  0  0  0  0  0  0  0  0  0  0  0
   13.3060   36.7360   69.4970 Cl  0  0  0  0  0  0  0  0  0  0  0  0
   16.8970   30.5070   73.8200 H   0  0  0  0  0  0  0  0  0  0  0  0
   16.9180   29.5950   72.2760 H   0  0  0  0  0  0  0  0  0  0  0  0
   19.2170   30.0650   73.5330 H   0  0  0  0  0  0  0  0  0  0  0  0
   19.0880   30.3420   71.7760 H   0  0  0  0  0  0  0  0  0  0  0  0
   18.6470   34.0160   72.4750 H   0  0  0  0  0  0  0  0  0  0  0  0
   18.2510   33.5380   74.1340 H   0  0  0  0  0  0  0  0  0  0  0  0
   16.1410   33.1010   73.4760 H   0  0  0  0  0  0  0  0  0  0  0  0
   16.5130   33.6600   71.8210 H   0  0  0  0  0  0  0  0  0  0  0  0
   22.2740   31.6650   70.9660 H   0  0  0  0  0  0  0  0  0  0  0  0
   20.2800   37.0140   71.4760 H   0  0  0  0  0  0  0  0  0  0  0  0
   21.2210   38.5280   69.7230 H   0  0  0  0  0  0  0  0  0  0  0  0
   22.8060   37.6440   68.0550 H   0  0  0  0  0  0  0  0  0  0  0  0
   23.4100   35.2840   68.1760 H   0  0  0  0  0  0  0  0  0  0  0  0
   11.4880   34.8160   70.9650 H   0  0  0  0  0  0  0  0  0  0  0  0
   12.1710   32.5330   71.9170 H   0  0  0  0  0  0  0  0  0  0  0  0
  1  4  1  0  0  0  0
  1  3  2  0  0  0  0
  2  1  2  0  0  0  0
  4  9  1  0  0  0  0
  4  5  1  0  0  0  0
  5  6  1  0  0  0  0
  5 29  1  0  0  0  0
  6  7  1  0  0  0  0
  6 31  1  0  0  0  0
  7  8  1  0  0  0  0
  8 34  1  0  0  0  0
  9  8  1  0  0  0  0
  9 35  1  0  0  0  0
 10  7  1  0  0  0  0
 10 11  2  0  0  0  0
 12 10  1  6  0  0  0
 13 37  1  0  0  0  0
 13 12  1  0  0  0  0
 14 13  2  0  0  0  0
 15 20  1  6  0  0  0
 15 14  1  0  0  0  0
 15 16  1  0  0  0  0
 16 21  1  0  0  0  0
 17 16  1  0  0  0  0
 17 38  1  0  0  0  0
 18 17  2  0  0  0  0
 19 20  2  0  0  0  0
 19 18  1  0  0  0  0
 21 12  1  0  0  0  0
 21 22  2  0  0  0  0
 23 27  2  0  0  0  0
 23  1  1  0  0  0  0
 24 23  1  0  0  0  0
 25 24  1  0  0  0  0
 25 26  2  0  0  0  0
 26 42  1  0  0  0  0
 26 27  1  0  0  0  0
 27 43  1  0  0  0  0
 28 25  1  0  0  0  0
 30  5  1  0  0  0  0
 32  6  1  0  0  0  0
 33  8  1  0  0  0  0
 36  9  1  0  0  0  0
 39 18  1  0  0  0  0
 40 19  1  0  0  0  0
 41 20  1  0  0  0  0
M  END
>  <Pose>
1

>  <Score>
-7.43

$$$$
