
 OpenBabel03212208413D

 50 53  0  0  1  0  0  0  0  0999 V2000
   13.7380   33.9460   71.3220 S   0  0  0  0  0  0  0  0  0  0  0  0
   12.9300   34.7680   72.3150 O   0  0  0  0  0  0  0  0  0  0  0  0
   12.8190   33.8270   70.1080 O   0  0  0  0  0  0  0  0  0  0  0  0
   14.0670   32.4150   71.9140 N   0  0  0  0  0  0  0  0  0  0  0  0
   14.3800   32.2830   73.2690 C   0  0  0  0  0  0  0  0  0  0  0  0
   14.3910   30.8200   73.7390 C   0  0  0  0  0  0  0  0  0  0  0  0
   14.9450   29.9520   72.7440 N   0  0  0  0  0  0  0  0  0  0  0  0
   14.5270   30.1360   71.3710 C   0  0  0  0  0  0  0  0  0  0  0  0
   14.8280   31.5790   71.0170 C   0  0  0  0  0  0  0  0  0  0  0  0
   15.8630   28.9570   73.1000 C   0  0  0  0  0  0  0  0  0  0  0  0
   16.4140   28.2550   72.2150 O   0  0  0  0  0  0  0  0  0  0  0  0
   16.2330   28.6800   74.5240 C   0  0  0  0  0  0  0  0  0  0  0  0
   16.7860   27.2920   74.7470 C   0  0  0  0  0  0  0  0  0  0  0  0
   15.3560   26.8400   75.0310 C   0  0  0  0  0  0  0  0  0  0  0  0
   15.0290   28.3010   75.3500 C   0  0  0  0  0  0  0  0  0  0  0  0
   15.1130   34.9030   70.8150 C   0  0  0  0  0  0  0  0  0  0  0  0
   16.4080   34.3790   71.0010 C   0  0  0  0  0  0  0  0  0  0  0  0
   17.5300   35.1080   70.6770 C   0  0  0  0  0  0  0  0  0  0  0  0
   17.4610   36.3810   70.1570 C   0  0  0  0  0  0  0  0  0  0  0  0
   16.2010   36.8940   69.9720 C   0  0  0  0  0  0  0  0  0  0  0  0
   15.0460   36.1680   70.2940 C   0  0  0  0  0  0  0  0  0  0  0  0
   13.4790   36.8640   69.9570 Cl  0  0  0  0  0  0  0  0  0  0  0  0
   18.6530   37.0780   69.8480 N   0  0  0  0  0  0  0  0  0  0  0  0
   19.9410   36.5120   70.0550 C   0  0  0  0  0  0  0  0  0  0  0  0
   21.0020   36.9560   69.5750 O   0  0  0  0  0  0  0  0  0  0  0  0
   19.9920   35.3000   70.9150 C   0  0  2  0  0  0  0  0  0  0  0  0
   18.8000   34.5650   70.8710 O   0  0  0  0  0  0  0  0  0  0  0  0
   20.2660   35.6750   72.3530 C   0  0  0  0  0  0  0  0  0  0  0  0
   13.5800   32.7400   73.8840 H   0  0  0  0  0  0  0  0  0  0  0  0
   15.3530   32.7190   73.5330 H   0  0  0  0  0  0  0  0  0  0  0  0
   14.9930   30.7710   74.6580 H   0  0  0  0  0  0  0  0  0  0  0  0
   13.3440   30.5040   73.9090 H   0  0  0  0  0  0  0  0  0  0  0  0
   15.0000   29.4250   70.6780 H   0  0  0  0  0  0  0  0  0  0  0  0
   13.4070   30.0130   71.3410 H   0  0  0  0  0  0  0  0  0  0  0  0
   15.9120   31.7700   71.1590 H   0  0  0  0  0  0  0  0  0  0  0  0
   14.5150   31.7930   69.9930 H   0  0  0  0  0  0  0  0  0  0  0  0
   16.8650   29.4910   74.9590 H   0  0  0  0  0  0  0  0  0  0  0  0
   17.4410   27.1990   75.6230 H   0  0  0  0  0  0  0  0  0  0  0  0
   17.2130   26.8080   73.8300 H   0  0  0  0  0  0  0  0  0  0  0  0
   14.8330   26.4730   74.1320 H   0  0  0  0  0  0  0  0  0  0  0  0
   15.2590   26.1500   75.8730 H   0  0  0  0  0  0  0  0  0  0  0  0
   15.1430   28.5570   76.4260 H   0  0  0  0  0  0  0  0  0  0  0  0
   14.0610   28.6350   74.9580 H   0  0  0  0  0  0  0  0  0  0  0  0
   16.4760   33.3860   71.4070 H   0  0  0  0  0  0  0  0  0  0  0  0
   16.0960   37.8870   69.5670 H   0  0  0  0  0  0  0  0  0  0  0  0
   18.5940   38.0450   69.4520 H   0  0  0  0  0  0  0  0  0  0  0  0
   20.8160   34.6660   70.5540 H   0  0  0  0  0  0  0  0  0  0  0  0
   20.6440   36.7370   72.3740 H   0  0  0  0  0  0  0  0  0  0  0  0
   21.0220   34.9900   72.7750 H   0  0  0  0  0  0  0  0  0  0  0  0
   19.3250   35.6510   72.9350 H   0  0  0  0  0  0  0  0  0  0  0  0
  1  4  1  0  0  0  0
  1  2  2  0  0  0  0
  3  1  2  0  0  0  0
  4  5  1  0  0  0  0
  5 30  1  0  0  0  0
  5  6  1  0  0  0  0
  5 29  1  0  0  0  0
  6 32  1  0  0  0  0
  6 31  1  0  0  0  0
  7 10  1  0  0  0  0
  7  6  1  0  0  0  0
  8  7  1  0  0  0  0
  9 35  1  0  0  0  0
  9  8  1  0  0  0  0
  9  4  1  0  0  0  0
 10 12  1  0  0  0  0
 11 10  2  0  0  0  0
 12 13  1  0  0  0  0
 12 37  1  0  0  0  0
 12 15  1  0  0  0  0
 13 14  1  0  0  0  0
 13 38  1  0  0  0  0
 14 15  1  0  0  0  0
 14 41  1  0  0  0  0
 15 42  1  0  0  0  0
 16 17  1  0  0  0  0
 16  1  1  0  0  0  0
 17 44  1  0  0  0  0
 18 27  1  0  0  0  0
 18 17  2  0  0  0  0
 19 18  1  0  0  0  0
 20 19  2  0  0  0  0
 20 21  1  0  0  0  0
 21 16  2  0  0  0  0
 22 21  1  0  0  0  0
 23 24  1  0  0  0  0
 23 19  1  0  0  0  0
 24 26  1  0  0  0  0
 25 24  2  0  0  0  0
 26 47  1  6  0  0  0
 26 28  1  0  0  0  0
 27 26  1  0  0  0  0
 28 48  1  0  0  0  0
 28 49  1  0  0  0  0
 28 50  1  0  0  0  0
 33  8  1  0  0  0  0
 34  8  1  0  0  0  0
 36  9  1  0  0  0  0
 39 13  1  0  0  0  0
 40 14  1  0  0  0  0
 43 15  1  0  0  0  0
 45 20  1  0  0  0  0
 46 23  1  0  0  0  0
M  END
>  <Pose>
1

>  <Score>
-6.03

$$$$
