
 OpenBabel03212208413D

 37 40  0  0  1  0  0  0  0  0999 V2000
   19.0650   25.2010   72.3170 Cl  0  0  0  0  0  0  0  0  0  0  0  0
   18.8040   26.8180   72.9660 C   0  0  0  0  0  0  0  0  0  0  0  0
   17.5880   27.4670   72.7710 C   0  0  0  0  0  0  0  0  0  0  0  0
   17.4320   28.7270   73.3000 C   0  0  0  0  0  0  0  0  0  0  0  0
   18.4710   29.3410   74.0180 C   0  0  0  0  0  0  0  0  0  0  0  0
   19.6580   28.6990   74.2060 C   0  0  0  0  0  0  0  0  0  0  0  0
   19.8160   27.4300   73.6750 C   0  0  0  0  0  0  0  0  0  0  0  0
   16.2280   29.4690   73.1490 N   0  0  0  0  0  0  0  0  0  0  0  0
   14.9980   29.4150   73.8630 C   0  0  0  0  0  0  0  0  0  0  0  0
   14.8700   28.9520   75.0090 O   0  0  0  0  0  0  0  0  0  0  0  0
   13.9280   29.9870   73.0290 C   0  0  1  0  0  0  0  0  0  0  0  0
   12.9490   30.7000   73.6430 O   0  0  0  0  0  0  0  0  0  0  0  0
   12.6730   31.6910   72.7190 N   0  0  0  0  0  0  0  0  0  0  0  0
   13.9080   32.1030   72.1290 C   0  0  0  0  0  0  0  0  0  0  0  0
   14.7040   31.0560   72.3170 C   0  0  0  0  0  0  0  0  0  0  0  0
   16.0460   30.5150   72.1590 C   0  0  0  0  0  0  0  0  0  0  0  0
   16.8640   30.9210   71.2960 O   0  0  0  0  0  0  0  0  0  0  0  0
   14.2170   33.3390   71.4370 C   0  0  0  0  0  0  0  0  0  0  0  0
   13.2840   33.9700   70.6080 C   0  0  0  0  0  0  0  0  0  0  0  0
   13.8250   35.0800   70.0860 N   0  0  0  0  0  0  0  0  0  0  0  0
   15.0730   35.1870   70.5480 N   0  0  0  0  0  0  0  0  0  0  0  0
   15.3210   34.1380   71.3660 C   0  0  0  0  0  0  0  0  0  0  0  0
   16.6020   33.8780   72.0700 C   0  0  0  0  0  0  0  0  0  0  0  0
   13.2330   36.0490   69.1700 C   0  0  0  0  0  0  0  0  0  0  0  0
   16.7670   26.9990   72.2140 H   0  0  0  0  0  0  0  0  0  0  0  0
   18.3040   30.3420   74.4210 H   0  0  0  0  0  0  0  0  0  0  0  0
   20.4650   29.2020   74.7730 H   0  0  0  0  0  0  0  0  0  0  0  0
   20.7550   26.8890   73.8040 H   0  0  0  0  0  0  0  0  0  0  0  0
   13.5560   29.2330   72.3010 H   0  0  0  0  0  0  0  0  0  0  0  0
   11.7220   32.0370   72.5140 H   0  0  0  0  0  0  0  0  0  0  0  0
   12.2810   33.6350   70.4040 H   0  0  0  0  0  0  0  0  0  0  0  0
   16.5860   34.3650   73.0500 H   0  0  0  0  0  0  0  0  0  0  0  0
   17.4340   34.3550   71.5010 H   0  0  0  0  0  0  0  0  0  0  0  0
   16.8390   32.8020   72.1170 H   0  0  0  0  0  0  0  0  0  0  0  0
   13.8150   36.1040   68.2240 H   0  0  0  0  0  0  0  0  0  0  0  0
   12.2150   35.7000   68.8350 H   0  0  0  0  0  0  0  0  0  0  0  0
   13.1920   37.0650   69.6050 H   0  0  0  0  0  0  0  0  0  0  0  0
  1  2  1  0  0  0  0
  2  7  1  0  0  0  0
  3  2  2  0  0  0  0
  3  4  1  0  0  0  0
  4  5  2  0  0  0  0
  5  6  1  0  0  0  0
  5 26  1  0  0  0  0
  6 27  1  0  0  0  0
  7 28  1  0  0  0  0
  7  6  2  0  0  0  0
  8  4  1  0  0  0  0
  8  9  1  0  0  0  0
  9 10  2  0  0  0  0
 11 29  1  6  0  0  0
 11 12  1  0  0  0  0
 11  9  1  0  0  0  0
 13 12  1  0  0  0  0
 14 15  2  0  0  0  0
 14 13  1  0  0  0  0
 15 11  1  0  0  0  0
 16 15  1  0  0  0  0
 16  8  1  0  0  0  0
 17 16  2  0  0  0  0
 18 14  1  0  0  0  0
 19 18  2  0  0  0  0
 20 21  1  0  0  0  0
 20 19  1  0  0  0  0
 21 22  2  0  0  0  0
 22 18  1  0  0  0  0
 22 23  1  0  0  0  0
 23 34  1  0  0  0  0
 23 32  1  0  0  0  0
 24 37  1  0  0  0  0
 24 20  1  0  0  0  0
 25  3  1  0  0  0  0
 30 13  1  0  0  0  0
 31 19  1  0  0  0  0
 33 23  1  0  0  0  0
 35 24  1  0  0  0  0
 36 24  1  0  0  0  0
M  END
>  <Pose>
1

>  <Score>
-5.82

$$$$
