
 OpenBabel03212208413D

 40 43  0  0  0  0  0  0  0  0999 V2000
   15.9410   37.8140   69.7660 Cl  0  0  0  0  0  0  0  0  0  0  0  0
   15.7080   36.1550   70.2930 C   0  0  0  0  0  0  0  0  0  0  0  0
   14.4530   35.6000   70.4560 C   0  0  0  0  0  0  0  0  0  0  0  0
   14.2840   34.3160   70.8650 N   0  0  0  0  0  0  0  0  0  0  0  0
   15.3190   33.5020   71.1360 C   0  0  0  0  0  0  0  0  0  0  0  0
   15.1610   32.2280   71.5420 N   0  0  0  0  0  0  0  0  0  0  0  0
   13.9440   31.6800   71.7040 C   0  0  0  0  0  0  0  0  0  0  0  0
   12.8630   32.5180   71.4230 C   0  0  0  0  0  0  0  0  0  0  0  0
   13.0360   33.8210   71.0090 C   0  0  0  0  0  0  0  0  0  0  0  0
   12.0470   34.5810   70.7550 O   0  0  0  0  0  0  0  0  0  0  0  0
   13.7190   30.2800   72.1490 C   0  0  0  0  0  0  0  0  0  0  0  0
   14.8060   29.8660   72.9560 N   0  0  0  0  0  0  0  0  0  0  0  0
   15.7280   28.9470   72.4040 C   0  0  0  0  0  0  0  0  0  0  0  0
   16.4030   28.0450   73.4250 C   0  0  0  0  0  0  0  0  0  0  0  0
   15.3080   27.4850   74.2610 C   0  0  0  0  0  0  0  0  0  0  0  0
   14.3870   28.3980   74.7320 C   0  0  0  0  0  0  0  0  0  0  0  0
   13.3790   27.9400   75.4900 N   0  0  0  0  0  0  0  0  0  0  0  0
   13.2800   26.6060   75.7810 C   0  0  0  0  0  0  0  0  0  0  0  0
   14.2030   25.7400   75.3000 N   0  0  0  0  0  0  0  0  0  0  0  0
   15.2410   26.1380   74.5300 C   0  0  0  0  0  0  0  0  0  0  0  0
   12.1680   26.0880   76.6190 C   0  0  0  0  0  0  0  0  0  0  0  0
   14.5850   29.8200   74.3620 C   0  0  0  0  0  0  0  0  0  0  0  0
   16.5920   34.0340   70.9800 C   0  0  0  0  0  0  0  0  0  0  0  0
   16.7840   35.3370   70.5660 C   0  0  0  0  0  0  0  0  0  0  0  0
   13.5940   36.2400   70.2430 H   0  0  0  0  0  0  0  0  0  0  0  0
   11.8730   32.1120   71.5430 H   0  0  0  0  0  0  0  0  0  0  0  0
   12.7730   30.2820   72.7370 H   0  0  0  0  0  0  0  0  0  0  0  0
   13.6010   29.6580   71.2480 H   0  0  0  0  0  0  0  0  0  0  0  0
   16.5190   29.4150   71.7800 H   0  0  0  0  0  0  0  0  0  0  0  0
   15.1590   28.2340   71.7380 H   0  0  0  0  0  0  0  0  0  0  0  0
   17.0380   28.7250   74.0590 H   0  0  0  0  0  0  0  0  0  0  0  0
   16.9780   27.2670   72.9270 H   0  0  0  0  0  0  0  0  0  0  0  0
   15.9610   25.4200   74.1630 H   0  0  0  0  0  0  0  0  0  0  0  0
   11.7360   26.9370   77.1810 H   0  0  0  0  0  0  0  0  0  0  0  0
   11.4000   25.6850   75.9110 H   0  0  0  0  0  0  0  0  0  0  0  0
   12.5230   25.3100   77.3220 H   0  0  0  0  0  0  0  0  0  0  0  0
   15.4160   30.2740   74.9560 H   0  0  0  0  0  0  0  0  0  0  0  0
   13.6640   30.3980   74.5870 H   0  0  0  0  0  0  0  0  0  0  0  0
   17.4380   33.3800   71.1990 H   0  0  0  0  0  0  0  0  0  0  0  0
   17.7910   35.7480   70.4460 H   0  0  0  0  0  0  0  0  0  0  0  0
  1  2  1  0  0  0  0
  2  3  1  0  0  0  0
  2 24  2  0  0  0  0
  3  4  1  0  0  0  0
  4  9  1  0  0  0  0
  4  5  1  0  0  0  0
  5  6  1  0  0  0  0
  6  7  2  0  0  0  0
  7 11  1  0  0  0  0
  8 26  1  0  0  0  0
  8  7  1  0  0  0  0
  9  8  1  0  0  0  0
 10  9  2  0  0  0  0
 11 27  1  0  0  0  0
 11 12  1  0  0  0  0
 12 22  1  0  0  0  0
 13 12  1  0  0  0  0
 13 14  1  0  0  0  0
 14 31  1  0  0  0  0
 14 15  1  0  0  0  0
 15 20  1  0  0  0  0
 15 16  2  0  0  0  0
 16 17  1  0  0  0  0
 17 18  2  0  0  0  0
 18 21  1  0  0  0  0
 19 18  1  0  0  0  0
 20 19  2  0  0  0  0
 21 34  1  0  0  0  0
 21 36  1  0  0  0  0
 22 38  1  0  0  0  0
 22 16  1  0  0  0  0
 22 37  1  0  0  0  0
 23  5  2  0  0  0  0
 23 39  1  0  0  0  0
 24 23  1  0  0  0  0
 25  3  1  0  0  0  0
 28 11  1  0  0  0  0
 29 13  1  0  0  0  0
 30 13  1  0  0  0  0
 32 14  1  0  0  0  0
 33 20  1  0  0  0  0
 35 21  1  0  0  0  0
 40 24  1  0  0  0  0
M  END
>  <Pose>
1

>  <Score>
-5.33

$$$$
