
 OpenBabel03212208413D

 35 37  0  0  1  0  0  0  0  0999 V2000
   20.2910   34.9710   71.3830 B   0  0  0  0  0  0  0  0  0  0  0  0
   19.6000   33.2790   71.9080 C   0  0  0  0  0  0  0  0  0  0  0  0
   18.3670   32.8440   71.4150 C   0  0  0  0  0  0  0  0  0  0  0  0
   17.8390   31.5990   71.7790 C   0  0  0  0  0  0  0  0  0  0  0  0
   18.6100   30.8450   72.6460 C   0  0  0  0  0  0  0  0  0  0  0  0
   19.8290   31.2940   73.1230 C   0  0  0  0  0  0  0  0  0  0  0  0
   20.3300   32.5120   72.7590 C   0  0  0  0  0  0  0  0  0  0  0  0
   18.0760   29.6380   72.9990 O   0  0  0  0  0  0  0  0  0  0  0  0
   18.6000   28.9340   74.0920 C   0  0  0  0  0  0  0  0  0  0  0  0
   16.5930   31.1990   71.1340 C   0  0  2  0  0  0  0  0  0  0  0  0
   15.7430   32.4980   71.1970 C   0  0  2  0  0  0  0  0  0  0  0  0
   15.9630   32.8130   72.6900 C   0  0  0  0  0  0  0  0  0  0  0  0
   16.2860   33.9090   73.1110 O   0  0  0  0  0  0  0  0  0  0  0  0
   15.7320   31.6360   73.4970 N   0  0  0  0  0  0  0  0  0  0  0  0
   14.9320   30.5960   72.8230 C   0  0  1  0  0  0  0  0  0  0  0  0
   13.8200   31.3570   72.2370 N   0  0  0  0  0  0  0  0  0  0  0  0
   14.2740   32.2200   71.1760 C   0  0  0  0  0  0  0  0  0  0  0  0
   13.5220   32.7020   70.3090 O   0  0  0  0  0  0  0  0  0  0  0  0
   15.7740   30.1210   71.6080 C   0  0  0  0  0  0  0  0  0  0  0  0
   14.5060   29.4760   73.6660 C   0  0  0  0  0  0  0  0  0  0  0  0
   17.8810   33.5300   70.7460 H   0  0  0  0  0  0  0  0  0  0  0  0
   20.3500   30.6340   73.7890 H   0  0  0  0  0  0  0  0  0  0  0  0
   21.3070   32.7940   73.1910 H   0  0  0  0  0  0  0  0  0  0  0  0
   19.6980   28.8860   74.0440 H   0  0  0  0  0  0  0  0  0  0  0  0
   18.3560   29.5940   74.9910 H   0  0  0  0  0  0  0  0  0  0  0  0
   18.1200   27.9620   74.2640 H   0  0  0  0  0  0  0  0  0  0  0  0
   16.8160   31.1140   70.0390 H   0  0  0  0  0  0  0  0  0  0  0  0
   16.0330   33.2790   70.5510 H   0  0  0  0  0  0  0  0  0  0  0  0
   16.0990   31.5120   74.4440 H   0  0  0  0  0  0  0  0  0  0  0  0
   12.8480   31.2750   72.5590 H   0  0  0  0  0  0  0  0  0  0  0  0
   14.9850   29.9240   70.8110 H   0  0  0  0  0  0  0  0  0  0  0  0
   16.1950   29.1300   71.7420 H   0  0  0  0  0  0  0  0  0  0  0  0
   13.4440   29.2030   73.3410 H   0  0  0  0  0  0  0  0  0  0  0  0
   15.1130   28.5580   73.5820 H   0  0  0  0  0  0  0  0  0  0  0  0
   14.4500   29.7470   74.7170 H   0  0  0  0  0  0  0  0  0  0  0  0
  1  2  1  0  0  0  0
  2  7  1  0  0  0  0
  3  4  1  0  0  0  0
  3  2  2  0  0  0  0
  4  5  2  0  0  0  0
  5  8  1  0  0  0  0
  5  6  1  0  0  0  0
  6 22  1  0  0  0  0
  7  6  2  0  0  0  0
  7 23  1  0  0  0  0
  8  9  1  0  0  0  0
  9 26  1  0  0  0  0
  9 25  1  0  0  0  0
 10 27  1  6  0  0  0
 10 11  1  0  0  0  0
 10 19  1  0  0  0  0
 10  4  1  0  0  0  0
 11 28  1  6  0  0  0
 11 12  1  0  0  0  0
 12 13  2  0  0  0  0
 12 14  1  0  0  0  0
 14 29  1  0  0  0  0
 15 14  1  0  0  0  0
 15 20  1  1  0  0  0
 16 30  1  0  0  0  0
 16 15  1  0  0  0  0
 17 11  1  0  0  0  0
 17 16  1  0  0  0  0
 18 17  2  0  0  0  0
 19 32  1  0  0  0  0
 19 15  1  0  0  0  0
 20 35  1  0  0  0  0
 21  3  1  0  0  0  0
 24  9  1  0  0  0  0
 31 19  1  0  0  0  0
 33 20  1  0  0  0  0
 34 20  1  0  0  0  0
M  END
>  <Pose>
1

>  <Score>
-5.09

$$$$
