
 OpenBabel03212208413D

 55 58  0  0  0  0  0  0  0  0999 V2000
   20.3460   30.1770   73.9000 B   0  0  0  0  0  0  0  0  0  0  0  0
   20.7450   31.3450   72.4590 C   0  0  0  0  0  0  0  0  0  0  0  0
   19.9630   32.4820   72.1830 C   0  0  0  0  0  0  0  0  0  0  0  0
   20.2730   33.3050   71.1320 C   0  0  0  0  0  0  0  0  0  0  0  0
   21.3620   33.0150   70.3430 C   0  0  0  0  0  0  0  0  0  0  0  0
   22.1410   31.8810   70.6210 C   0  0  0  0  0  0  0  0  0  0  0  0
   21.8310   31.0650   71.6600 C   0  0  0  0  0  0  0  0  0  0  0  0
   21.6200   33.8650   69.3240 O   0  0  0  0  0  0  0  0  0  0  0  0
   22.5440   33.7060   68.3030 C   0  0  0  0  0  0  0  0  0  0  0  0
   19.4830   34.5010   70.8790 C   0  0  0  0  0  0  0  0  0  0  0  0
   18.1950   34.5800   70.7900 C   0  0  0  0  0  0  0  0  0  0  0  0
   17.3020   33.5530   70.9170 O   0  0  0  0  0  0  0  0  0  0  0  0
   16.0100   34.0520   70.7640 C   0  0  0  0  0  0  0  0  0  0  0  0
   16.0010   35.3900   70.5320 C   0  0  0  0  0  0  0  0  0  0  0  0
   14.7990   36.0890   70.3680 C   0  0  0  0  0  0  0  0  0  0  0  0
   13.5800   35.4670   70.4280 C   0  0  0  0  0  0  0  0  0  0  0  0
   13.6410   34.0820   70.6650 C   0  0  0  0  0  0  0  0  0  0  0  0
   14.7850   33.3780   70.8330 C   0  0  0  0  0  0  0  0  0  0  0  0
   14.8540   31.9180   71.0310 C   0  0  0  0  0  0  0  0  0  0  0  0
   14.3690   31.5360   72.3360 N   0  0  0  0  0  4  0  0  0  0  0  0
   15.4980   31.3130   73.2200 C   0  0  0  0  0  0  0  0  0  0  0  0
   15.3540   30.1750   74.1390 C   0  0  0  0  0  0  0  0  0  0  0  0
   14.0250   29.8690   74.5620 N   0  0  0  0  0  0  0  0  0  0  0  0
   12.9680   30.5240   73.9360 C   0  0  0  0  0  0  0  0  0  0  0  0
   13.2780   30.6910   72.4250 C   0  0  0  0  0  0  0  0  0  0  0  0
   13.8000   28.5680   75.0680 C   0  0  0  0  0  0  0  0  0  0  0  0
   13.5160   28.4860   76.5270 C   0  0  0  0  0  0  0  0  0  0  0  0
   12.3620   33.4870   70.7000 O   0  0  0  0  0  0  0  0  0  0  0  0
   17.4120   35.7910   70.5370 C   0  0  0  0  0  0  0  0  0  0  0  0
   17.8590   36.9620   70.3590 O   0  0  0  0  0  0  0  0  0  0  0  0
   19.1270   32.6350   72.8460 H   0  0  0  0  0  0  0  0  0  0  0  0
   23.0070   31.6540   70.0010 H   0  0  0  0  0  0  0  0  0  0  0  0
   22.4710   30.2020   71.8330 H   0  0  0  0  0  0  0  0  0  0  0  0
   22.0750   33.7960   67.2840 H   0  0  0  0  0  0  0  0  0  0  0  0
   23.0890   32.7480   68.2690 H   0  0  0  0  0  0  0  0  0  0  0  0
   23.3570   34.5060   68.3810 H   0  0  0  0  0  0  0  0  0  0  0  0
   20.0110   35.4790   70.7450 H   0  0  0  0  0  0  0  0  0  0  0  0
   14.9070   37.1570   70.1930 H   0  0  0  0  0  0  0  0  0  0  0  0
   12.6510   35.9730   70.3080 H   0  0  0  0  0  0  0  0  0  0  0  0
   15.8470   31.5170   70.7830 H   0  0  0  0  0  0  0  0  0  0  0  0
   14.1810   31.4720   70.2240 H   0  0  0  0  0  0  0  0  0  0  0  0
   13.9800   32.5210   72.7010 H   0  0  0  0  0  0  0  0  0  0  0  0
   15.7530   32.2570   73.7630 H   0  0  0  0  0  0  0  0  0  0  0  0
   16.3890   31.1320   72.5740 H   0  0  0  0  0  0  0  0  0  0  0  0
   15.9040   29.2810   73.7550 H   0  0  0  0  0  0  0  0  0  0  0  0
   15.9200   30.4410   75.0880 H   0  0  0  0  0  0  0  0  0  0  0  0
   12.0000   30.0700   74.1020 H   0  0  0  0  0  0  0  0  0  0  0  0
   12.9070   31.5950   74.2780 H   0  0  0  0  0  0  0  0  0  0  0  0
   12.3420   31.2510   72.0980 H   0  0  0  0  0  0  0  0  0  0  0  0
   13.2910   29.7650   71.8790 H   0  0  0  0  0  0  0  0  0  0  0  0
   12.9100   28.1410   74.5190 H   0  0  0  0  0  0  0  0  0  0  0  0
   14.6830   27.9400   74.7650 H   0  0  0  0  0  0  0  0  0  0  0  0
   13.7290   29.4000   77.0850 H   0  0  0  0  0  0  0  0  0  0  0  0
   12.4620   28.1570   76.7250 H   0  0  0  0  0  0  0  0  0  0  0  0
   14.1750   27.7060   76.9480 H   0  0  0  0  0  0  0  0  0  0  0  0
  2  1  1  0  0  0  0
  3  2  1  0  0  0  0
  3 31  1  0  0  0  0
  4  3  2  0  0  0  0
  5  6  2  0  0  0  0
  5  4  1  0  0  0  0
  6  7  1  0  0  0  0
  7 33  1  0  0  0  0
  7  2  2  0  0  0  0
  8  5  1  0  0  0  0
  9 36  1  0  0  0  0
  9  8  1  0  0  0  0
 10  4  1  0  0  0  0
 11 10  2  0  0  0  0
 11 12  1  0  0  0  0
 13 18  1  0  0  0  0
 13 12  1  0  0  0  0
 14 29  1  0  0  0  0
 14 13  2  0  0  0  0
 15 16  2  0  0  0  0
 15 14  1  0  0  0  0
 16 17  1  0  0  0  0
 17 28  1  0  0  0  0
 17 18  2  0  0  0  0
 18 19  1  0  0  0  0
 19 20  1  0  0  0  0
 20 25  1  0  0  0  0
 20 42  1  0  0  0  0
 20 21  1  0  0  0  0
 21 43  1  0  0  0  0
 21 22  1  0  0  0  0
 22 23  1  0  0  0  0
 22 46  1  0  0  0  0
 23 26  1  0  0  0  0
 24 47  1  0  0  0  0
 24 48  1  0  0  0  0
 24 23  1  0  0  0  0
 25 24  1  0  0  0  0
 26 27  1  0  0  0  0
 27 54  1  0  0  0  0
 27 55  1  0  0  0  0
 27 53  1  0  0  0  0
 29 11  1  0  0  0  0
 30 29  2  0  0  0  0
 32  6  1  0  0  0  0
 34  9  1  0  0  0  0
 35  9  1  0  0  0  0
 37 10  1  0  0  0  0
 38 15  1  0  0  0  0
 39 16  1  0  0  0  0
 40 19  1  0  0  0  0
 41 19  1  0  0  0  0
 44 21  1  0  0  0  0
 45 22  1  0  0  0  0
 49 25  1  0  0  0  0
 50 25  1  0  0  0  0
 51 26  1  0  0  0  0
 52 26  1  0  0  0  0
M  END
>  <Pose>
1

>  <Score>
-6.42

$$$$
