
 OpenBabel03212208413D

 48 51  0  0  0  0  0  0  0  0999 V2000
   23.4380   34.2550   68.2930 B   0  0  0  0  0  0  0  0  0  0  0  0
   21.9790   34.5640   69.4780 C   0  0  0  0  0  0  0  0  0  0  0  0
   21.0030   35.4990   69.2900 C   0  0  0  0  0  0  0  0  0  0  0  0
   19.9570   35.7030   70.1630 C   0  0  0  0  0  0  0  0  0  0  0  0
   19.9140   34.8910   71.3000 C   0  0  0  0  0  0  0  0  0  0  0  0
   20.8660   33.9390   71.5410 C   0  0  0  0  0  0  0  0  0  0  0  0
   21.8980   33.7790   70.6240 C   0  0  0  0  0  0  0  0  0  0  0  0
   18.8730   35.0720   72.1890 O   0  0  0  0  0  0  0  0  0  0  0  0
   18.4950   34.0380   73.0600 C   0  0  0  0  0  0  0  0  0  0  0  0
   18.9190   36.6950   69.9340 C   0  0  0  0  0  0  0  0  0  0  0  0
   17.6320   36.4960   69.9930 C   0  0  0  0  0  0  0  0  0  0  0  0
   17.0380   35.2800   70.2930 O   0  0  0  0  0  0  0  0  0  0  0  0
   15.6580   35.3640   70.2830 C   0  0  0  0  0  0  0  0  0  0  0  0
   15.2540   36.6430   69.9740 C   0  0  0  0  0  0  0  0  0  0  0  0
   13.9110   36.9480   69.9080 C   0  0  0  0  0  0  0  0  0  0  0  0
   12.9790   35.9620   70.1540 C   0  0  0  0  0  0  0  0  0  0  0  0
   13.4190   34.6610   70.4680 C   0  0  0  0  0  0  0  0  0  0  0  0
   14.7390   34.3370   70.5400 C   0  0  0  0  0  0  0  0  0  0  0  0
   15.2450   33.0340   70.8740 C   0  0  0  0  0  0  0  0  0  0  0  0
   15.0080   32.4180   72.1150 N   0  0  0  0  0  4  0  0  0  0  0  0
   13.9260   31.4730   72.1490 C   0  0  0  0  0  0  0  0  0  0  0  0
   14.2920   30.0980   71.6490 C   0  0  0  0  0  0  0  0  0  0  0  0
   15.5770   30.0200   71.1290 O   0  0  0  0  0  0  0  0  0  0  0  0
   16.4380   30.3950   72.1560 C   0  0  0  0  0  0  0  0  0  0  0  0
   16.2180   31.7810   72.6660 C   0  0  0  0  0  0  0  0  0  0  0  0
   12.3620   33.7640   70.6910 O   0  0  0  0  0  0  0  0  0  0  0  0
   16.4960   37.3990   69.7810 C   0  0  0  0  0  0  0  0  0  0  0  0
   16.5880   38.6110   69.4850 O   0  0  0  0  0  0  0  0  0  0  0  0
   21.0690   36.1140   68.3880 H   0  0  0  0  0  0  0  0  0  0  0  0
   20.8790   33.2800   72.4170 H   0  0  0  0  0  0  0  0  0  0  0  0
   22.6690   33.0150   70.8060 H   0  0  0  0  0  0  0  0  0  0  0  0
   17.4180   34.1850   73.3830 H   0  0  0  0  0  0  0  0  0  0  0  0
   19.1060   34.1040   73.9960 H   0  0  0  0  0  0  0  0  0  0  0  0
   18.5140   33.0310   72.5940 H   0  0  0  0  0  0  0  0  0  0  0  0
   19.2390   37.7200   69.6830 H   0  0  0  0  0  0  0  0  0  0  0  0
   13.6020   37.9640   69.6650 H   0  0  0  0  0  0  0  0  0  0  0  0
   11.9170   36.1400   70.1180 H   0  0  0  0  0  0  0  0  0  0  0  0
   14.9560   32.2500   70.0880 H   0  0  0  0  0  0  0  0  0  0  0  0
   16.3950   33.0000   70.7440 H   0  0  0  0  0  0  0  0  0  0  0  0
   14.8030   33.1510   72.8250 H   0  0  0  0  0  0  0  0  0  0  0  0
   13.6700   31.3470   73.2440 H   0  0  0  0  0  0  0  0  0  0  0  0
   13.0280   31.8650   71.6730 H   0  0  0  0  0  0  0  0  0  0  0  0
   14.2390   29.3150   72.4600 H   0  0  0  0  0  0  0  0  0  0  0  0
   13.5490   29.7670   70.8970 H   0  0  0  0  0  0  0  0  0  0  0  0
   17.4760   30.3840   71.7070 H   0  0  0  0  0  0  0  0  0  0  0  0
   16.4250   29.6110   72.9660 H   0  0  0  0  0  0  0  0  0  0  0  0
   17.0820   32.4550   72.4940 H   0  0  0  0  0  0  0  0  0  0  0  0
   16.1110   31.7190   73.7690 H   0  0  0  0  0  0  0  0  0  0  0  0
  1  2  1  0  0  0  0
  2  7  1  0  0  0  0
  3  2  2  0  0  0  0
  3  4  1  0  0  0  0
  4  5  2  0  0  0  0
  5  6  1  0  0  0  0
  5  8  1  0  0  0  0
  6 30  1  0  0  0  0
  7 31  1  0  0  0  0
  7  6  2  0  0  0  0
  8  9  1  0  0  0  0
  9 32  1  0  0  0  0
  9 33  1  0  0  0  0
 10 11  2  0  0  0  0
 10  4  1  0  0  0  0
 11 12  1  0  0  0  0
 13 12  1  0  0  0  0
 13 18  1  0  0  0  0
 14 13  2  0  0  0  0
 15 14  1  0  0  0  0
 15 16  2  0  0  0  0
 16 17  1  0  0  0  0
 17 18  2  0  0  0  0
 17 26  1  0  0  0  0
 18 19  1  0  0  0  0
 19 20  1  0  0  0  0
 20 21  1  0  0  0  0
 20 25  1  0  0  0  0
 20 40  1  0  0  0  0
 21 41  1  0  0  0  0
 22 21  1  0  0  0  0
 22 43  1  0  0  0  0
 23 22  1  0  0  0  0
 23 24  1  0  0  0  0
 24 25  1  0  0  0  0
 24 46  1  0  0  0  0
 25 48  1  0  0  0  0
 27 14  1  0  0  0  0
 27 11  1  0  0  0  0
 28 27  2  0  0  0  0
 29  3  1  0  0  0  0
 34  9  1  0  0  0  0
 35 10  1  0  0  0  0
 36 15  1  0  0  0  0
 37 16  1  0  0  0  0
 38 19  1  0  0  0  0
 39 19  1  0  0  0  0
 42 21  1  0  0  0  0
 44 22  1  0  0  0  0
 45 24  1  0  0  0  0
 47 25  1  0  0  0  0
M  END
>  <Pose>
1

>  <Score>
-7.03

$$$$
