
 OpenBabel03212208413D

 49 52  0  0  1  0  0  0  0  0999 V2000
   13.7540   31.2560   71.4280 S   0  0  0  0  0  0  0  0  0  0  0  0
   12.6500   32.2880   71.4390 O   0  0  0  0  0  0  0  0  0  0  0  0
   13.4230   30.2720   70.3580 O   0  0  0  0  0  0  0  0  0  0  0  0
   15.2190   32.0970   71.1080 N   0  0  0  0  0  0  0  0  0  0  0  0
   16.3150   31.1570   70.9870 C   0  0  0  0  0  0  0  0  0  0  0  0
   17.6460   31.8970   70.9440 C   0  0  0  0  0  0  0  0  0  0  0  0
   17.7800   32.6430   72.1950 N   0  0  0  0  0  0  0  0  0  0  0  0
   16.5910   32.7090   72.9910 C   0  0  0  0  0  0  0  0  0  0  0  0
   15.4540   33.1120   72.0900 C   0  0  0  0  0  0  0  0  0  0  0  0
   19.0160   33.2090   72.5240 C   0  0  0  0  0  0  0  0  0  0  0  0
   19.0360   34.2830   73.2530 O   0  0  0  0  0  0  0  0  0  0  0  0
   20.3580   32.7520   72.1500 C   0  0  0  0  0  0  0  0  0  0  0  0
   20.7860   33.0320   70.4360 S   0  0  0  0  0  0  0  0  0  0  0  0
   20.5560   34.7150   69.8910 C   0  0  1  0  0  0  0  0  0  0  0  0
   19.8520   35.5820   70.6080 N   0  0  0  0  0  0  0  0  0  0  0  0
   19.6650   36.8560   70.2530 C   0  0  0  0  0  0  0  0  0  0  0  0
   20.2300   37.2900   69.0840 N   0  0  0  0  0  0  0  0  0  0  0  0
   20.9450   36.4410   68.3380 C   0  0  0  0  0  0  0  0  0  0  0  0
   21.6080   36.6190   67.1580 N   0  0  0  0  0  0  0  0  0  0  0  0
   22.1730   35.4770   66.8240 N   0  0  0  0  0  0  0  0  0  0  0  0
   21.9100   34.5430   67.7410 C   0  0  0  0  0  0  0  0  0  0  0  0
   21.1350   35.1230   68.7090 C   0  0  0  0  0  0  0  0  0  0  0  0
   21.6810   37.8460   66.4200 C   0  0  0  0  0  0  0  0  0  0  0  0
   13.8570   30.4730   72.9890 C   0  0  0  0  0  0  0  0  0  0  0  0
   14.9880   29.8560   73.4730 C   0  0  0  0  0  0  0  0  0  0  0  0
   15.0030   29.2500   74.7060 C   0  0  0  0  0  0  0  0  0  0  0  0
   13.8560   29.2510   75.5000 C   0  0  0  0  0  0  0  0  0  0  0  0
   12.6990   29.8740   75.0210 C   0  0  0  0  0  0  0  0  0  0  0  0
   12.7090   30.4760   73.7810 C   0  0  0  0  0  0  0  0  0  0  0  0
   13.8910   28.4780   77.0630 Cl  0  0  0  0  0  0  0  0  0  0  0  0
   16.2070   30.6300   70.0300 H   0  0  0  0  0  0  0  0  0  0  0  0
   16.3320   30.4240   71.7970 H   0  0  0  0  0  0  0  0  0  0  0  0
   18.4380   31.1220   70.8820 H   0  0  0  0  0  0  0  0  0  0  0  0
   17.6230   32.5580   70.0730 H   0  0  0  0  0  0  0  0  0  0  0  0
   16.6770   33.3530   73.8870 H   0  0  0  0  0  0  0  0  0  0  0  0
   16.4120   31.6820   73.4110 H   0  0  0  0  0  0  0  0  0  0  0  0
   14.5660   33.4290   72.6520 H   0  0  0  0  0  0  0  0  0  0  0  0
   15.8140   34.0510   71.5670 H   0  0  0  0  0  0  0  0  0  0  0  0
   20.4040   31.6580   72.3260 H   0  0  0  0  0  0  0  0  0  0  0  0
   21.1780   33.1790   72.7670 H   0  0  0  0  0  0  0  0  0  0  0  0
   19.0880   37.5240   70.8670 H   0  0  0  0  0  0  0  0  0  0  0  0
   22.2460   33.5300   67.7260 H   0  0  0  0  0  0  0  0  0  0  0  0
   21.7780   38.7480   67.0860 H   0  0  0  0  0  0  0  0  0  0  0  0
   22.5630   37.7950   65.7220 H   0  0  0  0  0  0  0  0  0  0  0  0
   20.7540   37.9450   65.8260 H   0  0  0  0  0  0  0  0  0  0  0  0
   15.8710   29.8580   72.8620 H   0  0  0  0  0  0  0  0  0  0  0  0
   15.8730   28.7620   75.1150 H   0  0  0  0  0  0  0  0  0  0  0  0
   11.8180   29.8550   75.6620 H   0  0  0  0  0  0  0  0  0  0  0  0
   11.8300   30.9520   73.4120 H   0  0  0  0  0  0  0  0  0  0  0  0
  1  2  2  0  0  0  0
  1 24  1  0  0  0  0
  3  1  2  0  0  0  0
  4  1  1  0  0  0  0
  4  9  1  0  0  0  0
  5  4  1  0  0  0  0
  5 32  1  0  0  0  0
  6  5  1  0  0  0  0
  6  7  1  0  0  0  0
  7 10  1  0  0  0  0
  7  8  1  0  0  0  0
  8 36  1  0  0  0  0
  8 35  1  0  0  0  0
  9 37  1  0  0  0  0
  9  8  1  0  0  0  0
 10 11  2  0  0  0  0
 12 39  1  0  0  0  0
 12 10  1  0  0  0  0
 12 40  1  0  0  0  0
 13 12  1  0  0  0  0
 14 13  1  1  0  0  0
 14 15  1  0  0  0  0
 16 15  2  0  0  0  0
 16 41  1  0  0  0  0
 17 16  1  0  0  0  0
 18 22  2  0  0  0  0
 18 17  1  0  0  0  0
 19 18  1  0  0  0  0
 20 19  1  0  0  0  0
 20 21  2  0  0  0  0
 21 22  1  0  0  0  0
 22 14  1  0  0  0  0
 23 43  1  0  0  0  0
 23 19  1  0  0  0  0
 24 25  2  0  0  0  0
 24 29  1  0  0  0  0
 25 26  1  0  0  0  0
 26 47  1  0  0  0  0
 26 27  2  0  0  0  0
 27 30  1  0  0  0  0
 28 27  1  0  0  0  0
 28 48  1  0  0  0  0
 29 28  2  0  0  0  0
 31  5  1  0  0  0  0
 33  6  1  0  0  0  0
 34  6  1  0  0  0  0
 38  9  1  0  0  0  0
 42 21  1  0  0  0  0
 44 23  1  0  0  0  0
 45 23  1  0  0  0  0
 46 25  1  0  0  0  0
 49 29  1  0  0  0  0
M  END
>  <Pose>
1

>  <Score>
-7.22

$$$$
