
 OpenBabel03212208413D

 49 52  0  0  0  0  0  0  0  0999 V2000
   20.6870   31.9840   72.5020 S   0  0  0  0  0  0  0  0  0  0  0  0
   19.4350   32.7750   72.8580 O   0  0  0  0  0  0  0  0  0  0  0  0
   21.6190   32.1870   73.6910 O   0  0  0  0  0  0  0  0  0  0  0  0
   20.2660   30.3590   72.4380 N   0  0  0  0  0  0  0  0  0  0  0  0
   19.5310   29.9540   71.2650 C   0  0  0  0  0  0  0  0  0  0  0  0
   18.2120   29.3390   71.7300 C   0  0  0  0  0  0  0  0  0  0  0  0
   17.6790   30.1080   72.7900 N   0  0  0  0  0  0  0  0  0  0  0  0
   18.4660   29.8490   74.0760 C   0  0  0  0  0  0  0  0  0  0  0  0
   19.8860   29.7350   73.6510 C   0  0  0  0  0  0  0  0  0  0  0  0
   16.6730   31.0290   72.8450 C   0  0  0  0  0  0  0  0  0  0  0  0
   15.7990   30.6980   73.8570 O   0  0  0  0  0  0  0  0  0  0  0  0
   16.2240   32.2060   72.2120 C   0  0  0  0  0  0  0  0  0  0  0  0
   15.1440   32.7710   71.7840 C   0  0  0  0  0  0  0  0  0  0  0  0
   13.8700   32.1890   71.8660 N   0  0  0  0  0  0  0  0  0  0  0  0
   12.6710   32.8150   71.4590 N   0  0  0  0  0  0  0  0  0  0  0  0
   12.7280   34.1080   70.9300 C   0  0  0  0  0  0  0  0  0  0  0  0
   11.6680   34.6780   70.5620 O   0  0  0  0  0  0  0  0  0  0  0  0
   14.0390   34.7710   70.8170 C   0  0  0  0  0  0  0  0  0  0  0  0
   15.2090   34.1530   71.2180 C   0  0  0  0  0  0  0  0  0  0  0  0
   16.3750   34.8350   71.0800 C   0  0  0  0  0  0  0  0  0  0  0  0
   16.3690   36.1270   70.5440 C   0  0  0  0  0  0  0  0  0  0  0  0
   15.2110   36.7460   70.1430 C   0  0  0  0  0  0  0  0  0  0  0  0
   14.0310   36.0490   70.2860 C   0  0  0  0  0  0  0  0  0  0  0  0
   21.4680   32.6110   71.1040 C   0  0  0  0  0  0  0  0  0  0  0  0
   20.7620   33.2480   70.1150 C   0  0  0  0  0  0  0  0  0  0  0  0
   21.4120   33.7450   69.0000 C   0  0  0  0  0  0  0  0  0  0  0  0
   22.7740   33.6220   68.8350 C   0  0  0  0  0  0  0  0  0  0  0  0
   23.4920   32.9790   69.8310 C   0  0  0  0  0  0  0  0  0  0  0  0
   22.8250   32.4850   70.9490 C   0  0  0  0  0  0  0  0  0  0  0  0
   23.5500   34.2680   67.4030 Cl  0  0  0  0  0  0  0  0  0  0  0  0
   19.3830   30.7470   70.5240 H   0  0  0  0  0  0  0  0  0  0  0  0
   20.1000   29.1390   70.7770 H   0  0  0  0  0  0  0  0  0  0  0  0
   18.5590   28.3300   72.1900 H   0  0  0  0  0  0  0  0  0  0  0  0
   17.5420   29.0370   70.9480 H   0  0  0  0  0  0  0  0  0  0  0  0
   18.0540   28.8820   74.4140 H   0  0  0  0  0  0  0  0  0  0  0  0
   18.2360   30.6460   74.7960 H   0  0  0  0  0  0  0  0  0  0  0  0
   20.1180   28.6330   73.5470 H   0  0  0  0  0  0  0  0  0  0  0  0
   20.5860   30.0860   74.4430 H   0  0  0  0  0  0  0  0  0  0  0  0
   17.1380   32.8960   72.0080 H   0  0  0  0  0  0  0  0  0  0  0  0
   13.7520   31.2310   72.2020 H   0  0  0  0  0  0  0  0  0  0  0  0
   11.7640   32.2720   71.5720 H   0  0  0  0  0  0  0  0  0  0  0  0
   17.3230   34.4150   71.3710 H   0  0  0  0  0  0  0  0  0  0  0  0
   17.3140   36.6280   70.4530 H   0  0  0  0  0  0  0  0  0  0  0  0
   15.1910   37.7490   69.7250 H   0  0  0  0  0  0  0  0  0  0  0  0
   13.0750   36.4920   69.9840 H   0  0  0  0  0  0  0  0  0  0  0  0
   19.6900   33.3960   70.1490 H   0  0  0  0  0  0  0  0  0  0  0  0
   20.8660   34.2570   68.1980 H   0  0  0  0  0  0  0  0  0  0  0  0
   24.5690   32.8760   69.7140 H   0  0  0  0  0  0  0  0  0  0  0  0
   23.4710   31.9910   71.6870 H   0  0  0  0  0  0  0  0  0  0  0  0
  1  2  2  0  0  0  0
  1  3  2  0  0  0  0
  4  1  1  0  0  0  0
  4  9  1  0  0  0  0
  5  6  1  0  0  0  0
  5  4  1  0  0  0  0
  6 33  1  0  0  0  0
  6  7  1  0  0  0  0
  7 10  1  0  0  0  0
  7  8  1  0  0  0  0
  8 35  1  0  0  0  0
  8 36  1  0  0  0  0
  9  8  1  0  0  0  0
  9 38  1  0  0  0  0
 10 11  2  0  0  0  0
 12 10  1  0  0  0  0
 13 14  1  0  0  0  0
 13 12  2  0  0  0  0
 14 40  1  0  0  0  0
 15 41  1  0  0  0  0
 15 14  1  0  0  0  0
 16 15  1  0  0  0  0
 17 16  2  0  0  0  0
 18 16  1  0  0  0  0
 18 19  1  0  0  0  0
 19 13  1  0  0  0  0
 20 19  2  0  0  0  0
 20 42  1  0  0  0  0
 21 20  1  0  0  0  0
 22 23  1  0  0  0  0
 22 21  2  0  0  0  0
 23 18  2  0  0  0  0
 24  1  1  0  0  0  0
 25 46  1  0  0  0  0
 25 24  2  0  0  0  0
 26 25  1  0  0  0  0
 27 26  2  0  0  0  0
 27 28  1  0  0  0  0
 28 29  2  0  0  0  0
 29 24  1  0  0  0  0
 29 49  1  0  0  0  0
 30 27  1  0  0  0  0
 31  5  1  0  0  0  0
 32  5  1  0  0  0  0
 34  6  1  0  0  0  0
 37  9  1  0  0  0  0
 39 12  1  0  0  0  0
 43 21  1  0  0  0  0
 44 22  1  0  0  0  0
 45 23  1  0  0  0  0
 47 26  1  0  0  0  0
 48 28  1  0  0  0  0
M  END
>  <Pose>
1

>  <Score>
-7.21

$$$$
