
 OpenBabel03212208413D

 45 48  0  0  0  0  0  0  0  0999 V2000
   17.1580   26.8300   73.3140 S   0  0  0  0  0  0  0  0  0  0  0  0
   16.6000   25.8440   74.3150 O   0  0  0  0  0  0  0  0  0  0  0  0
   16.6630   26.4440   71.9710 O   0  0  0  0  0  0  0  0  0  0  0  0
   16.6380   28.4110   73.7590 N   0  0  0  0  0  0  0  0  0  0  0  0
   15.2490   28.3830   74.0420 C   0  0  0  0  0  0  0  0  0  0  0  0
   14.3820   29.4090   73.3690 C   0  0  0  0  0  0  0  0  0  0  0  0
   14.9240   29.7090   72.0840 N   0  0  0  0  0  0  0  0  0  0  0  0
   16.2070   30.3660   72.3310 C   0  0  0  0  0  0  0  0  0  0  0  0
   17.1540   29.3560   72.8600 C   0  0  0  0  0  0  0  0  0  0  0  0
   14.0920   30.5000   71.2440 C   0  0  0  0  0  0  0  0  0  0  0  0
   13.3250   31.5190   72.0160 C   0  0  0  0  0  0  0  0  0  0  0  0
   13.4570   32.8480   71.4590 N   0  0  0  0  0  0  0  0  0  0  0  0
   12.5450   33.5270   70.7640 N   0  0  0  0  0  0  0  0  0  0  0  0
   13.0200   34.7340   70.4240 C   0  0  0  0  0  0  0  0  0  0  0  0
   14.2620   34.8220   70.9150 N   0  0  0  0  0  0  0  0  0  0  0  0
   15.0120   35.9360   70.7330 C   0  0  0  0  0  0  0  0  0  0  0  0
   14.5420   37.0300   70.0410 C   0  0  0  0  0  0  0  0  0  0  0  0
   13.2630   36.9660   69.5230 C   0  0  0  0  0  0  0  0  0  0  0  0
   12.5260   35.8200   69.7250 C   0  0  0  0  0  0  0  0  0  0  0  0
   14.5230   33.6450   71.5550 C   0  0  0  0  0  0  0  0  0  0  0  0
   15.6240   33.4360   72.1170 O   0  0  0  0  0  0  0  0  0  0  0  0
   18.9260   26.7550   73.2860 C   0  0  0  0  0  0  0  0  0  0  0  0
   19.9480   25.6600   72.4720 S   0  0  0  0  0  0  0  0  0  0  0  0
   21.4580   26.2750   72.9620 C   0  0  0  0  0  0  0  0  0  0  0  0
   21.1170   27.3350   73.7590 C   0  0  0  0  0  0  0  0  0  0  0  0
   19.8120   27.5820   73.9260 C   0  0  0  0  0  0  0  0  0  0  0  0
   23.2300   25.6590   72.5210 B   0  0  0  0  0  0  0  0  0  0  0  0
   14.8540   27.3740   73.7050 H   0  0  0  0  0  0  0  0  0  0  0  0
   15.1270   28.4440   75.1680 H   0  0  0  0  0  0  0  0  0  0  0  0
   13.3540   28.9910   73.3580 H   0  0  0  0  0  0  0  0  0  0  0  0
   14.4260   30.3150   74.0430 H   0  0  0  0  0  0  0  0  0  0  0  0
   16.6190   30.8190   71.4200 H   0  0  0  0  0  0  0  0  0  0  0  0
   16.0050   31.1090   73.1390 H   0  0  0  0  0  0  0  0  0  0  0  0
   17.6310   28.8530   71.9700 H   0  0  0  0  0  0  0  0  0  0  0  0
   17.9740   29.9220   73.3880 H   0  0  0  0  0  0  0  0  0  0  0  0
   14.6890   31.0560   70.4560 H   0  0  0  0  0  0  0  0  0  0  0  0
   13.3710   29.8160   70.7100 H   0  0  0  0  0  0  0  0  0  0  0  0
   12.2300   31.2620   71.9600 H   0  0  0  0  0  0  0  0  0  0  0  0
   13.6430   31.5650   73.0920 H   0  0  0  0  0  0  0  0  0  0  0  0
   16.0170   35.9820   71.1420 H   0  0  0  0  0  0  0  0  0  0  0  0
   15.1260   37.9260   69.8880 H   0  0  0  0  0  0  0  0  0  0  0  0
   12.8780   37.8240   68.9730 H   0  0  0  0  0  0  0  0  0  0  0  0
   11.5310   35.7810   69.3160 H   0  0  0  0  0  0  0  0  0  0  0  0
   21.9200   27.9420   74.2320 H   0  0  0  0  0  0  0  0  0  0  0  0
   19.4340   28.4230   74.5580 H   0  0  0  0  0  0  0  0  0  0  0  0
  1  4  1  0  0  0  0
  1  2  2  0  0  0  0
  3  1  2  0  0  0  0
  4  5  1  0  0  0  0
  5 29  1  0  0  0  0
  6  5  1  0  0  0  0
  6 31  1  0  0  0  0
  7  8  1  0  0  0  0
  7  6  1  0  0  0  0
  8  9  1  0  0  0  0
  8 33  1  0  0  0  0
  9 35  1  0  0  0  0
  9  4  1  0  0  0  0
 10 11  1  0  0  0  0
 10  7  1  0  0  0  0
 11 39  1  0  0  0  0
 12 20  1  0  0  0  0
 12 11  1  0  0  0  0
 13 12  1  0  0  0  0
 14 13  2  0  0  0  0
 14 15  1  0  0  0  0
 15 20  1  0  0  0  0
 16 15  1  0  0  0  0
 16 40  1  0  0  0  0
 17 16  2  0  0  0  0
 18 19  2  0  0  0  0
 18 17  1  0  0  0  0
 19 14  1  0  0  0  0
 20 21  2  0  0  0  0
 22  1  1  0  0  0  0
 22 26  2  0  0  0  0
 23 24  1  0  0  0  0
 23 22  1  0  0  0  0
 24 25  2  0  0  0  0
 25 26  1  0  0  0  0
 25 44  1  0  0  0  0
 26 45  1  0  0  0  0
 27 24  1  0  0  0  0
 28  5  1  0  0  0  0
 30  6  1  0  0  0  0
 32  8  1  0  0  0  0
 34  9  1  0  0  0  0
 36 10  1  0  0  0  0
 37 10  1  0  0  0  0
 38 11  1  0  0  0  0
 41 17  1  0  0  0  0
 42 18  1  0  0  0  0
 43 19  1  0  0  0  0
M  END
>  <Pose>
1

>  <Score>
-7.14

$$$$
