
 OpenBabel03212208413D

 52 55  0  0  0  0  0  0  0  0999 V2000
   23.0900   36.7470   68.9250 Cl  0  0  0  0  0  0  0  0  0  0  0  0
   21.8450   35.6440   69.5600 C   0  0  0  0  0  0  0  0  0  0  0  0
   21.5350   34.4330   68.9530 C   0  0  0  0  0  0  0  0  0  0  0  0
   20.5160   33.6200   69.4160 C   0  0  0  0  0  0  0  0  0  0  0  0
   19.7540   34.0130   70.5330 C   0  0  0  0  0  0  0  0  0  0  0  0
   20.0820   35.1900   71.1050 C   0  0  0  0  0  0  0  0  0  0  0  0
   21.0950   36.0210   70.6600 C   0  0  0  0  0  0  0  0  0  0  0  0
   18.6480   33.1190   70.9290 C   0  0  0  0  0  0  0  0  0  0  0  0
   17.3320   33.4550   70.7050 C   0  0  0  0  0  0  0  0  0  0  0  0
   16.3280   32.6170   71.2100 C   0  0  0  0  0  0  0  0  0  0  0  0
   16.6340   31.4730   71.9140 C   0  0  0  0  0  0  0  0  0  0  0  0
   15.7070   30.5810   72.4550 C   0  0  0  0  0  0  0  0  0  0  0  0
   14.3610   30.9620   72.2260 C   0  0  0  0  0  0  0  0  0  0  0  0
   14.0110   32.1110   71.5230 C   0  0  0  0  0  0  0  0  0  0  0  0
   15.0070   32.9340   71.0220 C   0  0  0  0  0  0  0  0  0  0  0  0
   13.2860   30.2230   72.6800 O   0  0  0  0  0  0  0  0  0  0  0  0
   15.9420   29.4810   73.3230 C   0  0  0  0  0  0  0  0  0  0  0  0
   15.7890   29.5160   74.7550 N   0  0  0  0  0  4  0  0  0  0  0  0
   14.6280   28.6980   75.2030 C   0  0  0  0  0  0  0  0  0  0  0  0
   14.5610   27.4400   74.4130 C   0  0  0  0  0  0  0  0  0  0  0  0
   15.7150   26.5780   74.5250 N   0  0  0  0  0  0  0  0  0  0  0  0
   16.9180   27.2890   74.7950 C   0  0  0  0  0  0  0  0  0  0  0  0
   16.8730   28.6470   75.3180 C   0  0  0  0  0  0  0  0  0  0  0  0
   15.8640   25.7670   73.3070 C   0  0  0  0  0  0  0  0  0  0  0  0
   17.2510   25.8780   72.7160 C   0  0  0  0  0  0  0  0  0  0  0  0
   17.2890   25.5360   71.3730 O   0  0  0  0  0  0  0  0  0  0  0  0
   17.8630   31.2020   72.0970 O   0  0  0  0  0  0  0  0  0  0  0  0
   18.8880   31.9370   71.6600 C   0  0  0  0  0  0  0  0  0  0  0  0
   20.0620   31.6080   71.8690 O   0  0  0  0  0  0  0  0  0  0  0  0
   22.1190   34.1590   68.0930 H   0  0  0  0  0  0  0  0  0  0  0  0
   20.2850   32.6820   68.9240 H   0  0  0  0  0  0  0  0  0  0  0  0
   19.5500   35.5600   71.9740 H   0  0  0  0  0  0  0  0  0  0  0  0
   21.3230   36.9530   71.1550 H   0  0  0  0  0  0  0  0  0  0  0  0
   17.0440   34.3330   70.1550 H   0  0  0  0  0  0  0  0  0  0  0  0
   13.0040   32.3760   71.3070 H   0  0  0  0  0  0  0  0  0  0  0  0
   14.7360   33.8740   70.5030 H   0  0  0  0  0  0  0  0  0  0  0  0
   17.1650   29.4730   73.3320 H   0  0  0  0  0  0  0  0  0  0  0  0
   15.8240   28.5260   72.8690 H   0  0  0  0  0  0  0  0  0  0  0  0
   15.8660   30.3740   75.2510 H   0  0  0  0  0  0  0  0  0  0  0  0
   13.7050   29.2410   75.2890 H   0  0  0  0  0  0  0  0  0  0  0  0
   14.8920   28.4010   76.2830 H   0  0  0  0  0  0  0  0  0  0  0  0
   14.3150   27.6300   73.3620 H   0  0  0  0  0  0  0  0  0  0  0  0
   13.6970   26.8590   74.8470 H   0  0  0  0  0  0  0  0  0  0  0  0
   17.5700   27.2190   73.8950 H   0  0  0  0  0  0  0  0  0  0  0  0
   17.4990   26.6720   75.5770 H   0  0  0  0  0  0  0  0  0  0  0  0
   17.8240   29.2020   75.1460 H   0  0  0  0  0  0  0  0  0  0  0  0
   16.6590   28.5880   76.4310 H   0  0  0  0  0  0  0  0  0  0  0  0
   15.1200   26.1320   72.5950 H   0  0  0  0  0  0  0  0  0  0  0  0
   15.6820   24.6870   73.4800 H   0  0  0  0  0  0  0  0  0  0  0  0
   18.0410   25.4360   73.3100 H   0  0  0  0  0  0  0  0  0  0  0  0
   17.4690   27.0020   72.7760 H   0  0  0  0  0  0  0  0  0  0  0  0
   18.0670   26.0210   70.9480 H   0  0  0  0  0  0  0  0  0  0  0  0
  1  2  1  0  0  0  0
  2  7  1  0  0  0  0
  3  4  1  0  0  0  0
  3  2  2  0  0  0  0
  4  5  2  0  0  0  0
  5  8  1  0  0  0  0
  5  6  1  0  0  0  0
  6 32  1  0  0  0  0
  7  6  2  0  0  0  0
  7 33  1  0  0  0  0
  8 28  1  0  0  0  0
  9  8  2  0  0  0  0
  9 10  1  0  0  0  0
 10 11  1  0  0  0  0
 11 27  1  0  0  0  0
 11 12  2  0  0  0  0
 12 17  1  0  0  0  0
 13 12  1  0  0  0  0
 13 16  1  0  0  0  0
 14 13  2  0  0  0  0
 15 10  2  0  0  0  0
 15 14  1  0  0  0  0
 17 37  1  0  0  0  0
 17 18  1  0  0  0  0
 18 19  1  0  0  0  0
 18 39  1  0  0  0  0
 18 23  1  0  0  0  0
 19 40  1  0  0  0  0
 19 41  1  0  0  0  0
 20 21  1  0  0  0  0
 20 43  1  0  0  0  0
 20 19  1  0  0  0  0
 21 22  1  0  0  0  0
 22 23  1  0  0  0  0
 22 45  1  0  0  0  0
 23 47  1  0  0  0  0
 24 49  1  0  0  0  0
 24 21  1  0  0  0  0
 25 51  1  0  0  0  0
 25 24  1  0  0  0  0
 25 50  1  0  0  0  0
 26 25  1  0  0  0  0
 28 29  2  0  0  0  0
 28 27  1  0  0  0  0
 30  3  1  0  0  0  0
 31  4  1  0  0  0  0
 34  9  1  0  0  0  0
 35 14  1  0  0  0  0
 36 15  1  0  0  0  0
 38 17  1  0  0  0  0
 42 20  1  0  0  0  0
 44 22  1  0  0  0  0
 46 23  1  0  0  0  0
 48 24  1  0  0  0  0
 52 26  1  0  0  0  0
M  END
>  <Pose>
1

>  <Score>
-6.05

$$$$
