
 OpenBabel03212208413D

 36 39  0  0  1  0  0  0  0  0999 V2000
   13.9750   36.9960   69.6470 Cl  0  0  0  0  0  0  0  0  0  0  0  0
   14.1390   35.4030   70.3650 C   0  0  0  0  0  0  0  0  0  0  0  0
   15.3740   34.9350   70.7620 C   0  0  0  0  0  0  0  0  0  0  0  0
   15.4940   33.6760   71.3270 C   0  0  0  0  0  0  0  0  0  0  0  0
   14.4170   32.8390   71.5240 C   0  0  0  0  0  0  0  0  0  0  0  0
   13.1790   33.3190   71.1220 C   0  0  0  0  0  0  0  0  0  0  0  0
   13.0540   34.5740   70.5570 C   0  0  0  0  0  0  0  0  0  0  0  0
   14.5310   31.5400   72.1060 N   0  0  0  0  0  0  0  0  0  0  0  0
   15.3330   31.1400   73.2280 C   0  0  0  0  0  0  0  0  0  0  0  0
   16.1170   31.8740   73.8780 O   0  0  0  0  0  0  0  0  0  0  0  0
   15.1080   29.7060   73.5230 C   0  0  1  0  0  0  0  0  0  0  0  0
   14.8030   29.4770   74.8600 O   0  0  0  0  0  0  0  0  0  0  0  0
   13.6280   30.0290   75.1130 N   0  0  1  0  0  0  0  0  0  0  0  0
   12.8640   30.1530   73.9510 C   0  0  1  0  0  0  0  0  0  0  0  0
   13.7390   29.4970   72.8830 C   0  0  1  0  0  0  0  0  0  0  0  0
   13.8560   30.3560   71.6810 C   0  0  0  0  0  0  0  0  0  0  0  0
   13.4620   30.1470   70.4950 O   0  0  0  0  0  0  0  0  0  0  0  0
   11.4800   29.6590   73.9390 C   0  0  0  0  0  0  0  0  0  0  0  0
   10.9280   29.1050   75.1930 C   0  0  0  0  0  0  0  0  0  0  0  0
   11.5230   29.8590   76.3620 C   0  0  0  0  0  0  0  0  0  0  0  0
   13.0110   29.6250   76.3080 C   0  0  0  0  0  0  0  0  0  0  0  0
   16.2660   35.5630   70.6270 H   0  0  0  0  0  0  0  0  0  0  0  0
   16.4580   33.3040   71.6390 H   0  0  0  0  0  0  0  0  0  0  0  0
   12.3250   32.6650   71.2740 H   0  0  0  0  0  0  0  0  0  0  0  0
   12.0940   34.9480   70.2450 H   0  0  0  0  0  0  0  0  0  0  0  0
   15.8670   29.0380   73.1280 H   0  0  0  0  0  0  0  0  0  0  0  0
   12.8480   31.2500   73.6680 H   0  0  0  0  0  0  0  0  0  0  0  0
   13.4990   28.4630   72.6870 H   0  0  0  0  0  0  0  0  0  0  0  0
   11.4060   28.8460   73.1550 H   0  0  0  0  0  0  0  0  0  0  0  0
   10.7540   30.4380   73.5580 H   0  0  0  0  0  0  0  0  0  0  0  0
    9.8240   29.2690   75.2410 H   0  0  0  0  0  0  0  0  0  0  0  0
   11.1340   28.0300   75.3630 H   0  0  0  0  0  0  0  0  0  0  0  0
   11.1380   29.3890   77.2880 H   0  0  0  0  0  0  0  0  0  0  0  0
   11.2500   30.9180   76.3710 H   0  0  0  0  0  0  0  0  0  0  0  0
   13.1900   28.5490   76.5590 H   0  0  0  0  0  0  0  0  0  0  0  0
   13.4560   30.2010   77.1670 H   0  0  0  0  0  0  0  0  0  0  0  0
  1  2  1  0  0  0  0
  2  7  2  0  0  0  0
  2  3  1  0  0  0  0
  3  4  2  0  0  0  0
  4  5  1  0  0  0  0
  4 23  1  0  0  0  0
  5  8  1  0  0  0  0
  6 24  1  0  0  0  0
  6  5  2  0  0  0  0
  7  6  1  0  0  0  0
  8  9  1  0  0  0  0
  9 11  1  0  0  0  0
  9 10  2  0  0  0  0
 11 26  1  6  0  0  0
 11 12  1  0  0  0  0
 13 12  1  6  0  0  0
 13 21  1  0  0  0  0
 14 27  1  6  0  0  0
 14 13  1  0  0  0  0
 15 28  1  6  0  0  0
 15 11  1  0  0  0  0
 15 14  1  0  0  0  0
 16  8  1  0  0  0  0
 16 15  1  0  0  0  0
 17 16  2  0  0  0  0
 18 14  1  0  0  0  0
 18 19  1  0  0  0  0
 19 31  1  0  0  0  0
 19 32  1  0  0  0  0
 19 20  1  0  0  0  0
 20 34  1  0  0  0  0
 20 33  1  0  0  0  0
 21 20  1  0  0  0  0
 21 35  1  0  0  0  0
 21 36  1  0  0  0  0
 22  3  1  0  0  0  0
 25  7  1  0  0  0  0
 29 18  1  0  0  0  0
 30 18  1  0  0  0  0
M  END
>  <Pose>
1

>  <Score>
-4.41

$$$$
