
 OpenBabel03212208413D

 56 59  0  0  1  0  0  0  0  0999 V2000
   24.4090   33.2900   66.3880 Cl  0  0  0  0  0  0  0  0  0  0  0  0
   23.7900   33.2780   68.0410 C   0  0  0  0  0  0  0  0  0  0  0  0
   22.4650   33.5020   68.2370 C   0  0  0  0  0  0  0  0  0  0  0  0
   22.0040   33.4880   69.5580 C   0  0  0  0  0  0  0  0  0  0  0  0
   22.8250   33.2640   70.6080 C   0  0  0  0  0  0  0  0  0  0  0  0
   22.0570   33.3250   71.7390 N   0  0  0  0  0  0  0  0  0  0  0  0
   20.7830   33.5820   71.4350 C   0  0  0  0  0  0  0  0  0  0  0  0
   20.7280   33.6890   70.0460 C   0  0  0  0  0  0  0  0  0  0  0  0
   19.6380   33.7650   72.2840 C   0  0  0  0  0  0  0  0  0  0  0  0
   19.3930   35.0520   72.5640 O   0  0  0  0  0  0  0  0  0  0  0  0
   18.7380   32.9010   72.8720 N   0  0  0  0  0  0  0  0  0  0  0  0
   17.7010   33.6400   73.6450 C   0  0  0  0  0  0  0  0  0  0  0  0
   16.5320   33.9520   72.7300 C   0  0  0  0  0  0  0  0  0  0  0  0
   16.5750   32.9970   71.5990 C   0  0  1  0  0  0  0  0  0  0  0  0
   16.4840   31.5850   72.0770 C   0  0  2  0  0  0  0  0  0  0  0  0
   17.8270   30.9270   71.7130 C   0  0  0  0  0  0  0  0  0  0  0  0
   18.8020   31.4840   72.7680 C   0  0  0  0  0  0  0  0  0  0  0  0
   15.4140   30.8720   71.5420 O   0  0  0  0  0  0  0  0  0  0  0  0
   15.6810   33.2100   70.5040 N   0  0  0  0  0  0  0  0  0  0  0  0
   16.3170   33.5570   69.2580 C   0  0  0  0  0  0  0  0  0  0  0  0
   17.0180   34.8590   69.3380 C   0  0  0  0  0  0  0  0  0  0  0  0
   16.0210   35.8440   69.7720 N   0  0  0  0  0  0  0  0  0  0  0  0
   14.6870   35.3410   69.9680 C   0  0  0  0  0  0  0  0  0  0  0  0
   14.5960   34.1020   70.8090 C   0  0  0  0  0  0  0  0  0  0  0  0
   16.3990   37.2090   69.9540 C   0  0  0  0  0  0  0  0  0  0  0  0
   15.9990   37.8240   70.9520 O   0  0  0  0  0  0  0  0  0  0  0  0
   17.2720   37.8510   68.9210 C   0  0  0  0  0  0  0  0  0  0  0  0
   24.1580   33.0390   70.3940 C   0  0  0  0  0  0  0  0  0  0  0  0
   24.6470   33.0460   69.0970 C   0  0  0  0  0  0  0  0  0  0  0  0
   21.7900   33.6840   67.4260 H   0  0  0  0  0  0  0  0  0  0  0  0
   22.4760   33.1670   72.6640 H   0  0  0  0  0  0  0  0  0  0  0  0
   19.8380   33.8890   69.4860 H   0  0  0  0  0  0  0  0  0  0  0  0
   18.1000   34.5860   74.0170 H   0  0  0  0  0  0  0  0  0  0  0  0
   17.4420   33.0160   74.5130 H   0  0  0  0  0  0  0  0  0  0  0  0
   16.5030   35.0140   72.4450 H   0  0  0  0  0  0  0  0  0  0  0  0
   15.6270   33.7730   73.3950 H   0  0  0  0  0  0  0  0  0  0  0  0
   17.6100   33.1840   71.1220 H   0  0  0  0  0  0  0  0  0  0  0  0
   16.4120   31.4750   73.1920 H   0  0  0  0  0  0  0  0  0  0  0  0
   17.7950   29.8480   71.7670 H   0  0  0  0  0  0  0  0  0  0  0  0
   18.1000   31.3520   70.7200 H   0  0  0  0  0  0  0  0  0  0  0  0
   19.7550   31.0190   72.6310 H   0  0  0  0  0  0  0  0  0  0  0  0
   18.3980   31.0180   73.7450 H   0  0  0  0  0  0  0  0  0  0  0  0
   15.6340   30.7490   70.5620 H   0  0  0  0  0  0  0  0  0  0  0  0
   15.5000   33.6110   68.4900 H   0  0  0  0  0  0  0  0  0  0  0  0
   16.9940   32.7140   68.9630 H   0  0  0  0  0  0  0  0  0  0  0  0
   17.8960   34.8270   69.9840 H   0  0  0  0  0  0  0  0  0  0  0  0
   17.3140   35.1340   68.2920 H   0  0  0  0  0  0  0  0  0  0  0  0
   14.2670   35.1640   68.9420 H   0  0  0  0  0  0  0  0  0  0  0  0
   14.0280   36.1520   70.4150 H   0  0  0  0  0  0  0  0  0  0  0  0
   13.6430   33.5850   70.5310 H   0  0  0  0  0  0  0  0  0  0  0  0
   14.4920   34.3370   71.8840 H   0  0  0  0  0  0  0  0  0  0  0  0
   17.5830   37.1060   68.1740 H   0  0  0  0  0  0  0  0  0  0  0  0
   16.6810   38.6770   68.4400 H   0  0  0  0  0  0  0  0  0  0  0  0
   18.1340   38.2900   69.4230 H   0  0  0  0  0  0  0  0  0  0  0  0
   24.8420   32.8520   71.2120 H   0  0  0  0  0  0  0  0  0  0  0  0
   25.6840   32.8770   68.8680 H   0  0  0  0  0  0  0  0  0  0  0  0
  1  2  1  0  0  0  0
  2  3  2  0  0  0  0
  2 29  1  0  0  0  0
  3  4  1  0  0  0  0
  4  8  1  0  0  0  0
  4  5  2  0  0  0  0
  5  6  1  0  0  0  0
  6 31  1  0  0  0  0
  7  6  1  0  0  0  0
  7  9  1  0  0  0  0
  8  7  2  0  0  0  0
  9 10  2  0  0  0  0
  9 11  1  0  0  0  0
 11 12  1  0  0  0  0
 12 33  1  0  0  0  0
 12 34  1  0  0  0  0
 13 36  1  0  0  0  0
 13 12  1  0  0  0  0
 14 37  1  6  0  0  0
 14 15  1  0  0  0  0
 14 13  1  0  0  0  0
 15 38  1  1  0  0  0
 16 39  1  0  0  0  0
 16 15  1  0  0  0  0
 16 17  1  0  0  0  0
 17 11  1  0  0  0  0
 17 42  1  0  0  0  0
 18 15  1  0  0  0  0
 19 24  1  0  0  0  0
 19 14  1  0  0  0  0
 20 21  1  0  0  0  0
 20 19  1  0  0  0  0
 21 22  1  0  0  0  0
 21 46  1  0  0  0  0
 22 25  1  0  0  0  0
 22 23  1  0  0  0  0
 23 49  1  0  0  0  0
 23 24  1  0  0  0  0
 24 51  1  0  0  0  0
 25 26  2  0  0  0  0
 27 54  1  0  0  0  0
 27 25  1  0  0  0  0
 28  5  1  0  0  0  0
 28 55  1  0  0  0  0
 29 28  2  0  0  0  0
 30  3  1  0  0  0  0
 32  8  1  0  0  0  0
 35 13  1  0  0  0  0
 40 16  1  0  0  0  0
 41 17  1  0  0  0  0
 43 18  1  0  0  0  0
 44 20  1  0  0  0  0
 45 20  1  0  0  0  0
 47 21  1  0  0  0  0
 48 23  1  0  0  0  0
 50 24  1  0  0  0  0
 52 27  1  0  0  0  0
 53 27  1  0  0  0  0
 56 29  1  0  0  0  0
M  END
>  <Pose>
1

>  <Score>
-5.52

$$$$
