
 OpenBabel03212208413D

 41 45  0  0  1  0  0  0  0  0999 V2000
   13.7600   30.5110   72.4340 Cl  0  0  0  0  0  0  0  0  0  0  0  0
   15.3800   31.1940   72.2650 C   0  0  0  0  0  0  0  0  0  0  0  0
   16.1110   31.5900   73.3580 C   0  0  0  0  0  0  0  0  0  0  0  0
   17.3790   32.1180   73.1900 C   0  0  0  0  0  0  0  0  0  0  0  0
   17.9620   32.2720   71.9550 C   0  0  0  0  0  0  0  0  0  0  0  0
   17.2280   31.8720   70.8530 C   0  0  0  0  0  0  0  0  0  0  0  0
   15.9520   31.3400   71.0210 C   0  0  0  0  0  0  0  0  0  0  0  0
   19.2720   32.8140   71.7680 N   0  0  0  0  0  0  0  0  0  0  0  0
   20.3280   32.3630   70.9320 C   0  0  0  0  0  0  0  0  0  0  0  0
   20.2430   31.4290   70.0920 O   0  0  0  0  0  0  0  0  0  0  0  0
   21.5750   33.1580   71.1870 C   0  0  1  0  0  0  0  0  0  0  0  0
   22.0690   33.8020   69.9350 C   0  0  2  0  0  0  0  0  0  0  0  0
   22.2560   35.1630   70.2830 O   0  0  0  0  0  0  0  0  0  0  0  0
   20.9530   35.3710   70.8040 C   0  0  2  0  0  0  0  0  0  0  0  0
   21.0160   34.3680   71.9510 C   0  0  1  0  0  0  0  0  0  0  0  0
   19.7110   33.9740   72.4630 C   0  0  0  0  0  0  0  0  0  0  0  0
   19.0940   34.5810   73.3740 O   0  0  0  0  0  0  0  0  0  0  0  0
   20.1300   34.8780   69.6750 C   0  0  0  0  0  0  0  0  0  0  0  0
   20.8840   33.9630   69.0320 C   0  0  0  0  0  0  0  0  0  0  0  0
   20.6820   36.7570   71.2210 C   0  0  0  0  0  0  0  0  0  0  0  0
   23.2440   33.2030   69.2910 C   0  0  0  0  0  0  0  0  0  0  0  0
   23.3820   33.7560   68.0170 O   0  0  0  0  0  0  0  0  0  0  0  0
   24.1390   34.8960   68.1250 C   0  0  0  0  0  0  0  0  0  0  0  0
   24.9800   34.6220   69.3430 C   0  0  0  0  0  0  0  0  0  0  0  0
   24.3950   33.5590   69.9940 O   0  0  0  0  0  0  0  0  0  0  0  0
   15.6870   31.4840   74.3350 H   0  0  0  0  0  0  0  0  0  0  0  0
   17.9830   32.4400   74.0460 H   0  0  0  0  0  0  0  0  0  0  0  0
   17.6490   31.9770   69.8590 H   0  0  0  0  0  0  0  0  0  0  0  0
   15.3700   31.0230   70.1720 H   0  0  0  0  0  0  0  0  0  0  0  0
   22.3190   32.6090   71.7620 H   0  0  0  0  0  0  0  0  0  0  0  0
   21.7200   34.7420   72.6910 H   0  0  0  0  0  0  0  0  0  0  0  0
   19.1300   35.1350   69.3500 H   0  0  0  0  0  0  0  0  0  0  0  0
   20.7050   33.4510   68.1010 H   0  0  0  0  0  0  0  0  0  0  0  0
   20.8110   36.9490   72.3110 H   0  0  0  0  0  0  0  0  0  0  0  0
   19.6340   37.0830   70.9700 H   0  0  0  0  0  0  0  0  0  0  0  0
   21.3300   37.5180   70.7120 H   0  0  0  0  0  0  0  0  0  0  0  0
   23.1810   32.1140   69.2740 H   0  0  0  0  0  0  0  0  0  0  0  0
   24.7640   34.9650   67.1880 H   0  0  0  0  0  0  0  0  0  0  0  0
   23.5720   35.8330   68.1750 H   0  0  0  0  0  0  0  0  0  0  0  0
   24.9770   35.5640   69.9500 H   0  0  0  0  0  0  0  0  0  0  0  0
   26.0120   34.3900   68.9720 H   0  0  0  0  0  0  0  0  0  0  0  0
  2  1  1  0  0  0  0
  2  3  1  0  0  0  0
  3 26  1  0  0  0  0
  4  3  2  0  0  0  0
  4 27  1  0  0  0  0
  5  4  1  0  0  0  0
  6  7  1  0  0  0  0
  6  5  2  0  0  0  0
  7  2  2  0  0  0  0
  8  5  1  0  0  0  0
  8 16  1  0  0  0  0
  9 11  1  0  0  0  0
  9  8  1  0  0  0  0
 10  9  2  0  0  0  0
 11 30  1  1  0  0  0
 11 15  1  0  0  0  0
 12 21  1  6  0  0  0
 12 13  1  0  0  0  0
 12 11  1  0  0  0  0
 13 14  1  0  0  0  0
 14 20  1  1  0  0  0
 14 15  1  0  0  0  0
 15 16  1  0  0  0  0
 15 31  1  1  0  0  0
 16 17  2  0  0  0  0
 18 14  1  0  0  0  0
 19 18  2  0  0  0  0
 19 12  1  0  0  0  0
 20 34  1  0  0  0  0
 21 25  1  0  0  0  0
 22 23  1  0  0  0  0
 22 21  1  0  0  0  0
 23 39  1  0  0  0  0
 23 24  1  0  0  0  0
 24 40  1  0  0  0  0
 24 25  1  0  0  0  0
 28  6  1  0  0  0  0
 29  7  1  0  0  0  0
 32 18  1  0  0  0  0
 33 19  1  0  0  0  0
 35 20  1  0  0  0  0
 36 20  1  0  0  0  0
 37 21  1  0  0  0  0
 38 23  1  0  0  0  0
 41 24  1  0  0  0  0
M  END
>  <Pose>
1

>  <Score>
-5.04

$$$$
