
 OpenBabel03212208413D

 49 52  0  0  0  0  0  0  0  0999 V2000
    6.4640   30.3880   77.9170 Cl  0  0  0  0  0  0  0  0  0  0  0  0
    7.8700   29.9350   76.9450 C   0  0  0  0  0  0  0  0  0  0  0  0
    7.7110   29.2800   75.7520 C   0  0  0  0  0  0  0  0  0  0  0  0
    8.8550   28.9570   75.0570 C   0  0  0  0  0  0  0  0  0  0  0  0
   10.1240   29.2780   75.5340 C   0  0  0  0  0  0  0  0  0  0  0  0
   10.2330   29.9430   76.7480 C   0  0  0  0  0  0  0  0  0  0  0  0
    9.0970   30.2690   77.4520 C   0  0  0  0  0  0  0  0  0  0  0  0
   11.2900   28.9330   74.7940 N   0  0  0  0  0  0  0  0  0  0  0  0
   12.4190   29.7520   74.6180 C   0  0  0  0  0  0  0  0  0  0  0  0
   13.2160   29.8640   75.5890 O   0  0  0  0  0  0  0  0  0  0  0  0
   12.7060   30.4510   73.4300 N   0  0  0  0  0  0  0  0  0  0  0  0
   13.9650   30.7160   72.9020 N   0  0  0  0  0  0  0  0  0  0  0  0
   14.0550   31.1510   71.5580 C   0  0  0  0  0  0  0  0  0  0  0  0
   13.2820   30.6420   70.6860 O   0  0  0  0  0  0  0  0  0  0  0  0
   15.0320   32.1620   71.2020 C   0  0  0  0  0  0  0  0  0  0  0  0
   16.3310   31.9960   71.2610 N   0  0  0  0  0  0  0  0  0  0  0  0
   17.0230   33.1120   70.8650 N   0  0  0  0  0  0  0  0  0  0  0  0
   16.0320   34.0830   70.5240 C   0  0  0  0  0  0  0  0  0  0  0  0
   16.1070   35.3070   70.0930 N   0  0  0  0  0  0  0  0  0  0  0  0
   14.9460   36.0770   69.8200 N   0  0  0  0  0  0  0  0  0  0  0  0
   13.6500   35.5600   69.9980 C   0  0  0  0  0  0  0  0  0  0  0  0
   12.5560   36.2640   69.7380 C   0  0  0  0  0  0  0  0  0  0  0  0
   13.5440   34.1880   70.4830 C   0  0  0  0  0  0  0  0  0  0  0  0
   12.4160   33.7140   70.6470 O   0  0  0  0  0  0  0  0  0  0  0  0
   14.7580   33.4790   70.7370 N   0  0  0  0  0  0  0  0  0  0  0  0
   18.4390   33.2390   70.7700 C   0  0  0  0  0  0  0  0  0  0  0  0
   19.0920   34.3510   71.2430 C   0  0  0  0  0  0  0  0  0  0  0  0
   20.4710   34.5070   71.2130 C   0  0  0  0  0  0  0  0  0  0  0  0
   21.2650   33.5090   70.6840 C   0  0  0  0  0  0  0  0  0  0  0  0
   20.6310   32.3840   70.1990 C   0  0  0  0  0  0  0  0  0  0  0  0
   19.2430   32.2550   70.2420 C   0  0  0  0  0  0  0  0  0  0  0  0
   22.7550   33.6190   70.6660 C   0  0  0  0  0  0  0  0  0  0  0  0
    6.7220   29.0230   75.3680 H   0  0  0  0  0  0  0  0  0  0  0  0
    8.7830   28.4320   74.0990 H   0  0  0  0  0  0  0  0  0  0  0  0
   11.2400   30.1800   77.0870 H   0  0  0  0  0  0  0  0  0  0  0  0
    9.2080   30.8020   78.4060 H   0  0  0  0  0  0  0  0  0  0  0  0
   11.2700   27.9800   74.3520 H   0  0  0  0  0  0  0  0  0  0  0  0
   11.9000   30.8290   72.8340 H   0  0  0  0  0  0  0  0  0  0  0  0
   14.7900   30.5960   73.5070 H   0  0  0  0  0  0  0  0  0  0  0  0
   15.1180   37.0500   69.4780 H   0  0  0  0  0  0  0  0  0  0  0  0
   12.5770   37.2770   69.3730 H   0  0  0  0  0  0  0  0  0  0  0  0
   11.5740   35.8270   69.8810 H   0  0  0  0  0  0  0  0  0  0  0  0
   18.4680   35.1500   71.6670 H   0  0  0  0  0  0  0  0  0  0  0  0
   20.9490   35.3930   71.5920 H   0  0  0  0  0  0  0  0  0  0  0  0
   21.2680   31.6070   69.7800 H   0  0  0  0  0  0  0  0  0  0  0  0
   18.7730   31.3560   69.8490 H   0  0  0  0  0  0  0  0  0  0  0  0
   23.1430   34.2670   69.8770 H   0  0  0  0  0  0  0  0  0  0  0  0
   23.2450   32.6400   70.5960 H   0  0  0  0  0  0  0  0  0  0  0  0
   23.1100   34.0400   71.6580 H   0  0  0  0  0  0  0  0  0  0  0  0
  2  7  1  0  0  0  0
  2  1  1  0  0  0  0
  3  2  2  0  0  0  0
  4  5  2  0  0  0  0
  4  3  1  0  0  0  0
  5  6  1  0  0  0  0
  6 35  1  0  0  0  0
  6  7  2  0  0  0  0
  7 36  1  0  0  0  0
  8  5  1  0  0  0  0
  9  8  1  0  0  0  0
  9 10  2  0  0  0  0
 11  9  1  0  0  0  0
 12 11  1  0  0  0  0
 12 39  1  0  0  0  0
 13 12  1  0  0  0  0
 14 13  2  0  0  0  0
 15 16  2  0  0  0  0
 15 13  1  0  0  0  0
 17 16  1  0  0  0  0
 18 25  1  0  0  0  0
 18 17  1  0  0  0  0
 19 18  2  0  0  0  0
 20 21  1  0  0  0  0
 20 19  1  0  0  0  0
 21 23  1  0  0  0  0
 22 42  1  0  0  0  0
 22 21  2  0  0  0  0
 23 24  2  0  0  0  0
 23 25  1  0  0  0  0
 25 15  1  0  0  0  0
 26 17  1  0  0  0  0
 26 27  1  0  0  0  0
 27 43  1  0  0  0  0
 28 27  2  0  0  0  0
 28 44  1  0  0  0  0
 29 28  1  0  0  0  0
 30 31  1  0  0  0  0
 30 29  2  0  0  0  0
 31 26  2  0  0  0  0
 32 29  1  0  0  0  0
 32 49  1  0  0  0  0
 33  3  1  0  0  0  0
 34  4  1  0  0  0  0
 37  8  1  0  0  0  0
 38 11  1  0  0  0  0
 40 20  1  0  0  0  0
 41 22  1  0  0  0  0
 45 30  1  0  0  0  0
 46 31  1  0  0  0  0
 47 32  1  0  0  0  0
 48 32  1  0  0  0  0
M  END
>  <Pose>
1

>  <Score>
-8.88

$$$$
