
 OpenBabel03212208413D

 42 45  0  0  0  0  0  0  0  0999 V2000
   21.1480   37.2750   71.6750 Cl  0  0  0  0  0  0  0  0  0  0  0  0
   20.1370   35.8690   71.4100 C   0  0  0  0  0  0  0  0  0  0  0  0
   19.0690   35.9490   70.5420 C   0  0  0  0  0  0  0  0  0  0  0  0
   18.3030   34.8010   70.3720 C   0  0  0  0  0  0  0  0  0  0  0  0
   18.5570   33.6170   71.0170 C   0  0  0  0  0  0  0  0  0  0  0  0
   19.6260   33.5580   71.8750 C   0  0  0  0  0  0  0  0  0  0  0  0
   20.3950   34.6820   72.0570 C   0  0  0  0  0  0  0  0  0  0  0  0
   17.7110   32.4470   70.7910 C   0  0  0  0  0  0  0  0  0  0  0  0
   16.5780   32.3210   71.6240 N   0  0  0  0  0  0  0  0  0  0  0  0
   15.5030   31.5350   71.1650 C   0  0  0  0  0  0  0  0  0  0  0  0
   15.5010   30.0900   71.5880 C   0  0  0  0  0  0  0  0  0  0  0  0
   16.3390   30.0220   72.8140 N   0  0  0  0  0  0  0  0  0  0  0  0
   16.1670   31.1230   73.6840 C   0  0  0  0  0  0  0  0  0  0  0  0
   16.8280   32.3220   73.0380 C   0  0  0  0  0  0  0  0  0  0  0  0
   17.1520   28.8780   72.9590 C   0  0  0  0  0  0  0  0  0  0  0  0
   16.9110   27.7860   72.1720 N   0  0  0  0  0  0  0  0  0  0  0  0
   17.5760   26.6390   72.2330 C   0  0  0  0  0  0  0  0  0  0  0  0
   18.5690   26.5220   73.1310 N   0  0  0  0  0  0  0  0  0  0  0  0
   18.8540   27.5700   73.9370 C   0  0  0  0  0  0  0  0  0  0  0  0
   19.7790   27.7450   74.8990 N   0  0  0  0  0  0  0  0  0  0  0  0
   19.6640   28.9760   75.3990 C   0  0  0  0  0  0  0  0  0  0  0  0
   18.6680   29.6320   74.7790 N   0  0  0  0  0  0  0  0  0  0  0  0
   18.1570   28.7790   73.8770 C   0  0  0  0  0  0  0  0  0  0  0  0
   17.2690   25.5240   71.3710 N   0  0  0  0  0  0  0  0  0  0  0  0
   18.8370   36.8710   70.0150 H   0  0  0  0  0  0  0  0  0  0  0  0
   17.4720   34.9250   69.6750 H   0  0  0  0  0  0  0  0  0  0  0  0
   19.8750   32.6290   72.4200 H   0  0  0  0  0  0  0  0  0  0  0  0
   21.2500   34.6340   72.7450 H   0  0  0  0  0  0  0  0  0  0  0  0
   17.3790   32.3580   69.7270 H   0  0  0  0  0  0  0  0  0  0  0  0
   18.3610   31.5360   70.9490 H   0  0  0  0  0  0  0  0  0  0  0  0
   15.4490   31.5710   70.0800 H   0  0  0  0  0  0  0  0  0  0  0  0
   14.5460   32.0010   71.5410 H   0  0  0  0  0  0  0  0  0  0  0  0
   15.8380   29.3860   70.8300 H   0  0  0  0  0  0  0  0  0  0  0  0
   14.4910   29.7810   71.9280 H   0  0  0  0  0  0  0  0  0  0  0  0
   15.0440   31.3740   73.6500 H   0  0  0  0  0  0  0  0  0  0  0  0
   16.3590   30.9980   74.7380 H   0  0  0  0  0  0  0  0  0  0  0  0
   17.9120   32.3960   73.2250 H   0  0  0  0  0  0  0  0  0  0  0  0
   16.3460   33.2290   73.4700 H   0  0  0  0  0  0  0  0  0  0  0  0
   20.3040   29.3650   76.1980 H   0  0  0  0  0  0  0  0  0  0  0  0
   18.3940   30.6150   74.9920 H   0  0  0  0  0  0  0  0  0  0  0  0
   16.4560   24.9140   71.5350 H   0  0  0  0  0  0  0  0  0  0  0  0
   17.8800   25.3210   70.5550 H   0  0  0  0  0  0  0  0  0  0  0  0
  2  1  1  0  0  0  0
  2  7  1  0  0  0  0
  3  2  2  0  0  0  0
  4  3  1  0  0  0  0
  4  5  2  0  0  0  0
  5  6  1  0  0  0  0
  6  7  2  0  0  0  0
  6 27  1  0  0  0  0
  7 28  1  0  0  0  0
  8 30  1  0  0  0  0
  8  5  1  0  0  0  0
  8  9  1  0  0  0  0
  9 14  1  0  0  0  0
 10 32  1  0  0  0  0
 10 11  1  0  0  0  0
 10  9  1  0  0  0  0
 11 34  1  0  0  0  0
 11 12  1  0  0  0  0
 12 15  1  0  0  0  0
 12 13  1  0  0  0  0
 13 36  1  0  0  0  0
 14 37  1  0  0  0  0
 14 38  1  0  0  0  0
 14 13  1  0  0  0  0
 15 23  2  0  0  0  0
 16 17  2  0  0  0  0
 16 15  1  0  0  0  0
 17 18  1  0  0  0  0
 18 19  2  0  0  0  0
 19 20  1  0  0  0  0
 20 21  2  0  0  0  0
 21 39  1  0  0  0  0
 22 40  1  0  0  0  0
 22 21  1  0  0  0  0
 23 19  1  0  0  0  0
 23 22  1  0  0  0  0
 24 41  1  0  0  0  0
 24 17  1  0  0  0  0
 25  3  1  0  0  0  0
 26  4  1  0  0  0  0
 29  8  1  0  0  0  0
 31 10  1  0  0  0  0
 33 11  1  0  0  0  0
 35 13  1  0  0  0  0
 42 24  1  0  0  0  0
M  END
>  <Pose>
1

>  <Score>
-5.66

$$$$
