
 OpenBabel03212208413D

 42 45  0  0  0  0  0  0  0  0999 V2000
   16.2510   27.7260   74.8390 Cl  0  0  0  0  0  0  0  0  0  0  0  0
   15.3050   28.8900   73.9190 C   0  0  0  0  0  0  0  0  0  0  0  0
   15.6680   29.2070   72.6340 C   0  0  0  0  0  0  0  0  0  0  0  0
   14.9120   30.1250   71.9240 C   0  0  0  0  0  0  0  0  0  0  0  0
   13.8120   30.7230   72.4750 C   0  0  0  0  0  0  0  0  0  0  0  0
   13.4450   30.4080   73.7610 C   0  0  0  0  0  0  0  0  0  0  0  0
   14.1930   29.4990   74.4650 C   0  0  0  0  0  0  0  0  0  0  0  0
   13.0620   31.6950   71.6380 C   0  0  0  0  0  0  0  0  0  0  0  0
   13.8610   32.9170   71.5560 N   0  0  0  0  0  0  0  0  0  0  0  0
   15.0650   33.1500   72.0420 N   0  0  0  0  0  0  0  0  0  0  0  0
   15.4620   34.3790   71.7660 N   0  0  0  0  0  0  0  0  0  0  0  0
   14.4990   34.9900   71.0760 C   0  0  0  0  0  0  0  0  0  0  0  0
   13.4850   34.0670   70.9420 C   0  0  0  0  0  0  0  0  0  0  0  0
   12.3830   34.4400   70.2760 N   0  0  0  0  0  0  0  0  0  0  0  0
   12.2730   35.6760   69.7570 C   0  0  0  0  0  0  0  0  0  0  0  0
   13.2770   36.5590   69.9000 N   0  0  0  0  0  0  0  0  0  0  0  0
   14.4330   36.2770   70.5570 C   0  0  0  0  0  0  0  0  0  0  0  0
   15.4840   37.1980   70.7100 N   0  0  0  0  0  0  0  0  0  0  0  0
   16.2300   37.4630   71.9110 C   0  0  0  0  0  0  0  0  0  0  0  0
   17.6610   37.1750   71.6460 C   0  0  0  0  0  0  0  0  0  0  0  0
   18.0850   37.0940   70.3130 N   0  0  0  0  0  0  0  0  0  0  0  0
   17.3210   37.6630   69.2860 C   0  0  0  0  0  0  0  0  0  0  0  0
   15.9060   37.9900   69.5800 C   0  0  0  0  0  0  0  0  0  0  0  0
   18.3780   35.7100   69.9860 C   0  0  0  0  0  0  0  0  0  0  0  0
   16.5320   28.7520   72.1720 H   0  0  0  0  0  0  0  0  0  0  0  0
   15.2100   30.3690   70.9040 H   0  0  0  0  0  0  0  0  0  0  0  0
   12.5880   30.8740   74.1890 H   0  0  0  0  0  0  0  0  0  0  0  0
   13.9410   29.2140   75.4960 H   0  0  0  0  0  0  0  0  0  0  0  0
   12.9160   31.3030   70.6250 H   0  0  0  0  0  0  0  0  0  0  0  0
   12.0740   31.8900   72.1030 H   0  0  0  0  0  0  0  0  0  0  0  0
   11.3710   35.9420   69.2260 H   0  0  0  0  0  0  0  0  0  0  0  0
   15.8780   36.8750   72.7800 H   0  0  0  0  0  0  0  0  0  0  0  0
   16.0830   38.5270   72.1960 H   0  0  0  0  0  0  0  0  0  0  0  0
   18.2660   37.9830   72.1560 H   0  0  0  0  0  0  0  0  0  0  0  0
   17.9610   36.2450   72.2070 H   0  0  0  0  0  0  0  0  0  0  0  0
   17.8230   38.6250   68.9630 H   0  0  0  0  0  0  0  0  0  0  0  0
   17.3610   37.0300   68.3530 H   0  0  0  0  0  0  0  0  0  0  0  0
   15.7670   39.0690   69.8080 H   0  0  0  0  0  0  0  0  0  0  0  0
   15.2720   37.7560   68.6790 H   0  0  0  0  0  0  0  0  0  0  0  0
   18.3490   35.0620   70.9060 H   0  0  0  0  0  0  0  0  0  0  0  0
   17.5850   35.3160   69.3140 H   0  0  0  0  0  0  0  0  0  0  0  0
   19.3910   35.5870   69.5590 H   0  0  0  0  0  0  0  0  0  0  0  0
  2  7  1  0  0  0  0
  2  1  1  0  0  0  0
  3  2  2  0  0  0  0
  4  5  2  0  0  0  0
  4  3  1  0  0  0  0
  5  6  1  0  0  0  0
  6 27  1  0  0  0  0
  6  7  2  0  0  0  0
  7 28  1  0  0  0  0
  8 30  1  0  0  0  0
  8  5  1  0  0  0  0
  9  8  1  0  0  0  0
  9 10  1  0  0  0  0
 11 10  2  0  0  0  0
 12 11  1  0  0  0  0
 13 12  2  0  0  0  0
 13  9  1  0  0  0  0
 14 13  1  0  0  0  0
 15 16  1  0  0  0  0
 15 14  2  0  0  0  0
 16 17  2  0  0  0  0
 17 18  1  0  0  0  0
 17 12  1  0  0  0  0
 18 19  1  0  0  0  0
 19 33  1  0  0  0  0
 19 32  1  0  0  0  0
 20 19  1  0  0  0  0
 20 34  1  0  0  0  0
 20 35  1  0  0  0  0
 21 20  1  0  0  0  0
 22 23  1  0  0  0  0
 22 21  1  0  0  0  0
 23 38  1  0  0  0  0
 23 18  1  0  0  0  0
 24 21  1  0  0  0  0
 24 40  1  0  0  0  0
 25  3  1  0  0  0  0
 26  4  1  0  0  0  0
 29  8  1  0  0  0  0
 31 15  1  0  0  0  0
 36 22  1  0  0  0  0
 37 22  1  0  0  0  0
 39 23  1  0  0  0  0
 41 24  1  0  0  0  0
 42 24  1  0  0  0  0
M  END
>  <Pose>
1

>  <Score>
-5.32

$$$$
