
 OpenBabel03212208413D

 54 57  0  0  0  0  0  0  0  0999 V2000
   16.2470   25.3910   74.5400 B   0  0  0  0  0  0  0  0  0  0  0  0
   15.6750   27.1670   74.1460 C   0  0  0  0  0  0  0  0  0  0  0  0
   16.2800   27.9040   73.1530 C   0  0  0  0  0  0  0  0  0  0  0  0
   15.8680   29.1830   72.8680 C   0  0  0  0  0  0  0  0  0  0  0  0
   14.8300   29.7090   73.6050 C   0  0  0  0  0  0  0  0  0  0  0  0
   14.2080   28.9730   74.6170 C   0  0  0  0  0  0  0  0  0  0  0  0
   14.6280   27.6830   74.8990 C   0  0  0  0  0  0  0  0  0  0  0  0
   14.4340   31.0050   73.2970 O   0  0  0  0  0  0  0  0  0  0  0  0
   13.6870   31.3450   72.1530 C   0  0  0  0  0  0  0  0  0  0  0  0
   16.5010   29.9730   71.8180 C   0  0  0  0  0  0  0  0  0  0  0  0
   17.3410   30.9090   72.0550 N   0  0  0  0  0  0  0  0  0  0  0  0
   17.9550   31.6750   71.0630 N   0  0  0  0  0  0  0  0  0  0  0  0
   17.6340   33.0420   70.8380 C   0  0  0  0  0  0  0  0  0  0  0  0
   16.3660   33.5050   70.7900 N   0  0  0  0  0  4  0  0  0  0  0  0
   16.0980   34.7980   70.5760 C   0  0  0  0  0  0  0  0  0  0  0  0
   17.1260   35.6440   70.4060 N   0  0  0  0  0  0  0  0  0  0  0  0
   18.4260   35.2480   70.4410 C   0  0  0  0  0  0  0  0  0  0  0  0
   18.6230   33.9200   70.6630 N   0  0  0  0  0  0  0  0  0  0  0  0
   19.4990   36.1400   70.2620 N   0  0  0  0  0  0  0  0  0  0  0  0
   19.3970   37.2620   69.3760 C   0  0  0  0  0  0  0  0  0  0  0  0
   20.5880   37.1870   68.4230 C   0  0  0  0  0  0  0  0  0  0  0  0
   21.7300   37.1570   69.2040 O   0  0  0  0  0  0  0  0  0  0  0  0
   21.8510   36.0000   69.9380 C   0  0  0  0  0  0  0  0  0  0  0  0
   20.7270   35.9360   70.9730 C   0  0  0  0  0  0  0  0  0  0  0  0
   14.7640   35.2840   70.5280 N   0  0  0  0  0  0  0  0  0  0  0  0
   13.6190   34.4310   70.7540 C   0  0  0  0  0  0  0  0  0  0  0  0
   12.5030   34.7310   69.7650 C   0  0  0  0  0  0  0  0  0  0  0  0
   12.3140   36.1130   69.6440 O   0  0  0  0  0  0  0  0  0  0  0  0
   13.4410   36.7410   69.1710 C   0  0  0  0  0  0  0  0  0  0  0  0
   14.5060   36.6790   70.2440 C   0  0  0  0  0  0  0  0  0  0  0  0
   17.1080   27.5000   72.5560 H   0  0  0  0  0  0  0  0  0  0  0  0
   13.3860   29.4090   75.1900 H   0  0  0  0  0  0  0  0  0  0  0  0
   14.1320   27.1330   75.6810 H   0  0  0  0  0  0  0  0  0  0  0  0
   14.4230   31.5820   71.3440 H   0  0  0  0  0  0  0  0  0  0  0  0
   12.9560   30.5760   71.8600 H   0  0  0  0  0  0  0  0  0  0  0  0
   13.1370   32.2920   72.3570 H   0  0  0  0  0  0  0  0  0  0  0  0
   16.2620   29.7730   70.7830 H   0  0  0  0  0  0  0  0  0  0  0  0
   18.6830   31.1840   70.4750 H   0  0  0  0  0  0  0  0  0  0  0  0
   18.4310   37.2540   68.8070 H   0  0  0  0  0  0  0  0  0  0  0  0
   19.5070   38.2040   69.9600 H   0  0  0  0  0  0  0  0  0  0  0  0
   20.5780   38.1390   67.8560 H   0  0  0  0  0  0  0  0  0  0  0  0
   20.4970   36.3390   67.7410 H   0  0  0  0  0  0  0  0  0  0  0  0
   21.7370   35.0880   69.3050 H   0  0  0  0  0  0  0  0  0  0  0  0
   22.8120   36.0050   70.4610 H   0  0  0  0  0  0  0  0  0  0  0  0
   20.7550   34.9820   71.5290 H   0  0  0  0  0  0  0  0  0  0  0  0
   20.9010   36.8080   71.6470 H   0  0  0  0  0  0  0  0  0  0  0  0
   13.2070   34.7350   71.7590 H   0  0  0  0  0  0  0  0  0  0  0  0
   13.8600   33.3650   70.7140 H   0  0  0  0  0  0  0  0  0  0  0  0
   12.7640   34.2530   68.8110 H   0  0  0  0  0  0  0  0  0  0  0  0
   11.5540   34.3400   70.2100 H   0  0  0  0  0  0  0  0  0  0  0  0
   13.7630   36.2320   68.2390 H   0  0  0  0  0  0  0  0  0  0  0  0
   13.1810   37.7700   68.9060 H   0  0  0  0  0  0  0  0  0  0  0  0
   14.0920   37.1420   71.1450 H   0  0  0  0  0  0  0  0  0  0  0  0
   15.4280   37.2050   69.9470 H   0  0  0  0  0  0  0  0  0  0  0  0
  2  1  1  0  0  0  0
  2  7  1  0  0  0  0
  3  2  2  0  0  0  0
  4  3  1  0  0  0  0
  4  5  2  0  0  0  0
  5  6  1  0  0  0  0
  6  7  2  0  0  0  0
  6 32  1  0  0  0  0
  7 33  1  0  0  0  0
  8  5  1  0  0  0  0
  9 36  1  0  0  0  0
  9  8  1  0  0  0  0
 10 11  2  0  0  0  0
 10  4  1  0  0  0  0
 12 11  1  0  0  0  0
 13 12  1  0  0  0  0
 14 13  2  0  0  0  0
 15 14  2  0  0  0  0
 16 17  2  0  0  0  0
 16 15  1  0  0  0  0
 17 18  1  0  0  0  0
 18 13  1  0  0  0  0
 19 17  1  0  0  0  0
 19 24  1  0  0  0  0
 20 40  1  0  0  0  0
 20 19  1  0  0  0  0
 21 22  1  0  0  0  0
 21 20  1  0  0  0  0
 22 23  1  0  0  0  0
 23 44  1  0  0  0  0
 23 24  1  0  0  0  0
 24 45  1  0  0  0  0
 24 46  1  0  0  0  0
 25 15  1  0  0  0  0
 25 26  1  0  0  0  0
 26 47  1  0  0  0  0
 27 50  1  0  0  0  0
 27 26  1  0  0  0  0
 28 27  1  0  0  0  0
 29 28  1  0  0  0  0
 29 30  1  0  0  0  0
 30 25  1  0  0  0  0
 30 53  1  0  0  0  0
 31  3  1  0  0  0  0
 34  9  1  0  0  0  0
 35  9  1  0  0  0  0
 37 10  1  0  0  0  0
 38 12  1  0  0  0  0
 39 20  1  0  0  0  0
 41 21  1  0  0  0  0
 42 21  1  0  0  0  0
 43 23  1  0  0  0  0
 48 26  1  0  0  0  0
 49 27  1  0  0  0  0
 51 29  1  0  0  0  0
 52 29  1  0  0  0  0
 54 30  1  0  0  0  0
M  END
>  <Pose>
1

>  <Score>
-6.61

$$$$
