
 OpenBabel03212208413D

 38 41  0  0  1  0  0  0  0  0999 V2000
   20.7060   33.4350   70.0560 B   0  0  0  0  0  0  0  0  0  0  0  0
   19.3890   32.9990   71.3620 C   0  0  0  0  0  0  0  0  0  0  0  0
   18.6930   31.8130   71.3130 C   0  0  0  0  0  0  0  0  0  0  0  0
   17.7180   31.4620   72.2590 C   0  0  0  0  0  0  0  0  0  0  0  0
   17.4860   32.3720   73.2510 C   0  0  0  0  0  0  0  0  0  0  0  0
   18.1970   33.5740   73.2930 C   0  0  0  0  0  0  0  0  0  0  0  0
   19.1370   33.8890   72.3640 C   0  0  0  0  0  0  0  0  0  0  0  0
   17.0550   30.2260   72.1320 N   0  0  0  0  0  0  0  0  0  0  0  0
   15.8590   30.0150   71.4280 C   0  0  0  0  0  0  0  0  0  0  0  0
   15.7670   29.5920   70.2660 O   0  0  0  0  0  0  0  0  0  0  0  0
   14.5490   30.3170   72.1030 C   0  0  2  0  0  0  0  0  0  0  0  0
   13.5040   30.8880   71.1790 C   0  0  0  0  0  0  0  0  0  0  0  0
   13.8490   32.2580   71.5880 N   0  0  2  0  0  0  0  0  0  0  0  0
   14.4800   31.6670   72.7540 C   0  0  0  0  0  0  0  0  0  0  0  0
   13.6190   33.5410   71.0210 C   0  0  2  0  0  0  0  0  0  0  0  0
   12.3770   33.9640   70.6720 N   0  0  0  0  0  0  0  0  0  0  0  0
   12.1820   35.2020   70.1290 C   0  0  0  0  0  0  0  0  0  0  0  0
   13.2060   36.0360   69.9230 N   0  0  0  0  0  0  0  0  0  0  0  0
   14.4530   35.6850   70.2420 C   0  0  0  0  0  0  0  0  0  0  0  0
   15.6320   36.3310   70.1350 N   0  0  0  0  0  0  0  0  0  0  0  0
   16.5480   35.5110   70.6030 N   0  0  0  0  0  0  0  0  0  0  0  0
   15.9890   34.3640   71.0050 N   0  0  0  0  0  0  0  0  0  0  0  0
   14.6470   34.4340   70.7900 C   0  0  0  0  0  0  0  0  0  0  0  0
   15.8800   37.6710   69.6110 C   0  0  0  0  0  0  0  0  0  0  0  0
   18.9120   31.1220   70.5080 H   0  0  0  0  0  0  0  0  0  0  0  0
   16.7430   32.1790   74.0290 H   0  0  0  0  0  0  0  0  0  0  0  0
   17.9690   34.2670   74.1130 H   0  0  0  0  0  0  0  0  0  0  0  0
   19.6780   34.8320   72.4180 H   0  0  0  0  0  0  0  0  0  0  0  0
   17.5220   29.3800   72.6270 H   0  0  0  0  0  0  0  0  0  0  0  0
   14.1460   29.4660   72.6780 H   0  0  0  0  0  0  0  0  0  0  0  0
   13.7180   30.7990   70.0930 H   0  0  0  0  0  0  0  0  0  0  0  0
   12.4640   30.6840   71.4470 H   0  0  0  0  0  0  0  0  0  0  0  0
   15.4860   32.0740   72.9910 H   0  0  0  0  0  0  0  0  0  0  0  0
   13.8040   31.7340   73.6180 H   0  0  0  0  0  0  0  0  0  0  0  0
   11.1680   35.4700   69.8770 H   0  0  0  0  0  0  0  0  0  0  0  0
   16.7610   38.1340   70.0840 H   0  0  0  0  0  0  0  0  0  0  0  0
   15.0160   38.3560   69.8560 H   0  0  0  0  0  0  0  0  0  0  0  0
   15.9760   37.6840   68.5240 H   0  0  0  0  0  0  0  0  0  0  0  0
  1  2  1  0  0  0  0
  2  7  1  0  0  0  0
  3  2  2  0  0  0  0
  3  4  1  0  0  0  0
  4  5  2  0  0  0  0
  5  6  1  0  0  0  0
  5 26  1  0  0  0  0
  6 27  1  0  0  0  0
  7 28  1  0  0  0  0
  7  6  2  0  0  0  0
  8  4  1  0  0  0  0
  8 29  1  0  0  0  0
  9 11  1  0  0  0  0
  9  8  1  0  0  0  0
 10  9  2  0  0  0  0
 11 30  1  1  0  0  0
 11 14  1  0  0  0  0
 12 32  1  0  0  0  0
 12 11  1  0  0  0  0
 13 12  1  1  0  0  0
 13 14  1  0  0  0  0
 14 33  1  0  0  0  0
 14 34  1  0  0  0  0
 15 16  1  6  0  0  0
 15 13  1  0  0  0  0
 17 16  2  0  0  0  0
 18 17  1  0  0  0  0
 18 19  1  0  0  0  0
 19 23  2  0  0  0  0
 20 19  1  0  0  0  0
 20 21  1  0  0  0  0
 21 22  2  0  0  0  0
 23 22  1  0  0  0  0
 23 15  1  0  0  0  0
 24 37  1  0  0  0  0
 24 36  1  0  0  0  0
 24 20  1  0  0  0  0
 25  3  1  0  0  0  0
 31 12  1  0  0  0  0
 35 17  1  0  0  0  0
 38 24  1  0  0  0  0
M  END
>  <Pose>
1

>  <Score>
-6.31

$$$$
