
 OpenBabel03212208413D

 54 57  0  0  1  0  0  0  0  0999 V2000
   15.8490   30.0440   72.7240 S   0  0  0  0  0  0  0  0  0  0  0  0
   16.1590   28.6600   72.1380 O   0  0  0  0  0  0  0  0  0  0  0  0
   17.1080   30.4150   73.4700 O   0  0  0  0  0  0  0  0  0  0  0  0
   15.5040   31.0700   71.4340 N   0  0  0  0  0  0  0  0  0  0  0  0
   16.6990   31.3120   70.5990 C   0  0  0  0  0  0  0  0  0  0  0  0
   17.6660   32.0730   71.4270 C   0  0  2  0  0  0  0  0  0  0  0  0
   17.2310   33.1420   72.1190 O   0  0  0  0  0  0  0  0  0  0  0  0
   15.9200   33.3190   72.3370 C   0  0  0  0  0  0  0  0  0  0  0  0
   14.9800   32.3600   71.6920 C   0  0  0  0  0  0  0  0  0  0  0  0
   18.7750   32.4980   70.5230 C   0  0  0  0  0  0  0  0  0  0  0  0
   18.8310   31.9540   69.3880 O   0  0  0  0  0  0  0  0  0  0  0  0
   19.7550   33.4550   70.8470 N   0  0  0  0  0  0  0  0  0  0  0  0
   19.4650   34.7690   71.3890 C   0  0  0  0  0  0  0  0  0  0  0  0
   20.7940   35.4270   71.7050 C   0  0  0  0  0  0  0  0  0  0  0  0
   21.6270   35.5970   70.5290 N   0  0  0  0  0  0  0  0  0  0  0  0
   21.6920   34.3650   69.8090 C   0  0  0  0  0  0  0  0  0  0  0  0
   21.1880   33.1870   70.6520 C   0  0  0  0  0  0  0  0  0  0  0  0
   21.1340   36.7120   69.7870 C   0  0  0  0  0  0  0  0  0  0  0  0
   21.7740   36.8770   68.4360 C   0  0  0  0  0  0  0  0  0  0  0  0
   20.7940   37.3420   67.3600 C   0  0  0  0  0  0  0  0  0  0  0  0
   21.4620   36.0040   67.3030 C   0  0  0  0  0  0  0  0  0  0  0  0
   14.5140   29.8020   73.8050 C   0  0  0  0  0  0  0  0  0  0  0  0
   14.6150   28.9950   74.9170 C   0  0  0  0  0  0  0  0  0  0  0  0
   13.5410   28.7500   75.7510 C   0  0  0  0  0  0  0  0  0  0  0  0
   12.3260   29.3270   75.4760 C   0  0  0  0  0  0  0  0  0  0  0  0
   12.2060   30.1440   74.3630 C   0  0  0  0  0  0  0  0  0  0  0  0
   13.2720   30.3810   73.5410 C   0  0  0  0  0  0  0  0  0  0  0  0
   16.1750   28.2900   75.3830 Cl  0  0  0  0  0  0  0  0  0  0  0  0
   16.3750   31.9210   69.7560 H   0  0  0  0  0  0  0  0  0  0  0  0
   17.1550   30.3850   70.2570 H   0  0  0  0  0  0  0  0  0  0  0  0
   18.1720   31.3850   72.1760 H   0  0  0  0  0  0  0  0  0  0  0  0
   15.6440   34.3590   71.9800 H   0  0  0  0  0  0  0  0  0  0  0  0
   15.7150   33.3460   73.4220 H   0  0  0  0  0  0  0  0  0  0  0  0
   13.9980   32.3090   72.1560 H   0  0  0  0  0  0  0  0  0  0  0  0
   14.7450   32.7850   70.6480 H   0  0  0  0  0  0  0  0  0  0  0  0
   18.8590   35.3520   70.6910 H   0  0  0  0  0  0  0  0  0  0  0  0
   18.9370   34.6860   72.3610 H   0  0  0  0  0  0  0  0  0  0  0  0
   20.5690   36.4430   72.1410 H   0  0  0  0  0  0  0  0  0  0  0  0
   21.2710   34.8570   72.5050 H   0  0  0  0  0  0  0  0  0  0  0  0
   22.7350   34.1350   69.5620 H   0  0  0  0  0  0  0  0  0  0  0  0
   21.0280   34.3970   68.9200 H   0  0  0  0  0  0  0  0  0  0  0  0
   21.2540   32.2990   69.9920 H   0  0  0  0  0  0  0  0  0  0  0  0
   21.7250   33.0890   71.5940 H   0  0  0  0  0  0  0  0  0  0  0  0
   20.0320   36.6730   69.7380 H   0  0  0  0  0  0  0  0  0  0  0  0
   21.3770   37.6330   70.3780 H   0  0  0  0  0  0  0  0  0  0  0  0
   22.7480   37.4070   68.4280 H   0  0  0  0  0  0  0  0  0  0  0  0
   19.7190   37.3890   67.6040 H   0  0  0  0  0  0  0  0  0  0  0  0
   21.1200   38.1270   66.6560 H   0  0  0  0  0  0  0  0  0  0  0  0
   22.2110   35.8920   66.5030 H   0  0  0  0  0  0  0  0  0  0  0  0
   20.7670   35.1450   67.3730 H   0  0  0  0  0  0  0  0  0  0  0  0
   13.6180   28.1140   76.6250 H   0  0  0  0  0  0  0  0  0  0  0  0
   11.4960   29.1290   76.1340 H   0  0  0  0  0  0  0  0  0  0  0  0
   11.2330   30.5760   74.1880 H   0  0  0  0  0  0  0  0  0  0  0  0
   13.1930   31.0180   72.6660 H   0  0  0  0  0  0  0  0  0  0  0  0
  1  3  2  0  0  0  0
  1 22  1  0  0  0  0
  2  1  2  0  0  0  0
  4  9  1  0  0  0  0
  4  1  1  0  0  0  0
  5  6  1  0  0  0  0
  5  4  1  0  0  0  0
  6  7  1  0  0  0  0
  6 31  1  1  0  0  0
  7  8  1  0  0  0  0
  8 33  1  0  0  0  0
  9 34  1  0  0  0  0
  9  8  1  0  0  0  0
 10 12  1  0  0  0  0
 10  6  1  0  0  0  0
 11 10  2  0  0  0  0
 12 13  1  0  0  0  0
 13 14  1  0  0  0  0
 13 37  1  0  0  0  0
 14 38  1  0  0  0  0
 14 39  1  0  0  0  0
 15 14  1  0  0  0  0
 16 15  1  0  0  0  0
 16 17  1  0  0  0  0
 17 12  1  0  0  0  0
 17 43  1  0  0  0  0
 18 45  1  0  0  0  0
 18 15  1  0  0  0  0
 19 18  1  0  0  0  0
 20 47  1  0  0  0  0
 20 19  1  0  0  0  0
 21 20  1  0  0  0  0
 21 50  1  0  0  0  0
 21 19  1  0  0  0  0
 22 23  1  0  0  0  0
 23 28  1  0  0  0  0
 23 24  2  0  0  0  0
 24 51  1  0  0  0  0
 25 24  1  0  0  0  0
 25 52  1  0  0  0  0
 26 25  2  0  0  0  0
 27 22  2  0  0  0  0
 27 26  1  0  0  0  0
 29  5  1  0  0  0  0
 30  5  1  0  0  0  0
 32  8  1  0  0  0  0
 35  9  1  0  0  0  0
 36 13  1  0  0  0  0
 40 16  1  0  0  0  0
 41 16  1  0  0  0  0
 42 17  1  0  0  0  0
 44 18  1  0  0  0  0
 46 19  1  0  0  0  0
 48 20  1  0  0  0  0
 49 21  1  0  0  0  0
 53 26  1  0  0  0  0
 54 27  1  0  0  0  0
M  END
>  <Pose>
1

>  <Score>
-5.51

$$$$
