
 OpenBabel03212208413D

 56 59  0  0  0  0  0  0  0  0999 V2000
   16.8840   27.7240   72.8950 B   0  0  0  0  0  0  0  0  0  0  0  0
   15.4000   28.7210   73.5540 C   0  0  0  0  0  0  0  0  0  0  0  0
   14.8370   29.7360   72.7620 C   0  0  0  0  0  0  0  0  0  0  0  0
   13.7880   30.4310   73.2490 C   0  0  0  0  0  0  0  0  0  0  0  0
   13.2570   30.1670   74.4920 C   0  0  0  0  0  0  0  0  0  0  0  0
   13.8330   29.1480   75.2640 C   0  0  0  0  0  0  0  0  0  0  0  0
   14.9100   28.4200   74.8010 C   0  0  0  0  0  0  0  0  0  0  0  0
   12.1730   30.8990   74.9560 O   0  0  0  0  0  0  0  0  0  0  0  0
   10.9480   30.3920   75.3560 C   0  0  0  0  0  0  0  0  0  0  0  0
   13.1240   31.4300   72.3950 C   0  0  0  0  0  0  0  0  0  0  0  0
   13.9140   32.4210   71.9620 C   0  0  0  0  0  0  0  0  0  0  0  0
   15.2620   32.5380   72.2840 O   0  0  0  0  0  0  0  0  0  0  0  0
   15.7820   33.6680   71.6380 C   0  0  0  0  0  0  0  0  0  0  0  0
   14.8440   34.3210   70.8990 C   0  0  0  0  0  0  0  0  0  0  0  0
   15.1470   35.4440   70.1650 C   0  0  0  0  0  0  0  0  0  0  0  0
   16.4470   35.9400   70.1660 C   0  0  0  0  0  0  0  0  0  0  0  0
   17.4030   35.2670   70.9280 C   0  0  0  0  0  0  0  0  0  0  0  0
   17.0980   34.1610   71.6530 C   0  0  0  0  0  0  0  0  0  0  0  0
   18.0040   33.5140   72.6260 C   0  0  0  0  0  0  0  0  0  0  0  0
   18.9870   32.7280   72.0420 N   0  0  0  0  0  4  0  0  0  0  0  0
   18.4400   31.8560   70.9550 C   0  0  0  0  0  0  0  0  0  0  0  0
   19.4140   32.0780   69.7710 C   0  0  0  0  0  0  0  0  0  0  0  0
   20.6080   32.6970   70.2520 N   0  0  0  0  0  0  0  0  0  0  0  0
   21.1760   32.1140   71.4040 C   0  0  0  0  0  0  0  0  0  0  0  0
   20.1000   32.0960   72.5750 C   0  0  0  0  0  0  0  0  0  0  0  0
   21.1080   33.7990   69.5950 C   0  0  0  0  0  0  0  0  0  0  0  0
   22.4600   33.7530   68.9560 C   0  0  0  0  0  0  0  0  0  0  0  0
   22.3770   33.2860   67.6350 O   0  0  0  0  0  0  0  0  0  0  0  0
   18.6790   35.8270   70.8770 O   0  0  0  0  0  0  0  0  0  0  0  0
   13.5920   33.5310   71.0910 C   0  0  0  0  0  0  0  0  0  0  0  0
   12.4820   33.7790   70.6030 O   0  0  0  0  0  0  0  0  0  0  0  0
   15.2940   29.8790   71.7960 H   0  0  0  0  0  0  0  0  0  0  0  0
   13.4500   28.9100   76.2450 H   0  0  0  0  0  0  0  0  0  0  0  0
   15.3360   27.6300   75.4480 H   0  0  0  0  0  0  0  0  0  0  0  0
   10.9700   29.6670   76.1690 H   0  0  0  0  0  0  0  0  0  0  0  0
   10.3120   31.2500   75.7010 H   0  0  0  0  0  0  0  0  0  0  0  0
   10.4000   29.9230   74.4840 H   0  0  0  0  0  0  0  0  0  0  0  0
   12.0940   31.3940   72.1450 H   0  0  0  0  0  0  0  0  0  0  0  0
   14.3610   35.9320   69.5900 H   0  0  0  0  0  0  0  0  0  0  0  0
   16.6620   36.8270   69.5870 H   0  0  0  0  0  0  0  0  0  0  0  0
   18.4570   34.3550   73.2610 H   0  0  0  0  0  0  0  0  0  0  0  0
   17.3760   32.9810   73.3890 H   0  0  0  0  0  0  0  0  0  0  0  0
   19.4310   33.5320   71.3550 H   0  0  0  0  0  0  0  0  0  0  0  0
   17.4220   32.1860   70.7000 H   0  0  0  0  0  0  0  0  0  0  0  0
   18.5050   30.8150   71.3070 H   0  0  0  0  0  0  0  0  0  0  0  0
   19.6080   31.0960   69.3160 H   0  0  0  0  0  0  0  0  0  0  0  0
   18.8980   32.7250   69.0690 H   0  0  0  0  0  0  0  0  0  0  0  0
   21.3500   31.0470   71.1990 H   0  0  0  0  0  0  0  0  0  0  0  0
   22.0810   32.5790   71.7300 H   0  0  0  0  0  0  0  0  0  0  0  0
   19.8350   31.0110   72.7790 H   0  0  0  0  0  0  0  0  0  0  0  0
   20.6060   32.4770   73.4550 H   0  0  0  0  0  0  0  0  0  0  0  0
   20.3960   34.1020   68.7310 H   0  0  0  0  0  0  0  0  0  0  0  0
   21.0600   34.7230   70.2470 H   0  0  0  0  0  0  0  0  0  0  0  0
   23.2320   33.1990   69.4840 H   0  0  0  0  0  0  0  0  0  0  0  0
   22.8460   34.8150   68.8790 H   0  0  0  0  0  0  0  0  0  0  0  0
   21.6250   32.6100   67.5760 H   0  0  0  0  0  0  0  0  0  0  0  0
  1  2  1  0  0  0  0
  2  7  1  0  0  0  0
  3  4  1  0  0  0  0
  3  2  2  0  0  0  0
  4  5  2  0  0  0  0
  5  8  1  0  0  0  0
  5  6  1  0  0  0  0
  6 33  1  0  0  0  0
  7  6  2  0  0  0  0
  7 34  1  0  0  0  0
  8  9  1  0  0  0  0
  9 36  1  0  0  0  0
  9 35  1  0  0  0  0
 10  4  1  0  0  0  0
 11 12  1  0  0  0  0
 11 10  2  0  0  0  0
 13 18  1  0  0  0  0
 13 12  1  0  0  0  0
 14 30  1  0  0  0  0
 14 13  2  0  0  0  0
 15 16  2  0  0  0  0
 15 14  1  0  0  0  0
 16 17  1  0  0  0  0
 17 18  2  0  0  0  0
 18 19  1  0  0  0  0
 19 41  1  0  0  0  0
 19 42  1  0  0  0  0
 20 25  1  0  0  0  0
 20 19  1  0  0  0  0
 21 45  1  0  0  0  0
 21 20  1  0  0  0  0
 22 23  1  0  0  0  0
 22 21  1  0  0  0  0
 23 24  1  0  0  0  0
 24 49  1  0  0  0  0
 24 25  1  0  0  0  0
 25 50  1  0  0  0  0
 25 51  1  0  0  0  0
 26 53  1  0  0  0  0
 26 23  1  0  0  0  0
 27 54  1  0  0  0  0
 27 26  1  0  0  0  0
 28 27  1  0  0  0  0
 29 17  1  0  0  0  0
 30 11  1  0  0  0  0
 31 30  2  0  0  0  0
 32  3  1  0  0  0  0
 37  9  1  0  0  0  0
 38 10  1  0  0  0  0
 39 15  1  0  0  0  0
 40 16  1  0  0  0  0
 43 20  1  0  0  0  0
 44 21  1  0  0  0  0
 46 22  1  0  0  0  0
 47 22  1  0  0  0  0
 48 24  1  0  0  0  0
 52 26  1  0  0  0  0
 55 27  1  0  0  0  0
 56 28  1  0  0  0  0
M  END
>  <Pose>
1

>  <Score>
-7.00

$$$$
