
 OpenBabel03212208413D

 53 56  0  0  0  0  0  0  0  0999 V2000
   23.9370   36.0880   68.3830 Cl  0  0  0  0  0  0  0  0  0  0  0  0
   22.2700   36.6060   68.4330 C   0  0  0  0  0  0  0  0  0  0  0  0
   21.5480   36.6110   69.6040 C   0  0  0  0  0  0  0  0  0  0  0  0
   20.2480   37.0130   69.6570 C   0  0  0  0  0  0  0  0  0  0  0  0
   19.5590   37.4490   68.5050 C   0  0  0  0  0  0  0  0  0  0  0  0
   20.3160   37.4370   67.3140 C   0  0  0  0  0  0  0  0  0  0  0  0
   21.6160   37.0280   67.2980 C   0  0  0  0  0  0  0  0  0  0  0  0
   18.3260   37.8410   68.4920 O   0  0  0  0  0  0  0  0  0  0  0  0
   17.0910   38.1920   68.4840 C   0  0  0  0  0  0  0  0  0  0  0  0
   16.0840   37.7300   69.4600 C   0  0  0  0  0  0  0  0  0  0  0  0
   16.1950   38.2870   70.6340 O   0  0  0  0  0  0  0  0  0  0  0  0
   15.0560   36.8110   69.3220 N   0  0  0  0  0  0  0  0  0  0  0  0
   13.9780   36.8180   70.3580 C   0  0  0  0  0  0  0  0  0  0  0  0
   13.6690   35.3690   70.6390 C   0  0  0  0  0  0  0  0  0  0  0  0
   14.7420   34.4720   70.2520 N   0  0  0  0  0  0  0  0  0  0  0  0
   15.0960   34.4320   68.8590 C   0  0  0  0  0  0  0  0  0  0  0  0
   14.8450   35.8220   68.2980 C   0  0  0  0  0  0  0  0  0  0  0  0
   15.3940   33.6860   71.2260 C   0  0  0  0  0  0  0  0  0  0  0  0
   15.0580   32.3800   71.4210 N   0  0  0  0  0  0  0  0  0  0  0  0
   15.6440   31.6010   72.3200 C   0  0  0  0  0  0  0  0  0  0  0  0
   16.6280   32.1520   73.0770 N   0  0  0  0  0  0  0  0  0  0  0  0
   17.0090   33.4100   72.9460 C   0  0  0  0  0  0  0  0  0  0  0  0
   16.3900   34.2220   72.0010 C   0  0  0  0  0  0  0  0  0  0  0  0
   15.3060   30.2430   72.5350 N   0  0  0  0  0  0  0  0  0  0  0  0
   13.9400   29.8820   72.9000 C   0  0  0  0  0  0  0  0  0  0  0  0
   14.0750   29.0360   74.1690 C   0  0  0  0  0  0  0  0  0  0  0  0
   14.8230   27.9180   73.9120 O   0  0  0  0  0  0  0  0  0  0  0  0
   16.1250   28.1640   73.5470 C   0  0  0  0  0  0  0  0  0  0  0  0
   16.2520   29.1610   72.4170 C   0  0  0  0  0  0  0  0  0  0  0  0
   22.0860   36.2720   70.4930 H   0  0  0  0  0  0  0  0  0  0  0  0
   19.7090   37.0160   70.5700 H   0  0  0  0  0  0  0  0  0  0  0  0
   19.7990   37.7710   66.4200 H   0  0  0  0  0  0  0  0  0  0  0  0
   22.1740   37.0300   66.3680 H   0  0  0  0  0  0  0  0  0  0  0  0
   16.5940   37.9270   67.4610 H   0  0  0  0  0  0  0  0  0  0  0  0
   16.9090   39.3420   68.4380 H   0  0  0  0  0  0  0  0  0  0  0  0
   13.1240   37.3170   69.8580 H   0  0  0  0  0  0  0  0  0  0  0  0
   14.3350   37.3620   71.2590 H   0  0  0  0  0  0  0  0  0  0  0  0
   12.7950   35.0710   69.9870 H   0  0  0  0  0  0  0  0  0  0  0  0
   13.4110   35.1890   71.7160 H   0  0  0  0  0  0  0  0  0  0  0  0
   16.1070   34.0780   68.6450 H   0  0  0  0  0  0  0  0  0  0  0  0
   14.4120   33.6980   68.3380 H   0  0  0  0  0  0  0  0  0  0  0  0
   13.7230   35.8240   68.0870 H   0  0  0  0  0  0  0  0  0  0  0  0
   15.2960   36.0150   67.3340 H   0  0  0  0  0  0  0  0  0  0  0  0
   17.8050   33.8340   73.5670 H   0  0  0  0  0  0  0  0  0  0  0  0
   16.7130   35.2570   71.8960 H   0  0  0  0  0  0  0  0  0  0  0  0
   13.3190   30.7730   73.1060 H   0  0  0  0  0  0  0  0  0  0  0  0
   13.5490   29.2420   72.1100 H   0  0  0  0  0  0  0  0  0  0  0  0
   14.5160   29.6930   74.9560 H   0  0  0  0  0  0  0  0  0  0  0  0
   13.0680   28.7480   74.4740 H   0  0  0  0  0  0  0  0  0  0  0  0
   16.7600   28.5120   74.3900 H   0  0  0  0  0  0  0  0  0  0  0  0
   16.5660   27.2100   73.1890 H   0  0  0  0  0  0  0  0  0  0  0  0
   17.2940   29.5440   72.4450 H   0  0  0  0  0  0  0  0  0  0  0  0
   16.1190   28.6390   71.4540 H   0  0  0  0  0  0  0  0  0  0  0  0
  1  2  1  0  0  0  0
  2  3  1  0  0  0  0
  3  4  2  0  0  0  0
  3 30  1  0  0  0  0
  4 31  1  0  0  0  0
  5  4  1  0  0  0  0
  6  5  2  0  0  0  0
  7  6  1  0  0  0  0
  7  2  2  0  0  0  0
  8  5  1  0  0  0  0
  9  8  1  0  0  0  0
  9 10  1  0  0  0  0
 10 11  2  0  0  0  0
 12 10  1  0  0  0  0
 12 13  1  0  0  0  0
 13 14  1  0  0  0  0
 13 37  1  0  0  0  0
 14 39  1  0  0  0  0
 15 14  1  0  0  0  0
 15 18  1  0  0  0  0
 16 15  1  0  0  0  0
 17 16  1  0  0  0  0
 17 12  1  0  0  0  0
 18 19  1  0  0  0  0
 18 23  2  0  0  0  0
 19 20  2  0  0  0  0
 20 24  1  0  0  0  0
 20 21  1  0  0  0  0
 22 21  2  0  0  0  0
 22 44  1  0  0  0  0
 23 22  1  0  0  0  0
 24 25  1  0  0  0  0
 25 46  1  0  0  0  0
 25 26  1  0  0  0  0
 26 49  1  0  0  0  0
 26 48  1  0  0  0  0
 27 26  1  0  0  0  0
 28 27  1  0  0  0  0
 28 50  1  0  0  0  0
 29 52  1  0  0  0  0
 29 24  1  0  0  0  0
 29 28  1  0  0  0  0
 32  6  1  0  0  0  0
 33  7  1  0  0  0  0
 34  9  1  0  0  0  0
 35  9  1  0  0  0  0
 36 13  1  0  0  0  0
 38 14  1  0  0  0  0
 40 16  1  0  0  0  0
 41 16  1  0  0  0  0
 42 17  1  0  0  0  0
 43 17  1  0  0  0  0
 45 23  1  0  0  0  0
 47 25  1  0  0  0  0
 51 28  1  0  0  0  0
 53 29  1  0  0  0  0
M  END
>  <Pose>
1

>  <Score>
-5.36

$$$$
