
 OpenBabel03212208413D

 45 48  0  0  0  0  0  0  0  0999 V2000
   12.6070   34.6980   70.0050 Cl  0  0  0  0  0  0  0  0  0  0  0  0
   13.5520   33.5150   70.8820 C   0  0  0  0  0  0  0  0  0  0  0  0
   12.8940   32.5340   71.5680 C   0  0  0  0  0  0  0  0  0  0  0  0
   13.5640   31.5770   72.2760 C   0  0  0  0  0  0  0  0  0  0  0  0
   14.9330   31.6220   72.2850 C   0  0  0  0  0  0  0  0  0  0  0  0
   15.6060   32.6340   71.5780 C   0  0  0  0  0  0  0  0  0  0  0  0
   14.9470   33.5970   70.8670 C   0  0  0  0  0  0  0  0  0  0  0  0
   15.5330   34.6330   70.1290 N   0  0  0  0  0  0  0  0  0  0  0  0
   16.4400   35.5670   70.6370 C   0  0  0  0  0  0  0  0  0  0  0  0
   16.1320   36.7420   70.8870 O   0  0  0  0  0  0  0  0  0  0  0  0
   17.8510   35.1790   70.9080 C   0  0  0  0  0  0  0  0  0  0  0  0
   18.7710   35.5600   70.0760 N   0  0  0  0  0  0  0  0  0  0  0  0
   20.1150   35.2390   70.2560 N   0  0  0  0  0  0  0  0  0  0  0  0
   20.4910   34.4760   71.3800 C   0  0  0  0  0  0  0  0  0  0  0  0
   21.7430   34.2820   71.5490 O   0  0  0  0  0  0  0  0  0  0  0  0
   19.5080   33.9160   72.3290 C   0  0  0  0  0  0  0  0  0  0  0  0
   18.2060   34.4100   72.0450 N   0  0  0  0  0  0  0  0  0  0  0  0
   21.1140   35.6780   69.3030 C   0  0  0  0  0  0  0  0  0  0  0  0
   21.3510   34.9870   68.1400 C   0  0  0  0  0  0  0  0  0  0  0  0
   22.3180   35.4330   67.2330 C   0  0  0  0  0  0  0  0  0  0  0  0
   23.0550   36.5720   67.4880 C   0  0  0  0  0  0  0  0  0  0  0  0
   22.8070   37.2520   68.6580 C   0  0  0  0  0  0  0  0  0  0  0  0
   21.8620   36.8120   69.5360 C   0  0  0  0  0  0  0  0  0  0  0  0
   24.0960   37.0920   66.5520 C   0  0  0  0  0  0  0  0  0  0  0  0
   15.6930   30.6860   72.9820 O   0  0  0  0  0  0  0  0  0  0  0  0
   15.1510   29.4290   73.4140 C   0  0  0  0  0  0  0  0  0  0  0  0
   13.6920   29.5760   73.6920 C   0  0  0  0  0  0  0  0  0  0  0  0
   13.1730   28.8350   74.5590 O   0  0  0  0  0  0  0  0  0  0  0  0
   12.8990   30.5310   72.9950 N   0  0  0  0  0  0  0  0  0  0  0  0
   11.7950   32.4620   71.5860 H   0  0  0  0  0  0  0  0  0  0  0  0
   16.6870   32.6330   71.6110 H   0  0  0  0  0  0  0  0  0  0  0  0
   15.2620   34.7140   69.0980 H   0  0  0  0  0  0  0  0  0  0  0  0
   19.4680   32.7980   72.1760 H   0  0  0  0  0  0  0  0  0  0  0  0
   19.8250   34.0890   73.3790 H   0  0  0  0  0  0  0  0  0  0  0  0
   17.4280   34.1960   72.7220 H   0  0  0  0  0  0  0  0  0  0  0  0
   20.7740   34.0930   67.9360 H   0  0  0  0  0  0  0  0  0  0  0  0
   22.4970   34.8930   66.3320 H   0  0  0  0  0  0  0  0  0  0  0  0
   23.3990   38.1590   68.8530 H   0  0  0  0  0  0  0  0  0  0  0  0
   21.6960   37.3790   70.4490 H   0  0  0  0  0  0  0  0  0  0  0  0
   25.0300   37.3570   67.0780 H   0  0  0  0  0  0  0  0  0  0  0  0
   24.3310   36.3840   65.7510 H   0  0  0  0  0  0  0  0  0  0  0  0
   23.7020   38.0220   66.0680 H   0  0  0  0  0  0  0  0  0  0  0  0
   15.2460   28.7470   72.5280 H   0  0  0  0  0  0  0  0  0  0  0  0
   15.7090   29.0440   74.2760 H   0  0  0  0  0  0  0  0  0  0  0  0
   11.8620   30.4730   73.0060 H   0  0  0  0  0  0  0  0  0  0  0  0
  1  2  1  0  0  0  0
  2  3  1  0  0  0  0
  3 30  1  0  0  0  0
  3  4  2  0  0  0  0
  4  5  1  0  0  0  0
  4 29  1  0  0  0  0
  5 25  1  0  0  0  0
  6 31  1  0  0  0  0
  6  5  2  0  0  0  0
  7  2  2  0  0  0  0
  7  6  1  0  0  0  0
  8  9  1  0  0  0  0
  8  7  1  0  0  0  0
  9 10  2  0  0  0  0
  9 11  1  0  0  0  0
 11 17  1  0  0  0  0
 12 13  1  0  0  0  0
 12 11  2  0  0  0  0
 13 14  1  0  0  0  0
 14 15  2  0  0  0  0
 14 16  1  0  0  0  0
 16 34  1  0  0  0  0
 17 16  1  0  0  0  0
 17 35  1  0  0  0  0
 18 23  1  0  0  0  0
 18 13  1  0  0  0  0
 19 18  2  0  0  0  0
 20 21  2  0  0  0  0
 20 19  1  0  0  0  0
 21 22  1  0  0  0  0
 22 38  1  0  0  0  0
 22 23  2  0  0  0  0
 23 39  1  0  0  0  0
 24 40  1  0  0  0  0
 24 21  1  0  0  0  0
 25 26  1  0  0  0  0
 26 27  1  0  0  0  0
 26 44  1  0  0  0  0
 27 28  2  0  0  0  0
 29 45  1  0  0  0  0
 29 27  1  0  0  0  0
 32  8  1  0  0  0  0
 33 16  1  0  0  0  0
 36 19  1  0  0  0  0
 37 20  1  0  0  0  0
 41 24  1  0  0  0  0
 42 24  1  0  0  0  0
 43 26  1  0  0  0  0
M  END
>  <Pose>
1

>  <Score>
-7.09

$$$$
