
 OpenBabel03212208413D

 38 40  0  0  1  0  0  0  0  0999 V2000
   13.3460   36.3900   69.7600 Cl  0  0  0  0  0  0  0  0  0  0  0  0
   14.2320   35.1100   70.5600 C   0  0  0  0  0  0  0  0  0  0  0  0
   15.5490   35.3030   70.9220 C   0  0  0  0  0  0  0  0  0  0  0  0
   16.1820   34.2540   71.5510 C   0  0  0  0  0  0  0  0  0  0  0  0
   17.3920   34.3250   71.9270 O   0  0  0  0  0  0  0  0  0  0  0  0
   15.5180   33.1130   71.7850 N   0  0  0  0  0  0  0  0  0  0  0  0
   14.2610   32.8850   71.4570 N   0  0  0  0  0  0  0  0  0  0  0  0
   13.5790   31.6310   71.7300 C   0  0  1  0  0  0  0  0  0  0  0  0
   14.0540   30.5090   70.8310 C   0  0  0  0  0  0  0  0  0  0  0  0
   15.3430   29.9100   71.3650 C   0  0  0  0  0  0  0  0  0  0  0  0
   16.4470   30.9400   71.4190 C   0  0  0  0  0  0  0  0  0  0  0  0
   16.2150   32.0060   72.4580 C   0  0  2  0  0  0  0  0  0  0  0  0
   15.2630   31.4700   73.4660 C   0  0  0  0  0  0  0  0  0  0  0  0
   13.9990   31.2420   73.1280 C   0  0  0  0  0  0  0  0  0  0  0  0
   13.6100   33.9100   70.8310 C   0  0  0  0  0  0  0  0  0  0  0  0
   12.3910   33.7190   70.5010 O   0  0  0  0  0  0  0  0  0  0  0  0
   16.2560   36.5140   70.6700 N   0  0  0  0  0  0  0  0  0  0  0  0
   17.1540   36.7200   69.5670 C   0  0  0  0  0  0  0  0  0  0  0  0
   16.8750   38.0270   68.8450 C   0  0  0  0  0  0  0  0  0  0  0  0
   18.6000   36.6960   69.9330 C   0  0  0  0  0  0  0  0  0  0  0  0
   12.4950   31.7290   71.6840 H   0  0  0  0  0  0  0  0  0  0  0  0
   14.1340   30.8020   69.7770 H   0  0  0  0  0  0  0  0  0  0  0  0
   13.2870   29.7060   70.8860 H   0  0  0  0  0  0  0  0  0  0  0  0
   15.6650   29.1360   70.6410 H   0  0  0  0  0  0  0  0  0  0  0  0
   15.1530   29.4980   72.3690 H   0  0  0  0  0  0  0  0  0  0  0  0
   16.4900   31.3940   70.3870 H   0  0  0  0  0  0  0  0  0  0  0  0
   17.4160   30.4190   71.5460 H   0  0  0  0  0  0  0  0  0  0  0  0
   17.1570   32.3620   72.9200 H   0  0  0  0  0  0  0  0  0  0  0  0
   15.5900   31.2620   74.4870 H   0  0  0  0  0  0  0  0  0  0  0  0
   13.2840   30.7970   73.8100 H   0  0  0  0  0  0  0  0  0  0  0  0
   16.0670   37.2820   71.3820 H   0  0  0  0  0  0  0  0  0  0  0  0
   16.9790   35.9170   68.8240 H   0  0  0  0  0  0  0  0  0  0  0  0
   17.0260   38.8960   69.5240 H   0  0  0  0  0  0  0  0  0  0  0  0
   17.6280   38.1130   68.0420 H   0  0  0  0  0  0  0  0  0  0  0  0
   15.8700   38.0400   68.3740 H   0  0  0  0  0  0  0  0  0  0  0  0
   19.1690   36.9740   69.0130 H   0  0  0  0  0  0  0  0  0  0  0  0
   18.9600   35.6900   70.2610 H   0  0  0  0  0  0  0  0  0  0  0  0
   18.8310   37.4740   70.6730 H   0  0  0  0  0  0  0  0  0  0  0  0
  1  2  1  0  0  0  0
  2 15  1  0  0  0  0
  2  3  2  0  0  0  0
  3  4  1  0  0  0  0
  4  6  1  0  0  0  0
  4  5  2  0  0  0  0
  6 12  1  0  0  0  0
  7  8  1  0  0  0  0
  7  6  1  0  0  0  0
  8 21  1  6  0  0  0
  8 14  1  0  0  0  0
  9 23  1  0  0  0  0
  9 10  1  0  0  0  0
  9  8  1  0  0  0  0
 10 11  1  0  0  0  0
 10 25  1  0  0  0  0
 11 27  1  0  0  0  0
 11 12  1  0  0  0  0
 12 28  1  1  0  0  0
 12 13  1  0  0  0  0
 13 29  1  0  0  0  0
 14 13  2  0  0  0  0
 14 30  1  0  0  0  0
 15  7  1  0  0  0  0
 16 15  2  0  0  0  0
 17  3  1  0  0  0  0
 17 31  1  0  0  0  0
 18 20  1  0  0  0  0
 18 17  1  0  0  0  0
 19 33  1  0  0  0  0
 19 18  1  0  0  0  0
 20 37  1  0  0  0  0
 20 38  1  0  0  0  0
 22  9  1  0  0  0  0
 24 10  1  0  0  0  0
 26 11  1  0  0  0  0
 32 18  1  0  0  0  0
 34 19  1  0  0  0  0
 35 19  1  0  0  0  0
 36 20  1  0  0  0  0
M  END
>  <Pose>
1

>  <Score>
-5.60

$$$$
