
 OpenBabel03212208413D

 36 39  0  0  1  0  0  0  0  0999 V2000
   21.2550   36.0430   68.7090 Cl  0  0  0  0  0  0  0  0  0  0  0  0
   20.2980   34.8540   69.5700 C   0  0  0  0  0  0  0  0  0  0  0  0
   20.7120   33.5390   69.5310 C   0  0  0  0  0  0  0  0  0  0  0  0
   19.8980   32.6430   70.2350 C   0  0  0  0  0  0  0  0  0  0  0  0
   20.2260   31.4400   70.2330 O   0  0  0  0  0  0  0  0  0  0  0  0
   18.8070   33.0600   70.8890 N   0  0  0  0  0  0  0  0  0  0  0  0
   18.4150   34.3250   70.9220 N   0  0  0  0  0  0  0  0  0  0  0  0
   17.2080   34.6100   71.6840 C   0  0  1  0  0  0  0  0  0  0  0  0
   16.1120   33.7410   71.0950 C   0  0  1  0  0  0  0  0  0  0  0  0
   16.5470   32.3420   71.0070 C   0  0  1  0  0  0  0  0  0  0  0  0
   17.9370   32.1420   71.6260 C   0  0  2  0  0  0  0  0  0  0  0  0
   17.8590   32.7360   73.0050 C   0  0  0  0  0  0  0  0  0  0  0  0
   17.4850   34.0040   73.0410 C   0  0  0  0  0  0  0  0  0  0  0  0
   15.4070   32.7540   71.9490 C   0  0  0  0  0  0  0  0  0  0  0  0
   19.1510   35.2190   70.2690 C   0  0  0  0  0  0  0  0  0  0  0  0
   18.7870   36.4220   70.2940 O   0  0  0  0  0  0  0  0  0  0  0  0
   21.8730   33.0800   68.8440 N   0  0  0  0  0  0  0  0  0  0  0  0
   23.1480   33.6980   68.8810 C   0  0  0  0  0  0  0  0  0  0  0  0
   24.0890   33.1380   69.9170 C   0  0  0  0  0  0  0  0  0  0  0  0
   23.8840   33.6340   67.5500 C   0  0  0  0  0  0  0  0  0  0  0  0
   16.9570   35.6630   71.7380 H   0  0  0  0  0  0  0  0  0  0  0  0
   15.4970   34.2410   70.3280 H   0  0  0  0  0  0  0  0  0  0  0  0
   16.2770   31.6780   70.1650 H   0  0  0  0  0  0  0  0  0  0  0  0
   18.2690   31.1150   71.6100 H   0  0  0  0  0  0  0  0  0  0  0  0
   18.1050   32.1140   73.8440 H   0  0  0  0  0  0  0  0  0  0  0  0
   17.3610   34.6240   73.9080 H   0  0  0  0  0  0  0  0  0  0  0  0
   14.3890   32.4640   71.6840 H   0  0  0  0  0  0  0  0  0  0  0  0
   15.7160   32.7380   73.0330 H   0  0  0  0  0  0  0  0  0  0  0  0
   21.7410   32.2160   68.2770 H   0  0  0  0  0  0  0  0  0  0  0  0
   23.0400   34.7780   69.1070 H   0  0  0  0  0  0  0  0  0  0  0  0
   23.7950   33.3820   70.9580 H   0  0  0  0  0  0  0  0  0  0  0  0
   25.1120   33.6070   69.8020 H   0  0  0  0  0  0  0  0  0  0  0  0
   24.2540   32.0670   69.8510 H   0  0  0  0  0  0  0  0  0  0  0  0
   24.8230   34.2400   67.7090 H   0  0  0  0  0  0  0  0  0  0  0  0
   23.3250   34.1700   66.7640 H   0  0  0  0  0  0  0  0  0  0  0  0
   24.2120   32.6300   67.2860 H   0  0  0  0  0  0  0  0  0  0  0  0
  1  2  1  0  0  0  0
  2 15  1  0  0  0  0
  3  2  2  0  0  0  0
  3  4  1  0  0  0  0
  4  6  1  0  0  0  0
  5  4  2  0  0  0  0
  6  7  1  0  0  0  0
  6 11  1  0  0  0  0
  7  8  1  0  0  0  0
  8 21  1  1  0  0  0
  8 13  1  0  0  0  0
  9 22  1  6  0  0  0
  9  8  1  0  0  0  0
  9 14  1  0  0  0  0
 10 23  1  6  0  0  0
 10  9  1  0  0  0  0
 10 11  1  0  0  0  0
 10 14  1  0  0  0  0
 11 24  1  6  0  0  0
 11 12  1  0  0  0  0
 12 13  2  0  0  0  0
 12 25  1  0  0  0  0
 13 26  1  0  0  0  0
 14 28  1  0  0  0  0
 15 16  2  0  0  0  0
 15  7  1  0  0  0  0
 17 18  1  0  0  0  0
 17  3  1  0  0  0  0
 18 30  1  0  0  0  0
 18 19  1  0  0  0  0
 19 31  1  0  0  0  0
 20 34  1  0  0  0  0
 20 18  1  0  0  0  0
 27 14  1  0  0  0  0
 29 17  1  0  0  0  0
 32 19  1  0  0  0  0
 33 19  1  0  0  0  0
 35 20  1  0  0  0  0
 36 20  1  0  0  0  0
M  END
>  <Pose>
1

>  <Score>
-4.70

$$$$
