
 OpenBabel03212208413D

 50 54  0  0  0  0  0  0  0  0999 V2000
   13.4050   33.9370   70.7200 S   0  0  0  0  0  0  0  0  0  0  0  0
   12.0460   34.4940   71.1320 O   0  0  0  0  0  0  0  0  0  0  0  0
   13.2950   33.2810   69.3690 O   0  0  0  0  0  0  0  0  0  0  0  0
   13.9270   32.8910   71.8980 N   0  0  0  0  0  0  0  0  0  0  0  0
   14.9240   33.2540   72.8070 C   0  0  0  0  0  0  0  0  0  0  0  0
   15.6770   32.0180   73.3100 C   0  0  0  0  0  0  0  0  0  0  0  0
   16.0860   31.2550   72.1990 N   0  0  0  0  0  0  0  0  0  0  0  0
   15.0350   30.8430   71.3480 C   0  0  0  0  0  0  0  0  0  0  0  0
   13.7410   31.5070   71.7620 C   0  0  0  0  0  0  0  0  0  0  0  0
   17.1150   30.2920   72.4250 C   0  0  0  0  0  0  0  0  0  0  0  0
   18.4300   30.9310   72.1770 C   0  0  0  0  0  0  0  0  0  0  0  0
   19.4600   30.8870   73.0950 C   0  0  0  0  0  0  0  0  0  0  0  0
   20.6930   31.4610   72.9120 C   0  0  0  0  0  0  0  0  0  0  0  0
   21.5660   31.3530   73.8330 O   0  0  0  0  0  0  0  0  0  0  0  0
   20.9560   32.1340   71.7520 N   0  0  0  0  0  0  0  0  0  0  0  0
   22.0530   32.7090   71.4590 N   0  0  0  0  0  0  0  0  0  0  0  0
   22.2360   33.3340   70.3330 C   0  0  0  0  0  0  0  0  0  0  0  0
   20.6900   33.0820   69.6070 S   0  0  0  0  0  0  0  0  0  0  0  0
   19.9570   32.1750   70.8670 C   0  0  0  0  0  0  0  0  0  0  0  0
   18.7450   31.6070   71.0520 N   0  0  0  0  0  0  0  0  0  0  0  0
   23.3930   34.0560   69.7890 C   0  0  0  0  0  0  0  0  0  0  0  0
   23.1750   35.2320   69.1030 C   0  0  0  0  0  0  0  0  0  0  0  0
   24.2260   35.9610   68.5640 C   0  0  0  0  0  0  0  0  0  0  0  0
   25.5210   35.5090   68.7130 C   0  0  0  0  0  0  0  0  0  0  0  0
   25.7640   34.3300   69.3980 C   0  0  0  0  0  0  0  0  0  0  0  0
   24.6890   33.6420   69.9130 C   0  0  0  0  0  0  0  0  0  0  0  0
   26.8440   36.4090   68.0450 Cl  0  0  0  0  0  0  0  0  0  0  0  0
   14.4590   35.3280   70.5970 C   0  0  0  0  0  0  0  0  0  0  0  0
   14.0850   36.6160   70.3550 N   0  0  0  0  0  0  0  0  0  0  0  0
   15.1560   37.4100   70.3250 C   0  0  0  0  0  0  0  0  0  0  0  0
   16.2590   36.6810   70.5450 N   0  0  0  0  0  0  0  0  0  0  0  0
   15.8260   35.4020   70.7120 C   0  0  0  0  0  0  0  0  0  0  0  0
   14.4100   33.7440   73.6940 H   0  0  0  0  0  0  0  0  0  0  0  0
   15.7050   33.9610   72.4440 H   0  0  0  0  0  0  0  0  0  0  0  0
   14.9460   31.4400   73.9130 H   0  0  0  0  0  0  0  0  0  0  0  0
   16.5230   32.3240   73.9650 H   0  0  0  0  0  0  0  0  0  0  0  0
   15.2490   31.2070   70.3180 H   0  0  0  0  0  0  0  0  0  0  0  0
   14.8650   29.7360   71.3550 H   0  0  0  0  0  0  0  0  0  0  0  0
   12.9350   31.2970   70.9960 H   0  0  0  0  0  0  0  0  0  0  0  0
   13.3610   31.0740   72.7140 H   0  0  0  0  0  0  0  0  0  0  0  0
   16.9830   29.4700   71.6930 H   0  0  0  0  0  0  0  0  0  0  0  0
   17.0760   29.9620   73.4670 H   0  0  0  0  0  0  0  0  0  0  0  0
   19.2290   30.3370   74.0300 H   0  0  0  0  0  0  0  0  0  0  0  0
   22.1840   35.6330   68.9570 H   0  0  0  0  0  0  0  0  0  0  0  0
   24.0880   36.8860   68.0220 H   0  0  0  0  0  0  0  0  0  0  0  0
   26.7790   33.9760   69.5140 H   0  0  0  0  0  0  0  0  0  0  0  0
   24.8890   32.7290   70.4440 H   0  0  0  0  0  0  0  0  0  0  0  0
   15.1330   38.4770   70.1510 H   0  0  0  0  0  0  0  0  0  0  0  0
   17.2330   37.0240   70.5800 H   0  0  0  0  0  0  0  0  0  0  0  0
   16.5010   34.5900   70.9040 H   0  0  0  0  0  0  0  0  0  0  0  0
  1  2  2  0  0  0  0
  1  4  1  0  0  0  0
  3  1  2  0  0  0  0
  4  5  1  0  0  0  0
  5  6  1  0  0  0  0
  5 33  1  0  0  0  0
  6 35  1  0  0  0  0
  6 36  1  0  0  0  0
  7 10  1  0  0  0  0
  7  6  1  0  0  0  0
  8 38  1  0  0  0  0
  8  9  1  0  0  0  0
  8  7  1  0  0  0  0
  9  4  1  0  0  0  0
  9 40  1  0  0  0  0
 10 42  1  0  0  0  0
 11 10  1  0  0  0  0
 11 12  2  0  0  0  0
 12 43  1  0  0  0  0
 13 12  1  0  0  0  0
 13 14  2  0  0  0  0
 15 13  1  0  0  0  0
 16 15  1  0  0  0  0
 17 16  2  0  0  0  0
 18 17  1  0  0  0  0
 18 19  1  0  0  0  0
 19 20  2  0  0  0  0
 19 15  1  0  0  0  0
 20 11  1  0  0  0  0
 21 26  1  0  0  0  0
 21 17  1  0  0  0  0
 22 21  2  0  0  0  0
 23 24  2  0  0  0  0
 23 22  1  0  0  0  0
 24 25  1  0  0  0  0
 25 46  1  0  0  0  0
 25 26  2  0  0  0  0
 26 47  1  0  0  0  0
 27 24  1  0  0  0  0
 28 32  2  0  0  0  0
 28  1  1  0  0  0  0
 29 28  1  0  0  0  0
 30 29  2  0  0  0  0
 30 31  1  0  0  0  0
 31 49  1  0  0  0  0
 31 32  1  0  0  0  0
 32 50  1  0  0  0  0
 34  5  1  0  0  0  0
 37  8  1  0  0  0  0
 39  9  1  0  0  0  0
 41 10  1  0  0  0  0
 44 22  1  0  0  0  0
 45 23  1  0  0  0  0
 48 30  1  0  0  0  0
M  END
>  <Pose>
1

>  <Score>
-7.55

$$$$
