
 OpenBabel03212208413D

 68 71  0  0  0  0  0  0  0  0999 V2000
   19.6380   36.7140   69.8620 S   0  0  0  0  0  0  0  0  0  0  0  0
   19.0330   37.8740   69.1100 O   0  0  0  0  0  0  0  0  0  0  0  0
   20.2750   37.3200   71.0930 O   0  0  0  0  0  0  0  0  0  0  0  0
   18.5620   35.4900   70.1850 N   0  0  0  0  0  0  0  0  0  0  0  0
   17.1970   35.6770   70.2640 C   0  0  0  0  0  0  0  0  0  0  0  0
   16.6470   35.0600   71.5210 C   0  0  0  0  0  0  0  0  0  0  0  0
   17.1390   33.7690   71.8420 N   0  0  0  0  0  0  0  0  0  0  0  0
   17.9200   33.2250   70.7780 C   0  0  0  0  0  0  0  0  0  0  0  0
   19.0370   34.1910   70.3950 C   0  0  0  0  0  0  0  0  0  0  0  0
   17.8120   33.6930   73.1060 C   0  0  0  0  0  0  0  0  0  0  0  0
   18.4470   32.3470   73.3020 C   0  0  0  0  0  0  0  0  0  0  0  0
   19.6900   32.2840   73.1800 O   0  0  0  0  0  0  0  0  0  0  0  0
   17.6700   31.2020   73.6120 N   0  0  0  0  0  0  0  0  0  0  0  0
   17.1460   30.4390   72.5160 C   0  0  0  0  0  0  0  0  0  0  0  0
   15.8840   29.7060   72.7600 C   0  0  0  0  0  0  0  0  0  0  0  0
   14.8600   30.1110   71.7280 C   0  0  0  0  0  0  0  0  0  0  0  0
   13.9990   31.2880   72.1980 C   0  0  0  0  0  0  0  0  0  0  0  0
   13.1120   30.8600   73.3500 C   0  0  0  0  0  0  0  0  0  0  0  0
   13.8690   29.8040   74.1350 C   0  0  0  0  0  0  0  0  0  0  0  0
   15.3240   30.2210   74.1010 C   0  0  0  0  0  0  0  0  0  0  0  0
   15.9420   28.2990   72.8710 N   0  0  0  0  0  0  0  0  0  0  0  0
   17.2180   27.6760   72.8940 C   0  0  0  0  0  0  0  0  0  0  0  0
   16.9670   26.1900   72.5740 C   0  0  0  0  0  0  0  0  0  0  0  0
   16.1920   25.6210   73.5550 O   0  0  0  0  0  0  0  0  0  0  0  0
   15.7930   26.4890   74.5400 C   0  0  0  0  0  0  0  0  0  0  0  0
   15.1650   27.7600   73.9660 C   0  0  0  0  0  0  0  0  0  0  0  0
   20.9410   36.1120   68.8410 C   0  0  0  0  0  0  0  0  0  0  0  0
   21.1040   36.5610   67.5600 C   0  0  0  0  0  0  0  0  0  0  0  0
   22.1160   36.0950   66.7610 C   0  0  0  0  0  0  0  0  0  0  0  0
   22.9830   35.1520   67.2670 C   0  0  0  0  0  0  0  0  0  0  0  0
   22.8200   34.6950   68.5610 C   0  0  0  0  0  0  0  0  0  0  0  0
   21.8040   35.1690   69.3520 C   0  0  0  0  0  0  0  0  0  0  0  0
   24.2670   34.5750   66.2200 Cl  0  0  0  0  0  0  0  0  0  0  0  0
   16.5920   35.2240   69.4260 H   0  0  0  0  0  0  0  0  0  0  0  0
   16.8800   36.7530   70.2640 H   0  0  0  0  0  0  0  0  0  0  0  0
   15.5340   34.9810   71.4050 H   0  0  0  0  0  0  0  0  0  0  0  0
   16.7960   35.8040   72.3330 H   0  0  0  0  0  0  0  0  0  0  0  0
   17.2740   33.0870   69.8650 H   0  0  0  0  0  0  0  0  0  0  0  0
   18.3920   32.2920   71.1040 H   0  0  0  0  0  0  0  0  0  0  0  0
   19.8250   34.1230   71.2000 H   0  0  0  0  0  0  0  0  0  0  0  0
   19.5210   33.7780   69.4630 H   0  0  0  0  0  0  0  0  0  0  0  0
   17.1750   33.9800   73.9680 H   0  0  0  0  0  0  0  0  0  0  0  0
   18.6580   34.4130   73.0910 H   0  0  0  0  0  0  0  0  0  0  0  0
   17.5170   30.9700   74.6300 H   0  0  0  0  0  0  0  0  0  0  0  0
   17.0410   31.1430   71.6600 H   0  0  0  0  0  0  0  0  0  0  0  0
   17.9080   29.6550   72.2200 H   0  0  0  0  0  0  0  0  0  0  0  0
   14.1300   29.2870   71.5200 H   0  0  0  0  0  0  0  0  0  0  0  0
   15.3410   30.4650   70.7890 H   0  0  0  0  0  0  0  0  0  0  0  0
   13.3450   31.5590   71.3490 H   0  0  0  0  0  0  0  0  0  0  0  0
   14.6110   32.1740   72.4410 H   0  0  0  0  0  0  0  0  0  0  0  0
   12.9330   31.7420   74.0000 H   0  0  0  0  0  0  0  0  0  0  0  0
   12.1680   30.4880   72.9470 H   0  0  0  0  0  0  0  0  0  0  0  0
   13.5080   29.7320   75.1900 H   0  0  0  0  0  0  0  0  0  0  0  0
   13.7820   28.8220   73.6280 H   0  0  0  0  0  0  0  0  0  0  0  0
   15.8290   29.7780   74.9560 H   0  0  0  0  0  0  0  0  0  0  0  0
   15.4560   31.3210   74.1630 H   0  0  0  0  0  0  0  0  0  0  0  0
   17.9030   28.0120   72.0880 H   0  0  0  0  0  0  0  0  0  0  0  0
   17.7400   27.6750   73.8700 H   0  0  0  0  0  0  0  0  0  0  0  0
   16.3510   26.1990   71.6310 H   0  0  0  0  0  0  0  0  0  0  0  0
   17.9120   25.6760   72.3890 H   0  0  0  0  0  0  0  0  0  0  0  0
   16.5990   26.7460   75.2770 H   0  0  0  0  0  0  0  0  0  0  0  0
   14.9880   26.0080   75.1500 H   0  0  0  0  0  0  0  0  0  0  0  0
   14.1630   27.4830   73.5850 H   0  0  0  0  0  0  0  0  0  0  0  0
   15.0490   28.4490   74.8200 H   0  0  0  0  0  0  0  0  0  0  0  0
   20.4210   37.3140   67.1400 H   0  0  0  0  0  0  0  0  0  0  0  0
   22.2350   36.4610   65.7400 H   0  0  0  0  0  0  0  0  0  0  0  0
   23.5160   33.9480   68.9480 H   0  0  0  0  0  0  0  0  0  0  0  0
   21.6960   34.7910   70.3710 H   0  0  0  0  0  0  0  0  0  0  0  0
  1  4  1  0  0  0  0
  1  3  2  0  0  0  0
  2  1  2  0  0  0  0
  4  5  1  0  0  0  0
  4  9  1  0  0  0  0
  5  6  1  0  0  0  0
  6  7  1  0  0  0  0
  6 37  1  0  0  0  0
  7 10  1  0  0  0  0
  8 39  1  0  0  0  0
  8  7  1  0  0  0  0
  9  8  1  0  0  0  0
  9 40  1  0  0  0  0
 10 11  1  0  0  0  0
 10 42  1  0  0  0  0
 11 13  1  0  0  0  0
 12 11  2  0  0  0  0
 13 44  1  0  0  0  0
 14 15  1  0  0  0  0
 14 13  1  0  0  0  0
 15 21  1  0  0  0  0
 15 20  1  0  0  0  0
 16 17  1  0  0  0  0
 16 15  1  0  0  0  0
 17 50  1  0  0  0  0
 17 18  1  0  0  0  0
 18 51  1  0  0  0  0
 18 19  1  0  0  0  0
 19 53  1  0  0  0  0
 20 19  1  0  0  0  0
 20 56  1  0  0  0  0
 20 55  1  0  0  0  0
 21 22  1  0  0  0  0
 21 26  1  0  0  0  0
 22 58  1  0  0  0  0
 23 22  1  0  0  0  0
 23 24  1  0  0  0  0
 24 25  1  0  0  0  0
 25 62  1  0  0  0  0
 25 61  1  0  0  0  0
 26 25  1  0  0  0  0
 26 64  1  0  0  0  0
 27 32  1  0  0  0  0
 27  1  1  0  0  0  0
 28 27  2  0  0  0  0
 29 30  2  0  0  0  0
 29 28  1  0  0  0  0
 30 31  1  0  0  0  0
 31 67  1  0  0  0  0
 31 32  2  0  0  0  0
 32 68  1  0  0  0  0
 33 30  1  0  0  0  0
 34  5  1  0  0  0  0
 35  5  1  0  0  0  0
 36  6  1  0  0  0  0
 38  8  1  0  0  0  0
 41  9  1  0  0  0  0
 43 10  1  0  0  0  0
 45 14  1  0  0  0  0
 46 14  1  0  0  0  0
 47 16  1  0  0  0  0
 48 16  1  0  0  0  0
 49 17  1  0  0  0  0
 52 18  1  0  0  0  0
 54 19  1  0  0  0  0
 57 22  1  0  0  0  0
 59 23  1  0  0  0  0
 60 23  1  0  0  0  0
 63 26  1  0  0  0  0
 65 28  1  0  0  0  0
 66 29  1  0  0  0  0
M  END
>  <Pose>
1

>  <Score>
-6.42

$$$$
