
 OpenBabel03212208413D

 44 47  0  0  1  0  0  0  0  0999 V2000
   25.3280   35.8870   63.4190 B   0  0  0  0  0  0  0  0  0  0  0  0
   24.8540   35.2100   65.1460 C   0  0  0  0  0  0  0  0  0  0  0  0
   23.6880   35.5900   65.7790 C   0  0  0  0  0  0  0  0  0  0  0  0
   23.3340   35.1060   67.0270 C   0  0  0  0  0  0  0  0  0  0  0  0
   24.2110   34.2180   67.6120 C   0  0  0  0  0  0  0  0  0  0  0  0
   25.3830   33.8170   67.0130 C   0  0  0  0  0  0  0  0  0  0  0  0
   25.7230   34.3100   65.7640 C   0  0  0  0  0  0  0  0  0  0  0  0
   26.5550   32.5810   67.8810 B   0  0  0  0  0  0  0  0  0  0  0  0
   22.0620   35.6610   67.4620 C   0  0  0  0  0  0  0  0  0  0  0  0
   21.4000   35.4660   68.5410 N   0  0  0  0  0  0  0  0  0  0  0  0
   20.1760   36.0890   68.8020 N   0  0  0  0  0  0  0  0  0  0  0  0
   19.8050   36.2830   70.1510 C   0  0  0  0  0  0  0  0  0  0  0  0
   18.8740   37.0610   70.4460 O   0  0  0  0  0  0  0  0  0  0  0  0
   20.4930   35.5800   71.2800 C   0  0  0  0  0  0  0  0  0  0  0  0
   19.6720   34.5490   71.8520 N   0  0  0  0  0  0  0  0  0  0  0  0
   18.4400   34.1360   71.2760 C   0  0  0  0  0  0  0  0  0  0  0  0
   18.4680   33.5540   70.1700 O   0  0  0  0  0  0  0  0  0  0  0  0
   17.1110   34.3600   71.9220 C   0  0  2  0  0  0  0  0  0  0  0  0
   16.7580   33.3080   72.7690 O   0  0  0  0  0  0  0  0  0  0  0  0
   15.7400   32.3910   72.5180 C   0  0  0  0  0  0  0  0  0  0  0  0
   14.7990   32.7460   71.5880 C   0  0  0  0  0  0  0  0  0  0  0  0
   13.7670   31.8470   71.3170 C   0  0  0  0  0  0  0  0  0  0  0  0
   13.6640   30.6290   71.9480 C   0  0  0  0  0  0  0  0  0  0  0  0
   14.6310   30.3050   72.8800 C   0  0  0  0  0  0  0  0  0  0  0  0
   15.6500   31.1870   73.1510 C   0  0  0  0  0  0  0  0  0  0  0  0
   14.8930   33.9550   70.9550 O   0  0  0  0  0  0  0  0  0  0  0  0
   16.0560   34.7360   70.9410 C   0  0  0  0  0  0  0  0  0  0  0  0
   21.6260   36.5490   66.3790 C   0  0  0  0  0  0  0  0  0  0  0  0
   20.5550   37.2120   66.4010 O   0  0  0  0  0  0  0  0  0  0  0  0
   22.6380   36.4700   65.3940 N   0  0  0  0  0  0  0  0  0  0  0  0
   23.9790   33.8150   68.5830 H   0  0  0  0  0  0  0  0  0  0  0  0
   26.6240   34.0120   65.2810 H   0  0  0  0  0  0  0  0  0  0  0  0
   19.6000   36.3760   67.9820 H   0  0  0  0  0  0  0  0  0  0  0  0
   21.3930   35.1060   70.8300 H   0  0  0  0  0  0  0  0  0  0  0  0
   20.8580   36.3050   72.0410 H   0  0  0  0  0  0  0  0  0  0  0  0
   19.9550   34.0540   72.7300 H   0  0  0  0  0  0  0  0  0  0  0  0
   17.2840   35.2480   72.5990 H   0  0  0  0  0  0  0  0  0  0  0  0
   13.0360   32.1500   70.5780 H   0  0  0  0  0  0  0  0  0  0  0  0
   12.8490   29.9630   71.7090 H   0  0  0  0  0  0  0  0  0  0  0  0
   14.5420   29.3260   73.3830 H   0  0  0  0  0  0  0  0  0  0  0  0
   16.3930   30.9090   73.8860 H   0  0  0  0  0  0  0  0  0  0  0  0
   15.7540   35.8190   71.0850 H   0  0  0  0  0  0  0  0  0  0  0  0
   16.4740   34.6790   69.9090 H   0  0  0  0  0  0  0  0  0  0  0  0
   22.6190   36.9890   64.4990 H   0  0  0  0  0  0  0  0  0  0  0  0
  1  2  1  0  0  0  0
  2  7  2  0  0  0  0
  2  3  1  0  0  0  0
  3  4  2  0  0  0  0
  4  9  1  0  0  0  0
  4  5  1  0  0  0  0
  5 31  1  0  0  0  0
  6  5  2  0  0  0  0
  6  8  1  0  0  0  0
  7  6  1  0  0  0  0
  9 10  2  0  0  0  0
 10 11  1  0  0  0  0
 11 12  1  0  0  0  0
 12 13  2  0  0  0  0
 12 14  1  0  0  0  0
 14 15  1  0  0  0  0
 14 35  1  0  0  0  0
 15 36  1  0  0  0  0
 16 15  1  0  0  0  0
 16 18  1  0  0  0  0
 17 16  2  0  0  0  0
 18 37  1  1  0  0  0
 18 19  1  0  0  0  0
 20 19  1  0  0  0  0
 20 25  1  0  0  0  0
 21 20  2  0  0  0  0
 22 21  1  0  0  0  0
 22 23  2  0  0  0  0
 23 24  1  0  0  0  0
 24 25  2  0  0  0  0
 24 40  1  0  0  0  0
 25 41  1  0  0  0  0
 26 21  1  0  0  0  0
 27 26  1  0  0  0  0
 27 42  1  0  0  0  0
 27 18  1  0  0  0  0
 28 29  2  0  0  0  0
 28  9  1  0  0  0  0
 30  3  1  0  0  0  0
 30 28  1  0  0  0  0
 32  7  1  0  0  0  0
 33 11  1  0  0  0  0
 34 14  1  0  0  0  0
 38 22  1  0  0  0  0
 39 23  1  0  0  0  0
 43 27  1  0  0  0  0
 44 30  1  0  0  0  0
M  END
>  <Pose>
1

>  <Score>
-6.84

$$$$
