
 OpenBabel03212208413D

 45 48  0  0  1  0  0  0  0  0999 V2000
   25.6150   32.7210   67.8710 Cl  0  0  0  0  0  0  0  0  0  0  0  0
   24.0500   33.0770   68.5770 C   0  0  0  0  0  0  0  0  0  0  0  0
   22.9810   33.4800   67.7770 C   0  0  0  0  0  0  0  0  0  0  0  0
   21.7540   33.7690   68.3120 C   0  0  0  0  0  0  0  0  0  0  0  0
   21.4890   33.6830   69.6800 C   0  0  0  0  0  0  0  0  0  0  0  0
   22.5570   33.2810   70.4660 C   0  0  0  0  0  0  0  0  0  0  0  0
   23.7890   32.9900   69.9310 C   0  0  0  0  0  0  0  0  0  0  0  0
   20.2150   33.9930   70.2090 N   0  0  0  0  0  0  0  0  0  0  0  0
   19.8040   35.3670   70.1660 C   0  0  0  0  0  0  0  0  0  0  0  0
   20.5710   36.2160   69.6300 O   0  0  0  0  0  0  0  0  0  0  0  0
   18.5440   35.6750   70.7370 N   0  0  0  0  0  0  0  0  0  0  0  0
   17.7700   34.8450   71.2820 C   0  0  0  0  0  0  0  0  0  0  0  0
   18.0330   33.3730   71.4400 C   0  0  1  0  0  0  0  0  0  0  0  0
   18.1530   33.1680   72.9240 C   0  0  0  0  0  0  0  0  0  0  0  0
   17.8850   31.8760   73.4260 N   0  0  0  0  0  4  0  0  0  0  0  0
   16.7930   31.1920   72.8400 C   0  0  0  0  0  0  0  0  0  0  0  0
   16.3360   31.5620   71.6160 C   0  0  0  0  0  0  0  0  0  0  0  0
   15.2610   30.8640   71.0720 C   0  0  0  0  0  0  0  0  0  0  0  0
   14.6870   29.8250   71.7750 C   0  0  0  0  0  0  0  0  0  0  0  0
   15.1550   29.4490   73.0250 C   0  0  0  0  0  0  0  0  0  0  0  0
   16.2310   30.1560   73.5590 C   0  0  0  0  0  0  0  0  0  0  0  0
   13.5240   29.0620   71.2210 C   0  0  0  0  0  0  0  0  0  0  0  0
   16.9020   32.6600   70.8030 C   0  0  0  0  0  0  0  0  0  0  0  0
   19.0320   30.9860   73.5100 C   0  0  0  0  0  0  0  0  0  0  0  0
   19.3350   33.0570   70.8040 C   0  0  0  0  0  0  0  0  0  0  0  0
   19.7550   31.8450   70.7530 O   0  0  0  0  0  0  0  0  0  0  0  0
   16.5360   35.2670   71.8110 O   0  0  0  0  0  0  0  0  0  0  0  0
   23.1860   33.5490   66.7000 H   0  0  0  0  0  0  0  0  0  0  0  0
   20.9130   34.0860   67.6680 H   0  0  0  0  0  0  0  0  0  0  0  0
   22.3430   33.2150   71.5230 H   0  0  0  0  0  0  0  0  0  0  0  0
   24.6020   32.6780   70.6000 H   0  0  0  0  0  0  0  0  0  0  0  0
   17.5410   33.9290   73.4850 H   0  0  0  0  0  0  0  0  0  0  0  0
   19.2210   33.4240   73.1810 H   0  0  0  0  0  0  0  0  0  0  0  0
   17.5920   32.0030   74.4480 H   0  0  0  0  0  0  0  0  0  0  0  0
   14.8550   31.1200   70.0980 H   0  0  0  0  0  0  0  0  0  0  0  0
   14.7130   28.6260   73.6050 H   0  0  0  0  0  0  0  0  0  0  0  0
   16.5910   29.8540   74.5410 H   0  0  0  0  0  0  0  0  0  0  0  0
   13.0210   29.6100   70.3950 H   0  0  0  0  0  0  0  0  0  0  0  0
   12.8200   28.8160   72.0610 H   0  0  0  0  0  0  0  0  0  0  0  0
   13.8780   28.1040   70.8170 H   0  0  0  0  0  0  0  0  0  0  0  0
   16.0220   33.3470   70.6060 H   0  0  0  0  0  0  0  0  0  0  0  0
   17.1730   32.2460   69.8160 H   0  0  0  0  0  0  0  0  0  0  0  0
   20.0050   31.5200   73.4490 H   0  0  0  0  0  0  0  0  0  0  0  0
   18.9220   30.1630   72.7650 H   0  0  0  0  0  0  0  0  0  0  0  0
   19.0600   30.4510   74.5080 H   0  0  0  0  0  0  0  0  0  0  0  0
  1  2  1  0  0  0  0
  2  7  1  0  0  0  0
  3  4  1  0  0  0  0
  3  2  2  0  0  0  0
  4  5  2  0  0  0  0
  5  8  1  0  0  0  0
  5  6  1  0  0  0  0
  6 30  1  0  0  0  0
  7  6  2  0  0  0  0
  7 31  1  0  0  0  0
  8 25  1  0  0  0  0
  9  8  1  0  0  0  0
  9 11  1  0  0  0  0
 10  9  2  0  0  0  0
 11 12  1  0  0  0  0
 12 13  1  0  0  0  0
 12 27  2  0  0  0  0
 13 25  1  6  0  0  0
 13 14  1  0  0  0  0
 14 33  1  0  0  0  0
 14 15  1  0  0  0  0
 14 32  1  0  0  0  0
 15 24  1  0  0  0  0
 15 34  1  0  0  0  0
 16 15  1  0  0  0  0
 16 21  1  0  0  0  0
 17 16  2  0  0  0  0
 18 17  1  0  0  0  0
 18 19  2  0  0  0  0
 19 20  1  0  0  0  0
 20 21  2  0  0  0  0
 20 36  1  0  0  0  0
 21 37  1  0  0  0  0
 22 19  1  0  0  0  0
 22 39  1  0  0  0  0
 23 13  1  0  0  0  0
 23 17  1  0  0  0  0
 24 45  1  0  0  0  0
 26 25  2  0  0  0  0
 28  3  1  0  0  0  0
 29  4  1  0  0  0  0
 35 18  1  0  0  0  0
 38 22  1  0  0  0  0
 40 22  1  0  0  0  0
 41 23  1  0  0  0  0
 42 23  1  0  0  0  0
 43 24  1  0  0  0  0
 44 24  1  0  0  0  0
M  END
>  <Pose>
1

>  <Score>
-5.08

$$$$
