
 OpenBabel03212208413D

 35 38  0  0  1  0  0  0  0  0999 V2000
   12.2680   34.9030   69.9600 Cl  0  0  0  0  0  0  0  0  0  0  0  0
   13.9640   34.8900   70.4390 C   0  0  0  0  0  0  0  0  0  0  0  0
   14.4990   33.7950   71.0910 C   0  0  0  0  0  0  0  0  0  0  0  0
   15.8200   33.7630   71.4710 C   0  0  0  0  0  0  0  0  0  0  0  0
   16.6690   34.8440   71.2060 C   0  0  0  0  0  0  0  0  0  0  0  0
   16.1010   35.9150   70.5560 C   0  0  0  0  0  0  0  0  0  0  0  0
   14.7850   35.9750   70.1650 C   0  0  0  0  0  0  0  0  0  0  0  0
   18.0350   34.8020   71.5940 N   0  0  0  0  0  0  0  0  0  0  0  0
   18.6130   34.2700   72.7970 C   0  0  0  0  0  0  0  0  0  0  0  0
   17.9350   33.9500   73.8050 O   0  0  0  0  0  0  0  0  0  0  0  0
   20.0880   34.1630   72.6690 C   0  0  1  0  0  0  0  0  0  0  0  0
   20.5960   32.7590   72.7220 C   0  0  1  0  0  0  0  0  0  0  0  0
   19.5150   31.8650   72.1520 C   0  0  1  0  0  0  0  0  0  0  0  0
   19.4750   32.3290   70.6970 C   0  0  1  0  0  0  0  0  0  0  0  0
   20.6070   33.3180   70.5420 C   0  0  1  0  0  0  0  0  0  0  0  0
   20.3520   34.6220   71.2290 C   0  0  1  0  0  0  0  0  0  0  0  0
   19.1040   35.3010   70.8050 C   0  0  0  0  0  0  0  0  0  0  0  0
   19.0420   36.1670   69.8980 O   0  0  0  0  0  0  0  0  0  0  0  0
   21.5950   32.6940   71.5540 C   0  0  0  0  0  0  0  0  0  0  0  0
   19.7610   31.2760   69.8300 O   0  0  0  0  0  0  0  0  0  0  0  0
   19.9880   30.5710   72.1630 O   0  0  0  0  0  0  0  0  0  0  0  0
   13.8340   32.9600   71.2940 H   0  0  0  0  0  0  0  0  0  0  0  0
   16.2580   32.9270   71.9790 H   0  0  0  0  0  0  0  0  0  0  0  0
   16.7300   36.7790   70.3310 H   0  0  0  0  0  0  0  0  0  0  0  0
   14.3520   36.8360   69.6470 H   0  0  0  0  0  0  0  0  0  0  0  0
   20.6160   34.8490   73.3620 H   0  0  0  0  0  0  0  0  0  0  0  0
   21.0190   32.4320   73.6550 H   0  0  0  0  0  0  0  0  0  0  0  0
   18.5490   32.0000   72.6500 H   0  0  0  0  0  0  0  0  0  0  0  0
   18.5030   32.7340   70.4320 H   0  0  0  0  0  0  0  0  0  0  0  0
   21.0290   33.3830   69.5440 H   0  0  0  0  0  0  0  0  0  0  0  0
   21.2500   35.2580   71.1530 H   0  0  0  0  0  0  0  0  0  0  0  0
   22.4680   33.3160   71.7110 H   0  0  0  0  0  0  0  0  0  0  0  0
   21.7790   31.6390   71.2740 H   0  0  0  0  0  0  0  0  0  0  0  0
   19.4800   31.5650   68.9100 H   0  0  0  0  0  0  0  0  0  0  0  0
   19.8590   30.0860   73.0110 H   0  0  0  0  0  0  0  0  0  0  0  0
  1  2  1  0  0  0  0
  2  3  1  0  0  0  0
  3 22  1  0  0  0  0
  3  4  2  0  0  0  0
  4 23  1  0  0  0  0
  5  4  1  0  0  0  0
  5  8  1  0  0  0  0
  6  5  2  0  0  0  0
  7  2  2  0  0  0  0
  7  6  1  0  0  0  0
  8  9  1  0  0  0  0
  9 10  2  0  0  0  0
 11 12  1  0  0  0  0
 11  9  1  0  0  0  0
 11 26  1  1  0  0  0
 12 27  1  1  0  0  0
 13 21  1  0  0  0  0
 13 28  1  1  0  0  0
 13 12  1  0  0  0  0
 14 29  1  6  0  0  0
 14 13  1  0  0  0  0
 15 30  1  6  0  0  0
 15 14  1  0  0  0  0
 15 16  1  0  0  0  0
 15 19  1  0  0  0  0
 16 31  1  6  0  0  0
 16 11  1  0  0  0  0
 17 16  1  0  0  0  0
 17  8  1  0  0  0  0
 18 17  2  0  0  0  0
 19 32  1  0  0  0  0
 19 12  1  0  0  0  0
 20 14  1  0  0  0  0
 21 35  1  0  0  0  0
 24  6  1  0  0  0  0
 25  7  1  0  0  0  0
 33 19  1  0  0  0  0
 34 20  1  0  0  0  0
M  END
>  <Pose>
1

>  <Score>
-5.29

$$$$
