
 OpenBabel03212208413D

 47 50  0  0  1  0  0  0  0  0999 V2000
   16.0400   22.7860   76.8800 Cl  0  0  0  0  0  0  0  0  0  0  0  0
   16.4330   24.2910   76.0700 C   0  0  0  0  0  0  0  0  0  0  0  0
   15.8870   25.4940   76.4910 C   0  0  0  0  0  0  0  0  0  0  0  0
   16.2110   26.6460   75.8410 C   0  0  0  0  0  0  0  0  0  0  0  0
   17.0800   26.6670   74.7570 C   0  0  0  0  0  0  0  0  0  0  0  0
   17.6200   25.4710   74.3410 C   0  0  0  0  0  0  0  0  0  0  0  0
   17.3030   24.2760   74.9910 C   0  0  0  0  0  0  0  0  0  0  0  0
   17.4150   27.8720   74.0810 N   0  0  0  0  0  0  0  0  0  0  0  0
   18.2450   28.8720   74.6550 C   0  0  0  0  0  0  0  0  0  0  0  0
   18.7000   28.6760   75.8200 O   0  0  0  0  0  0  0  0  0  0  0  0
   18.5630   30.0600   73.9580 N   0  0  0  0  0  0  0  0  0  0  0  0
   18.0590   30.2860   72.6560 C   0  0  0  0  0  0  0  0  0  0  0  0
   18.4760   31.2620   71.9400 O   0  0  0  0  0  0  0  0  0  0  0  0
   17.0400   29.4170   72.0680 C   0  0  1  0  0  0  0  0  0  0  0  0
   16.9260   28.1340   72.7740 C   0  0  0  0  0  0  0  0  0  0  0  0
   16.3470   27.1510   72.1930 O   0  0  0  0  0  0  0  0  0  0  0  0
   15.7330   30.1340   71.9860 C   0  0  0  0  0  0  0  0  0  0  0  0
   15.2230   30.9840   72.8370 C   0  0  0  0  0  0  0  0  0  0  0  0
   13.9090   31.4090   72.2960 C   0  0  2  0  0  0  0  0  0  0  0  0
   13.5840   30.3870   71.3240 N   0  0  0  0  0  0  0  0  0  0  0  0
   14.8420   29.9540   70.8910 N   0  0  0  0  0  0  0  0  0  0  0  0
   14.0190   32.7370   71.6320 C   0  0  0  0  0  0  0  0  0  0  0  0
   12.9290   33.3870   71.1000 C   0  0  0  0  0  0  0  0  0  0  0  0
   13.0210   34.6190   70.4800 C   0  0  0  0  0  0  0  0  0  0  0  0
   14.2410   35.2470   70.3760 C   0  0  0  0  0  0  0  0  0  0  0  0
   15.3420   34.6150   70.9010 C   0  0  0  0  0  0  0  0  0  0  0  0
   15.2390   33.3870   71.5160 C   0  0  0  0  0  0  0  0  0  0  0  0
   14.3560   36.4770   69.7610 O   0  0  0  0  0  0  0  0  0  0  0  0
   15.2740   37.4230   70.2610 C   0  0  0  0  0  0  0  0  0  0  0  0
   11.8900   35.2220   69.9650 O   0  0  0  0  0  0  0  0  0  0  0  0
   15.2170   25.5040   77.3220 H   0  0  0  0  0  0  0  0  0  0  0  0
   15.7750   27.5940   76.1800 H   0  0  0  0  0  0  0  0  0  0  0  0
   18.2960   25.4970   73.4960 H   0  0  0  0  0  0  0  0  0  0  0  0
   17.7550   23.3570   74.6270 H   0  0  0  0  0  0  0  0  0  0  0  0
   19.1800   30.7890   74.4020 H   0  0  0  0  0  0  0  0  0  0  0  0
   17.3810   29.1990   71.0140 H   0  0  0  0  0  0  0  0  0  0  0  0
   15.7120   31.2890   73.7600 H   0  0  0  0  0  0  0  0  0  0  0  0
   13.1460   31.4520   73.1110 H   0  0  0  0  0  0  0  0  0  0  0  0
   13.0350   29.6070   71.7570 H   0  0  0  0  0  0  0  0  0  0  0  0
   15.0310   29.5770   69.9270 H   0  0  0  0  0  0  0  0  0  0  0  0
   11.9700   32.8680   71.1940 H   0  0  0  0  0  0  0  0  0  0  0  0
   16.3200   35.1080   70.8230 H   0  0  0  0  0  0  0  0  0  0  0  0
   16.1120   32.8750   71.9380 H   0  0  0  0  0  0  0  0  0  0  0  0
   16.3230   37.0800   70.1890 H   0  0  0  0  0  0  0  0  0  0  0  0
   15.1230   38.3780   69.7220 H   0  0  0  0  0  0  0  0  0  0  0  0
   15.0040   37.6150   71.3210 H   0  0  0  0  0  0  0  0  0  0  0  0
   11.0580   35.3200   70.5120 H   0  0  0  0  0  0  0  0  0  0  0  0
  2  3  1  0  0  0  0
  2  1  1  0  0  0  0
  3 31  1  0  0  0  0
  4 32  1  0  0  0  0
  4  3  2  0  0  0  0
  5  4  1  0  0  0  0
  6  5  2  0  0  0  0
  6  7  1  0  0  0  0
  7  2  2  0  0  0  0
  8  9  1  0  0  0  0
  8  5  1  0  0  0  0
  9 10  2  0  0  0  0
 11 35  1  0  0  0  0
 11  9  1  0  0  0  0
 12 11  1  0  0  0  0
 13 12  2  0  0  0  0
 14 36  1  6  0  0  0
 14 12  1  0  0  0  0
 14 15  1  0  0  0  0
 15  8  1  0  0  0  0
 16 15  2  0  0  0  0
 17 14  1  0  0  0  0
 17 18  2  0  0  0  0
 18 37  1  0  0  0  0
 19 18  1  0  0  0  0
 19 38  1  1  0  0  0
 20 39  1  0  0  0  0
 20 19  1  0  0  0  0
 21 20  1  0  0  0  0
 21 17  1  0  0  0  0
 22 19  1  0  0  0  0
 23 41  1  0  0  0  0
 23 22  2  0  0  0  0
 24 23  1  0  0  0  0
 25 24  2  0  0  0  0
 25 26  1  0  0  0  0
 26 27  2  0  0  0  0
 27 22  1  0  0  0  0
 27 43  1  0  0  0  0
 28 29  1  0  0  0  0
 28 25  1  0  0  0  0
 29 46  1  0  0  0  0
 30 24  1  0  0  0  0
 30 47  1  0  0  0  0
 33  6  1  0  0  0  0
 34  7  1  0  0  0  0
 40 21  1  0  0  0  0
 42 26  1  0  0  0  0
 44 29  1  0  0  0  0
 45 29  1  0  0  0  0
M  END
>  <Pose>
1

>  <Score>
-6.60

$$$$
