
 OpenBabel03212208413D

 43 46  0  0  1  0  0  0  0  0999 V2000
   20.4330   23.4360   73.2980 Cl  0  0  0  0  0  0  0  0  0  0  0  0
   19.2200   24.6780   73.4020 C   0  0  0  0  0  0  0  0  0  0  0  0
   18.7990   25.2850   72.2270 C   0  0  0  0  0  0  0  0  0  0  0  0
   17.8360   26.2740   72.2850 C   0  0  0  0  0  0  0  0  0  0  0  0
   17.2620   26.6970   73.4680 C   0  0  0  0  0  0  0  0  0  0  0  0
   17.6930   26.0810   74.6270 C   0  0  0  0  0  0  0  0  0  0  0  0
   18.6550   25.0870   74.6080 C   0  0  0  0  0  0  0  0  0  0  0  0
   16.2540   27.7320   73.4940 N   0  0  0  0  0  0  0  0  0  0  0  0
   14.9490   27.3600   73.9660 C   0  0  0  0  0  0  0  0  0  0  0  0
   14.6950   26.1750   74.3440 O   0  0  0  0  0  0  0  0  0  0  0  0
   13.9630   28.3820   73.9880 N   0  0  0  0  0  0  0  0  0  0  0  0
   14.2800   29.7230   73.5520 C   0  0  0  0  0  0  0  0  0  0  0  0
   13.5730   30.6350   73.9980 O   0  0  0  0  0  0  0  0  0  0  0  0
   15.3850   29.9300   72.6360 C   0  0  2  0  0  0  0  0  0  0  0  0
   16.5170   29.0630   73.0780 C   0  0  0  0  0  0  0  0  0  0  0  0
   17.7170   29.4390   73.1060 O   0  0  0  0  0  0  0  0  0  0  0  0
   15.7890   31.2890   72.3580 C   0  0  0  0  0  0  0  0  0  0  0  0
   15.8490   31.9200   71.2080 C   0  0  0  0  0  0  0  0  0  0  0  0
   16.3200   33.3160   71.3820 C   0  0  2  0  0  0  0  0  0  0  0  0
   16.2680   33.4930   72.8150 N   0  0  0  0  0  0  0  0  0  0  0  0
   16.2260   32.2170   73.3730 N   0  0  0  0  0  0  0  0  0  0  0  0
   15.4250   34.3080   70.7740 C   0  0  0  0  0  0  0  0  0  0  0  0
   14.0980   33.9560   70.5740 C   0  0  0  0  0  0  0  0  0  0  0  0
   13.2330   34.8620   70.0080 C   0  0  0  0  0  0  0  0  0  0  0  0
   13.6470   36.1190   69.6320 C   0  0  0  0  0  0  0  0  0  0  0  0
   14.9590   36.4830   69.8240 C   0  0  0  0  0  0  0  0  0  0  0  0
   15.8340   35.5600   70.3970 C   0  0  0  0  0  0  0  0  0  0  0  0
   11.8900   34.5190   69.8020 O   0  0  0  0  0  0  0  0  0  0  0  0
   19.2370   24.9730   71.2680 H   0  0  0  0  0  0  0  0  0  0  0  0
   17.5110   26.7440   71.3790 H   0  0  0  0  0  0  0  0  0  0  0  0
   17.2860   26.3630   75.5740 H   0  0  0  0  0  0  0  0  0  0  0  0
   19.0160   24.5830   75.4980 H   0  0  0  0  0  0  0  0  0  0  0  0
   13.0160   28.1340   74.3250 H   0  0  0  0  0  0  0  0  0  0  0  0
   15.0360   29.4900   71.6330 H   0  0  0  0  0  0  0  0  0  0  0  0
   15.6090   31.5550   70.2070 H   0  0  0  0  0  0  0  0  0  0  0  0
   17.3660   33.4150   70.9950 H   0  0  0  0  0  0  0  0  0  0  0  0
   15.4800   34.1030   73.1200 H   0  0  0  0  0  0  0  0  0  0  0  0
   16.4830   32.0280   74.3650 H   0  0  0  0  0  0  0  0  0  0  0  0
   13.7600   32.9650   70.8690 H   0  0  0  0  0  0  0  0  0  0  0  0
   12.9600   36.8370   69.1840 H   0  0  0  0  0  0  0  0  0  0  0  0
   15.3520   37.4620   69.5480 H   0  0  0  0  0  0  0  0  0  0  0  0
   16.8690   35.8350   70.5540 H   0  0  0  0  0  0  0  0  0  0  0  0
   11.2230   35.2460   69.6110 H   0  0  0  0  0  0  0  0  0  0  0  0
  1  2  1  0  0  0  0
  2  7  1  0  0  0  0
  3  4  1  0  0  0  0
  3  2  2  0  0  0  0
  4  5  2  0  0  0  0
  5  8  1  0  0  0  0
  5  6  1  0  0  0  0
  6 31  1  0  0  0  0
  7  6  2  0  0  0  0
  7 32  1  0  0  0  0
  8  9  1  0  0  0  0
  9 11  1  0  0  0  0
  9 10  2  0  0  0  0
 11 33  1  0  0  0  0
 12 11  1  0  0  0  0
 12 13  2  0  0  0  0
 14 34  1  6  0  0  0
 14 15  1  0  0  0  0
 14 12  1  0  0  0  0
 15 16  2  0  0  0  0
 15  8  1  0  0  0  0
 17 14  1  0  0  0  0
 17 21  1  0  0  0  0
 18 19  1  0  0  0  0
 18 17  2  0  0  0  0
 19 36  1  6  0  0  0
 19 20  1  0  0  0  0
 20 37  1  0  0  0  0
 20 21  1  0  0  0  0
 21 38  1  0  0  0  0
 22 19  1  0  0  0  0
 23 22  1  0  0  0  0
 23 39  1  0  0  0  0
 24 23  2  0  0  0  0
 25 26  2  0  0  0  0
 25 24  1  0  0  0  0
 26 27  1  0  0  0  0
 27 42  1  0  0  0  0
 27 22  2  0  0  0  0
 28 24  1  0  0  0  0
 29  3  1  0  0  0  0
 30  4  1  0  0  0  0
 35 18  1  0  0  0  0
 40 25  1  0  0  0  0
 41 26  1  0  0  0  0
 43 28  1  0  0  0  0
M  END
>  <Pose>
1

>  <Score>
-6.99

$$$$
