
 OpenBabel03212208413D

 58 62  0  0  1  0  0  0  0  0999 V2000
   17.1690   37.7280   69.1510 Cl  0  0  0  0  0  0  0  0  0  0  0  0
   15.5640   37.0830   69.4200 C   0  0  0  0  0  0  0  0  0  0  0  0
   15.2960   36.2920   70.5190 C   0  0  0  0  0  0  0  0  0  0  0  0
   14.0440   35.7710   70.7550 C   0  0  0  0  0  0  0  0  0  0  0  0
   13.0420   36.0620   69.8560 C   0  0  0  0  0  0  0  0  0  0  0  0
   13.3200   36.8430   68.7780 C   0  0  0  0  0  0  0  0  0  0  0  0
   14.5640   37.3730   68.5230 C   0  0  0  0  0  0  0  0  0  0  0  0
   13.7800   34.9130   71.9620 C   0  0  0  0  0  0  0  0  0  0  0  0
   14.5030   33.6590   71.8430 N   0  0  0  0  0  0  0  0  0  0  0  0
   13.8880   32.4730   71.3550 C   0  0  0  0  0  0  0  0  0  0  0  0
   12.6440   32.4790   71.0880 O   0  0  0  0  0  0  0  0  0  0  0  0
   14.6160   31.2190   71.1370 C   0  0  1  0  0  0  0  0  0  0  0  0
   15.9390   31.1910   71.6650 N   0  0  1  0  0  0  0  0  0  0  0  0
   16.6500   32.4280   71.6690 C   0  0  0  0  0  0  0  0  0  0  0  0
   17.4240   32.7490   70.4130 C   0  0  0  0  0  0  0  0  0  0  0  0
   18.6470   32.5770   71.1280 N   0  0  0  0  0  0  0  0  0  0  0  0
   18.0020   32.2350   72.3340 C   0  0  0  0  0  0  0  0  0  0  0  0
   19.6620   31.7530   70.5820 C   0  0  0  0  0  0  0  0  0  0  0  0
   20.9660   32.3900   70.3660 C   0  0  0  0  0  0  0  0  0  0  0  0
   21.0630   33.5070   69.5740 C   0  0  0  0  0  0  0  0  0  0  0  0
   22.2930   34.1340   69.3520 C   0  0  0  0  0  0  0  0  0  0  0  0
   23.4230   33.6160   69.9420 C   0  0  0  0  0  0  0  0  0  0  0  0
   23.3540   32.5000   70.7410 C   0  0  0  0  0  0  0  0  0  0  0  0
   22.1130   31.9000   70.9410 C   0  0  0  0  0  0  0  0  0  0  0  0
   22.3940   35.2570   68.5550 O   0  0  0  0  0  0  0  0  0  0  0  0
   21.4620   35.4270   67.5040 C   0  0  0  0  0  0  0  0  0  0  0  0
   15.8720   33.5690   72.2180 C   0  0  0  0  0  0  0  0  0  0  0  0
   16.3660   34.4360   72.9820 O   0  0  0  0  0  0  0  0  0  0  0  0
   15.8790   30.6690   73.0000 C   0  0  0  0  0  0  0  0  0  0  0  0
   14.4530   30.2930   73.2890 C   0  0  1  0  0  0  0  0  0  0  0  0
   13.8640   30.1320   71.9170 C   0  0  0  0  0  0  0  0  0  0  0  0
   14.3420   29.1410   74.0560 O   0  0  0  0  0  0  0  0  0  0  0  0
   16.1050   36.0670   71.2310 H   0  0  0  0  0  0  0  0  0  0  0  0
   12.0690   35.6630   70.0340 H   0  0  0  0  0  0  0  0  0  0  0  0
   12.5190   37.0650   68.0750 H   0  0  0  0  0  0  0  0  0  0  0  0
   14.7590   38.0000   67.6440 H   0  0  0  0  0  0  0  0  0  0  0  0
   12.6870   34.7130   71.9740 H   0  0  0  0  0  0  0  0  0  0  0  0
   14.1170   35.4850   72.8470 H   0  0  0  0  0  0  0  0  0  0  0  0
   14.6070   30.9130   70.0640 H   0  0  0  0  0  0  0  0  0  0  0  0
   17.2210   32.1210   69.5480 H   0  0  0  0  0  0  0  0  0  0  0  0
   17.3160   33.8400   70.1420 H   0  0  0  0  0  0  0  0  0  0  0  0
   18.1640   31.2490   72.7800 H   0  0  0  0  0  0  0  0  0  0  0  0
   18.1380   33.0210   73.1330 H   0  0  0  0  0  0  0  0  0  0  0  0
   19.7450   30.8530   71.2650 H   0  0  0  0  0  0  0  0  0  0  0  0
   19.2570   31.2960   69.6290 H   0  0  0  0  0  0  0  0  0  0  0  0
   20.2170   33.9650   69.0790 H   0  0  0  0  0  0  0  0  0  0  0  0
   24.3690   34.1300   69.7490 H   0  0  0  0  0  0  0  0  0  0  0  0
   24.2730   32.1400   71.1780 H   0  0  0  0  0  0  0  0  0  0  0  0
   22.1190   31.0260   71.5770 H   0  0  0  0  0  0  0  0  0  0  0  0
   21.7640   36.3500   66.9630 H   0  0  0  0  0  0  0  0  0  0  0  0
   21.4660   34.5510   66.8120 H   0  0  0  0  0  0  0  0  0  0  0  0
   20.4270   35.5510   67.8830 H   0  0  0  0  0  0  0  0  0  0  0  0
   16.1950   31.4080   73.7790 H   0  0  0  0  0  0  0  0  0  0  0  0
   16.5400   29.7550   73.0700 H   0  0  0  0  0  0  0  0  0  0  0  0
   13.9390   31.1680   73.7740 H   0  0  0  0  0  0  0  0  0  0  0  0
   12.7760   30.2990   71.8890 H   0  0  0  0  0  0  0  0  0  0  0  0
   14.1690   29.1640   71.5060 H   0  0  0  0  0  0  0  0  0  0  0  0
   13.5290   28.6670   73.7570 H   0  0  0  0  0  0  0  0  0  0  0  0
  1  2  1  0  0  0  0
  2  3  1  0  0  0  0
  3  4  2  0  0  0  0
  3 33  1  0  0  0  0
  4  8  1  0  0  0  0
  5 34  1  0  0  0  0
  5  4  1  0  0  0  0
  6  5  2  0  0  0  0
  7  6  1  0  0  0  0
  7  2  2  0  0  0  0
  8 37  1  0  0  0  0
  8 38  1  0  0  0  0
  9  8  1  0  0  0  0
  9 27  1  0  0  0  0
 10  9  1  0  0  0  0
 11 10  2  0  0  0  0
 12 39  1  6  0  0  0
 12 10  1  0  0  0  0
 12 13  1  0  0  0  0
 12 31  1  0  0  0  0
 13 14  1  1  0  0  0
 13 29  1  0  0  0  0
 14 27  1  0  0  0  0
 14 17  1  0  0  0  0
 15 16  1  0  0  0  0
 15 14  1  0  0  0  0
 16 17  1  0  0  0  0
 17 42  1  0  0  0  0
 17 43  1  0  0  0  0
 18 16  1  0  0  0  0
 18 44  1  0  0  0  0
 19 18  1  0  0  0  0
 19 24  1  0  0  0  0
 20 19  2  0  0  0  0
 21 20  1  0  0  0  0
 21 22  2  0  0  0  0
 22 23  1  0  0  0  0
 23 24  2  0  0  0  0
 23 48  1  0  0  0  0
 24 49  1  0  0  0  0
 25 21  1  0  0  0  0
 26 52  1  0  0  0  0
 26 25  1  0  0  0  0
 27 28  2  0  0  0  0
 29 54  1  0  0  0  0
 29 30  1  0  0  0  0
 29 53  1  0  0  0  0
 30 55  1  1  0  0  0
 30 32  1  0  0  0  0
 31 30  1  0  0  0  0
 35  6  1  0  0  0  0
 36  7  1  0  0  0  0
 40 15  1  0  0  0  0
 41 15  1  0  0  0  0
 45 18  1  0  0  0  0
 46 20  1  0  0  0  0
 47 22  1  0  0  0  0
 50 26  1  0  0  0  0
 51 26  1  0  0  0  0
 56 31  1  0  0  0  0
 57 31  1  0  0  0  0
 58 32  1  0  0  0  0
M  END
>  <Pose>
1

>  <Score>
-6.33

$$$$
