
 OpenBabel03212208413D

 52 55  0  0  1  0  0  0  0  0999 V2000
   11.4450   30.1300   75.4740 Cl  0  0  0  0  0  0  0  0  0  0  0  0
   12.9750   29.7540   74.7240 C   0  0  0  0  0  0  0  0  0  0  0  0
   13.3250   30.1480   73.4570 C   0  0  0  0  0  0  0  0  0  0  0  0
   14.5440   29.8250   72.9140 C   0  0  0  0  0  0  0  0  0  0  0  0
   15.4860   29.0770   73.6290 C   0  0  0  0  0  0  0  0  0  0  0  0
   15.1400   28.6860   74.8890 C   0  0  0  0  0  0  0  0  0  0  0  0
   13.9150   29.0150   75.4250 C   0  0  0  0  0  0  0  0  0  0  0  0
   16.7540   28.7750   73.0020 C   0  0  0  0  0  0  0  0  0  0  0  0
   16.7710   28.0090   71.9820 O   0  0  0  0  0  0  0  0  0  0  0  0
   18.0540   29.3020   73.4700 C   0  0  0  0  0  0  0  0  0  0  0  0
   18.1490   30.7080   73.0650 N   0  0  0  0  0  0  0  0  0  0  0  0
   19.1650   31.5540   73.0810 C   0  0  2  0  0  0  0  0  0  0  0  0
   18.7910   32.7710   72.6020 N   0  0  0  0  0  0  0  0  0  0  0  0
   17.5210   32.6990   72.2730 C   0  0  0  0  0  0  0  0  0  0  0  0
   17.1120   31.3820   72.5710 C   0  0  0  0  0  0  0  0  0  0  0  0
   16.6140   33.7160   71.7310 C   0  0  0  0  0  0  0  0  0  0  0  0
   15.2590   33.6450   71.6980 C   0  0  0  0  0  0  0  0  0  0  0  0
   14.4560   34.6180   71.1040 C   0  0  0  0  0  0  0  0  0  0  0  0
   15.0190   35.7170   70.5160 C   0  0  0  0  0  0  0  0  0  0  0  0
   16.3890   35.8200   70.5350 C   0  0  0  0  0  0  0  0  0  0  0  0
   17.1690   34.8490   71.1250 C   0  0  0  0  0  0  0  0  0  0  0  0
   14.2330   36.7130   69.9110 O   0  0  0  0  0  0  0  0  0  0  0  0
   12.9590   36.4570   69.3850 C   0  0  0  0  0  0  0  0  0  0  0  0
   19.6670   33.9070   72.5430 C   0  0  0  0  0  0  0  0  0  0  0  0
   20.6650   33.7510   71.3980 C   0  0  0  0  0  0  0  0  0  0  0  0
   20.9840   32.2530   71.3610 C   0  0  0  0  0  0  0  0  0  0  0  0
   21.5870   31.8750   72.6860 C   0  0  0  0  0  0  0  0  0  0  0  0
   20.5310   31.1650   73.5490 C   0  0  0  0  0  0  0  0  0  0  0  0
   12.6200   30.7280   72.8730 H   0  0  0  0  0  0  0  0  0  0  0  0
   14.7850   30.1590   71.8960 H   0  0  0  0  0  0  0  0  0  0  0  0
   15.8140   28.1120   75.4930 H   0  0  0  0  0  0  0  0  0  0  0  0
   13.6790   28.6820   76.4370 H   0  0  0  0  0  0  0  0  0  0  0  0
   18.0070   29.2590   74.5960 H   0  0  0  0  0  0  0  0  0  0  0  0
   18.9090   28.7210   73.1230 H   0  0  0  0  0  0  0  0  0  0  0  0
   16.1000   31.0070   72.4070 H   0  0  0  0  0  0  0  0  0  0  0  0
   14.7540   32.8450   72.1680 H   0  0  0  0  0  0  0  0  0  0  0  0
   13.3720   34.5200   71.0980 H   0  0  0  0  0  0  0  0  0  0  0  0
   16.8280   36.6890   70.0710 H   0  0  0  0  0  0  0  0  0  0  0  0
   18.2450   34.9380   71.1310 H   0  0  0  0  0  0  0  0  0  0  0  0
   12.2270   36.3940   70.2200 H   0  0  0  0  0  0  0  0  0  0  0  0
   12.6640   37.2220   68.6250 H   0  0  0  0  0  0  0  0  0  0  0  0
   12.9020   35.4700   68.8380 H   0  0  0  0  0  0  0  0  0  0  0  0
   19.2490   34.8790   72.6890 H   0  0  0  0  0  0  0  0  0  0  0  0
   20.3650   33.7980   73.4670 H   0  0  0  0  0  0  0  0  0  0  0  0
   20.2130   34.0970   70.4640 H   0  0  0  0  0  0  0  0  0  0  0  0
   21.6090   34.2640   71.5810 H   0  0  0  0  0  0  0  0  0  0  0  0
   20.0160   31.6960   71.2310 H   0  0  0  0  0  0  0  0  0  0  0  0
   21.6000   31.9830   70.4930 H   0  0  0  0  0  0  0  0  0  0  0  0
   22.4230   31.1730   72.4670 H   0  0  0  0  0  0  0  0  0  0  0  0
   22.0570   32.7220   73.2210 H   0  0  0  0  0  0  0  0  0  0  0  0
   20.5990   31.5370   74.6040 H   0  0  0  0  0  0  0  0  0  0  0  0
   20.6840   30.0750   73.5740 H   0  0  0  0  0  0  0  0  0  0  0  0
  2  7  1  0  0  0  0
  2  1  1  0  0  0  0
  3  2  2  0  0  0  0
  4  3  1  0  0  0  0
  4  5  2  0  0  0  0
  5  6  1  0  0  0  0
  6  7  2  0  0  0  0
  6 31  1  0  0  0  0
  7 32  1  0  0  0  0
  8 10  1  0  0  0  0
  8  5  1  0  0  0  0
  9  8  2  0  0  0  0
 10 33  1  0  0  0  0
 11 12  1  0  0  0  0
 11 10  1  0  0  0  0
 12 13  1  6  0  0  0
 12 28  1  0  0  0  0
 14 15  2  0  0  0  0
 14 13  1  0  0  0  0
 15 11  1  0  0  0  0
 16 14  1  0  0  0  0
 17 16  1  0  0  0  0
 17 36  1  0  0  0  0
 18 17  2  0  0  0  0
 19 20  2  0  0  0  0
 19 18  1  0  0  0  0
 20 21  1  0  0  0  0
 21 39  1  0  0  0  0
 21 16  2  0  0  0  0
 22 19  1  0  0  0  0
 23 22  1  0  0  0  0
 23 40  1  0  0  0  0
 24 13  1  0  0  0  0
 24 43  1  0  0  0  0
 24 44  1  0  0  0  0
 25 46  1  0  0  0  0
 25 24  1  0  0  0  0
 26 25  1  0  0  0  0
 26 27  1  0  0  0  0
 27 50  1  0  0  0  0
 27 28  1  0  0  0  0
 28 52  1  0  0  0  0
 28 51  1  0  0  0  0
 29  3  1  0  0  0  0
 30  4  1  0  0  0  0
 34 10  1  0  0  0  0
 35 15  1  0  0  0  0
 37 18  1  0  0  0  0
 38 20  1  0  0  0  0
 41 23  1  0  0  0  0
 42 23  1  0  0  0  0
 45 25  1  0  0  0  0
 47 26  1  0  0  0  0
 48 26  1  0  0  0  0
 49 27  1  0  0  0  0
M  END
>  <Pose>
1

>  <Score>
-6.08

$$$$
