
 OpenBabel03212208413D

 58 61  0  0  0  0  0  0  0  0999 V2000
   12.2910   34.9160   69.7860 Cl  0  0  0  0  0  0  0  0  0  0  0  0
   13.6590   34.1650   70.5680 C   0  0  0  0  0  0  0  0  0  0  0  0
   14.8940   34.7600   70.4260 C   0  0  0  0  0  0  0  0  0  0  0  0
   15.9310   34.1010   71.1000 C   0  0  0  0  0  0  0  0  0  0  0  0
   15.7060   32.9840   71.8160 N   0  0  0  0  0  0  0  0  0  0  0  0
   14.5300   32.4090   71.9560 N   0  0  0  0  0  0  0  0  0  0  0  0
   13.5070   33.0030   71.3290 C   0  0  0  0  0  0  0  0  0  0  0  0
   12.3510   32.5180   71.4120 O   0  0  0  0  0  0  0  0  0  0  0  0
   14.3820   31.2260   72.7350 C   0  0  0  0  0  0  0  0  0  0  0  0
   13.3380   31.0600   73.6320 C   0  0  0  0  0  0  0  0  0  0  0  0
   13.1800   29.9200   74.3930 C   0  0  0  0  0  0  0  0  0  0  0  0
   14.1040   28.9070   74.2490 C   0  0  0  0  0  0  0  0  0  0  0  0
   15.1580   29.0390   73.3640 C   0  0  0  0  0  0  0  0  0  0  0  0
   15.2920   30.2080   72.6050 C   0  0  0  0  0  0  0  0  0  0  0  0
   15.1230   35.9100   69.6460 N   0  0  0  0  0  0  0  0  0  0  0  0
   14.9330   37.2370   70.2240 C   0  0  0  0  0  0  0  0  0  0  0  0
   16.1900   38.0730   70.1520 C   0  0  0  0  0  0  0  0  0  0  0  0
   17.0610   37.4800   69.1660 N   0  0  0  0  0  0  0  0  0  0  0  0
   16.4250   37.0640   67.9300 C   0  0  0  0  0  0  0  0  0  0  0  0
   15.5950   35.8230   68.2570 C   0  0  0  0  0  0  0  0  0  0  0  0
   18.4480   37.2950   69.3420 C   0  0  0  0  0  0  0  0  0  0  0  0
   19.2420   38.0670   68.7610 O   0  0  0  0  0  0  0  0  0  0  0  0
   19.0270   36.2230   70.1870 C   0  0  0  0  0  0  0  0  0  0  0  0
   20.4610   35.9480   69.7980 C   0  0  0  0  0  0  0  0  0  0  0  0
   20.9060   34.5690   70.1830 C   0  0  0  0  0  0  0  0  0  0  0  0
   22.0230   34.0750   69.4080 N   0  0  0  0  0  0  0  0  0  0  0  0
   23.1510   33.3840   69.9140 C   0  0  0  0  0  0  0  0  0  0  0  0
   23.3720   33.0830   71.1350 O   0  0  0  0  0  0  0  0  0  0  0  0
   24.0500   33.0430   68.8820 N   0  0  0  0  0  0  0  0  0  0  0  0
   23.5130   33.5350   67.6330 C   0  0  0  0  0  0  0  0  0  0  0  0
   22.2270   34.1710   67.9940 C   0  0  0  0  0  0  0  0  0  0  0  0
   21.4330   34.7130   67.1970 O   0  0  0  0  0  0  0  0  0  0  0  0
   25.2990   32.3240   69.0310 C   0  0  0  0  0  0  0  0  0  0  0  0
   16.9090   34.5340   71.0000 H   0  0  0  0  0  0  0  0  0  0  0  0
   12.6210   31.8640   73.7330 H   0  0  0  0  0  0  0  0  0  0  0  0
   12.3440   29.8080   75.0990 H   0  0  0  0  0  0  0  0  0  0  0  0
   13.9730   28.0170   74.8490 H   0  0  0  0  0  0  0  0  0  0  0  0
   15.8590   28.2260   73.2790 H   0  0  0  0  0  0  0  0  0  0  0  0
   16.1110   30.3250   71.9090 H   0  0  0  0  0  0  0  0  0  0  0  0
   14.1380   37.7070   69.5550 H   0  0  0  0  0  0  0  0  0  0  0  0
   14.6100   37.2470   71.2680 H   0  0  0  0  0  0  0  0  0  0  0  0
   16.7010   38.1270   71.1340 H   0  0  0  0  0  0  0  0  0  0  0  0
   15.8950   39.1210   69.8590 H   0  0  0  0  0  0  0  0  0  0  0  0
   15.7290   37.8640   67.6080 H   0  0  0  0  0  0  0  0  0  0  0  0
   17.1480   36.8730   67.1160 H   0  0  0  0  0  0  0  0  0  0  0  0
   16.3260   35.0040   68.2200 H   0  0  0  0  0  0  0  0  0  0  0  0
   14.7400   35.7930   67.6080 H   0  0  0  0  0  0  0  0  0  0  0  0
   19.0010   36.4970   71.2610 H   0  0  0  0  0  0  0  0  0  0  0  0
   18.4270   35.2830   70.1060 H   0  0  0  0  0  0  0  0  0  0  0  0
   21.1400   36.6660   70.2950 H   0  0  0  0  0  0  0  0  0  0  0  0
   20.5970   36.0900   68.6980 H   0  0  0  0  0  0  0  0  0  0  0  0
   20.0610   33.8400   70.0720 H   0  0  0  0  0  0  0  0  0  0  0  0
   21.2120   34.4990   71.2470 H   0  0  0  0  0  0  0  0  0  0  0  0
   23.3450   32.6980   66.9030 H   0  0  0  0  0  0  0  0  0  0  0  0
   24.1920   34.2450   67.1220 H   0  0  0  0  0  0  0  0  0  0  0  0
   25.0660   31.2360   69.1090 H   0  0  0  0  0  0  0  0  0  0  0  0
   25.7470   32.5900   70.0300 H   0  0  0  0  0  0  0  0  0  0  0  0
   25.9810   32.5440   68.1980 H   0  0  0  0  0  0  0  0  0  0  0  0
  1  2  1  0  0  0  0
  2  7  1  0  0  0  0
  3  2  2  0  0  0  0
  3  4  1  0  0  0  0
  4  5  2  0  0  0  0
  5  6  1  0  0  0  0
  6  9  1  0  0  0  0
  7  8  2  0  0  0  0
  7  6  1  0  0  0  0
  9 10  1  0  0  0  0
 10 35  1  0  0  0  0
 10 11  2  0  0  0  0
 11 36  1  0  0  0  0
 12 11  1  0  0  0  0
 12 37  1  0  0  0  0
 13 12  2  0  0  0  0
 14  9  2  0  0  0  0
 14 13  1  0  0  0  0
 15 16  1  0  0  0  0
 15  3  1  0  0  0  0
 16 41  1  0  0  0  0
 17 16  1  0  0  0  0
 17 42  1  0  0  0  0
 18 21  1  0  0  0  0
 18 17  1  0  0  0  0
 19 20  1  0  0  0  0
 19 18  1  0  0  0  0
 20 15  1  0  0  0  0
 21 23  1  0  0  0  0
 22 21  2  0  0  0  0
 23 48  1  0  0  0  0
 24 25  1  0  0  0  0
 24 23  1  0  0  0  0
 24 50  1  0  0  0  0
 25 53  1  0  0  0  0
 26 27  1  0  0  0  0
 26 25  1  0  0  0  0
 27 28  2  0  0  0  0
 29 33  1  0  0  0  0
 29 27  1  0  0  0  0
 30 31  1  0  0  0  0
 30 29  1  0  0  0  0
 31 26  1  0  0  0  0
 32 31  2  0  0  0  0
 33 56  1  0  0  0  0
 33 57  1  0  0  0  0
 34  4  1  0  0  0  0
 38 13  1  0  0  0  0
 39 14  1  0  0  0  0
 40 16  1  0  0  0  0
 43 17  1  0  0  0  0
 44 19  1  0  0  0  0
 45 19  1  0  0  0  0
 46 20  1  0  0  0  0
 47 20  1  0  0  0  0
 49 23  1  0  0  0  0
 51 24  1  0  0  0  0
 52 25  1  0  0  0  0
 54 30  1  0  0  0  0
 55 30  1  0  0  0  0
 58 33  1  0  0  0  0
M  END
>  <Pose>
1

>  <Score>
-6.43

$$$$
