
 OpenBabel03212208413D

 53 56  0  0  0  0  0  0  0  0999 V2000
   17.5110   29.1090   73.7830 Cl  0  0  0  0  0  0  0  0  0  0  0  0
   16.8130   30.3980   72.8080 C   0  0  0  0  0  0  0  0  0  0  0  0
   17.3410   31.6760   72.9720 C   0  0  0  0  0  0  0  0  0  0  0  0
   16.8050   32.6950   72.2170 C   0  0  0  0  0  0  0  0  0  0  0  0
   15.7720   32.4390   71.3250 C   0  0  0  0  0  0  0  0  0  0  0  0
   15.2510   31.1600   71.1670 C   0  0  0  0  0  0  0  0  0  0  0  0
   15.7890   30.1370   71.9270 C   0  0  0  0  0  0  0  0  0  0  0  0
   15.1820   33.4080   70.5320 O   0  0  0  0  0  0  0  0  0  0  0  0
   15.0350   34.7830   70.7540 C   0  0  0  0  0  0  0  0  0  0  0  0
   16.2920   35.5590   70.9120 C   0  0  0  0  0  0  0  0  0  0  0  0
   17.4450   34.8340   71.3370 N   0  0  0  0  0  0  0  0  0  0  0  0
   17.4950   33.9750   72.5280 C   0  0  0  0  0  0  0  0  0  0  0  0
   18.6420   34.9400   70.5770 C   0  0  0  0  0  0  0  0  0  0  0  0
   19.3090   33.8920   70.4220 O   0  0  0  0  0  0  0  0  0  0  0  0
   19.0880   36.1950   69.9920 C   0  0  0  0  0  0  0  0  0  0  0  0
   20.5300   36.4990   70.0030 C   0  0  0  0  0  0  0  0  0  0  0  0
   21.2920   36.4900   68.7440 C   0  0  0  0  0  0  0  0  0  0  0  0
   22.5080   35.7730   68.6460 N   0  0  0  0  0  0  0  0  0  0  0  0
   23.7930   36.2840   68.9500 C   0  0  0  0  0  0  0  0  0  0  0  0
   24.1060   37.4400   69.3640 O   0  0  0  0  0  0  0  0  0  0  0  0
   24.7240   35.2430   68.7080 N   0  0  0  0  0  0  0  0  0  0  0  0
   23.9980   33.9780   68.6140 C   0  0  0  0  0  0  0  0  0  0  0  0
   22.6470   34.4320   68.2200 C   0  0  0  0  0  0  0  0  0  0  0  0
   21.7790   33.7150   67.6030 O   0  0  0  0  0  0  0  0  0  0  0  0
   14.2380   35.3710   69.5740 C   0  0  0  0  0  0  0  0  0  0  0  0
   13.0180   34.5050   69.4120 C   0  0  0  0  0  0  0  0  0  0  0  0
   12.8960   33.5620   70.4170 O   0  0  0  0  0  0  0  0  0  0  0  0
   12.8730   34.1270   71.6800 C   0  0  0  0  0  0  0  0  0  0  0  0
   14.0900   34.9850   71.9490 C   0  0  0  0  0  0  0  0  0  0  0  0
   18.1410   31.8280   73.6740 H   0  0  0  0  0  0  0  0  0  0  0  0
   14.4590   31.0010   70.4760 H   0  0  0  0  0  0  0  0  0  0  0  0
   15.4000   29.1220   71.8230 H   0  0  0  0  0  0  0  0  0  0  0  0
   16.1010   36.3410   71.7060 H   0  0  0  0  0  0  0  0  0  0  0  0
   16.4960   36.1710   69.9880 H   0  0  0  0  0  0  0  0  0  0  0  0
   18.5000   33.8440   72.9220 H   0  0  0  0  0  0  0  0  0  0  0  0
   16.9000   34.4450   73.3570 H   0  0  0  0  0  0  0  0  0  0  0  0
   18.5540   37.0880   70.4040 H   0  0  0  0  0  0  0  0  0  0  0  0
   18.7620   36.1890   68.9070 H   0  0  0  0  0  0  0  0  0  0  0  0
   21.0170   35.7140   70.6740 H   0  0  0  0  0  0  0  0  0  0  0  0
   20.7290   37.4460   70.6080 H   0  0  0  0  0  0  0  0  0  0  0  0
   20.5510   36.1580   67.9350 H   0  0  0  0  0  0  0  0  0  0  0  0
   21.5250   37.5490   68.3830 H   0  0  0  0  0  0  0  0  0  0  0  0
   25.7550   35.3220   68.6070 H   0  0  0  0  0  0  0  0  0  0  0  0
   23.9180   33.4970   69.6050 H   0  0  0  0  0  0  0  0  0  0  0  0
   24.4450   33.3150   67.8460 H   0  0  0  0  0  0  0  0  0  0  0  0
   14.8550   35.4380   68.6740 H   0  0  0  0  0  0  0  0  0  0  0  0
   13.9320   36.3860   69.9080 H   0  0  0  0  0  0  0  0  0  0  0  0
   12.0770   35.1030   69.3450 H   0  0  0  0  0  0  0  0  0  0  0  0
   13.1160   33.9660   68.4480 H   0  0  0  0  0  0  0  0  0  0  0  0
   11.9280   34.6710   71.9020 H   0  0  0  0  0  0  0  0  0  0  0  0
   12.9000   33.2700   72.4130 H   0  0  0  0  0  0  0  0  0  0  0  0
   13.7440   36.0500   71.9170 H   0  0  0  0  0  0  0  0  0  0  0  0
   14.5690   34.7610   72.9020 H   0  0  0  0  0  0  0  0  0  0  0  0
  2  3  1  0  0  0  0
  2  1  1  0  0  0  0
  3 30  1  0  0  0  0
  4 12  1  0  0  0  0
  4  3  2  0  0  0  0
  5  4  1  0  0  0  0
  6  5  2  0  0  0  0
  6  7  1  0  0  0  0
  7  2  2  0  0  0  0
  8  9  1  0  0  0  0
  8  5  1  0  0  0  0
  9 10  1  0  0  0  0
  9 29  1  0  0  0  0
 10 11  1  0  0  0  0
 10 33  1  0  0  0  0
 11 12  1  0  0  0  0
 12 35  1  0  0  0  0
 12 36  1  0  0  0  0
 13 11  1  0  0  0  0
 14 13  2  0  0  0  0
 15 16  1  0  0  0  0
 15 37  1  0  0  0  0
 15 13  1  0  0  0  0
 16 40  1  0  0  0  0
 16 39  1  0  0  0  0
 17 16  1  0  0  0  0
 18 17  1  0  0  0  0
 18 19  1  0  0  0  0
 19 20  2  0  0  0  0
 21 19  1  0  0  0  0
 22 21  1  0  0  0  0
 22 44  1  0  0  0  0
 23 22  1  0  0  0  0
 23 18  1  0  0  0  0
 24 23  2  0  0  0  0
 25 47  1  0  0  0  0
 25  9  1  0  0  0  0
 26 25  1  0  0  0  0
 26 27  1  0  0  0  0
 27 28  1  0  0  0  0
 28 50  1  0  0  0  0
 28 29  1  0  0  0  0
 28 51  1  0  0  0  0
 29 53  1  0  0  0  0
 31  6  1  0  0  0  0
 32  7  1  0  0  0  0
 34 10  1  0  0  0  0
 38 15  1  0  0  0  0
 41 17  1  0  0  0  0
 42 17  1  0  0  0  0
 43 21  1  0  0  0  0
 45 22  1  0  0  0  0
 46 25  1  0  0  0  0
 48 26  1  0  0  0  0
 49 26  1  0  0  0  0
 52 29  1  0  0  0  0
M  END
>  <Pose>
1

>  <Score>
-6.01

$$$$
