
 OpenBabel03212208413D

 53 56  0  0  1  0  0  0  0  0999 V2000
   16.9840   33.7570   70.7870 Cl  0  0  0  0  0  0  0  0  0  0  0  0
   15.7840   34.9980   70.4400 C   0  0  0  0  0  0  0  0  0  0  0  0
   14.4590   34.6420   70.5190 C   0  0  0  0  0  0  0  0  0  0  0  0
   13.5240   35.6360   70.3460 C   0  0  0  0  0  0  0  0  0  0  0  0
   12.3310   35.0050   70.3960 N   0  0  0  0  0  0  0  0  0  0  0  0
   12.5190   33.7240   70.5680 N   0  0  0  0  0  0  0  0  0  0  0  0
   13.8620   33.4090   70.6580 C   0  0  0  0  0  0  0  0  0  0  0  0
   14.4190   32.1200   70.9830 C   0  0  0  0  0  0  0  0  0  0  0  0
   14.1390   31.5920   72.3270 N   0  0  0  0  0  0  0  0  0  0  0  0
   15.4450   31.1560   72.8740 C   0  0  0  0  0  0  0  0  0  0  0  0
   15.4800   29.7380   72.5280 C   0  0  2  0  0  0  0  0  0  0  0  0
   14.1350   29.2810   73.0710 C   0  0  2  0  0  0  0  0  0  0  0  0
   13.2980   30.4790   72.4510 C   0  0  0  0  0  0  0  0  0  0  0  0
   14.0330   29.5100   74.5520 C   0  0  0  0  0  0  0  0  0  0  0  0
   13.2480   28.4780   75.1300 O   0  0  0  0  0  0  0  0  0  0  0  0
   16.5950   28.9350   73.1510 C   0  0  0  0  0  0  0  0  0  0  0  0
   16.3600   27.5510   72.8830 N   0  0  0  0  0  0  0  0  0  0  0  0
   17.5740   26.8180   72.5890 C   0  0  0  0  0  0  0  0  0  0  0  0
   17.8230   25.6600   73.5280 C   0  0  0  0  0  0  0  0  0  0  0  0
   16.7670   24.7830   73.6290 O   0  0  0  0  0  0  0  0  0  0  0  0
   15.5300   25.4180   73.5630 C   0  0  0  0  0  0  0  0  0  0  0  0
   15.6880   26.8550   73.9550 C   0  0  0  0  0  0  0  0  0  0  0  0
   11.0300   35.6970   70.3830 C   0  0  0  0  0  0  0  0  0  0  0  0
   13.8630   36.9310   70.0920 C   0  0  0  0  0  0  0  0  0  0  0  0
   15.2160   37.2730   70.0100 C   0  0  0  0  0  0  0  0  0  0  0  0
   16.1780   36.2840   70.1850 C   0  0  0  0  0  0  0  0  0  0  0  0
   14.4540   31.3140   70.2960 H   0  0  0  0  0  0  0  0  0  0  0  0
   15.5670   32.3500   71.1350 H   0  0  0  0  0  0  0  0  0  0  0  0
   16.2770   31.7990   72.6040 H   0  0  0  0  0  0  0  0  0  0  0  0
   15.3550   31.2920   73.9910 H   0  0  0  0  0  0  0  0  0  0  0  0
   15.4650   29.4970   71.4750 H   0  0  0  0  0  0  0  0  0  0  0  0
   13.8040   28.3480   72.6690 H   0  0  0  0  0  0  0  0  0  0  0  0
   12.8270   30.0400   71.6090 H   0  0  0  0  0  0  0  0  0  0  0  0
   12.4850   30.6600   73.2370 H   0  0  0  0  0  0  0  0  0  0  0  0
   13.3510   30.4320   74.7260 H   0  0  0  0  0  0  0  0  0  0  0  0
   14.9010   29.6920   75.1270 H   0  0  0  0  0  0  0  0  0  0  0  0
   12.8460   27.9640   74.3290 H   0  0  0  0  0  0  0  0  0  0  0  0
   17.5140   29.2360   72.6310 H   0  0  0  0  0  0  0  0  0  0  0  0
   16.7100   29.1470   74.2210 H   0  0  0  0  0  0  0  0  0  0  0  0
   17.5250   26.4680   71.5500 H   0  0  0  0  0  0  0  0  0  0  0  0
   18.4790   27.4860   72.6790 H   0  0  0  0  0  0  0  0  0  0  0  0
   18.1760   26.0610   74.4800 H   0  0  0  0  0  0  0  0  0  0  0  0
   18.6680   25.0880   73.0640 H   0  0  0  0  0  0  0  0  0  0  0  0
   15.1750   25.3270   72.5230 H   0  0  0  0  0  0  0  0  0  0  0  0
   14.8340   24.8890   74.2660 H   0  0  0  0  0  0  0  0  0  0  0  0
   14.7040   27.3240   74.1700 H   0  0  0  0  0  0  0  0  0  0  0  0
   16.3610   26.9100   74.8320 H   0  0  0  0  0  0  0  0  0  0  0  0
   11.0870   36.5330   71.1660 H   0  0  0  0  0  0  0  0  0  0  0  0
   10.2360   35.0500   70.7900 H   0  0  0  0  0  0  0  0  0  0  0  0
   10.8880   36.1830   69.4470 H   0  0  0  0  0  0  0  0  0  0  0  0
   13.1230   37.7230   69.8360 H   0  0  0  0  0  0  0  0  0  0  0  0
   15.5340   38.2500   69.7680 H   0  0  0  0  0  0  0  0  0  0  0  0
   17.2230   36.4810   70.1440 H   0  0  0  0  0  0  0  0  0  0  0  0
  2  3  1  0  0  0  0
  2  1  1  0  0  0  0
  3  7  1  0  0  0  0
  4  5  1  0  0  0  0
  4  3  2  0  0  0  0
  5  6  1  0  0  0  0
  6  7  2  0  0  0  0
  7  8  1  0  0  0  0
  8 28  1  0  0  0  0
  8  9  1  0  0  0  0
  9 13  1  0  0  0  0
  9 10  1  0  0  0  0
 10 30  1  0  0  0  0
 11 31  1  6  0  0  0
 11 10  1  0  0  0  0
 11 12  1  0  0  0  0
 11 16  1  0  0  0  0
 12 32  1  6  0  0  0
 12 14  1  0  0  0  0
 13 12  1  0  0  0  0
 13 34  1  0  0  0  0
 14 35  1  0  0  0  0
 14 36  1  0  0  0  0
 14 15  1  0  0  0  0
 16 39  1  0  0  0  0
 17 16  1  0  0  0  0
 17 22  1  0  0  0  0
 18 41  1  0  0  0  0
 18 17  1  0  0  0  0
 18 19  1  0  0  0  0
 19 20  1  0  0  0  0
 19 42  1  0  0  0  0
 21 20  1  0  0  0  0
 21 22  1  0  0  0  0
 21 45  1  0  0  0  0
 22 46  1  0  0  0  0
 22 47  1  0  0  0  0
 23  5  1  0  0  0  0
 23 49  1  0  0  0  0
 23 48  1  0  0  0  0
 24  4  1  0  0  0  0
 25 24  2  0  0  0  0
 25 26  1  0  0  0  0
 26  2  2  0  0  0  0
 27  8  1  0  0  0  0
 29 10  1  0  0  0  0
 33 13  1  0  0  0  0
 37 15  1  0  0  0  0
 38 16  1  0  0  0  0
 40 18  1  0  0  0  0
 43 19  1  0  0  0  0
 44 21  1  0  0  0  0
 50 23  1  0  0  0  0
 51 24  1  0  0  0  0
 52 25  1  0  0  0  0
 53 26  1  0  0  0  0
M  END
>  <Pose>
1

>  <Score>
-6.31

$$$$
