MODEL 1
REMARK VINA RESULT:    -6.067      0.000      0.000
REMARK INTER + INTRA:         -10.013
REMARK INTER:                  -8.549
REMARK INTRA:                  -1.464
REMARK UNBOUND:                -1.464
REMARK  8 active torsions:
REMARK  status: ('A' for Active; 'I' for Inactive)
REMARK    1  A    between atoms: C_6  and  C_9 
REMARK    2  A    between atoms: C_7  and  O_8 
REMARK    3  A    between atoms: N_10  and  N_11 
REMARK       I    between atoms: N_11  and  C_12 
REMARK    4  A    between atoms: C_12  and  C_14 
REMARK    5  A    between atoms: N_17  and  C_26 
REMARK    6  A    between atoms: C_18  and  C_19 
REMARK    7  A    between atoms: C_19  and  N_20 
REMARK    8  A    between atoms: C_30  and  N_31 
ROOT
ATOM      1  C   UNK d   1      88.684 100.233 -43.209  0.00  0.00     0.162 A 
ATOM      2  N   UNK d   1      87.350 100.541 -43.042  0.00  0.00    -0.125 NA
ATOM      3  N   UNK d   1      86.659  99.701 -43.743  0.00  0.00    -0.058 NA
ATOM      4  N   UNK d   1      87.503  98.839 -44.375  0.00  0.00    -0.191 N 
ATOM      5  C   UNK d   1      88.762  99.142 -44.065  0.00  0.00     0.101 A 
ENDROOT
BRANCH   1   6
ATOM      6  C   UNK d   1      89.739 100.971 -42.558  0.00  0.00     0.228 C 
ATOM      7  N   UNK d   1      90.335 100.786 -41.305  0.00  0.00    -0.253 N 
ATOM      8  H   UNK d   1      90.100 100.063 -40.645  0.00  0.00     0.191 HD
ATOM      9  O   UNK d   1      90.207 101.966 -43.261  0.00  0.00    -0.168 OA
BRANCH   7  10
ATOM     10  N   UNK d   1      91.376 101.711 -40.949  0.00  0.00    -0.184 NA
ATOM     11  C   UNK d   1      92.452 101.295 -40.395  0.00  0.00     0.153 C 
BRANCH  11  12
ATOM     12  C   UNK d   1      93.544 102.200 -40.014  0.00  0.00     0.019 A 
ATOM     13  C   UNK d   1      93.836 102.496 -38.698  0.00  0.00     0.038 A 
ATOM     14  C   UNK d   1      94.867 103.351 -38.347  0.00  0.00     0.049 A 
ATOM     15  C   UNK d   1      95.648 103.943 -39.316  0.00  0.00     0.144 A 
ATOM     16 Br   UNK d   1      95.270 103.759 -36.523  0.00  0.00    -0.048 Br
ATOM     17  C   UNK d   1      95.359 103.650 -40.635  0.00  0.00     0.082 A 
ATOM     18  O   UNK d   1      96.695 104.809 -38.999  0.00  0.00    -0.189 OA
ATOM     19 Br   UNK d   1      96.429 104.460 -42.008  0.00  0.00    -0.045 Br
ATOM     20  C   UNK d   1      94.329 102.797 -40.978  0.00  0.00     0.097 A 
BRANCH  20  21
ATOM     21  O   UNK d   1      94.029 102.493 -42.319  0.00  0.00    -0.358 OA
ATOM     22  H   UNK d   1      93.388 103.082 -42.827  0.00  0.00     0.217 HD
ENDBRANCH  20  21
ENDBRANCH  11  12
ENDBRANCH   7  10
ENDBRANCH   1   6
BRANCH   5  23
ATOM     23  C   UNK d   1      89.999  98.494 -44.499  0.00  0.00     0.296 C 
BRANCH  23  24
ATOM     24  N   UNK d   1      90.920  98.021 -43.535  0.00  0.00    -0.062 N 
ATOM     25  C   UNK d   1      92.220  98.670 -43.610  0.00  0.00     0.261 C 
ATOM     26  C   UNK d   1      92.762  98.630 -44.982  0.00  0.00     0.195 C 
ATOM     27  O   UNK d   1      92.502  97.598 -45.787  0.00  0.00    -0.388 OA
ATOM     28  C   UNK d   1      91.686  96.601 -45.361  0.00  0.00     0.195 C 
ATOM     29  C   UNK d   1      91.275  96.623 -43.945  0.00  0.00     0.261 C 
ATOM     30  H   UNK d   1      90.542  97.991 -42.600  0.00  0.00     0.280 HD
ENDBRANCH  23  24
ENDBRANCH   5  23
BRANCH   4  31
ATOM     31  C   UNK d   1      86.964  97.820 -45.221  0.00  0.00     0.229 A 
ATOM     32  N   UNK d   1      87.365  97.333 -46.388  0.00  0.00    -0.081 NA
ATOM     33  O   UNK d   1      86.545  96.391 -46.721  0.00  0.00    -0.103 OA
ATOM     34  N   UNK d   1      85.616  96.225 -45.833  0.00  0.00    -0.083 NA
ATOM     35  C   UNK d   1      85.818  97.096 -44.853  0.00  0.00     0.201 A 
BRANCH  35  36
ATOM     36  N   UNK d   1      85.075  97.304 -43.663  0.00  0.00    -0.379 N 
ATOM     37  H   UNK d   1      84.756  96.483 -43.109  0.00  0.00     0.158 HD
ATOM     38  H   UNK d   1      84.825  98.272 -43.309  0.00  0.00     0.158 HD
ENDBRANCH  35  36
ENDBRANCH   4  31
TORSDOF 8
ENDMDL
