MODEL 1
REMARK VINA RESULT:    -6.349      0.000      0.000
REMARK INTER + INTRA:          -9.787
REMARK INTER:                  -8.576
REMARK INTRA:                  -1.211
REMARK UNBOUND:                -1.211
REMARK  7 active torsions:
REMARK  status: ('A' for Active; 'I' for Inactive)
REMARK    1  A    between atoms: C_3  and  O_31 
REMARK    2  A    between atoms: C_6  and  C_9 
REMARK    3  A    between atoms: C_7  and  O_8 
REMARK    4  A    between atoms: N_10  and  N_11 
REMARK    5  A    between atoms: N_11  and  C_12 
REMARK    6  A    between atoms: C_14  and  N_24 
REMARK    7  A    between atoms: C_16  and  N_18 
ROOT
ATOM      1  C   UNK d   1      91.076  90.650 -48.903  0.00  0.00     0.774 A 
ATOM      2  N   UNK d   1      90.481  89.461 -48.859  0.00  0.00     0.133 NA
ATOM      3  C   UNK d   1      89.385  89.158 -49.612  0.00  0.00     0.756 A 
ATOM      4  N   UNK d   1      88.933  90.126 -50.406  0.00  0.00     0.131 NA
ATOM      5  C   UNK d   1      89.477  91.360 -50.512  0.00  0.00     0.756 A 
ATOM      6  N   UNK d   1      90.571  91.579 -49.723  0.00  0.00     0.133 NA
ENDROOT
BRANCH   1   7
ATOM      7  N   UNK d   1      92.218  90.927 -48.102  0.00  0.00    -0.105 N 
ATOM      8  H   UNK d   1      93.065  90.349 -48.083  0.00  0.00     0.208 HD
BRANCH   7   9
ATOM      9  N   UNK d   1      92.213  92.064 -47.270  0.00  0.00    -0.171 NA
ATOM     10  C   UNK d   1      91.543  92.133 -46.188  0.00  0.00     0.153 C 
BRANCH  10  11
ATOM     11  C   UNK d   1      91.522  93.294 -45.314  0.00  0.00     0.019 A 
ATOM     12  C   UNK d   1      91.979  93.188 -44.022  0.00  0.00     0.038 A 
ATOM     13  C   UNK d   1      91.969  94.278 -43.170  0.00  0.00     0.046 A 
ATOM     14  C   UNK d   1      91.502  95.507 -43.580  0.00  0.00     0.103 A 
ATOM     15 Br   UNK d   1      92.613  94.104 -41.375  0.00  0.00    -0.048 Br
ATOM     16  C   UNK d   1      91.040  95.624 -44.877  0.00  0.00     0.079 A 
ATOM     17 Br   UNK d   1      90.393  97.332 -45.438  0.00  0.00    -0.045 Br
ATOM     18  C   UNK d   1      91.054  94.526 -45.723  0.00  0.00     0.097 A 
BRANCH  14  19
ATOM     19  O   UNK d   1      91.485  96.616 -42.736  0.00  0.00    -0.358 OA
ATOM     20  H   UNK d   1      91.590  96.485 -41.744  0.00  0.00     0.217 HD
ENDBRANCH  14  19
BRANCH  18  21
ATOM     21  O   UNK d   1      90.591  94.655 -47.011  0.00  0.00    -0.358 OA
ATOM     22  H   UNK d   1      89.818  95.292 -47.228  0.00  0.00     0.217 HD
ENDBRANCH  18  21
ENDBRANCH  10  11
ENDBRANCH   7   9
ENDBRANCH   1   7
BRANCH   3  23
ATOM     23  N   UNK d   1      88.769  87.890 -49.551  0.00  0.00    -0.209 N 
ATOM     24  C   UNK d   1      87.338  87.775 -49.598  0.00  0.00     0.167 C 
ATOM     25  C   UNK d   1      86.924  86.824 -48.487  0.00  0.00     0.188 C 
ATOM     26  O   UNK d   1      87.705  85.675 -48.467  0.00  0.00    -0.388 OA
ATOM     27  C   UNK d   1      89.039  85.922 -48.237  0.00  0.00     0.188 C 
ATOM     28  C   UNK d   1      89.576  86.708 -49.440  0.00  0.00     0.167 C 
ENDBRANCH   3  23
BRANCH   5  29
ATOM     29  N   UNK d   1      88.964  92.354 -51.366  0.00  0.00    -0.209 N 
ATOM     30  C   UNK d   1      89.768  92.908 -52.410  0.00  0.00     0.167 C 
ATOM     31  C   UNK d   1      89.698  94.431 -52.274  0.00  0.00     0.188 C 
ATOM     32  O   UNK d   1      88.970  94.818 -51.170  0.00  0.00    -0.388 OA
ATOM     33  C   UNK d   1      87.681  94.347 -51.145  0.00  0.00     0.188 C 
ATOM     34  C   UNK d   1      87.624  92.824 -51.199  0.00  0.00     0.167 C 
ENDBRANCH   5  29
TORSDOF 7
ENDMDL
