MODEL 1
REMARK VINA RESULT:    -6.467      0.000      0.000
REMARK INTER + INTRA:         -10.811
REMARK INTER:                  -9.869
REMARK INTRA:                  -0.942
REMARK UNBOUND:                -0.942
REMARK  10 active torsions:
REMARK  status: ('A' for Active; 'I' for Inactive)
REMARK    1  A    between atoms: C_3  and  O_10 
REMARK    2  A    between atoms: O_10  and  C_11 
REMARK    3  A    between atoms: C_11  and  C_12 
REMARK    4  A    between atoms: C_12  and  O_13 
REMARK    5  A    between atoms: C_12  and  C_14 
REMARK    6  A    between atoms: C_14  and  N_15 
REMARK    7  A    between atoms: C_19  and  N_20 
REMARK    8  A    between atoms: N_23  and  C_26 
REMARK    9  A    between atoms: C_26  and  C_27 
REMARK   10  A    between atoms: C_27  and  O_28 
ROOT
ATOM      1  N   UNK d   1      88.904  99.905 -43.606  0.00  0.00    -0.171 N 
ATOM      2  C   UNK d   1      87.550  99.786 -43.659  0.00  0.00     0.154 A 
ATOM      3  C   UNK d   1      86.973 100.829 -42.984  0.00  0.00     0.184 A 
ATOM      4  N   UNK d   1      87.979 101.556 -42.542  0.00  0.00    -0.044 NA
ATOM      5  C   UNK d   1      89.177 101.022 -42.906  0.00  0.00     0.707 A 
ATOM      6  N   UNK d   1      85.623 101.015 -42.860  0.00  0.00    -0.284 N 
ATOM      7  C   UNK d   1      84.837 100.106 -43.450  0.00  0.00     0.352 A 
ATOM      8  O   UNK d   1      83.591 100.281 -43.332  0.00  0.00    -0.244 OA
ATOM      9  N   UNK d   1      85.355  99.064 -44.128  0.00  0.00    -0.164 NA
ATOM     10  C   UNK d   1      86.677  98.869 -44.258  0.00  0.00     0.236 A 
ATOM     11  O   UNK d   1      87.180  97.799 -44.962  0.00  0.00    -0.167 OA
ATOM     12  C   UNK d   1      85.121 102.158 -42.109  0.00  0.00     0.163 C 
ENDROOT
BRANCH   1  13
ATOM     13  C   UNK d   1      89.838  99.012 -44.192  0.00  0.00     0.182 C 
BRANCH  13  14
ATOM     14  C   UNK d   1      90.485  97.950 -43.439  0.00  0.00     0.161 C 
BRANCH  14  15
ATOM     15  C   UNK d   1      91.472  97.001 -43.972  0.00  0.00     0.209 C 
BRANCH  15  16
ATOM     16  O   UNK d   1      91.030  95.659 -43.781  0.00  0.00    -0.346 OA
BRANCH  16  17
ATOM     17  C   UNK d   1      91.206  94.626 -44.633  0.00  0.00     0.103 A 
ATOM     18  C   UNK d   1      91.941  93.508 -44.209  0.00  0.00     0.047 A 
ATOM     19 Br   UNK d   1      92.644  93.532 -42.429  0.00  0.00    -0.048 Br
ATOM     20  C   UNK d   1      92.152  92.432 -45.032  0.00  0.00     0.041 A 
ATOM     21  C   UNK d   1      91.643  92.419 -46.313  0.00  0.00     0.013 A 
ATOM     22  C   UNK d   1      90.919  93.504 -46.752  0.00  0.00     0.041 A 
ATOM     23 Br   UNK d   1      91.987  90.882 -47.385  0.00  0.00    -0.051 Br
ATOM     24  C   UNK d   1      90.714  94.594 -45.898  0.00  0.00     0.047 A 
ATOM     25 Br   UNK d   1      89.730  96.041 -46.593  0.00  0.00    -0.048 Br
ENDBRANCH  16  17
ENDBRANCH  15  16
ENDBRANCH  14  15
BRANCH  14  26
ATOM     26  O   UNK d   1      90.861  98.200 -42.107  0.00  0.00    -0.392 OA
ATOM     27  H   UNK d   1      90.959  99.152 -41.926  0.00  0.00     0.210 HD
ENDBRANCH  14  26
ENDBRANCH  13  14
ENDBRANCH   1  13
BRANCH   5  28
ATOM     28  N   UNK d   1      90.423 101.692 -42.646  0.00  0.00    -0.212 N 
ATOM     29  C   UNK d   1      91.107 102.598 -43.486  0.00  0.00     0.169 C 
ATOM     30  C   UNK d   1      92.353 103.110 -42.711  0.00  0.00     0.255 C 
ATOM     31  N   UNK d   1      93.158 101.925 -42.488  0.00  0.00    -0.066 N 
ATOM     32  C   UNK d   1      92.505 101.291 -41.328  0.00  0.00     0.255 C 
ATOM     33  H   UNK d   1      93.099 101.226 -43.259  0.00  0.00     0.280 HD
ATOM     34  C   UNK d   1      91.036 101.437 -41.335  0.00  0.00     0.169 C 
BRANCH  31  35
ATOM     35  C   UNK d   1      94.527 102.264 -42.152  0.00  0.00     0.260 C 
BRANCH  35  36
ATOM     36  C   UNK d   1      94.711 102.118 -40.657  0.00  0.00     0.192 C 
BRANCH  36  37
ATOM     37  O   UNK d   1      95.892 101.408 -40.409  0.00  0.00    -0.399 OA
ATOM     38  H   UNK d   1      95.964 101.168 -39.444  0.00  0.00     0.209 HD
ENDBRANCH  36  37
ENDBRANCH  35  36
ENDBRANCH  31  35
ENDBRANCH   5  28
TORSDOF 10
ENDMDL
