MODEL 1
REMARK VINA RESULT:    -6.438      0.000      0.000
REMARK INTER + INTRA:          -9.615
REMARK INTER:                  -8.508
REMARK INTRA:                  -1.107
REMARK UNBOUND:                -1.107
REMARK  6 active torsions:
REMARK  status: ('A' for Active; 'I' for Inactive)
REMARK    1  A    between atoms: C_4  and  C_9 
REMARK    2  A    between atoms: N_10  and  N_11 
REMARK       I    between atoms: N_11  and  C_12 
REMARK    3  A    between atoms: C_12  and  C_14 
REMARK    4  A    between atoms: C_14  and  N_15 
REMARK    5  A    between atoms: C_19  and  C_20 
REMARK    6  A    between atoms: C_24  and  N_25 
ROOT
ATOM      1  N   UNK d   1      91.219  97.411 -43.929  0.00  0.00    -0.319 N 
ATOM      2  C   UNK d   1      91.450  96.118 -43.579  0.00  0.00     0.065 A 
ATOM      3  C   UNK d   1      91.695  96.031 -42.237  0.00  0.00     0.086 A 
ATOM      4  N   UNK d   1      91.609  97.290 -41.779  0.00  0.00    -0.226 NA
ATOM      5  C   UNK d   1      91.317  98.139 -42.814  0.00  0.00     0.167 A 
ATOM      6  C   UNK d   1      91.954  94.793 -41.688  0.00  0.00     0.034 A 
ATOM      7  C   UNK d   1      91.972  93.640 -42.456  0.00  0.00     0.002 A 
ATOM      8  C   UNK d   1      91.721  93.758 -43.811  0.00  0.00     0.002 A 
ATOM      9  C   UNK d   1      91.462  94.997 -44.363  0.00  0.00     0.032 A 
ENDROOT
BRANCH   1  10
ATOM     10  C   UNK d   1      90.924  97.923 -45.230  0.00  0.00     0.235 C 
BRANCH  10  11
ATOM     11  C   UNK d   1      92.040  98.439 -45.984  0.00  0.00     0.256 C 
ATOM     12  N   UNK d   1      91.905  99.395 -47.020  0.00  0.00    -0.246 N 
ATOM     13  H   UNK d   1      90.943  99.732 -47.239  0.00  0.00     0.192 HD
ATOM     14  O   UNK d   1      93.202  98.042 -45.731  0.00  0.00    -0.270 OA
BRANCH  12  15
ATOM     15  N   UNK d   1      92.958  99.909 -47.759  0.00  0.00    -0.184 NA
ATOM     16  C   UNK d   1      92.838 100.371 -48.945  0.00  0.00     0.153 C 
BRANCH  16  17
ATOM     17  C   UNK d   1      94.010 100.884 -49.625  0.00  0.00     0.022 A 
ATOM     18  C   UNK d   1      94.681 100.100 -50.512  0.00  0.00     0.136 A 
ATOM     19  C   UNK d   1      95.795 100.597 -51.154  0.00  0.00     0.049 A 
ATOM     20  O   UNK d   1      94.256  98.810 -50.776  0.00  0.00    -0.190 OA
ATOM     21 Br   UNK d   1      96.715  99.487 -52.387  0.00  0.00    -0.048 Br
ATOM     22  C   UNK d   1      96.230 101.886 -50.898  0.00  0.00     0.041 A 
ATOM     23  C   UNK d   1      95.540 102.661 -49.999  0.00  0.00     0.013 A 
ATOM     24  C   UNK d   1      94.426 102.191 -49.346  0.00  0.00     0.035 A 
ATOM     25 Br   UNK d   1      96.152 104.441 -49.656  0.00  0.00    -0.051 Br
ENDBRANCH  16  17
ENDBRANCH  12  15
ENDBRANCH  10  11
ENDBRANCH   1  10
BRANCH   5  26
ATOM     26  C   UNK d   1      91.152  99.579 -42.660  0.00  0.00     0.187 A 
ATOM     27  N   UNK d   1      90.062 100.192 -42.181  0.00  0.00    -0.097 NA
ATOM     28  O   UNK d   1      90.269 101.496 -42.186  0.00  0.00    -0.104 OA
ATOM     29  N   UNK d   1      91.450 101.761 -42.649  0.00  0.00    -0.077 NA
ATOM     30  C   UNK d   1      92.041 100.586 -42.961  0.00  0.00     0.285 A 
BRANCH  30  31
ATOM     31  N   UNK d   1      93.340 100.416 -43.498  0.00  0.00    -0.028 N 
ATOM     32  H   UNK d   1      93.333 100.239 -44.512  0.00  0.00     0.283 HD
ATOM     33  H   UNK d   1      93.730  99.544 -43.046  0.00  0.00     0.283 HD
ATOM     34  H   UNK d   1      93.991 101.205 -43.248  0.00  0.00     0.283 HD
ENDBRANCH  30  31
ENDBRANCH   5  26
TORSDOF 6
ENDMDL
