MODEL 1
REMARK VINA RESULT:    -7.064      0.000      0.000
REMARK INTER + INTRA:         -11.827
REMARK INTER:                 -10.574
REMARK INTRA:                  -1.253
REMARK UNBOUND:                -1.253
REMARK  9 active torsions:
REMARK  status: ('A' for Active; 'I' for Inactive)
REMARK    1  A    between atoms: C_4  and  O_29 
REMARK    2  A    between atoms: C_6  and  C_8 
REMARK    3  A    between atoms: C_8  and  N_9 
REMARK    4  A    between atoms: N_9  and  N_10 
REMARK       I    between atoms: N_10  and  C_11 
REMARK    5  A    between atoms: C_11  and  C_13 
REMARK    6  A    between atoms: C_13  and  N_14 
REMARK    7  A    between atoms: C_18  and  C_19 
REMARK    8  A    between atoms: C_23  and  N_24 
REMARK    9  A    between atoms: O_29  and  C_30 
ROOT
ATOM      1  N   UNK d   1      89.436  89.544 -50.416  0.00  0.00    -0.319 N 
ATOM      2  C   UNK d   1      88.113  89.951 -50.340  0.00  0.00     0.065 A 
ATOM      3  C   UNK d   1      87.494  89.126 -49.477  0.00  0.00     0.086 A 
ATOM      4  N   UNK d   1      88.401  88.262 -49.049  0.00  0.00    -0.226 NA
ATOM      5  C   UNK d   1      89.632  88.515 -49.636  0.00  0.00     0.167 A 
ATOM      6  C   UNK d   1      86.151  89.247 -49.156  0.00  0.00     0.034 A 
ATOM      7  C   UNK d   1      85.464  90.266 -49.771  0.00  0.00     0.002 A 
ATOM      8  C   UNK d   1      86.049  91.140 -50.668  0.00  0.00     0.002 A 
ATOM      9  C   UNK d   1      87.403  90.973 -50.952  0.00  0.00     0.032 A 
ENDROOT
BRANCH   1  10
ATOM     10  C   UNK d   1      90.336  90.247 -51.233  0.00  0.00     0.236 C 
BRANCH  10  11
ATOM     11  C   UNK d   1      90.602  91.676 -50.710  0.00  0.00     0.264 C 
ATOM     12  N   UNK d   1      90.840  91.669 -49.375  0.00  0.00    -0.202 N 
ATOM     13  H   UNK d   1      91.025  93.061 -49.447  0.00  0.00     0.205 HD
ATOM     14  O   UNK d   1      90.544  92.525 -51.598  0.00  0.00    -0.269 OA
BRANCH  12  15
ATOM     15  N   UNK d   1      91.058  91.666 -48.162  0.00  0.00    -0.335 NA
BRANCH  15  16
ATOM     16  C   UNK d   1      91.239  91.747 -46.997  0.00  0.00     0.220 C 
BRANCH  16  17
ATOM     17  C   UNK d   1      91.344  92.825 -46.075  0.00  0.00    -0.001 A 
ATOM     18  C   UNK d   1      90.932  94.113 -46.447  0.00  0.00     0.053 A 
ATOM     19  C   UNK d   1      90.971  95.214 -45.642  0.00  0.00     0.107 A 
ATOM     20  C   UNK d   1      91.467  95.044 -44.326  0.00  0.00     0.157 A 
ATOM     21  C   UNK d   1      91.884  93.796 -43.920  0.00  0.00     0.051 A 
ATOM     22  O   UNK d   1      91.500  96.147 -43.523  0.00  0.00    -0.188 OA
ATOM     23 Br   UNK d   1      92.527  93.530 -42.154  0.00  0.00    -0.048 Br
ATOM     24  C   UNK d   1      91.818  92.722 -44.786  0.00  0.00     0.036 A 
BRANCH  19  25
ATOM     25  O   UNK d   1      90.558  96.477 -46.021  0.00  0.00    -0.348 OA
BRANCH  25  26
ATOM     26  C   UNK d   1      89.241  96.779 -46.334  0.00  0.00     0.171 C 
ATOM     27  C   UNK d   1      88.539  97.728 -45.405  0.00  0.00     0.034 C 
ENDBRANCH  25  26
ENDBRANCH  19  25
ENDBRANCH  16  17
ENDBRANCH  15  16
ENDBRANCH  12  15
ENDBRANCH  10  11
ENDBRANCH   1  10
BRANCH   5  28
ATOM     28  C   UNK d   1      90.724  87.645 -49.237  0.00  0.00     0.187 A 
ATOM     29  N   UNK d   1      90.618  86.256 -49.266  0.00  0.00    -0.097 NA
ATOM     30  O   UNK d   1      91.709  85.718 -48.896  0.00  0.00    -0.104 OA
ATOM     31  N   UNK d   1      92.570  86.609 -48.608  0.00  0.00    -0.077 NA
ATOM     32  C   UNK d   1      91.988  87.839 -48.811  0.00  0.00     0.285 A 
BRANCH  32  33
ATOM     33  N   UNK d   1      92.695  89.042 -48.602  0.00  0.00    -0.028 N 
ATOM     34  H   UNK d   1      92.197  89.829 -49.166  0.00  0.00     0.283 HD
ATOM     35  H   UNK d   1      93.622  88.988 -49.041  0.00  0.00     0.283 HD
ATOM     36  H   UNK d   1      92.607  89.371 -47.644  0.00  0.00     0.283 HD
ENDBRANCH  32  33
ENDBRANCH   5  28
TORSDOF 9
ENDMDL
