/Users/jonathanwahrer/Desktop/Msc/3_Semester/Drug_Design_Praktikum/waehrer_HTS_screening/HTS_experiment/out/docking_results/vina_output/4agl/0017_docked.pdbqt
 OpenBabel03202222593D

 38 41  0  0  0  0  0  0  0  0999 V2000
   87.1410  101.5810  -43.1870 C   0  0  0  0  0  0  0  0  0  0  0  0
   85.9270  102.0070  -42.8150 N   0  0  0  0  0  0  0  0  0  0  0  0
   85.0070  101.2860  -43.4080 N   0  0  0  0  0  0  0  0  0  0  0  0
   85.5710  100.3520  -44.1960 N   0  0  0  0  0  0  0  0  0  0  0  0
   86.8920  100.5160  -44.0740 C   0  0  0  0  0  0  0  0  0  0  0  0
   88.4480  102.0820  -42.7850 C   0  0  0  0  0  0  0  0  0  0  0  0
   89.1800  101.4920  -41.7300 N   0  0  0  0  0  0  0  0  0  0  0  0
   88.7520  100.6620  -41.2260 H   0  0  0  0  0  0  0  0  0  0  0  0
   88.9350  103.0580  -43.3890 O   0  0  0  0  0  0  0  0  0  0  0  0
   90.4150  101.9130  -41.3010 N   0  0  0  0  0  0  0  0  0  0  0  0
   91.5240  101.3000  -41.4960 C   0  0  0  0  0  3  0  0  0  0  0  0
   92.7870  101.8250  -41.0030 C   0  0  0  0  0  0  0  0  0  0  0  0
   93.1770  101.7490  -39.6750 C   0  0  0  0  0  3  0  0  0  0  0  0
   94.3780  102.2540  -39.2360 C   0  0  0  0  0  0  0  0  0  0  0  0
   95.1970  102.8480  -40.1690 C   0  0  0  0  0  0  0  0  0  0  0  0
   94.8380  102.9430  -41.5090 C   0  0  0  0  0  0  0  0  0  0  0  0
   95.9780  103.7670  -42.7940 Br  0  0  0  0  0  0  0  0  0  0  0  0
   93.6370  102.4290  -41.9020 C   0  0  0  0  0  3  0  0  0  0  0  0
   94.7980  102.1960  -37.9290 O   0  0  0  0  0  0  0  0  0  0  0  0
   94.2410  102.8570  -36.8410 C   0  0  0  0  0  2  0  0  0  0  0  0
   94.4440  102.1870  -35.5210 C   0  0  0  0  0  1  0  0  0  0  0  0
   96.4250  103.3770  -39.7830 O   0  0  0  0  0  0  0  0  0  0  0  0
   96.7280  104.2690  -40.1560 H   0  0  0  0  0  0  0  0  0  0  0  0
   87.9770   99.7880  -44.7340 C   0  0  0  0  0  2  0  0  0  0  0  0
   88.2830   98.4740  -44.2300 N   0  0  0  0  0  0  0  0  0  0  0  0
   88.1910   97.5980  -45.4050 C   0  0  0  0  0  2  0  0  0  0  0  0
   89.1370   97.9130  -46.4950 C   0  0  0  0  0  2  0  0  0  0  0  0
   90.3290   98.4210  -46.0010 O   0  0  0  0  0  0  0  0  0  0  0  0
   90.5810   97.8290  -44.7820 C   0  0  0  0  0  2  0  0  0  0  0  0
   89.6650   98.4480  -43.7450 C   0  0  0  0  0  2  0  0  0  0  0  0
   84.8110   99.4310  -44.9850 C   0  0  0  0  0  0  0  0  0  0  0  0
   84.3850   99.5570  -46.2520 N   0  0  0  0  0  0  0  0  0  0  0  0
   83.7260   98.4750  -46.5930 O   0  0  0  0  0  0  0  0  0  0  0  0
   83.6930   97.6250  -45.5950 N   0  0  0  0  0  0  0  0  0  0  0  0
   84.3640   98.1970  -44.5790 C   0  0  0  0  0  0  0  0  0  0  0  0
   84.5500   97.5750  -43.3170 N   0  0  0  0  0  0  0  0  0  0  0  0
   85.4420   97.6000  -42.7830 H   0  0  0  0  0  0  0  0  0  0  0  0
   83.7650   97.0470  -42.8570 H   0  0  0  0  0  0  0  0  0  0  0  0
  1  2  1  0  0  0  0
  1  6  1  0  0  0  0
  3  2  2  0  0  0  0
  4  5  1  0  0  0  0
  4  3  1  0  0  0  0
  5  1  2  0  0  0  0
  6  7  1  0  0  0  0
  7 10  1  0  0  0  0
  7  8  1  0  0  0  0
  9  6  2  0  0  0  0
 11 10  2  0  0  0  0
 11 12  1  0  0  0  0
 12 13  1  0  0  0  0
 13 14  2  0  0  0  0
 14 19  1  0  0  0  0
 15 22  1  0  0  0  0
 15 14  1  0  0  0  0
 16 15  2  0  0  0  0
 17 16  1  0  0  0  0
 18 16  1  0  0  0  0
 18 12  2  0  0  0  0
 19 20  1  0  0  0  0
 20 21  1  0  0  0  0
 23 22  1  0  0  0  0
 24 25  1  0  0  0  0
 24  5  1  0  0  0  0
 25 30  1  0  0  0  0
 26 25  1  0  0  0  0
 27 28  1  0  0  0  0
 27 26  1  0  0  0  0
 28 29  1  0  0  0  0
 29 30  1  0  0  0  0
 31 35  1  0  0  0  0
 31  4  1  0  0  0  0
 32 31  2  0  0  0  0
 33 32  1  0  0  0  0
 33 34  1  0  0  0  0
 34 35  2  0  0  0  0
 35 36  1  0  0  0  0
 36 38  1  0  0  0  0
 36 37  1  0  0  0  0
M  END
>  <Pose>
1

>  <Score>
-5.584

$$$$
