MODEL 1
REMARK VINA RESULT:    -5.584      0.000      0.000
REMARK INTER + INTRA:         -10.073
REMARK INTER:                  -8.521
REMARK INTRA:                  -1.552
REMARK UNBOUND:                -1.552
REMARK  10 active torsions:
REMARK  status: ('A' for Active; 'I' for Inactive)
REMARK    1  A    between atoms: C_3  and  O_34 
REMARK    2  A    between atoms: C_4  and  O_31 
REMARK    3  A    between atoms: C_6  and  C_8 
REMARK    4  A    between atoms: N_9  and  N_10 
REMARK       I    between atoms: N_10  and  C_11 
REMARK    5  A    between atoms: C_11  and  C_13 
REMARK    6  A    between atoms: N_16  and  C_25 
REMARK    7  A    between atoms: C_17  and  C_18 
REMARK    8  A    between atoms: C_18  and  N_19 
REMARK    9  A    between atoms: C_29  and  N_30 
REMARK   10  A    between atoms: O_31  and  C_32 
ROOT
ATOM      1  C   UNK d   1      87.141 101.581 -43.187  0.00  0.00     0.176 A 
ATOM      2  N   UNK d   1      85.927 102.007 -42.815  0.00  0.00    -0.124 NA
ATOM      3  N   UNK d   1      85.007 101.286 -43.408  0.00  0.00    -0.058 NA
ATOM      4  N   UNK d   1      85.571 100.352 -44.196  0.00  0.00    -0.191 N 
ATOM      5  C   UNK d   1      86.892 100.516 -44.074  0.00  0.00     0.104 A 
ENDROOT
BRANCH   1   6
ATOM      6  C   UNK d   1      88.448 102.082 -42.785  0.00  0.00     0.294 C 
ATOM      7  N   UNK d   1      89.180 101.492 -41.730  0.00  0.00    -0.242 N 
ATOM      8  H   UNK d   1      88.752 100.662 -41.226  0.00  0.00     0.192 HD
ATOM      9  O   UNK d   1      88.935 103.058 -43.389  0.00  0.00    -0.264 OA
BRANCH   7  10
ATOM     10  N   UNK d   1      90.415 101.913 -41.301  0.00  0.00    -0.183 NA
ATOM     11  C   UNK d   1      91.524 101.300 -41.496  0.00  0.00     0.150 C 
BRANCH  11  12
ATOM     12  C   UNK d   1      92.787 101.825 -41.003  0.00  0.00    -0.013 A 
ATOM     13  C   UNK d   1      93.177 101.749 -39.675  0.00  0.00     0.052 A 
ATOM     14  C   UNK d   1      94.378 102.254 -39.236  0.00  0.00     0.104 A 
ATOM     15  C   UNK d   1      95.197 102.848 -40.169  0.00  0.00     0.116 A 
ATOM     16  C   UNK d   1      94.838 102.943 -41.509  0.00  0.00     0.047 A 
ATOM     17 Br   UNK d   1      95.978 103.767 -42.794  0.00  0.00    -0.048 Br
ATOM     18  C   UNK d   1      93.637 102.429 -41.902  0.00  0.00     0.035 A 
BRANCH  14  19
ATOM     19  O   UNK d   1      94.798 102.196 -37.929  0.00  0.00    -0.349 OA
BRANCH  19  20
ATOM     20  C   UNK d   1      94.241 102.857 -36.841  0.00  0.00     0.171 C 
ATOM     21  C   UNK d   1      94.444 102.187 -35.521  0.00  0.00     0.034 C 
ENDBRANCH  19  20
ENDBRANCH  14  19
BRANCH  15  22
ATOM     22  O   UNK d   1      96.425 103.377 -39.783  0.00  0.00    -0.357 OA
ATOM     23  H   UNK d   1      96.728 104.269 -40.156  0.00  0.00     0.218 HD
ENDBRANCH  15  22
ENDBRANCH  11  12
ENDBRANCH   7  10
ENDBRANCH   1   6
BRANCH   5  24
ATOM     24  C   UNK d   1      87.977  99.788 -44.734  0.00  0.00     0.334 C 
BRANCH  24  25
ATOM     25  N   UNK d   1      88.283  98.474 -44.230  0.00  0.00     0.098 N 
ATOM     26  C   UNK d   1      88.191  97.598 -45.405  0.00  0.00     0.299 C 
ATOM     27  C   UNK d   1      89.137  97.913 -46.495  0.00  0.00     0.198 C 
ATOM     28  O   UNK d   1      90.329  98.421 -46.001  0.00  0.00    -0.388 OA
ATOM     29  C   UNK d   1      90.581  97.829 -44.782  0.00  0.00     0.198 C 
ATOM     30  C   UNK d   1      89.665  98.448 -43.745  0.00  0.00     0.299 C 
ENDBRANCH  24  25
ENDBRANCH   5  24
BRANCH   4  31
ATOM     31  C   UNK d   1      84.811  99.431 -44.985  0.00  0.00     0.229 A 
ATOM     32  N   UNK d   1      84.385  99.557 -46.252  0.00  0.00    -0.081 NA
ATOM     33  O   UNK d   1      83.726  98.475 -46.593  0.00  0.00    -0.103 OA
ATOM     34  N   UNK d   1      83.693  97.625 -45.595  0.00  0.00    -0.083 NA
ATOM     35  C   UNK d   1      84.364  98.197 -44.579  0.00  0.00     0.201 A 
BRANCH  35  36
ATOM     36  N   UNK d   1      84.550  97.575 -43.317  0.00  0.00    -0.379 N 
ATOM     37  H   UNK d   1      85.442  97.600 -42.783  0.00  0.00     0.158 HD
ATOM     38  H   UNK d   1      83.765  97.047 -42.857  0.00  0.00     0.158 HD
ENDBRANCH  35  36
ENDBRANCH   4  31
TORSDOF 10
ENDMDL
