MODEL 1
REMARK VINA RESULT:    -6.346      0.000      0.000
REMARK INTER + INTRA:         -10.458
REMARK INTER:                  -9.314
REMARK INTRA:                  -1.144
REMARK UNBOUND:                -1.144
REMARK  9 active torsions:
REMARK  status: ('A' for Active; 'I' for Inactive)
REMARK    1  A    between atoms: C_3  and  O_33 
REMARK    2  A    between atoms: C_4  and  O_31 
REMARK    3  A    between atoms: C_6  and  C_8 
REMARK    4  A    between atoms: N_9  and  N_10 
REMARK       I    between atoms: N_10  and  C_11 
REMARK    5  A    between atoms: C_11  and  C_13 
REMARK    6  A    between atoms: N_16  and  C_25 
REMARK    7  A    between atoms: C_17  and  C_18 
REMARK    8  A    between atoms: C_18  and  N_19 
REMARK    9  A    between atoms: C_29  and  N_30 
ROOT
ATOM      1  C   UNK d   1      91.552  97.964 -42.488  0.00  0.00     0.170 A 
ATOM      2  N   UNK d   1      92.099  97.095 -41.712  0.00  0.00    -0.152 NA
ATOM      3  N   UNK d   1      92.038  95.895 -42.263  0.00  0.00     0.012 NA
ATOM      4  N   UNK d   1      91.423  95.994 -43.433  0.00  0.00    -0.215 N 
ATOM      5  C   UNK d   1      91.049  97.240 -43.690  0.00  0.00     0.098 A 
ENDROOT
BRANCH   1   6
ATOM      6  C   UNK d   1      91.657  99.393 -42.680  0.00  0.00     0.293 C 
ATOM      7  N   UNK d   1      90.718 100.286 -42.038  0.00  0.00    -0.242 N 
ATOM      8  H   UNK d   1      89.873 100.370 -41.655  0.00  0.00     0.192 HD
ATOM      9  O   UNK d   1      92.598  99.847 -43.329  0.00  0.00    -0.264 OA
BRANCH   7  10
ATOM     10  N   UNK d   1      91.544 101.650 -41.973  0.00  0.00    -0.183 NA
ATOM     11  C   UNK d   1      91.728 101.620 -40.639  0.00  0.00     0.150 C 
BRANCH  11  12
ATOM     12  C   UNK d   1      92.278 102.258 -39.564  0.00  0.00    -0.013 A 
ATOM     13  C   UNK d   1      93.611 102.418 -39.232  0.00  0.00     0.052 A 
ATOM     14  C   UNK d   1      94.060 103.086 -38.116  0.00  0.00     0.103 A 
ATOM     15  C   UNK d   1      93.127 103.632 -37.278  0.00  0.00     0.116 A 
ATOM     16  C   UNK d   1      91.784 103.499 -37.562  0.00  0.00     0.047 A 
ATOM     17 Br   UNK d   1      90.498 104.257 -36.340  0.00  0.00    -0.048 Br
ATOM     18  C   UNK d   1      91.345 102.854 -38.637  0.00  0.00     0.035 A 
BRANCH  14  19
ATOM     19  O   UNK d   1      95.431 103.185 -37.853  0.00  0.00    -0.353 OA
ATOM     20  C   UNK d   1      96.194 104.205 -38.529  0.00  0.00     0.210 C 
ENDBRANCH  14  19
BRANCH  15  21
ATOM     21  O   UNK d   1      93.524 104.326 -36.132  0.00  0.00    -0.357 OA
ATOM     22  H   UNK d   1      94.136 105.161 -36.254  0.00  0.00     0.218 HD
ENDBRANCH  15  21
ENDBRANCH  11  12
ENDBRANCH   7  10
ENDBRANCH   1   6
BRANCH   5  23
ATOM     23  C   UNK d   1      90.499  97.924 -44.824  0.00  0.00     0.334 C 
BRANCH  23  24
ATOM     24  N   UNK d   1      89.128  97.598 -45.225  0.00  0.00     0.098 N 
ATOM     25  C   UNK d   1      88.797  98.124 -46.510  0.00  0.00     0.299 C 
ATOM     26  C   UNK d   1      88.703  99.621 -46.574  0.00  0.00     0.198 C 
ATOM     27  O   UNK d   1      87.539 100.039 -45.950  0.00  0.00    -0.388 OA
ATOM     28  C   UNK d   1      87.114  99.092 -45.012  0.00  0.00     0.198 C 
ATOM     29  C   UNK d   1      88.298  98.505 -44.320  0.00  0.00     0.299 C 
ENDBRANCH  23  24
ENDBRANCH   5  23
BRANCH   4  30
ATOM     30  C   UNK d   1      91.584  94.955 -44.430  0.00  0.00     0.225 A 
ATOM     31  N   UNK d   1      91.720  94.952 -45.690  0.00  0.00    -0.081 NA
ATOM     32  O   UNK d   1      91.782  93.719 -46.193  0.00  0.00    -0.103 OA
ATOM     33  N   UNK d   1      91.683  92.917 -45.195  0.00  0.00    -0.083 NA
ATOM     34  C   UNK d   1      91.553  93.580 -44.045  0.00  0.00     0.201 A 
BRANCH  34  35
ATOM     35  N   UNK d   1      91.401  93.056 -42.750  0.00  0.00    -0.379 N 
ATOM     36  H   UNK d   1      92.203  92.815 -42.142  0.00  0.00     0.158 HD
ATOM     37  H   UNK d   1      90.433  92.889 -42.312  0.00  0.00     0.158 HD
ENDBRANCH  34  35
ENDBRANCH   4  30
TORSDOF 9
ENDMDL
