MODEL 1
REMARK VINA RESULT:    -6.439      0.000      0.000
REMARK INTER + INTRA:         -10.627
REMARK INTER:                  -9.638
REMARK INTRA:                  -0.989
REMARK UNBOUND:                -0.989
REMARK  9 active torsions:
REMARK  status: ('A' for Active; 'I' for Inactive)
REMARK    1  A    between atoms: C_3  and  O_32 
REMARK    2  A    between atoms: C_4  and  O_29 
REMARK    3  A    between atoms: C_6  and  C_8 
REMARK    4  A    between atoms: C_8  and  N_9 
REMARK    5  A    between atoms: N_9  and  N_10 
REMARK    6  A    between atoms: N_10  and  C_11 
REMARK    7  A    between atoms: C_13  and  N_23 
REMARK    8  A    between atoms: C_15  and  N_17 
REMARK    9  A    between atoms: O_29  and  C_30 
ROOT
ATOM      1  C   UNK d   1      92.250 100.046 -44.527  0.00  0.00     0.783 A 
ATOM      2  N   UNK d   1      92.930 100.706 -43.609  0.00  0.00     0.133 NA
ATOM      3  C   UNK d   1      92.292 101.362 -42.598  0.00  0.00     0.756 A 
ATOM      4  N   UNK d   1      90.940 101.284 -42.606  0.00  0.00     0.131 NA
ATOM      5  C   UNK d   1      90.193 100.628 -43.515  0.00  0.00     0.756 A 
ATOM      6  N   UNK d   1      90.890 100.004 -44.491  0.00  0.00     0.133 NA
ENDROOT
BRANCH   1   7
ATOM      7  N   UNK d   1      92.859  99.139 -45.527  0.00  0.00    -0.061 N 
ATOM      8  H   UNK d   1      93.738  99.440 -45.900  0.00  0.00     0.221 HD
BRANCH   7   9
ATOM      9  N   UNK d   1      92.096  98.090 -45.703  0.00  0.00    -0.323 NA
BRANCH   9  10
ATOM     10  C   UNK d   1      91.406  97.167 -45.846  0.00  0.00     0.221 C 
BRANCH  10  11
ATOM     11  C   UNK d   1      91.392  95.869 -45.141  0.00  0.00    -0.001 A 
ATOM     12  C   UNK d   1      91.469  94.650 -45.750  0.00  0.00     0.053 A 
ATOM     13  C   UNK d   1      91.670  93.493 -45.010  0.00  0.00     0.104 A 
ATOM     14  C   UNK d   1      91.791  93.561 -43.623  0.00  0.00     0.116 A 
ATOM     15  C   UNK d   1      91.706  94.776 -43.002  0.00  0.00     0.047 A 
ATOM     16 Br   UNK d   1      91.894  94.876 -41.095  0.00  0.00    -0.048 Br
ATOM     17  C   UNK d   1      91.510  95.903 -43.770  0.00  0.00     0.036 A 
BRANCH  13  18
ATOM     18  O   UNK d   1      91.760  92.246 -45.544  0.00  0.00    -0.349 OA
BRANCH  18  19
ATOM     19  C   UNK d   1      91.283  91.764 -46.750  0.00  0.00     0.171 C 
ATOM     20  C   UNK d   1      92.286  90.872 -47.467  0.00  0.00     0.034 C 
ENDBRANCH  18  19
ENDBRANCH  13  18
BRANCH  14  21
ATOM     21  O   UNK d   1      91.996  92.441 -42.847  0.00  0.00    -0.357 OA
ATOM     22  H   UNK d   1      91.270  91.910 -42.431  0.00  0.00     0.218 HD
ENDBRANCH  14  21
ENDBRANCH  10  11
ENDBRANCH   9  10
ENDBRANCH   7   9
ENDBRANCH   1   7
BRANCH   3  23
ATOM     23  N   UNK d   1      92.986 102.007 -41.548  0.00  0.00    -0.209 N 
ATOM     24  C   UNK d   1      94.320 102.574 -41.801  0.00  0.00     0.167 C 
ATOM     25  C   UNK d   1      95.187 102.096 -40.608  0.00  0.00     0.188 C 
ATOM     26  O   UNK d   1      94.676 102.757 -39.528  0.00  0.00    -0.388 OA
ATOM     27  C   UNK d   1      93.433 102.332 -39.153  0.00  0.00     0.188 C 
ATOM     28  C   UNK d   1      92.444 102.092 -40.246  0.00  0.00     0.167 C 
ENDBRANCH   3  23
BRANCH   5  29
ATOM     29  N   UNK d   1      88.826 100.467 -43.374  0.00  0.00    -0.209 N 
ATOM     30  C   UNK d   1      88.094  99.451 -42.722  0.00  0.00     0.167 C 
ATOM     31  C   UNK d   1      87.245  98.766 -43.796  0.00  0.00     0.188 C 
ATOM     32  O   UNK d   1      86.492  99.739 -44.417  0.00  0.00    -0.388 OA
ATOM     33  C   UNK d   1      87.205 100.722 -45.063  0.00  0.00     0.188 C 
ATOM     34  C   UNK d   1      88.000 101.540 -44.004  0.00  0.00     0.167 C 
ENDBRANCH   5  29
TORSDOF 9
ENDMDL
