/Users/jonathanwahrer/Desktop/Msc/3_Semester/Drug_Design_Praktikum/waehrer_HTS_screening/HTS_experiment/out/docking_results/vina_output/4agl/0023_docked.pdbqt
 OpenBabel03202223003D

 37 40  0  0  1  0  0  0  0  0999 V2000
   89.1390   98.3540  -44.2270 C   0  0  1  0  0  3  0  0  0  0  0  0
   87.7810   98.5080  -44.7050 N   0  0  0  0  0  0  0  0  0  0  0  0
   87.6910   98.2840  -46.0820 C   0  0  0  0  0  0  0  0  0  0  0  0
   86.6890   98.4650  -46.7910 O   0  0  0  0  0  0  0  0  0  0  0  0
   88.9940   97.7990  -46.5380 C   0  0  0  0  0  0  0  0  0  0  0  0
   89.2290   97.5120  -47.7400 O   0  0  0  0  0  0  0  0  0  0  0  0
   89.8730   97.7340  -45.3900 C   0  0  1  0  0  3  0  0  0  0  0  0
   91.0910   97.2640  -45.3990 C   0  0  1  0  0  3  0  0  0  0  0  0
   92.1240   98.0470  -45.8900 O   0  0  0  0  0  1  0  0  0  0  0  0
   91.4090   95.9470  -44.9040 C   0  0  0  0  0  0  0  0  0  0  0  0
   91.5460   95.8620  -43.5120 C   0  0  0  0  0  3  0  0  0  0  0  0
   91.8120   94.6630  -42.8980 C   0  0  0  0  0  0  0  0  0  0  0  0
   91.9500   93.5190  -43.6490 C   0  0  0  0  0  0  0  0  0  0  0  0
   92.0030   94.3600  -41.4430 C   0  0  0  0  0  2  0  0  0  0  0  0
   91.8110   93.6280  -45.0200 C   0  0  0  0  0  3  0  0  0  0  0  0
   92.2180   92.4480  -42.7700 O   0  0  0  0  0  0  0  0  0  0  0  0
   91.5420   94.8220  -45.6530 C   0  0  0  0  0  3  0  0  0  0  0  0
   92.6300   92.9870  -41.5180 C   0  0  1  0  0  3  0  0  0  0  0  0
   94.1350   93.1660  -41.4440 C   0  0  0  0  0  1  0  0  0  0  0  0
   89.6590   99.7160  -43.9370 C   0  0  0  0  0  0  0  0  0  0  0  0
   90.1020   99.9400  -42.6440 C   0  0  0  0  0  3  0  0  0  0  0  0
   90.6070  101.1330  -42.2470 C   0  0  0  0  0  0  0  0  0  0  0  0
   90.6810  102.1660  -43.1730 C   0  0  0  0  0  0  0  0  0  0  0  0
   90.2330  101.9380  -44.4810 C   0  0  0  0  0  0  0  0  0  0  0  0
   90.3360  103.3480  -45.7440 Br  0  0  0  0  0  0  0  0  0  0  0  0
   89.7200  100.7170  -44.8740 C   0  0  0  0  0  3  0  0  0  0  0  0
   91.0520  101.3560  -40.9420 O   0  0  0  0  0  0  0  0  0  0  0  0
   92.3380  101.0150  -40.5000 C   0  0  0  0  0  1  0  0  0  0  0  0
   91.1900  103.3800  -42.7850 O   0  0  0  0  0  0  0  0  0  0  0  0
   92.1420  103.4670  -42.5270 H   0  0  0  0  0  0  0  0  0  0  0  0
   86.7020   98.8590  -43.8040 C   0  0  0  0  0  2  0  0  0  0  0  0
   86.0540  100.1600  -44.0280 C   0  0  0  0  0  2  0  0  0  0  0  0
   86.3350  101.2550  -43.0670 C   0  0  0  0  0  2  0  0  0  0  0  0
   85.3070  101.4520  -42.0750 N   0  0  0  0  0  4  0  0  0  0  0  0
   84.0360  100.9250  -42.5930 C   0  0  0  0  0  1  0  0  0  0  0  0
   85.1370  102.8850  -41.9110 C   0  0  0  0  0  1  0  0  0  0  0  0
   85.5090  101.0580  -41.1520 H   0  0  0  0  0  0  0  0  0  0  0  0
  1 20  1  6  0  0  0
  2  1  1  0  0  0  0
  2 31  1  0  0  0  0
  3  2  1  0  0  0  0
  4  3  2  0  0  0  0
  5  3  1  0  0  0  0
  5  7  1  0  0  0  0
  6  5  2  0  0  0  0
  7  8  1  6  0  0  0
  7  1  1  0  0  0  0
  8  9  1  1  0  0  0
  8 10  1  0  0  0  0
 10 11  1  0  0  0  0
 11 12  2  0  0  0  0
 12 14  1  0  0  0  0
 13 12  1  0  0  0  0
 13 16  1  0  0  0  0
 15 13  2  0  0  0  0
 16 18  1  0  0  0  0
 17 15  1  0  0  0  0
 17 10  2  0  0  0  0
 18 19  1  6  0  0  0
 18 14  1  0  0  0  0
 20 21  1  0  0  0  0
 21 22  2  0  0  0  0
 22 27  1  0  0  0  0
 23 29  1  0  0  0  0
 23 22  1  0  0  0  0
 24 23  2  0  0  0  0
 25 24  1  0  0  0  0
 26 24  1  0  0  0  0
 26 20  2  0  0  0  0
 27 28  1  0  0  0  0
 29 30  1  0  0  0  0
 32 31  1  0  0  0  0
 32 33  1  0  0  0  0
 33 34  1  0  0  0  0
 34 36  1  0  0  0  0
 34 37  1  0  0  0  0
 35 34  1  0  0  0  0
M  END
>  <Pose>
1

>  <Score>
-6.720

$$$$
