MODEL 1
REMARK VINA RESULT:    -6.546      0.000      0.000
REMARK INTER + INTRA:          -8.173
REMARK INTER:                  -7.502
REMARK INTRA:                  -0.671
REMARK UNBOUND:                -0.671
REMARK  3 active torsions:
REMARK  status: ('A' for Active; 'I' for Inactive)
REMARK    1  A    between atoms: C_3  and  O_25 
REMARK    2  A    between atoms: C_6  and  C_8 
REMARK    3  A    between atoms: C_10  and  C_21 
ROOT
ATOM      1  C   UNK d   1      91.038  97.696 -45.428  0.00  0.00     0.270 C 
ATOM      2  N   UNK d   1      92.007  98.522 -44.836  0.00  0.00    -0.047 N 
ATOM      3  C   UNK d   1      91.626  99.774 -44.303  0.00  0.00     0.291 C 
ATOM      4  C   UNK d   1      90.329 100.331 -44.824  0.00  0.00     0.086 C 
ATOM      5  C   UNK d   1      89.262  99.304 -44.870  0.00  0.00    -0.018 A 
ATOM      6  C   UNK d   1      87.909  99.366 -44.668  0.00  0.00    -0.001 A 
ATOM      7  C   UNK d   1      87.460  98.070 -44.851  0.00  0.00     0.043 A 
ATOM      8  N   UNK d   1      88.518  97.272 -45.153  0.00  0.00    -0.356 N 
ATOM      9  C   UNK d   1      89.626  98.025 -45.165  0.00  0.00     0.052 A 
ATOM     10  C   UNK d   1      86.106  97.855 -44.702  0.00  0.00     0.030 A 
ATOM     11  C   UNK d   1      85.240  98.880 -44.385  0.00  0.00     0.002 A 
ATOM     12  C   UNK d   1      85.690 100.171 -44.202  0.00  0.00     0.001 A 
ATOM     13  C   UNK d   1      87.047 100.405 -44.349  0.00  0.00     0.014 A 
ATOM     14  H   UNK d   1      92.564  98.007 -44.095  0.00  0.00     0.279 HD
ATOM     15  H   UNK d   1      92.764  98.707 -45.570  0.00  0.00     0.279 HD
ATOM     16  H   UNK d   1      88.390  96.252 -45.330  0.00  0.00     0.166 HD
ENDROOT
BRANCH   1  17
ATOM     17  C   UNK d   1      91.238  96.293 -44.969  0.00  0.00    -0.019 A 
ATOM     18  C   UNK d   1      91.216  95.223 -45.839  0.00  0.00     0.031 A 
ATOM     19  C   UNK d   1      91.408  93.970 -45.299  0.00  0.00     0.046 A 
ATOM     20  C   UNK d   1      91.620  93.737 -43.957  0.00  0.00     0.100 A 
ATOM     21 Br   UNK d   1      91.383  92.469 -46.474  0.00  0.00    -0.048 Br
ATOM     22  C   UNK d   1      91.641  94.808 -43.096  0.00  0.00     0.046 A 
ATOM     23 Br   UNK d   1      91.930  94.528 -41.238  0.00  0.00    -0.048 Br
ATOM     24  C   UNK d   1      91.448  96.088 -43.623  0.00  0.00     0.031 A 
BRANCH  20  25
ATOM     25  O   UNK d   1      91.809  92.422 -43.484  0.00  0.00    -0.358 OA
ATOM     26  H   UNK d   1      92.749  92.141 -43.243  0.00  0.00     0.217 HD
ENDBRANCH  20  25
ENDBRANCH   1  17
BRANCH   3  27
ATOM     27  C   UNK d   1      91.537  99.766 -42.817  0.00  0.00     0.205 C 
ATOM     28  O   UNK d   1      92.140  98.851 -42.159  0.00  0.00    -0.646 OA
ATOM     29  O   UNK d   1      90.802 100.745 -42.168  0.00  0.00    -0.646 OA
ENDBRANCH   3  27
TORSDOF 3
ENDMDL
