MODEL 1
REMARK VINA RESULT:    -6.719      0.000      0.000
REMARK INTER + INTRA:         -10.107
REMARK INTER:                  -9.076
REMARK INTRA:                  -1.031
REMARK UNBOUND:                -1.031
REMARK  7 active torsions:
REMARK  status: ('A' for Active; 'I' for Inactive)
REMARK    1  A    between atoms: C_3  and  O_30 
REMARK    2  A    between atoms: C_5  and  O_29 
REMARK    3  A    between atoms: C_6  and  C_8 
REMARK    4  A    between atoms: N_9  and  N_10 
REMARK    5  A    between atoms: N_10  and  C_11 
REMARK    6  A    between atoms: C_13  and  N_23 
REMARK    7  A    between atoms: C_15  and  N_17 
ROOT
ATOM      1  C   UNK d   1      90.723  94.692 -46.129  0.00  0.00     0.774 A 
ATOM      2  N   UNK d   1      90.938  93.679 -46.954  0.00  0.00     0.133 NA
ATOM      3  C   UNK d   1      91.469  92.501 -46.585  0.00  0.00     0.756 A 
ATOM      4  N   UNK d   1      91.795  92.366 -45.281  0.00  0.00     0.131 NA
ATOM      5  C   UNK d   1      91.599  93.369 -44.385  0.00  0.00     0.756 A 
ATOM      6  N   UNK d   1      91.058  94.530 -44.832  0.00  0.00     0.133 NA
ENDROOT
BRANCH   1   7
ATOM      7  N   UNK d   1      90.186  95.915 -46.618  0.00  0.00    -0.105 N 
ATOM      8  H   UNK d   1      90.360  96.188 -47.593  0.00  0.00     0.208 HD
BRANCH   7   9
ATOM      9  N   UNK d   1      89.438  96.735 -45.790  0.00  0.00    -0.171 NA
ATOM     10  C   UNK d   1      89.613  98.007 -45.681  0.00  0.00     0.153 C 
BRANCH  10  11
ATOM     11  C   UNK d   1      88.805  98.822 -44.798  0.00  0.00     0.018 A 
ATOM     12  C   UNK d   1      89.142  98.931 -43.449  0.00  0.00     0.080 A 
ATOM     13  C   UNK d   1      88.406  99.669 -42.558  0.00  0.00     0.075 A 
ATOM     14  C   UNK d   1      87.277 100.357 -42.960  0.00  0.00     0.085 A 
ATOM     15  C   UNK d   1      86.924 100.266 -44.297  0.00  0.00     0.045 A 
ATOM     16 Br   UNK d   1      85.380 101.207 -44.885  0.00  0.00    -0.048 Br
ATOM     17  C   UNK d   1      87.677  99.515 -45.180  0.00  0.00     0.037 A 
BRANCH  12  18
ATOM     18  O   UNK d   1      90.284  98.238 -43.035  0.00  0.00    -0.360 OA
ATOM     19  H   UNK d   1      90.472  97.330 -43.449  0.00  0.00     0.217 HD
ENDBRANCH  12  18
BRANCH  14  20
ATOM     20  O   UNK d   1      86.537 101.106 -42.047  0.00  0.00    -0.359 OA
ATOM     21  H   UNK d   1      86.924 101.504 -41.204  0.00  0.00     0.217 HD
ENDBRANCH  14  20
ENDBRANCH  10  11
ENDBRANCH   7   9
ENDBRANCH   1   7
BRANCH   3  22
ATOM     22  N   UNK d   1      91.687  91.431 -47.519  0.00  0.00    -0.209 N 
ATOM     23  C   UNK d   1      92.828  90.567 -47.413  0.00  0.00     0.167 C 
ATOM     24  C   UNK d   1      92.825  89.354 -48.259  0.00  0.00     0.188 C 
ATOM     25  O   UNK d   1      91.913  89.382 -49.305  0.00  0.00    -0.388 OA
ATOM     26  C   UNK d   1      90.648  89.770 -48.885  0.00  0.00     0.188 C 
ATOM     27  C   UNK d   1      90.729  91.243 -48.569  0.00  0.00     0.167 C 
ENDBRANCH   3  22
BRANCH   5  28
ATOM     28  N   UNK d   1      91.959  93.220 -43.031  0.00  0.00    -0.209 N 
ATOM     29  C   UNK d   1      92.898  92.212 -42.611  0.00  0.00     0.167 C 
ATOM     30  C   UNK d   1      93.964  92.963 -41.800  0.00  0.00     0.188 C 
ATOM     31  O   UNK d   1      93.340  93.703 -40.817  0.00  0.00    -0.388 OA
ATOM     32  C   UNK d   1      92.634  94.766 -41.379  0.00  0.00     0.188 C 
ATOM     33  C   UNK d   1      91.405  94.102 -42.035  0.00  0.00     0.167 C 
ENDBRANCH   5  28
TORSDOF 7
ENDMDL
