MODEL 1
REMARK VINA RESULT:    -6.196      0.000      0.000
REMARK INTER + INTRA:          -9.339
REMARK INTER:                  -8.369
REMARK INTRA:                  -0.970
REMARK UNBOUND:                -0.970
REMARK  7 active torsions:
REMARK  status: ('A' for Active; 'I' for Inactive)
REMARK    1  A    between atoms: C_3  and  O_30 
REMARK    2  A    between atoms: C_5  and  O_29 
REMARK    3  A    between atoms: C_7  and  C_8 
REMARK    4  A    between atoms: N_9  and  N_10 
REMARK    5  A    between atoms: N_10  and  C_11 
REMARK    6  A    between atoms: C_13  and  N_23 
REMARK    7  A    between atoms: C_15  and  N_17 
ROOT
ATOM      1  C   UNK d   1      90.404  99.410 -45.150  0.00  0.00     0.774 A 
ATOM      2  N   UNK d   1      89.071  99.502 -45.199  0.00  0.00     0.133 NA
ATOM      3  C   UNK d   1      88.367 100.291 -44.344  0.00  0.00     0.756 A 
ATOM      4  N   UNK d   1      89.035 101.000 -43.420  0.00  0.00     0.131 NA
ATOM      5  C   UNK d   1      90.373 100.929 -43.345  0.00  0.00     0.756 A 
ATOM      6  N   UNK d   1      91.045 100.125 -44.221  0.00  0.00     0.133 NA
ENDROOT
BRANCH   1   7
ATOM      7  N   UNK d   1      91.074  98.579 -46.071  0.00  0.00    -0.105 N 
ATOM      8  H   UNK d   1      91.241  98.948 -47.030  0.00  0.00     0.208 HD
BRANCH   7   9
ATOM      9  N   UNK d   1      91.521  97.275 -45.720  0.00  0.00    -0.172 NA
ATOM     10  C   UNK d   1      91.069  96.690 -44.660  0.00  0.00     0.152 C 
BRANCH  10  11
ATOM     11  C   UNK d   1      91.459  95.372 -44.223  0.00  0.00     0.006 A 
ATOM     12  C   UNK d   1      91.867  95.115 -42.935  0.00  0.00     0.056 A 
ATOM     13 Br   UNK d   1      91.893  96.580 -41.716  0.00  0.00    -0.047 Br
ATOM     14  C   UNK d   1      92.248  93.851 -42.523  0.00  0.00     0.086 A 
ATOM     15  C   UNK d   1      92.219  92.803 -43.430  0.00  0.00     0.074 A 
ATOM     16  C   UNK d   1      91.816  93.034 -44.726  0.00  0.00     0.069 A 
ATOM     17  C   UNK d   1      91.442  94.316 -45.101  0.00  0.00     0.051 A 
BRANCH  14  18
ATOM     18  O   UNK d   1      92.653  93.624 -41.220  0.00  0.00    -0.359 OA
ATOM     19  H   UNK d   1      91.979  93.243 -40.569  0.00  0.00     0.217 HD
ENDBRANCH  14  18
BRANCH  16  20
ATOM     20  O   UNK d   1      91.804  91.959 -45.600  0.00  0.00    -0.361 OA
ATOM     21  H   UNK d   1      90.968  91.579 -46.023  0.00  0.00     0.217 HD
ENDBRANCH  16  20
ENDBRANCH  10  11
ENDBRANCH   7   9
ENDBRANCH   1   7
BRANCH   3  22
ATOM     22  N   UNK d   1      86.964 100.312 -44.479  0.00  0.00    -0.209 N 
ATOM     23  C   UNK d   1      86.292  99.165 -45.028  0.00  0.00     0.167 C 
ATOM     24  C   UNK d   1      85.262  98.754 -43.963  0.00  0.00     0.188 C 
ATOM     25  O   UNK d   1      84.393  99.840 -43.850  0.00  0.00    -0.388 OA
ATOM     26  C   UNK d   1      85.007 100.943 -43.265  0.00  0.00     0.188 C 
ATOM     27  C   UNK d   1      86.173 101.453 -44.088  0.00  0.00     0.167 C 
ENDBRANCH   3  22
BRANCH   5  28
ATOM     28  N   UNK d   1      91.090 101.678 -42.364  0.00  0.00    -0.209 N 
ATOM     29  C   UNK d   1      92.530 101.695 -42.271  0.00  0.00     0.167 C 
ATOM     30  C   UNK d   1      92.978 101.526 -40.834  0.00  0.00     0.188 C 
ATOM     31  O   UNK d   1      91.912 101.375 -39.960  0.00  0.00    -0.388 OA
ATOM     32  C   UNK d   1      91.066 102.495 -40.073  0.00  0.00     0.188 C 
ATOM     33  C   UNK d   1      90.341 102.463 -41.404  0.00  0.00     0.167 C 
ENDBRANCH   5  28
TORSDOF 7
ENDMDL
