MODEL 1
REMARK VINA RESULT:    -6.510      0.000      0.000
REMARK INTER + INTRA:          -8.915
REMARK INTER:                  -8.033
REMARK INTRA:                  -0.882
REMARK UNBOUND:                -0.882
REMARK  4 active torsions:
REMARK  status: ('A' for Active; 'I' for Inactive)
REMARK    1  A    between atoms: C_5  and  N_8 
REMARK    2  A    between atoms: C_10  and  C_14 
REMARK       I    between atoms: C_14  and  N_16 
REMARK    3  A    between atoms: N_16  and  C_17 
REMARK    4  A    between atoms: C_17  and  C_18 
ROOT
ATOM      1  N   UNK d   1      91.112  98.234 -43.774  0.00  0.00    -0.317 N 
ATOM      2  C   UNK d   1      92.227  99.118 -43.532  0.00  0.00     0.146 C 
ATOM      3  C   UNK d   1      91.666 100.453 -43.971  0.00  0.00     0.105 C 
ATOM      4  C   UNK d   1      90.296 100.425 -43.317  0.00  0.00     0.119 C 
ATOM      5  C   UNK d   1      89.941  99.001 -43.558  0.00  0.00     0.225 C 
ATOM      6  O   UNK d   1      88.772  98.558 -43.566  0.00  0.00    -0.273 OA
ENDROOT
BRANCH   3   7
ATOM      7  C   UNK d   1      92.483 101.587 -43.490  0.00  0.00     0.224 C 
ATOM      8  O   UNK d   1      92.143 102.774 -43.709  0.00  0.00    -0.273 OA
ATOM      9  N   UNK d   1      93.667 101.320 -42.771  0.00  0.00    -0.353 N 
ATOM     10  H   UNK d   1      93.956 100.343 -42.586  0.00  0.00     0.162 HD
BRANCH   9  11
ATOM     11  C   UNK d   1      94.493 102.395 -42.280  0.00  0.00     0.203 C 
BRANCH  11  12
ATOM     12  C   UNK d   1      94.401 102.512 -40.798  0.00  0.00     0.148 A 
ATOM     13  N   UNK d   1      93.326 102.885 -40.059  0.00  0.00    -0.319 N 
ATOM     14  C   UNK d   1      93.650 102.861 -38.755  0.00  0.00     0.130 A 
ATOM     15  C   UNK d   1      91.949 103.299 -40.258  0.00  0.00     0.132 C 
ATOM     16  N   UNK d   1      94.948 102.465 -38.717  0.00  0.00    -0.135 NA
ATOM     17  C   UNK d   1      92.483 103.269 -37.907  0.00  0.00     0.082 C 
ATOM     18  N   UNK d   1      95.399 102.256 -39.937  0.00  0.00    -0.133 NA
ATOM     19  C   UNK d   1      91.554 103.896 -38.923  0.00  0.00     0.028 C 
ENDBRANCH  11  12
ENDBRANCH   9  11
ENDBRANCH   3   7
BRANCH   1  20
ATOM     20  C   UNK d   1      91.246  96.869 -44.147  0.00  0.00     0.037 A 
ATOM     21  C   UNK d   1      91.598  95.861 -43.276  0.00  0.00     0.037 A 
ATOM     22  C   UNK d   1      91.730  94.542 -43.617  0.00  0.00    -0.043 A 
ATOM     23  C   UNK d   1      91.491  94.197 -44.942  0.00  0.00     0.017 A 
ATOM     24  C   UNK d   1      92.110  93.478 -42.649  0.00  0.00     0.049 C 
ATOM     25 Br   UNK d   1      91.669  92.369 -45.452  0.00  0.00    -0.051 Br
ATOM     26  C   UNK d   1      91.135  95.162 -45.862  0.00  0.00     0.022 A 
ATOM     27  C   UNK d   1      91.015  96.480 -45.468  0.00  0.00     0.031 A 
ENDBRANCH   1  20
TORSDOF 4
ENDMDL
