MODEL 1
REMARK VINA RESULT:    -5.558      0.000      0.000
REMARK INTER + INTRA:          -7.244
REMARK INTER:                  -6.371
REMARK INTRA:                  -0.873
REMARK UNBOUND:                -0.873
REMARK  3 active torsions:
REMARK  status: ('A' for Active; 'I' for Inactive)
REMARK    1  A    between atoms: C_3  and  N_8 
REMARK    2  A    between atoms: C_12  and  C_20 
REMARK    3  A    between atoms: C_20  and  O_21 
ROOT
ATOM      1  N   UNK d   1      90.982  97.905 -44.519  0.00  0.00    -0.250 N 
ATOM      2  C   UNK d   1      91.792  98.547 -45.491  0.00  0.00     0.239 C 
ATOM      3  O   UNK d   1      92.951  98.199 -45.779  0.00  0.00    -0.272 OA
ATOM      4  C   UNK d   1      91.076  99.683 -46.116  0.00  0.00     0.135 C 
ATOM      5  C   UNK d   1      91.699 101.003 -45.826  0.00  0.00     0.113 C 
ATOM      6  O   UNK d   1      90.647 101.810 -45.316  0.00  0.00    -0.363 OA
ATOM      7  C   UNK d   1      90.223 100.898 -44.315  0.00  0.00     0.159 C 
ATOM      8  C   UNK d   1      89.799  99.769 -45.262  0.00  0.00     0.128 C 
ATOM      9  C   UNK d   1      89.675  98.485 -44.555  0.00  0.00     0.239 C 
ATOM     10  O   UNK d   1      88.647  97.966 -44.068  0.00  0.00    -0.272 OA
ATOM     11  C   UNK d   1      91.511 100.606 -43.652  0.00  0.00     0.005 C 
ATOM     12  C   UNK d   1      92.465 100.851 -44.550  0.00  0.00     0.012 C 
ENDROOT
BRANCH   1  13
ATOM     13  C   UNK d   1      91.321  96.865 -43.614  0.00  0.00     0.062 A 
ATOM     14  C   UNK d   1      91.365  95.533 -43.960  0.00  0.00     0.038 A 
ATOM     15 Br   UNK d   1      90.936  95.090 -45.785  0.00  0.00    -0.049 Br
ATOM     16  C   UNK d   1      91.695  94.542 -43.062  0.00  0.00     0.021 A 
ATOM     17  C   UNK d   1      92.000  94.839 -41.761  0.00  0.00     0.002 A 
ATOM     18  C   UNK d   1      91.966  96.175 -41.376  0.00  0.00     0.002 A 
ATOM     19  C   UNK d   1      91.633  97.156 -42.290  0.00  0.00     0.031 A 
ENDBRANCH   1  13
BRANCH   5  20
ATOM     20  C   UNK d   1      92.450 101.656 -46.908  0.00  0.00     0.207 C 
BRANCH  20  21
ATOM     21  O   UNK d   1      93.628 100.918 -47.129  0.00  0.00    -0.398 OA
ATOM     22  H   UNK d   1      94.415 101.447 -46.807  0.00  0.00     0.209 HD
ENDBRANCH  20  21
ENDBRANCH   5  20
TORSDOF 3
ENDMDL
