/Users/jonathanwahrer/Desktop/Msc/3_Semester/Drug_Design_Praktikum/waehrer_HTS_screening/HTS_experiment/out/docking_results/vina_output/4agl/0064_docked.pdbqt
 OpenBabel03202223023D

 22 25  0  0  1  0  0  0  0  0999 V2000
   90.9820   97.9050  -44.5190 N   0  0  0  0  0  0  0  0  0  0  0  0
   91.7920   98.5470  -45.4910 C   0  0  0  0  0  0  0  0  0  0  0  0
   92.9510   98.1990  -45.7790 O   0  0  0  0  0  0  0  0  0  0  0  0
   91.0760   99.6830  -46.1160 C   0  0  2  0  0  3  0  0  0  0  0  0
   91.6990  101.0030  -45.8260 C   0  0  1  0  0  0  0  0  0  0  0  0
   90.6470  101.8100  -45.3160 O   0  0  0  0  0  0  0  0  0  0  0  0
   90.2230  100.8980  -44.3150 C   0  0  1  0  0  3  0  0  0  0  0  0
   89.7990   99.7690  -45.2620 C   0  0  2  0  0  3  0  0  0  0  0  0
   89.6750   98.4850  -44.5550 C   0  0  0  0  0  0  0  0  0  0  0  0
   88.6470   97.9660  -44.0680 O   0  0  0  0  0  0  0  0  0  0  0  0
   91.5110  100.6060  -43.6520 C   0  0  0  0  0  2  0  0  0  0  0  0
   92.4650  100.8510  -44.5500 C   0  0  0  0  0  2  0  0  0  0  0  0
   91.3210   96.8650  -43.6140 C   0  0  0  0  0  0  0  0  0  0  0  0
   91.3650   95.5330  -43.9600 C   0  0  0  0  0  0  0  0  0  0  0  0
   90.9360   95.0900  -45.7850 Br  0  0  0  0  0  0  0  0  0  0  0  0
   91.6950   94.5420  -43.0620 C   0  0  0  0  0  3  0  0  0  0  0  0
   92.0000   94.8390  -41.7610 C   0  0  0  0  0  3  0  0  0  0  0  0
   91.9660   96.1750  -41.3760 C   0  0  0  0  0  3  0  0  0  0  0  0
   91.6330   97.1560  -42.2900 C   0  0  0  0  0  3  0  0  0  0  0  0
   92.4500  101.6560  -46.9080 C   0  0  0  0  0  2  0  0  0  0  0  0
   93.6280  100.9180  -47.1290 O   0  0  0  0  0  0  0  0  0  0  0  0
   94.4150  101.4470  -46.8070 H   0  0  0  0  0  0  0  0  0  0  0  0
  1 13  1  0  0  0  0
  2  1  1  0  0  0  0
  3  2  2  0  0  0  0
  4  5  1  0  0  0  0
  4  2  1  1  0  0  0
  4  8  1  0  0  0  0
  5 20  1  6  0  0  0
  5  6  1  0  0  0  0
  5 12  1  0  0  0  0
  6  7  1  0  0  0  0
  7 11  1  1  0  0  0
  8  9  1  1  0  0  0
  8  7  1  0  0  0  0
  9  1  1  0  0  0  0
  9 10  2  0  0  0  0
 12 11  1  0  0  0  0
 13 19  1  0  0  0  0
 14 13  2  0  0  0  0
 14 16  1  0  0  0  0
 15 14  1  0  0  0  0
 16 17  2  0  0  0  0
 17 18  1  0  0  0  0
 19 18  2  0  0  0  0
 21 20  1  0  0  0  0
 21 22  1  0  0  0  0
M  END
>  <Pose>
1

>  <Score>
-5.558

$$$$
