MODEL 1
REMARK VINA RESULT:    -5.774      0.000      0.000
REMARK INTER + INTRA:          -6.276
REMARK INTER:                  -6.786
REMARK INTRA:                   0.510
REMARK UNBOUND:                 0.510
REMARK  3 active torsions:
REMARK  status: ('A' for Active; 'I' for Inactive)
REMARK    1  A    between atoms: C_3  and  N_8 
REMARK    2  A    between atoms: C_13  and  C_17 
REMARK    3  A    between atoms: C_17  and  O_19 
ROOT
ATOM      1  N   UNK d   1      91.563  97.570 -44.302  0.00  0.00    -0.313 N 
ATOM      2  C   UNK d   1      92.613  98.104 -45.191  0.00  0.00     0.175 C 
ATOM      3  C   UNK d   1      92.265  99.518 -45.238  0.00  0.00     0.109 C 
ATOM      4  O   UNK d   1      92.769 100.312 -44.193  0.00  0.00    -0.364 OA
ATOM      5  C   UNK d   1      92.039 101.481 -44.536  0.00  0.00     0.160 C 
ATOM      6  C   UNK d   1      90.632 100.909 -44.313  0.00  0.00     0.134 C 
ATOM      7  C   UNK d   1      90.738  99.639 -45.099  0.00  0.00     0.135 C 
ATOM      8  C   UNK d   1      90.417  98.406 -44.400  0.00  0.00     0.233 C 
ATOM      9  O   UNK d   1      89.297  98.100 -43.940  0.00  0.00    -0.272 OA
ATOM     10  C   UNK d   1      92.370 101.593 -45.987  0.00  0.00     0.005 C 
ATOM     11  C   UNK d   1      92.637 100.331 -46.391  0.00  0.00     0.012 C 
ENDROOT
BRANCH   1  12
ATOM     12  C   UNK d   1      91.645  96.422 -43.470  0.00  0.00     0.054 A 
ATOM     13  C   UNK d   1      91.551  95.134 -43.968  0.00  0.00     0.037 A 
ATOM     14 Br   UNK d   1      91.305  94.797 -45.807  0.00  0.00    -0.049 Br
ATOM     15  C   UNK d   1      91.636  94.027 -43.121  0.00  0.00     0.021 A 
ATOM     16  C   UNK d   1      91.815  94.177 -41.772  0.00  0.00     0.002 A 
ATOM     17  C   UNK d   1      91.909  95.433 -41.263  0.00  0.00     0.002 A 
ATOM     18  C   UNK d   1      91.827  96.520 -42.096  0.00  0.00     0.031 A 
ENDBRANCH   1  12
BRANCH   6  19
ATOM     19  C   UNK d   1      90.570 100.609 -42.847  0.00  0.00     0.266 C 
ATOM     20  O   UNK d   1      91.561 100.263 -42.188  0.00  0.00    -0.265 OA
BRANCH  19  21
ATOM     21  O   UNK d   1      89.345 100.722 -42.201  0.00  0.00    -0.326 OA
ATOM     22  C   UNK d   1      88.273 101.387 -42.880  0.00  0.00     0.213 C 
ENDBRANCH  19  21
ENDBRANCH   6  19
TORSDOF 3
ENDMDL
