/Users/jonathanwahrer/Desktop/Msc/3_Semester/Drug_Design_Praktikum/waehrer_HTS_screening/HTS_experiment/out/docking_results/vina_output/4agl/0081_docked.pdbqt
 OpenBabel03202223023D

 22 25  0  0  0  0  0  0  0  0999 V2000
   91.1800   99.8920  -43.4280 C   0  0  0  0  0  0  0  0  0  0  0  0
   91.0950   99.2010  -44.5790 N   0  0  0  0  0  0  0  0  0  0  0  0
   91.2710   97.9020  -44.3300 N   0  0  0  0  0  0  0  0  0  0  0  0
   91.4720   97.7350  -43.0070 C   0  0  0  0  0  0  0  0  0  0  0  0
   91.4120   98.9700  -42.4770 N   0  0  0  0  0  0  0  0  0  0  0  0
   91.6790   96.4610  -42.5130 C   0  0  0  0  0  0  0  0  0  0  0  0
   91.6870   95.3460  -43.3260 C   0  0  0  0  0  0  0  0  0  0  0  0
   91.9080   94.2380  -42.5910 N   0  0  0  0  0  0  0  0  0  0  0  0
   92.0400   94.6220  -41.3370 N   0  0  0  0  0  0  0  0  0  0  0  0
   91.9070   95.9780  -41.2410 C   0  0  0  0  0  3  0  0  0  0  0  0
   91.9940   92.8600  -43.0480 C   0  0  0  0  0  1  0  0  0  0  0  0
   91.4830   95.5570  -44.6390 N   0  0  0  0  0  0  0  0  0  0  0  0
   91.2800   96.8130  -45.1190 C   0  0  0  0  0  3  0  0  0  0  0  0
   91.0440  101.3790  -43.2460 C   0  0  0  0  0  2  0  0  0  0  0  0
   92.2110  101.9410  -42.6070 N   0  0  0  0  0  0  0  0  0  0  0  0
   92.3410  102.1270  -41.2860 C   0  0  0  0  0  0  0  0  0  0  0  0
   93.5810  102.6770  -41.0900 C   0  0  0  0  0  0  0  0  0  0  0  0
   91.3550  101.8130  -40.2020 C   0  0  0  0  0  1  0  0  0  0  0  0
   94.3540  103.1720  -39.4270 Br  0  0  0  0  0  0  0  0  0  0  0  0
   94.1930  102.8180  -42.3080 C   0  0  0  0  0  0  0  0  0  0  0  0
   93.3070  102.3500  -43.2160 N   0  0  0  0  0  0  0  0  0  0  0  0
   95.5640  103.3740  -42.5980 C   0  0  0  0  0  1  0  0  0  0  0  0
  1 14  1  0  0  0  0
  1  5  1  0  0  0  0
  2  3  1  0  0  0  0
  2  1  2  0  0  0  0
  3  4  1  0  0  0  0
  4  6  1  0  0  0  0
  4  5  2  0  0  0  0
  6 10  1  0  0  0  0
  7  8  1  0  0  0  0
  7  6  2  0  0  0  0
  8  9  1  0  0  0  0
  9 10  2  0  0  0  0
 11  8  1  0  0  0  0
 12  7  1  0  0  0  0
 13 12  2  0  0  0  0
 13  3  1  0  0  0  0
 14 15  1  0  0  0  0
 15 16  1  0  0  0  0
 16 17  2  0  0  0  0
 16 18  1  0  0  0  0
 17 19  1  0  0  0  0
 20 17  1  0  0  0  0
 21 15  1  0  0  0  0
 21 20  2  0  0  0  0
 22 20  1  0  0  0  0
M  END
>  <Pose>
1

>  <Score>
-5.855

$$$$
