MODEL 1
REMARK VINA RESULT:    -5.855      0.000      0.000
REMARK INTER + INTRA:          -6.941
REMARK INTER:                  -6.540
REMARK INTRA:                  -0.401
REMARK UNBOUND:                -0.401
REMARK  2 active torsions:
REMARK  status: ('A' for Active; 'I' for Inactive)
REMARK    1  A    between atoms: N_4  and  C_8 
REMARK    2  A    between atoms: C_8  and  C_9 
ROOT
ATOM      1  C   UNK d   1      91.180  99.892 -43.428  0.00  0.00     0.168 A 
ATOM      2  N   UNK d   1      91.095  99.201 -44.579  0.00  0.00    -0.148 NA
ATOM      3  N   UNK d   1      91.271  97.902 -44.330  0.00  0.00    -0.206 N 
ATOM      4  C   UNK d   1      91.472  97.735 -43.007  0.00  0.00     0.169 A 
ATOM      5  N   UNK d   1      91.412  98.970 -42.477  0.00  0.00    -0.209 NA
ATOM      6  C   UNK d   1      91.679  96.461 -42.513  0.00  0.00     0.079 A 
ATOM      7  C   UNK d   1      91.687  95.346 -43.326  0.00  0.00     0.162 A 
ATOM      8  N   UNK d   1      91.908  94.238 -42.591  0.00  0.00    -0.256 N 
ATOM      9  N   UNK d   1      92.040  94.622 -41.337  0.00  0.00    -0.182 NA
ATOM     10  C   UNK d   1      91.907  95.978 -41.241  0.00  0.00     0.158 A 
ATOM     11  C   UNK d   1      91.994  92.860 -43.048  0.00  0.00     0.182 C 
ATOM     12  N   UNK d   1      91.483  95.557 -44.639  0.00  0.00    -0.222 NA
ATOM     13  C   UNK d   1      91.280  96.813 -45.119  0.00  0.00     0.239 A 
ENDROOT
BRANCH   1  14
ATOM     14  C   UNK d   1      91.044 101.379 -43.246  0.00  0.00     0.233 C 
BRANCH  14  15
ATOM     15  N   UNK d   1      92.211 101.941 -42.607  0.00  0.00    -0.265 N 
ATOM     16  C   UNK d   1      92.341 102.127 -41.286  0.00  0.00     0.046 A 
ATOM     17  C   UNK d   1      93.581 102.677 -41.090  0.00  0.00     0.060 A 
ATOM     18  C   UNK d   1      91.355 101.813 -40.202  0.00  0.00     0.071 C 
ATOM     19 Br   UNK d   1      94.354 103.172 -39.427  0.00  0.00    -0.047 Br
ATOM     20  C   UNK d   1      94.193 102.818 -42.308  0.00  0.00     0.070 A 
ATOM     21  N   UNK d   1      93.307 102.350 -43.216  0.00  0.00    -0.176 NA
ATOM     22  C   UNK d   1      95.564 103.374 -42.598  0.00  0.00     0.074 C 
ENDBRANCH  14  15
ENDBRANCH   1  14
TORSDOF 2
ENDMDL
