/Users/jonathanwahrer/Desktop/Msc/3_Semester/Drug_Design_Praktikum/waehrer_HTS_screening/HTS_experiment/out/docking_results/vina_output/4agl/0085_docked.pdbqt
 OpenBabel03202223023D

 26 29  0  0  0  0  0  0  0  0999 V2000
   92.4780   99.4620  -44.1430 C   0  0  0  0  0  0  0  0  0  0  0  0
   92.5680   99.7430  -45.5210 C   0  0  0  0  0  0  0  0  0  0  0  0
   92.7330   98.9130  -46.5860 N   0  0  0  0  0  0  0  0  0  0  0  0
   92.7540   99.6570  -47.6500 O   0  0  0  0  0  0  0  0  0  0  0  0
   92.6130  100.9070  -47.3360 N   0  0  0  0  0  0  0  0  0  0  0  0
   92.4910  101.0220  -46.0070 C   0  0  0  0  0  0  0  0  0  0  0  0
   92.3220  102.1160  -45.1840 C   0  0  0  0  0  0  0  0  0  0  0  0
   92.2340  101.8370  -43.8330 C   0  0  0  0  0  3  0  0  0  0  0  0
   92.3110  100.5400  -43.3280 C   0  0  0  0  0  3  0  0  0  0  0  0
   92.5710   98.1010  -43.7560 N   0  0  0  0  0  0  0  0  0  0  0  0
   91.5010   97.2150  -43.6580 C   0  0  0  0  0  0  0  0  0  0  0  0
   90.3100   97.6150  -43.9370 O   0  0  0  0  0  0  0  0  0  0  0  0
   93.5250   97.6890  -43.5260 H   0  0  0  0  0  0  0  0  0  0  0  0
   91.6380   95.8030  -43.2450 C   0  0  0  0  0  0  0  0  0  0  0  0
   91.5070   94.6770  -43.9910 C   0  0  0  0  0  0  0  0  0  0  0  0
   91.1480   94.5020  -45.8580 Br  0  0  0  0  0  0  0  0  0  0  0  0
   91.7080   93.5870  -43.1200 C   0  0  0  0  0  3  0  0  0  0  0  0
   91.9430   94.1260  -41.9290 N   0  0  0  0  0  0  0  0  0  0  0  0
   91.9140   95.4320  -41.9480 N   0  0  0  0  0  0  0  0  0  0  0  0
   92.1250   96.3170  -40.8320 C   0  0  0  0  0  1  0  0  0  0  0  0
   92.2420  103.4350  -45.6680 N   0  0  0  0  0  0  0  0  0  0  0  0
   90.9210  103.9990  -45.9330 C   0  0  0  0  0  2  0  0  0  0  0  0
   91.0150  105.3410  -46.6050 C   0  0  0  0  0  2  0  0  0  0  0  0
   91.9860  105.4710  -47.5420 O   0  0  0  0  0  0  0  0  0  0  0  0
   93.1340  104.7470  -47.3990 C   0  0  0  0  0  2  0  0  0  0  0  0
   93.3100  104.3460  -45.9500 C   0  0  0  0  0  2  0  0  0  0  0  0
  1 10  1  0  0  0  0
  1  9  2  0  0  0  0
  2  1  1  0  0  0  0
  3  2  2  0  0  0  0
  4  5  1  0  0  0  0
  4  3  1  0  0  0  0
  5  6  2  0  0  0  0
  6  2  1  0  0  0  0
  6  7  1  0  0  0  0
  7  8  2  0  0  0  0
  8  9  1  0  0  0  0
 10 11  1  0  0  0  0
 10 13  1  0  0  0  0
 11 14  1  0  0  0  0
 12 11  2  0  0  0  0
 14 19  1  0  0  0  0
 15 14  2  0  0  0  0
 15 17  1  0  0  0  0
 16 15  1  0  0  0  0
 17 18  2  0  0  0  0
 19 18  1  0  0  0  0
 19 20  1  0  0  0  0
 21  7  1  0  0  0  0
 22 21  1  0  0  0  0
 23 22  1  0  0  0  0
 24 25  1  0  0  0  0
 24 23  1  0  0  0  0
 25 26  1  0  0  0  0
 26 21  1  0  0  0  0
M  END
>  <Pose>
1

>  <Score>
-5.659

$$$$
