/Users/jonathanwahrer/Desktop/Msc/3_Semester/Drug_Design_Praktikum/waehrer_HTS_screening/HTS_experiment/out/docking_results/vina_output/4agl/0095_docked.pdbqt
 OpenBabel03202223033D

 26 29  0  0  0  0  0  0  0  0999 V2000
   90.6800   99.4480  -42.7450 C   0  0  0  0  0  0  0  0  0  0  0  0
   89.5000   99.9050  -42.8880 O   0  0  0  0  0  0  0  0  0  0  0  0
   91.0600   98.1330  -42.8660 N   0  0  0  0  0  0  0  0  0  0  0  0
   89.7750   97.7720  -43.1320 H   0  0  0  0  0  0  0  0  0  0  0  0
   91.7360  100.4770  -42.4120 C   0  0  0  0  0  0  0  0  0  0  0  0
   91.8460  101.0030  -41.1500 C   0  0  0  0  0  3  0  0  0  0  0  0
   92.8360  101.9610  -40.9050 C   0  0  0  0  0  0  0  0  0  0  0  0
   93.0080  102.7040  -39.1720 Br  0  0  0  0  0  0  0  0  0  0  0  0
   93.6820  102.3660  -41.9090 C   0  0  0  0  0  3  0  0  0  0  0  0
   93.5700  101.8360  -43.1780 C   0  0  0  0  0  3  0  0  0  0  0  0
   92.5750  100.8740  -43.4190 C   0  0  0  0  0  0  0  0  0  0  0  0
   92.4080  100.2820  -44.6950 N   0  0  0  0  0  0  0  0  0  0  0  0
   93.1350   99.2720  -45.1350 N   0  0  0  0  0  0  0  0  0  0  0  0
   92.7660   98.9250  -46.3490 N   0  0  0  0  0  0  0  0  0  0  0  0
   91.7760   99.7190  -46.7220 N   0  0  0  0  0  0  0  0  0  0  0  0
   91.5610  100.5530  -45.6990 C   0  0  0  0  0  3  0  0  0  0  0  0
   91.4370   96.8250  -42.9850 C   0  0  0  0  0  2  0  0  0  0  0  0
   91.0780   96.1980  -44.3220 C   0  0  0  0  0  0  0  0  0  0  0  0
   91.3270   94.9170  -44.6690 N   0  0  0  0  0  0  0  0  0  0  0  0
   90.8860   94.6800  -45.9110 C   0  0  0  0  0  0  0  0  0  0  0  0
   91.9230   93.9110  -43.9680 C   0  0  0  0  0  3  0  0  0  0  0  0
   90.3540   95.8370  -46.3360 N   0  0  0  0  0  0  0  0  0  0  0  0
   91.0320   93.4130  -46.4910 C   0  0  0  0  0  3  0  0  0  0  0  0
   90.4700   96.7620  -45.3720 N   0  0  0  0  0  0  0  0  0  0  0  0
   91.6290   92.4000  -45.7930 C   0  0  0  0  0  3  0  0  0  0  0  0
   92.0840   92.6450  -44.5120 C   0  0  0  0  0  3  0  0  0  0  0  0
  1  5  1  0  0  0  0
  2  1  2  0  0  0  0
  3  1  1  0  0  0  0
  4  3  1  0  0  0  0
  5  6  1  0  0  0  0
  6  7  2  0  0  0  0
  7  8  1  0  0  0  0
  9  7  1  0  0  0  0
 10  9  2  0  0  0  0
 11 10  1  0  0  0  0
 11  5  2  0  0  0  0
 12 11  1  0  0  0  0
 13 12  1  0  0  0  0
 14 13  2  0  0  0  0
 15 14  1  0  0  0  0
 15 16  2  0  0  0  0
 16 12  1  0  0  0  0
 17  3  1  0  0  0  0
 18 17  1  0  0  0  0
 19 18  1  0  0  0  0
 19 21  1  0  0  0  0
 20 19  1  0  0  0  0
 22 20  2  0  0  0  0
 22 24  1  0  0  0  0
 23 20  1  0  0  0  0
 23 25  2  0  0  0  0
 24 18  2  0  0  0  0
 25 26  1  0  0  0  0
 26 21  2  0  0  0  0
M  END
>  <Pose>
1

>  <Score>
-6.686

$$$$
