MODEL 1
REMARK VINA RESULT:    -6.686      0.000      0.000
REMARK INTER + INTRA:          -8.734
REMARK INTER:                  -8.249
REMARK INTRA:                  -0.485
REMARK UNBOUND:                -0.485
REMARK  4 active torsions:
REMARK  status: ('A' for Active; 'I' for Inactive)
REMARK    1  A    between atoms: C_4  and  C_13 
REMARK    2  A    between atoms: C_5  and  N_8 
REMARK       I    between atoms: C_13  and  N_15 
REMARK    3  A    between atoms: N_15  and  C_16 
REMARK    4  A    between atoms: C_16  and  C_17 
ROOT
ATOM      1  C   UNK d   1      90.680  99.448 -42.745  0.00  0.00     0.254 C 
ATOM      2  O   UNK d   1      89.500  99.905 -42.888  0.00  0.00    -0.268 OA
ATOM      3  N   UNK d   1      91.060  98.133 -42.866  0.00  0.00    -0.350 N 
ATOM      4  H   UNK d   1      89.775  97.772 -43.132  0.00  0.00     0.163 HD
ENDROOT
BRANCH   1   5
ATOM      5  C   UNK d   1      91.736 100.477 -42.412  0.00  0.00     0.062 A 
ATOM      6  C   UNK d   1      91.846 101.003 -41.150  0.00  0.00     0.038 A 
ATOM      7  C   UNK d   1      92.836 101.961 -40.905  0.00  0.00     0.012 A 
ATOM      8 Br   UNK d   1      93.008 102.704 -39.172  0.00  0.00    -0.051 Br
ATOM      9  C   UNK d   1      93.682 102.366 -41.909  0.00  0.00     0.021 A 
ATOM     10  C   UNK d   1      93.570 101.836 -43.178  0.00  0.00     0.034 A 
ATOM     11  C   UNK d   1      92.575 100.874 -43.419  0.00  0.00     0.077 A 
BRANCH  11  12
ATOM     12  N   UNK d   1      92.408 100.282 -44.695  0.00  0.00    -0.205 N 
ATOM     13  N   UNK d   1      93.135  99.272 -45.135  0.00  0.00    -0.040 NA
ATOM     14  N   UNK d   1      92.766  98.925 -46.349  0.00  0.00    -0.023 NA
ATOM     15  N   UNK d   1      91.776  99.719 -46.722  0.00  0.00    -0.122 NA
ATOM     16  C   UNK d   1      91.561 100.553 -45.699  0.00  0.00     0.262 A 
ENDBRANCH  11  12
ENDBRANCH   1   5
BRANCH   3  17
ATOM     17  C   UNK d   1      91.437  96.825 -42.985  0.00  0.00     0.203 C 
BRANCH  17  18
ATOM     18  C   UNK d   1      91.078  96.198 -44.322  0.00  0.00     0.152 A 
ATOM     19  N   UNK d   1      91.327  94.917 -44.669  0.00  0.00    -0.290 N 
ATOM     20  C   UNK d   1      90.886  94.680 -45.911  0.00  0.00     0.157 A 
ATOM     21  C   UNK d   1      91.923  93.911 -43.968  0.00  0.00     0.100 A 
ATOM     22  N   UNK d   1      90.354  95.837 -46.336  0.00  0.00    -0.130 NA
ATOM     23  C   UNK d   1      91.032  93.413 -46.491  0.00  0.00     0.053 A 
ATOM     24  N   UNK d   1      90.470  96.762 -45.372  0.00  0.00    -0.132 NA
ATOM     25  C   UNK d   1      91.629  92.400 -45.793  0.00  0.00     0.005 A 
ATOM     26  C   UNK d   1      92.084  92.645 -44.512  0.00  0.00     0.018 A 
ENDBRANCH  17  18
ENDBRANCH   3  17
TORSDOF 4
ENDMDL
