MODEL 1
REMARK VINA RESULT:    -6.096      0.000      0.000
REMARK INTER + INTRA:          -8.593
REMARK INTER:                  -7.522
REMARK INTRA:                  -1.071
REMARK UNBOUND:                -1.071
REMARK  4 active torsions:
REMARK  status: ('A' for Active; 'I' for Inactive)
REMARK    1  A    between atoms: C_4  and  C_10 
REMARK    2  A    between atoms: C_5  and  O_8 
REMARK    3  A    between atoms: C_18  and  C_19 
REMARK    4  A    between atoms: C_19  and  N_20 
ROOT
ATOM      1  C   UNK d   1      91.666  98.961 -42.226  0.00  0.00     0.055 C 
ATOM      2  C   UNK d   1      91.689  97.709 -42.593  0.00  0.00     0.128 A 
ATOM      3  O   UNK d   1      91.276  97.247 -43.833  0.00  0.00    -0.305 OA
ATOM      4  C   UNK d   1      91.412  95.876 -43.942  0.00  0.00     0.101 A 
ATOM      5  C   UNK d   1      91.921  95.346 -42.778  0.00  0.00     0.051 A 
ATOM      6  C   UNK d   1      92.136  93.988 -42.671  0.00  0.00     0.021 A 
ATOM      7  C   UNK d   1      91.834  93.168 -43.738  0.00  0.00     0.041 A 
ATOM      8  C   UNK d   1      91.313  93.735 -44.918  0.00  0.00     0.118 A 
ATOM      9  C   UNK d   1      91.094  95.073 -45.047  0.00  0.00     0.039 A 
ATOM     10  O   UNK d   1      91.053  92.782 -45.915  0.00  0.00    -0.191 OA
ATOM     11  C   UNK d   1      92.113  96.496 -41.888  0.00  0.00     0.218 A 
ATOM     12  O   UNK d   1      92.561  96.463 -40.721  0.00  0.00    -0.284 OA
ENDROOT
BRANCH   1  13
ATOM     13  C   UNK d   1      91.211 100.086 -43.026  0.00  0.00     0.001 A 
ATOM     14  C   UNK d   1      92.075 100.941 -43.674  0.00  0.00     0.033 A 
ATOM     15  C   UNK d   1      91.670 102.011 -44.418  0.00  0.00     0.011 A 
ATOM     16 Br   UNK d   1      92.837 103.213 -45.326  0.00  0.00    -0.051 Br
ATOM     17  C   UNK d   1      90.301 102.238 -44.518  0.00  0.00     0.022 A 
ATOM     18  C   UNK d   1      89.381 101.409 -43.886  0.00  0.00     0.039 A 
ATOM     19  C   UNK d   1      89.844 100.352 -43.152  0.00  0.00     0.078 A 
BRANCH  19  20
ATOM     20  O   UNK d   1      88.957  99.512 -42.508  0.00  0.00    -0.355 OA
ATOM     21  C   UNK d   1      87.743  99.160 -43.118  0.00  0.00     0.210 C 
ENDBRANCH  19  20
ENDBRANCH   1  13
BRANCH   9  22
ATOM     22  C   UNK d   1      90.584  95.708 -46.230  0.00  0.00     0.279 C 
BRANCH  22  23
ATOM     23  N   UNK d   1      89.210  95.824 -46.502  0.00  0.00    -0.063 N 
ATOM     24  C   UNK d   1      88.571  97.013 -46.006  0.00  0.00     0.261 C 
ATOM     25  C   UNK d   1      88.747  98.222 -46.891  0.00  0.00     0.195 C 
ATOM     26  O   UNK d   1      89.598  98.004 -47.966  0.00  0.00    -0.388 OA
ATOM     27  C   UNK d   1      89.044  96.960 -48.698  0.00  0.00     0.195 C 
ATOM     28  C   UNK d   1      88.907  95.682 -47.938  0.00  0.00     0.261 C 
ATOM     29  H   UNK d   1      88.710  95.009 -46.091  0.00  0.00     0.280 HD
ENDBRANCH  22  23
ENDBRANCH   9  22
TORSDOF 4
ENDMDL
