/Users/jonathanwahrer/Desktop/Msc/3_Semester/Drug_Design_Praktikum/waehrer_HTS_screening/HTS_experiment/out/docking_results/vina_output/4agl/0107_docked.pdbqt
 OpenBabel03202223033D

 31 34  0  0  0  0  0  0  0  0999 V2000
   90.8340   91.1150  -48.0320 C   0  0  0  0  0  0  0  0  0  0  0  0
   90.3380   92.0930  -48.8190 N   0  0  0  0  0  4  0  0  0  0  0  0
   89.7460   91.8220  -49.9880 C   0  0  0  0  0  0  0  0  0  0  0  0
   89.6520   90.5400  -50.3740 N   0  0  0  0  0  0  0  0  0  0  0  0
   90.1280   89.5050  -49.6320 C   0  0  0  0  0  0  0  0  0  0  0  0
   90.7170   89.8560  -48.4560 N   0  0  0  0  0  2  0  0  0  0  0  0
   91.4680   91.3680  -46.7840 N   0  0  0  0  0  0  0  0  0  0  0  0
   92.0950   90.6450  -46.3360 H   0  0  0  0  0  0  0  0  0  0  0  0
   91.3050   92.5640  -46.0840 N   0  0  0  0  0  0  0  0  0  0  0  0
   91.9790   92.8810  -45.0430 C   0  0  0  0  0  3  0  0  0  0  0  0
   91.7950   94.1360  -44.3240 C   0  0  0  0  0  0  0  0  0  0  0  0
   91.4340   95.2910  -44.9730 C   0  0  0  0  0  3  0  0  0  0  0  0
   91.2630   96.4710  -44.2840 C   0  0  0  0  0  0  0  0  0  0  0  0
   90.7640   98.0740  -45.1860 Br  0  0  0  0  0  0  0  0  0  0  0  0
   91.4490   96.5430  -42.9090 C   0  0  0  0  0  3  0  0  0  0  0  0
   91.8120   95.3810  -42.2480 C   0  0  0  0  0  3  0  0  0  0  0  0
   91.9830   94.1910  -42.9600 C   0  0  0  0  0  0  0  0  0  0  0  0
   92.3470   93.0070  -42.3270 O   0  0  0  0  0  0  0  0  0  0  0  0
   93.5960   92.8000  -41.7110 C   0  0  0  0  0  1  0  0  0  0  0  0
   89.2250   92.8510  -50.8170 N   0  0  0  0  0  0  0  0  0  0  0  0
   89.2620   92.7760  -52.2610 C   0  0  0  0  0  2  0  0  0  0  0  0
   89.6490   94.1140  -52.8730 C   0  0  0  0  0  2  0  0  0  0  0  0
   88.9450   95.1560  -52.2580 O   0  0  0  0  0  0  0  0  0  0  0  0
   89.2280   95.2390  -50.9160 C   0  0  0  0  0  2  0  0  0  0  0  0
   88.6310   94.0300  -50.2290 C   0  0  0  0  0  2  0  0  0  0  0  0
   90.0260   88.1630  -50.0420 N   0  0  0  0  0  0  0  0  0  0  0  0
   89.2250   87.7870  -51.1690 C   0  0  0  0  0  2  0  0  0  0  0  0
   88.2790   86.6850  -50.6950 C   0  0  0  0  0  2  0  0  0  0  0  0
   89.0660   85.6740  -50.1700 O   0  0  0  0  0  0  0  0  0  0  0  0
   89.7120   86.0420  -49.0130 C   0  0  0  0  0  2  0  0  0  0  0  0
   90.7300   87.1390  -49.3270 C   0  0  0  0  0  2  0  0  0  0  0  0
  1  7  1  0  0  0  0
  2  1  2  0  0  0  0
  3  2  2  0  0  0  0
  4  3  1  0  0  0  0
  4  5  2  0  0  0  0
  5  6  1  0  0  0  0
  6  1  1  0  0  0  0
  7  8  1  0  0  0  0
  7  9  1  0  0  0  0
  9 10  2  0  0  0  0
 10 11  1  0  0  0  0
 11 17  1  0  0  0  0
 12 11  2  0  0  0  0
 12 13  1  0  0  0  0
 13 15  2  0  0  0  0
 14 13  1  0  0  0  0
 15 16  1  0  0  0  0
 17 18  1  0  0  0  0
 17 16  2  0  0  0  0
 18 19  1  0  0  0  0
 20 25  1  0  0  0  0
 20  3  1  0  0  0  0
 21 20  1  0  0  0  0
 22 21  1  0  0  0  0
 22 23  1  0  0  0  0
 23 24  1  0  0  0  0
 24 25  1  0  0  0  0
 26  5  1  0  0  0  0
 26 31  1  0  0  0  0
 27 28  1  0  0  0  0
 27 26  1  0  0  0  0
 28 29  1  0  0  0  0
 29 30  1  0  0  0  0
 31 30  1  0  0  0  0
M  END
>  <Pose>
1

>  <Score>
-6.559

$$$$
