MODEL 1
REMARK VINA RESULT:    -7.096      0.000      0.000
REMARK INTER + INTRA:          -9.630
REMARK INTER:                  -9.171
REMARK INTRA:                  -0.459
REMARK UNBOUND:                -0.459
REMARK  5 active torsions:
REMARK  status: ('A' for Active; 'I' for Inactive)
REMARK    1  A    between atoms: C_4  and  C_10 
REMARK    2  A    between atoms: C_5  and  O_8 
REMARK    3  A    between atoms: N_15  and  C_25 
REMARK    4  A    between atoms: C_25  and  C_26 
REMARK    5  A    between atoms: C_26  and  O_27 
ROOT
ATOM      1  C   UNK d   1      90.326  96.878 -45.438  0.00  0.00     0.188 A 
ATOM      2  N   UNK d   1      90.895  95.931 -44.725  0.00  0.00    -0.106 N 
ATOM      3  C   UNK d   1      90.947  94.760 -45.435  0.00  0.00     0.736 A 
ATOM      4  N   UNK d   1      90.375  95.016 -46.634  0.00  0.00     0.045 NA
ATOM      5  N   UNK d   1      90.005  96.252 -46.651  0.00  0.00    -0.114 NA
ATOM      6  N   UNK d   1      91.526  93.811 -44.697  0.00  0.00    -0.168 N 
ATOM      7  C   UNK d   1      91.839  94.368 -43.516  0.00  0.00     0.165 A 
ATOM      8  C   UNK d   1      91.448  95.702 -43.506  0.00  0.00     0.170 A 
ATOM      9  N   UNK d   1      91.613  96.487 -42.459  0.00  0.00    -0.287 N 
ATOM     10  C   UNK d   1      92.206  95.927 -41.357  0.00  0.00     0.330 A 
ATOM     11  O   UNK d   1      92.414  96.584 -40.306  0.00  0.00    -0.246 OA
ATOM     12  N   UNK d   1      92.602  94.637 -41.332  0.00  0.00    -0.273 N 
ATOM     13  C   UNK d   1      92.432  93.844 -42.383  0.00  0.00     0.280 A 
ATOM     14  O   UNK d   1      92.779  92.637 -42.421  0.00  0.00    -0.265 OA
ATOM     15  C   UNK d   1      91.195  97.843 -42.273  0.00  0.00     0.163 C 
ATOM     16  H   UNK d   1      93.052  94.227 -40.487  0.00  0.00     0.173 HD
ENDROOT
BRANCH   1  17
ATOM     17  C   UNK d   1      89.973  98.265 -45.322  0.00  0.00     0.047 A 
ATOM     18  C   UNK d   1      88.773  98.820 -44.998  0.00  0.00     0.037 A 
ATOM     19  C   UNK d   1      88.492 100.153 -44.917  0.00  0.00     0.012 A 
ATOM     20 Br   UNK d   1      86.734 100.722 -44.445  0.00  0.00    -0.051 Br
ATOM     21  C   UNK d   1      89.478 101.058 -45.178  0.00  0.00     0.022 A 
ATOM     22  C   UNK d   1      90.735 100.582 -45.516  0.00  0.00     0.039 A 
ATOM     23  C   UNK d   1      90.973  99.230 -45.585  0.00  0.00     0.082 A 
BRANCH  23  24
ATOM     24  O   UNK d   1      92.242  98.796 -45.927  0.00  0.00    -0.355 OA
ATOM     25  C   UNK d   1      93.331  98.782 -45.057  0.00  0.00     0.210 C 
ENDBRANCH  23  24
ENDBRANCH   1  17
BRANCH   6  26
ATOM     26  C   UNK d   1      91.778  92.449 -45.067  0.00  0.00     0.174 C 
BRANCH  26  27
ATOM     27  C   UNK d   1      91.463  92.260 -46.537  0.00  0.00     0.187 C 
BRANCH  27  28
ATOM     28  O   UNK d   1      91.513  90.909 -46.819  0.00  0.00    -0.394 OA
ATOM     29  C   UNK d   1      92.658  90.577 -47.563  0.00  0.00     0.201 C 
ENDBRANCH  27  28
ENDBRANCH  26  27
ENDBRANCH   6  26
TORSDOF 5
ENDMDL
