MODEL 1
REMARK VINA RESULT:    -6.606      0.000      0.000
REMARK INTER + INTRA:          -8.736
REMARK INTER:                  -8.150
REMARK INTRA:                  -0.586
REMARK UNBOUND:                -0.586
REMARK  4 active torsions:
REMARK  status: ('A' for Active; 'I' for Inactive)
REMARK    1  A    between atoms: C_4  and  C_8 
REMARK    2  A    between atoms: C_8  and  C_10 
REMARK    3  A    between atoms: C_10  and  N_11 
REMARK    4  A    between atoms: N_14  and  C_17 
ROOT
ATOM      1  N   UNK d   1      90.486 101.300 -43.193  0.00  0.00    -0.402 N 
ATOM      2  C   UNK d   1      89.680 100.446 -42.401  0.00  0.00     0.137 C 
ATOM      3  C   UNK d   1      89.687  99.014 -42.774  0.00  0.00     0.143 C 
ATOM      4  N   UNK d   1      91.019  98.511 -42.869  0.00  0.00    -0.362 N 
ATOM      5  C   UNK d   1      92.090  99.443 -43.078  0.00  0.00     0.143 C 
ATOM      6  C   UNK d   1      91.662 100.728 -43.749  0.00  0.00     0.137 C 
ENDROOT
BRANCH   4   7
ATOM      7  C   UNK d   1      91.315  97.124 -42.791  0.00  0.00     0.135 A 
ATOM      8  C   UNK d   1      91.275  96.413 -43.916  0.00  0.00     0.125 A 
ATOM      9  N   UNK d   1      90.992  96.697 -45.275  0.00  0.00    -0.291 N 
ATOM     10  C   UNK d   1      91.591  94.973 -43.791  0.00  0.00     0.113 A 
ATOM     11  N   UNK d   1      91.134  95.462 -45.948  0.00  0.00    -0.300 N 
ATOM     12  C   UNK d   1      90.635  97.974 -45.843  0.00  0.00     0.178 C 
ATOM     13  C   UNK d   1      91.493  94.466 -45.011  0.00  0.00     0.053 A 
ATOM     14  H   UNK d   1      90.982  95.377 -46.975  0.00  0.00     0.187 HD
ATOM     15  C   UNK d   1      91.742  93.027 -45.293  0.00  0.00     0.072 C 
ATOM     16  N   UNK d   1      91.914  94.424 -42.518  0.00  0.00    -0.240 NA
ATOM     17  C   UNK d   1      91.940  95.156 -41.460  0.00  0.00     0.209 A 
ATOM     18  N   UNK d   1      91.648  96.532 -41.518  0.00  0.00    -0.335 N 
ATOM     19  H   UNK d   1      91.655  97.161 -40.697  0.00  0.00     0.168 HD
ENDBRANCH   4   7
BRANCH   1  20
ATOM     20  C   UNK d   1      90.573 102.647 -42.786  0.00  0.00     0.200 C 
BRANCH  20  21
ATOM     21  C   UNK d   1      91.028 102.829 -41.406  0.00  0.00     0.176 C 
ATOM     22  O   UNK d   1      90.194 103.169 -40.528  0.00  0.00    -0.291 OA
BRANCH  21  23
ATOM     23  C   UNK d   1      92.436 102.612 -41.090  0.00  0.00     0.013 A 
ATOM     24  C   UNK d   1      93.416 103.305 -41.750  0.00  0.00     0.034 A 
ATOM     25  C   UNK d   1      94.765 103.122 -41.474  0.00  0.00     0.011 A 
ATOM     26 Br   UNK d   1      96.124 104.087 -42.392  0.00  0.00    -0.051 Br
ATOM     27  C   UNK d   1      95.133 102.214 -40.506  0.00  0.00     0.019 A 
ATOM     28  C   UNK d   1      94.129 101.519 -39.844  0.00  0.00     0.002 A 
ATOM     29  C   UNK d   1      92.798 101.704 -40.121  0.00  0.00     0.015 A 
ENDBRANCH  21  23
ENDBRANCH  20  21
ENDBRANCH   1  20
TORSDOF 4
ENDMDL
