/Users/jonathanwahrer/Desktop/Msc/3_Semester/Drug_Design_Praktikum/waehrer_HTS_screening/HTS_experiment/out/docking_results/vina_output/4agl/0129_docked.pdbqt
 OpenBabel03202223043D

 31 34  0  0  1  0  0  0  0  0999 V2000
   89.3840   99.5970  -44.1560 C   0  0  0  0  0  0  0  0  0  0  0  0
   88.1290   99.7980  -44.1490 O   0  0  0  0  0  0  0  0  0  0  0  0
   90.2090  100.1420  -43.1300 N   0  0  0  0  0  0  0  0  0  0  0  0
   91.6480  100.0850  -43.1800 C   0  0  0  0  0  2  0  0  0  0  0  0
   92.0470  101.5740  -43.3140 C   0  0  0  0  0  2  0  0  0  0  0  0
   91.8040  102.1570  -41.9480 C   0  0  2  0  0  0  0  0  0  0  0  0
   91.8060  103.6100  -42.1120 N   0  0  0  0  0  0  0  0  0  0  0  0
   92.9990  104.1070  -42.6880 C   0  0  0  0  0  2  0  0  0  0  0  0
   94.2230  103.8720  -41.8220 C   0  0  0  0  0  2  0  0  0  0  0  0
   94.1270  102.6080  -41.0690 C   0  0  0  0  0  0  0  0  0  0  0  0
   95.0300  102.0310  -40.2570 N   0  0  0  0  0  0  0  0  0  0  0  0
   94.4800  100.8870  -39.7930 C   0  0  0  0  0  3  0  0  0  0  0  0
   93.2380  100.7690  -40.3280 N   0  0  0  0  0  0  0  0  0  0  0  0
   92.9910  101.8240  -41.1280 C   0  0  0  0  0  0  0  0  0  0  0  0
   90.5200  101.7670  -41.3060 C   0  0  0  0  0  3  0  0  0  0  0  0
   89.6370  100.7890  -42.0050 C   0  0  0  0  0  3  0  0  0  0  0  0
   91.5420  104.1090  -41.2250 H   0  0  0  0  0  0  0  0  0  0  0  0
   92.6590   99.9430  -40.0780 H   0  0  0  0  0  0  0  0  0  0  0  0
   89.9140   98.8090  -45.2590 C   0  0  2  0  0  3  0  0  0  0  0  0
   88.9710   98.8930  -46.4490 C   0  0  0  0  0  1  0  0  0  0  0  0
   90.3080   97.4950  -44.9020 N   0  0  0  0  0  0  0  0  0  0  0  0
   91.5320   96.9120  -45.2170 C   0  0  0  0  0  0  0  0  0  0  0  0
   92.5030   97.3700  -45.7940 O   0  0  0  0  0  0  0  0  0  0  0  0
   89.6130   96.9540  -44.3040 H   0  0  0  0  0  0  0  0  0  0  0  0
   91.6430   95.4730  -44.7720 C   0  0  0  0  0  0  0  0  0  0  0  0
   91.5630   94.5040  -45.7490 C   0  0  0  0  0  3  0  0  0  0  0  0
   91.6190   93.1790  -45.3890 C   0  0  0  0  0  0  0  0  0  0  0  0
   91.5220   91.8190  -46.7510 Br  0  0  0  0  0  0  0  0  0  0  0  0
   91.7510   92.7820  -44.0750 C   0  0  0  0  0  3  0  0  0  0  0  0
   91.8240   93.8050  -43.1270 C   0  0  0  0  0  3  0  0  0  0  0  0
   91.7730   95.1290  -43.4650 C   0  0  0  0  0  3  0  0  0  0  0  0
  1  2  2  0  0  0  0
  1  3  1  0  0  0  0
  3 16  1  0  0  0  0
  4  3  1  0  0  0  0
  5  4  1  0  0  0  0
  6  5  1  6  0  0  0
  6 15  1  0  0  0  0
  6 14  1  0  0  0  0
  7  6  1  0  0  0  0
  7 17  1  0  0  0  0
  8  7  1  0  0  0  0
  8  9  1  0  0  0  0
  9 10  1  0  0  0  0
 10 11  1  0  0  0  0
 11 12  2  0  0  0  0
 13 18  1  0  0  0  0
 13 12  1  0  0  0  0
 14 10  2  0  0  0  0
 14 13  1  0  0  0  0
 16 15  2  0  0  0  0
 19 20  1  6  0  0  0
 19 21  1  0  0  0  0
 19  1  1  0  0  0  0
 21 24  1  0  0  0  0
 22 21  1  0  0  0  0
 22 25  1  0  0  0  0
 23 22  2  0  0  0  0
 25 31  1  0  0  0  0
 26 27  1  0  0  0  0
 26 25  2  0  0  0  0
 27 29  2  0  0  0  0
 28 27  1  0  0  0  0
 29 30  1  0  0  0  0
 31 30  2  0  0  0  0
M  END
>  <Pose>
1

>  <Score>
-6.977

$$$$
