MODEL 1
REMARK VINA RESULT:    -6.977      0.000      0.000
REMARK INTER + INTRA:          -8.774
REMARK INTER:                  -8.200
REMARK INTRA:                  -0.574
REMARK UNBOUND:                -0.574
REMARK  3 active torsions:
REMARK  status: ('A' for Active; 'I' for Inactive)
REMARK    1  A    between atoms: C_4  and  C_8 
REMARK       I    between atoms: C_8  and  N_10 
REMARK    2  A    between atoms: N_10  and  C_11 
REMARK    3  A    between atoms: C_11  and  C_13 
REMARK       I    between atoms: C_13  and  N_15 
ROOT
ATOM      1  C   UNK d   1      89.384  99.597 -44.156  0.00  0.00     0.242 C 
ATOM      2  O   UNK d   1      88.129  99.798 -44.149  0.00  0.00    -0.271 OA
ATOM      3  N   UNK d   1      90.209 100.142 -43.130  0.00  0.00    -0.350 N 
ATOM      4  C   UNK d   1      91.648 100.085 -43.180  0.00  0.00     0.129 C 
ATOM      5  C   UNK d   1      92.047 101.574 -43.314  0.00  0.00     0.068 C 
ATOM      6  C   UNK d   1      91.804 102.157 -41.948  0.00  0.00     0.204 C 
ATOM      7  N   UNK d   1      91.806 103.610 -42.112  0.00  0.00     0.099 N 
ATOM      8  C   UNK d   1      92.999 104.107 -42.688  0.00  0.00     0.277 C 
ATOM      9  C   UNK d   1      94.223 103.872 -41.822  0.00  0.00     0.091 C 
ATOM     10  C   UNK d   1      94.127 102.608 -41.069  0.00  0.00     0.062 A 
ATOM     11  N   UNK d   1      95.030 102.031 -40.257  0.00  0.00    -0.246 NA
ATOM     12  C   UNK d   1      94.480 100.887 -39.793  0.00  0.00     0.207 A 
ATOM     13  N   UNK d   1      93.238 100.769 -40.328  0.00  0.00    -0.350 N 
ATOM     14  C   UNK d   1      92.991 101.824 -41.128  0.00  0.00     0.074 A 
ATOM     15  C   UNK d   1      90.520 101.767 -41.306  0.00  0.00     0.068 C 
ATOM     16  C   UNK d   1      89.637 100.789 -42.005  0.00  0.00     0.129 C 
ATOM     17  H   UNK d   1      91.542 104.109 -41.225  0.00  0.00     0.317 HD
ATOM     18  H   UNK d   1      92.659  99.943 -40.078  0.00  0.00     0.166 HD
ENDROOT
BRANCH   1  19
ATOM     19  C   UNK d   1      89.914  98.809 -45.259  0.00  0.00     0.173 C 
ATOM     20  C   UNK d   1      88.971  98.893 -46.449  0.00  0.00     0.042 C 
BRANCH  19  21
ATOM     21  N   UNK d   1      90.308  97.495 -44.902  0.00  0.00    -0.344 N 
ATOM     22  C   UNK d   1      91.532  96.912 -45.217  0.00  0.00     0.252 C 
ATOM     23  O   UNK d   1      92.503  97.370 -45.794  0.00  0.00    -0.268 OA
ATOM     24  H   UNK d   1      89.613  96.954 -44.304  0.00  0.00     0.163 HD
BRANCH  22  25
ATOM     25  C   UNK d   1      91.643  95.473 -44.772  0.00  0.00     0.033 A 
ATOM     26  C   UNK d   1      91.563  94.504 -45.749  0.00  0.00     0.036 A 
ATOM     27  C   UNK d   1      91.619  93.179 -45.389  0.00  0.00     0.011 A 
ATOM     28 Br   UNK d   1      91.522  91.819 -46.751  0.00  0.00    -0.051 Br
ATOM     29  C   UNK d   1      91.751  92.782 -44.075  0.00  0.00     0.019 A 
ATOM     30  C   UNK d   1      91.824  93.805 -43.127  0.00  0.00     0.002 A 
ATOM     31  C   UNK d   1      91.773  95.129 -43.465  0.00  0.00     0.017 A 
ENDBRANCH  22  25
ENDBRANCH  19  21
ENDBRANCH   1  19
TORSDOF 3
ENDMDL
