MODEL 1
REMARK VINA RESULT:    -6.620      0.000      0.000
REMARK INTER + INTRA:          -8.555
REMARK INTER:                  -7.781
REMARK INTRA:                  -0.774
REMARK UNBOUND:                -0.774
REMARK  3 active torsions:
REMARK  status: ('A' for Active; 'I' for Inactive)
REMARK    1  A    between atoms: C_4  and  C_8 
REMARK       I    between atoms: C_8  and  N_10 
REMARK    2  A    between atoms: N_10  and  C_11 
REMARK    3  A    between atoms: C_11  and  C_12 
REMARK       I    between atoms: C_12  and  N_14 
ROOT
ATOM      1  C   UNK d   1      90.943  98.666 -43.577  0.00  0.00     0.237 C 
ATOM      2  O   UNK d   1      91.172  97.989 -42.514  0.00  0.00    -0.272 OA
ATOM      3  N   UNK d   1      90.005  99.707 -43.594  0.00  0.00    -0.351 N 
ATOM      4  C   UNK d   1      89.721 100.479 -44.761  0.00  0.00     0.129 C 
ATOM      5  C   UNK d   1      88.273 100.868 -44.862  0.00  0.00     0.068 C 
ATOM      6  C   UNK d   1      87.324  99.995 -44.071  0.00  0.00     0.204 C 
ATOM      7  N   UNK d   1      86.071 100.738 -44.092  0.00  0.00     0.099 N 
ATOM      8  C   UNK d   1      84.935 100.057 -43.600  0.00  0.00     0.277 C 
ATOM      9  C   UNK d   1      85.002  98.578 -43.493  0.00  0.00     0.091 C 
ATOM     10  C   UNK d   1      85.955  97.993 -44.487  0.00  0.00     0.062 A 
ATOM     11  N   UNK d   1      85.921  96.865 -45.194  0.00  0.00    -0.246 NA
ATOM     12  C   UNK d   1      87.051  96.857 -45.931  0.00  0.00     0.207 A 
ATOM     13  N   UNK d   1      87.780  97.968 -45.682  0.00  0.00    -0.350 N 
ATOM     14  C   UNK d   1      87.095  98.706 -44.761  0.00  0.00     0.074 A 
ATOM     15  C   UNK d   1      87.763  99.747 -42.650  0.00  0.00     0.068 C 
ATOM     16  C   UNK d   1      89.229 100.056 -42.409  0.00  0.00     0.129 C 
ATOM     17  H   UNK d   1      86.284 101.608 -43.525  0.00  0.00     0.317 HD
ATOM     18  H   UNK d   1      88.688  98.204 -46.115  0.00  0.00     0.166 HD
ENDROOT
BRANCH   1  19
ATOM     19  C   UNK d   1      91.759  98.246 -44.773  0.00  0.00     0.225 C 
BRANCH  19  20
ATOM     20  N   UNK d   1      91.239  97.108 -45.369  0.00  0.00    -0.348 N 
ATOM     21  C   UNK d   1      90.743  96.022 -45.939  0.00  0.00     0.252 C 
ATOM     22  O   UNK d   1      89.883  95.937 -46.885  0.00  0.00    -0.268 OA
ATOM     23  H   UNK d   1      90.460  97.908 -46.186  0.00  0.00     0.163 HD
BRANCH  21  24
ATOM     24  C   UNK d   1      91.218  94.680 -45.446  0.00  0.00     0.033 A 
ATOM     25  C   UNK d   1      91.784  94.533 -44.207  0.00  0.00     0.036 A 
ATOM     26  C   UNK d   1      92.248  93.299 -43.778  0.00  0.00     0.011 A 
ATOM     27 Br   UNK d   1      93.014  93.140 -42.061  0.00  0.00    -0.051 Br
ATOM     28  C   UNK d   1      92.120  92.237 -44.639  0.00  0.00     0.019 A 
ATOM     29  C   UNK d   1      91.548  92.390 -45.888  0.00  0.00     0.002 A 
ATOM     30  C   UNK d   1      91.082  93.638 -46.313  0.00  0.00     0.017 A 
ENDBRANCH  21  24
ENDBRANCH  19  20
ENDBRANCH   1  19
TORSDOF 3
ENDMDL
