/Users/jonathanwahrer/Desktop/Msc/3_Semester/Drug_Design_Praktikum/waehrer_HTS_screening/HTS_experiment/out/docking_results/vina_output/4agl/0137_docked.pdbqt
 OpenBabel03202223053D

 25 28  0  0  1  0  0  0  0  0999 V2000
   91.4270   99.2360  -44.0900 C   0  0  2  0  0  3  0  0  0  0  0  0
   91.6580   98.9400  -42.5620 C   0  0  0  0  0  2  0  0  0  0  0  0
   91.6570  100.2340  -41.9680 N   0  0  0  0  0  0  0  0  0  0  0  0
   90.9820  101.1670  -42.8580 C   0  0  1  0  0  3  0  0  0  0  0  0
   90.3250  100.3160  -43.8660 C   0  0  0  0  0  2  0  0  0  0  0  0
   90.1280  102.0830  -42.0840 C   0  0  0  0  0  0  0  0  0  0  0  0
   89.0100  102.3970  -42.5260 O   0  0  0  0  0  0  0  0  0  0  0  0
   90.5760  102.6020  -40.8480 N   0  0  0  0  0  0  0  0  0  0  0  0
   91.4450  101.8050  -40.0100 C   0  0  2  0  0  3  0  0  0  0  0  0
   92.3440  102.7960  -39.2990 C   0  0  0  0  0  2  0  0  0  0  0  0
   91.8370  104.1350  -39.7040 C   0  0  0  0  0  2  0  0  0  0  0  0
   90.3850  103.8500  -40.1170 C   0  0  0  0  0  2  0  0  0  0  0  0
   92.1550  100.7640  -40.7450 C   0  0  0  0  0  0  0  0  0  0  0  0
   93.2610  100.3030  -40.2910 O   0  0  0  0  0  0  0  0  0  0  0  0
   91.0950   98.1550  -44.7880 N   0  0  0  0  0  0  0  0  0  0  0  0
   90.7490   97.0420  -45.5130 C   0  0  0  0  0  0  0  0  0  0  0  0
   90.1110   96.9480  -46.6070 O   0  0  0  0  0  0  0  0  0  0  0  0
   90.4770   98.9400  -45.7360 H   0  0  0  0  0  0  0  0  0  0  0  0
   91.1490   95.6760  -45.0010 C   0  0  0  0  0  0  0  0  0  0  0  0
   91.1380   94.5780  -45.8270 C   0  0  0  0  0  3  0  0  0  0  0  0
   91.4990   93.3260  -45.3930 C   0  0  0  0  0  0  0  0  0  0  0  0
   91.5120   91.8120  -46.5420 Br  0  0  0  0  0  0  0  0  0  0  0  0
   91.8840   93.2020  -44.0610 C   0  0  0  0  0  3  0  0  0  0  0  0
   91.9060   94.2740  -43.2130 C   0  0  0  0  0  3  0  0  0  0  0  0
   91.5330   95.5230  -43.6940 C   0  0  0  0  0  3  0  0  0  0  0  0
  1 15  1  6  0  0  0
  1  5  1  0  0  0  0
  1  2  1  0  0  0  0
  2  3  1  0  0  0  0
  3 13  1  0  0  0  0
  4  5  1  6  0  0  0
  4  6  1  0  0  0  0
  4  3  1  0  0  0  0
  6  8  1  0  0  0  0
  7  6  2  0  0  0  0
  8 12  1  0  0  0  0
  8  9  1  0  0  0  0
  9 10  1  6  0  0  0
 11 10  1  0  0  0  0
 12 11  1  0  0  0  0
 13 14  2  0  0  0  0
 13  9  1  0  0  0  0
 16 19  1  0  0  0  0
 16 15  1  0  0  0  0
 17 16  2  0  0  0  0
 18 15  1  0  0  0  0
 19 25  1  0  0  0  0
 20 21  1  0  0  0  0
 20 19  2  0  0  0  0
 21 23  2  0  0  0  0
 22 21  1  0  0  0  0
 23 24  1  0  0  0  0
 25 24  2  0  0  0  0
M  END
>  <Pose>
1

>  <Score>
-6.504

$$$$
