MODEL 1
REMARK VINA RESULT:    -7.261      0.000      0.000
REMARK INTER + INTRA:          -7.996
REMARK INTER:                  -8.110
REMARK INTRA:                   0.114
REMARK UNBOUND:                 0.114
REMARK  2 active torsions:
REMARK  status: ('A' for Active; 'I' for Inactive)
REMARK    1  A    between atoms: C_4  and  C_8 
REMARK       I    between atoms: C_8  and  N_10 
REMARK    2  A    between atoms: N_10  and  C_11 
ROOT
ATOM      1  C   UNK d   1      91.827  91.534 -47.429  0.00  0.00     0.105 C 
ATOM      2  C   UNK d   1      90.395  91.233 -47.723  0.00  0.00     0.152 C 
ATOM      3  N   UNK d   1      90.484  90.263 -48.827  0.00  0.00    -0.335 N 
ATOM      4  C   UNK d   1      91.855  89.786 -48.936  0.00  0.00     0.181 C 
ATOM      5  C   UNK d   1      92.454  90.144 -47.610  0.00  0.00     0.061 C 
ATOM      6  C   UNK d   1      91.813  88.353 -49.211  0.00  0.00     0.243 C 
ATOM      7  O   UNK d   1      92.660  87.586 -48.740  0.00  0.00    -0.271 OA
ATOM      8  N   UNK d   1      90.771  87.822 -50.043  0.00  0.00    -0.337 N 
ATOM      9  C   UNK d   1      89.980  88.789 -50.764  0.00  0.00     0.179 C 
ATOM     10  C   UNK d   1      88.891  88.119 -51.496  0.00  0.00     0.037 C 
ATOM     11  C   UNK d   1      89.350  86.675 -51.512  0.00  0.00     0.022 C 
ATOM     12  C   UNK d   1      90.286  86.515 -50.363  0.00  0.00     0.127 C 
ATOM     13  C   UNK d   1      89.498  89.766 -49.728  0.00  0.00     0.243 C 
ATOM     14  O   UNK d   1      88.299  90.120 -49.662  0.00  0.00    -0.271 OA
ENDROOT
BRANCH   1  15
ATOM     15  N   UNK d   1      92.081  92.088 -46.151  0.00  0.00    -0.351 N 
ATOM     16  C   UNK d   1      91.461  93.295 -45.761  0.00  0.00     0.252 C 
ATOM     17  O   UNK d   1      90.667  93.884 -46.575  0.00  0.00    -0.268 OA
ATOM     18  H   UNK d   1      92.722  91.614 -45.490  0.00  0.00     0.163 HD
BRANCH  16  19
ATOM     19  C   UNK d   1      91.643  93.955 -44.480  0.00  0.00     0.033 A 
ATOM     20  C   UNK d   1      91.435  95.299 -44.296  0.00  0.00     0.036 A 
ATOM     21  C   UNK d   1      91.604  95.936 -43.093  0.00  0.00     0.011 A 
ATOM     22 Br   UNK d   1      91.307  97.801 -42.877  0.00  0.00    -0.051 Br
ATOM     23  C   UNK d   1      92.004  95.205 -41.996  0.00  0.00     0.019 A 
ATOM     24  C   UNK d   1      92.225  93.844 -42.133  0.00  0.00     0.002 A 
ATOM     25  C   UNK d   1      92.041  93.232 -43.382  0.00  0.00     0.017 A 
ENDBRANCH  16  19
ENDBRANCH   1  15
TORSDOF 2
ENDMDL
