/Users/jonathanwahrer/Desktop/Msc/3_Semester/Drug_Design_Praktikum/waehrer_HTS_screening/HTS_experiment/out/docking_results/vina_output/4agl/0141_docked.pdbqt
 OpenBabel03202223053D

 23 26  0  0  1  0  0  0  0  0999 V2000
   92.4350  100.0570  -42.5040 N   0  0  0  0  0  0  0  0  0  0  0  0
   92.4820  100.8230  -43.7230 C   0  0  0  0  0  0  0  0  0  0  0  0
   92.5820  100.3900  -44.9150 O   0  0  0  0  0  0  0  0  0  0  0  0
   92.3950  102.2300  -43.3820 C   0  0  1  0  0  3  0  0  0  0  0  0
   91.8170  102.2930  -41.9550 C   0  0  2  0  0  3  0  0  0  0  0  0
   92.5630  103.3860  -41.2610 C   0  0  2  0  0  3  0  0  0  0  0  0
   93.1540  104.1720  -42.4480 C   0  0  0  0  0  2  0  0  0  0  0  0
   93.7330  102.9020  -43.1080 C   0  0  1  0  0  3  0  0  0  0  0  0
   94.3900  102.2980  -41.9140 C   0  0  0  0  0  2  0  0  0  0  0  0
   93.8620  102.7860  -40.7830 C   0  0  0  0  0  2  0  0  0  0  0  0
   92.3270  100.9620  -41.4400 C   0  0  0  0  0  0  0  0  0  0  0  0
   92.6030  100.7370  -40.2400 O   0  0  0  0  0  0  0  0  0  0  0  0
   92.5000   98.6500  -42.5270 N   0  0  0  0  0  0  0  0  0  0  0  0
   91.4130   97.7840  -42.7330 C   0  0  0  0  0  0  0  0  0  0  0  0
   90.2650   98.2250  -42.9170 O   0  0  0  0  0  0  0  0  0  0  0  0
   93.4430   98.1680  -42.3780 H   0  0  0  0  0  0  0  0  0  0  0  0
   91.5850   96.3450  -42.7360 C   0  0  0  0  0  0  0  0  0  0  0  0
   91.5030   95.6590  -43.9450 C   0  0  0  0  0  3  0  0  0  0  0  0
   91.6650   94.2970  -43.9950 C   0  0  0  0  0  0  0  0  0  0  0  0
   91.5360   93.4230  -45.6820 Br  0  0  0  0  0  0  0  0  0  0  0  0
   91.9140   93.5620  -42.8430 C   0  0  0  0  0  3  0  0  0  0  0  0
   91.9900   94.2610  -41.6620 C   0  0  0  0  0  3  0  0  0  0  0  0
   91.8290   95.6270  -41.6060 C   0  0  0  0  0  3  0  0  0  0  0  0
  1 11  1  0  0  0  0
  2  1  1  0  0  0  0
  3  2  2  0  0  0  0
  4  2  1  1  0  0  0
  4  8  1  0  0  0  0
  4  5  1  0  0  0  0
  5 11  1  1  0  0  0
  5  6  1  0  0  0  0
  6  7  1  6  0  0  0
  6 10  1  0  0  0  0
  8  7  1  1  0  0  0
  8  9  1  0  0  0  0
  9 10  1  0  0  0  0
 11 12  2  0  0  0  0
 13  1  1  0  0  0  0
 13 16  1  0  0  0  0
 14 13  1  0  0  0  0
 15 14  2  0  0  0  0
 17 14  1  0  0  0  0
 17 23  1  0  0  0  0
 18 17  2  0  0  0  0
 19 18  1  0  0  0  0
 19 21  2  0  0  0  0
 20 19  1  0  0  0  0
 21 22  1  0  0  0  0
 22 23  2  0  0  0  0
M  END
>  <Pose>
1

>  <Score>
-6.459

$$$$
