/Users/jonathanwahrer/Desktop/Msc/3_Semester/Drug_Design_Praktikum/waehrer_HTS_screening/HTS_experiment/out/docking_results/vina_output/4agl/0153_docked.pdbqt
 OpenBabel03202223063D

 34 37  0  0  0  0  0  0  0  0999 V2000
   90.8010   88.7560  -49.2780 C   0  0  0  0  0  0  0  0  0  0  0  0
   91.2270   87.5430  -49.1780 N   0  0  0  0  0  0  0  0  0  0  0  0
   90.2210   86.6920  -49.3530 N   0  0  0  0  0  0  0  0  0  0  0  0
   89.0830   87.4040  -49.5670 N   0  0  0  0  0  0  0  0  0  0  0  0
   89.3820   88.6600  -49.5600 C   0  0  0  0  0  0  0  0  0  0  0  0
   91.4730   90.0890  -48.9820 C   0  0  0  0  0  0  0  0  0  0  0  0
   91.3440   90.5260  -47.6960 N   0  0  0  0  0  0  0  0  0  0  0  0
   90.8010   89.5820  -47.1380 H   0  0  0  0  0  0  0  0  0  0  0  0
   92.0810   90.6350  -49.9290 O   0  0  0  0  0  0  0  0  0  0  0  0
   91.5220   91.3690  -46.7020 N   0  0  0  0  0  0  0  0  0  0  0  0
   91.2080   92.6330  -46.6550 C   0  0  0  0  0  3  0  0  0  0  0  0
   91.4820   93.4790  -45.4770 C   0  0  0  0  0  0  0  0  0  0  0  0
   91.2800   94.8440  -45.4140 C   0  0  0  0  0  3  0  0  0  0  0  0
   91.4490   95.5040  -44.1980 C   0  0  0  0  0  0  0  0  0  0  0  0
   91.1400   97.3890  -44.0260 Br  0  0  0  0  0  0  0  0  0  0  0  0
   91.8150   94.8600  -43.0210 C   0  0  0  0  0  3  0  0  0  0  0  0
   92.0130   93.5100  -43.1490 C   0  0  0  0  0  3  0  0  0  0  0  0
   91.8560   92.8230  -44.3180 C   0  0  0  0  0  3  0  0  0  0  0  0
   88.6610   89.9090  -49.7850 C   0  0  0  0  0  2  0  0  0  0  0  0
   88.0810   90.2520  -51.0020 N   0  0  0  0  0  0  0  0  0  0  0  0
   86.8890   90.7160  -51.4090 C   0  0  0  0  0  2  0  0  0  0  0  0
   87.0650   92.1930  -51.8570 C   0  0  0  0  0  2  0  0  0  0  0  0
   88.1950   92.7090  -51.1720 N   0  0  0  0  0  0  0  0  0  0  0  0
   89.4070   92.1330  -51.6730 C   0  0  0  0  0  2  0  0  0  0  0  0
   88.2390   94.0670  -50.8260 C   0  0  0  0  0  1  0  0  0  0  0  0
   89.1250   90.6590  -51.9880 C   0  0  0  0  0  2  0  0  0  0  0  0
   87.8250   86.7180  -49.3090 C   0  0  0  0  0  0  0  0  0  0  0  0
   87.4640   86.6850  -47.9120 N   0  0  0  0  0  0  0  0  0  0  0  0
   86.3850   86.0830  -47.7420 O   0  0  0  0  0  0  0  0  0  0  0  0
   85.9400   85.6740  -48.8900 N   0  0  0  0  0  0  0  0  0  0  0  0
   86.8520   86.0820  -49.8630 C   0  0  0  0  0  0  0  0  0  0  0  0
   86.6050   85.7690  -51.2150 N   0  0  0  0  0  0  0  0  0  0  0  0
   86.2940   84.7440  -51.3540 H   0  0  0  0  0  0  0  0  0  0  0  0
   86.6640   86.3120  -52.0540 H   0  0  0  0  0  0  0  0  0  0  0  0
  1  2  1  0  0  0  0
  1  6  1  0  0  0  0
  3  2  2  0  0  0  0
  4  5  1  0  0  0  0
  4  3  1  0  0  0  0
  4 27  1  0  0  0  0
  5  1  2  0  0  0  0
  6  7  1  0  0  0  0
  7  8  1  0  0  0  0
  7 10  1  0  0  0  0
  9  6  2  0  0  0  0
 10 11  2  0  0  0  0
 11 12  1  0  0  0  0
 12 13  2  0  0  0  0
 12 18  1  0  0  0  0
 13 14  1  0  0  0  0
 14 15  1  0  0  0  0
 14 16  2  0  0  0  0
 17 16  1  0  0  0  0
 18 17  2  0  0  0  0
 19  5  1  0  0  0  0
 20 19  1  0  0  0  0
 21 20  1  0  0  0  0
 22 21  1  0  0  0  0
 22 23  1  0  0  0  0
 23 25  1  0  0  0  0
 24 23  1  0  0  0  0
 26 24  1  0  0  0  0
 26 20  1  0  0  0  0
 27 28  2  0  0  0  0
 28 29  1  0  0  0  0
 30 29  1  0  0  0  0
 31 27  1  0  0  0  0
 31 30  2  0  0  0  0
 32 31  1  0  0  0  0
 33 32  1  0  0  0  0
 34 32  1  0  0  0  0
M  END
>  <Pose>
1

>  <Score>
-5.668

$$$$
