MODEL 1
REMARK VINA RESULT:    -6.811      0.000      0.000
REMARK INTER + INTRA:          -9.620
REMARK INTER:                  -8.802
REMARK INTRA:                  -0.818
REMARK UNBOUND:                -0.818
REMARK  5 active torsions:
REMARK  status: ('A' for Active; 'I' for Inactive)
REMARK    1  A    between atoms: C_4  and  C_8 
REMARK    2  A    between atoms: N_9  and  N_10 
REMARK    3  A    between atoms: N_10  and  C_11 
REMARK    4  A    between atoms: C_13  and  N_23 
REMARK    5  A    between atoms: C_15  and  N_17 
ROOT
ATOM      1  C   UNK d   1      90.870  95.030 -45.895  0.00  0.00     0.774 A 
ATOM      2  N   UNK d   1      90.853  93.999 -46.746  0.00  0.00     0.133 NA
ATOM      3  C   UNK d   1      91.212  92.734 -46.389  0.00  0.00     0.756 A 
ATOM      4  N   UNK d   1      91.593  92.578 -45.103  0.00  0.00     0.131 NA
ATOM      5  C   UNK d   1      91.631  93.574 -44.201  0.00  0.00     0.756 A 
ATOM      6  N   UNK d   1      91.257  94.800 -44.642  0.00  0.00     0.133 NA
ENDROOT
BRANCH   1   7
ATOM      7  N   UNK d   1      90.481  96.326 -46.335  0.00  0.00    -0.105 N 
ATOM      8  H   UNK d   1      90.224  96.489 -47.330  0.00  0.00     0.208 HD
BRANCH   7   9
ATOM      9  N   UNK d   1      90.434  97.411 -45.455  0.00  0.00    -0.172 NA
ATOM     10  C   UNK d   1      89.438  97.707 -44.717  0.00  0.00     0.150 C 
BRANCH  10  11
ATOM     11  C   UNK d   1      89.416  98.847 -43.810  0.00  0.00    -0.016 A 
ATOM     12  C   UNK d   1      90.559  99.306 -43.179  0.00  0.00     0.032 A 
ATOM     13  C   UNK d   1      90.571 100.376 -42.318  0.00  0.00     0.011 A 
ATOM     14 Br   UNK d   1      92.189 100.961 -41.477  0.00  0.00    -0.051 Br
ATOM     15  C   UNK d   1      89.385 101.035 -42.063  0.00  0.00     0.019 A 
ATOM     16  C   UNK d   1      88.219 100.615 -42.667  0.00  0.00     0.002 A 
ATOM     17  C   UNK d   1      88.249  99.525 -43.534  0.00  0.00     0.013 A 
ENDBRANCH  10  11
ENDBRANCH   7   9
ENDBRANCH   1   7
BRANCH   3  18
ATOM     18  N   UNK d   1      91.187  91.661 -47.306  0.00  0.00    -0.209 N 
ATOM     19  C   UNK d   1      90.313  91.690 -48.446  0.00  0.00     0.167 C 
ATOM     20  C   UNK d   1      91.182  91.450 -49.676  0.00  0.00     0.188 C 
ATOM     21  O   UNK d   1      91.772  90.202 -49.498  0.00  0.00    -0.388 OA
ATOM     22  C   UNK d   1      92.691  90.197 -48.465  0.00  0.00     0.188 C 
ATOM     23  C   UNK d   1      92.031  90.512 -47.126  0.00  0.00     0.167 C 
ENDBRANCH   3  18
BRANCH   5  24
ATOM     24  N   UNK d   1      92.032  93.385 -42.868  0.00  0.00    -0.209 N 
ATOM     25  C   UNK d   1      93.267  92.731 -42.526  0.00  0.00     0.167 C 
ATOM     26  C   UNK d   1      93.815  93.483 -41.306  0.00  0.00     0.188 C 
ATOM     27  O   UNK d   1      93.355  94.797 -41.301  0.00  0.00    -0.388 OA
ATOM     28  C   UNK d   1      92.011  94.921 -41.053  0.00  0.00     0.188 C 
ATOM     29  C   UNK d   1      91.200  93.849 -41.794  0.00  0.00     0.167 C 
ENDBRANCH   5  24
TORSDOF 5
ENDMDL
