MODEL 1
REMARK VINA RESULT:    -6.515      0.000      0.000
REMARK INTER + INTRA:         -10.713
REMARK INTER:                  -9.181
REMARK INTRA:                  -1.532
REMARK UNBOUND:                -1.532
REMARK  7 active torsions:
REMARK  status: ('A' for Active; 'I' for Inactive)
REMARK    1  A    between atoms: C_4  and  C_8 
REMARK    2  A    between atoms: N_9  and  C_29 
REMARK    3  A    between atoms: C_15  and  C_17 
REMARK    4  A    between atoms: N_19  and  C_22 
REMARK    5  A    between atoms: C_29  and  C_30 
REMARK    6  A    between atoms: C_30  and  C_31 
REMARK    7  A    between atoms: C_31  and  N_32 
ROOT
ATOM      1  C   UNK d   1      90.286  96.778 -46.146  0.00  0.00     0.161 C 
ATOM      2  N   UNK d   1      88.872  96.758 -46.202  0.00  0.00    -0.332 N 
ATOM      3  C   UNK d   1      88.347  97.800 -45.395  0.00  0.00     0.295 C 
ATOM      4  O   UNK d   1      87.113  97.989 -45.162  0.00  0.00    -0.264 OA
ATOM      5  C   UNK d   1      89.448  98.598 -44.901  0.00  0.00     0.250 C 
ATOM      6  O   UNK d   1      89.260  99.594 -44.151  0.00  0.00    -0.282 OA
ATOM      7  C   UNK d   1      90.670  98.018 -45.423  0.00  0.00     0.062 C 
ATOM      8  C   UNK d   1      91.873  98.506 -45.220  0.00  0.00     0.133 C 
ATOM      9  O   UNK d   1      92.964  97.827 -45.714  0.00  0.00    -0.190 OA
ENDROOT
BRANCH   1  10
ATOM     10  C   UNK d   1      90.803  95.574 -45.488  0.00  0.00    -0.029 A 
ATOM     11  C   UNK d   1      90.928  94.417 -46.238  0.00  0.00     0.028 A 
ATOM     12  C   UNK d   1      91.407  93.226 -45.785  0.00  0.00     0.011 A 
ATOM     13 Br   UNK d   1      91.560  91.659 -46.865  0.00  0.00    -0.051 Br
ATOM     14  C   UNK d   1      91.804  93.180 -44.438  0.00  0.00     0.019 A 
ATOM     15  C   UNK d   1      91.690  94.320 -43.661  0.00  0.00     0.002 A 
ATOM     16  C   UNK d   1      91.200  95.514 -44.155  0.00  0.00     0.009 A 
ENDBRANCH   1  10
BRANCH   8  17
ATOM     17  C   UNK d   1      92.069  99.740 -44.500  0.00  0.00     0.045 A 
ATOM     18  C   UNK d   1      92.185  99.822 -43.101  0.00  0.00     0.047 A 
ATOM     19  N   UNK d   1      92.396 101.097 -42.753  0.00  0.00    -0.238 N 
ATOM     20  C   UNK d   1      92.086  98.645 -42.189  0.00  0.00     0.071 C 
ATOM     21  N   UNK d   1      92.414 101.804 -43.868  0.00  0.00    -0.179 NA
ATOM     22  C   UNK d   1      92.223 101.024 -44.942  0.00  0.00     0.155 A 
BRANCH  19  23
ATOM     23  C   UNK d   1      92.581 101.612 -41.443  0.00  0.00     0.058 A 
ATOM     24  C   UNK d   1      91.462 101.931 -40.685  0.00  0.00     0.031 A 
ATOM     25  C   UNK d   1      91.568 102.426 -39.401  0.00  0.00     0.002 A 
ATOM     26  C   UNK d   1      92.816 102.625 -38.808  0.00  0.00     0.000 A 
ATOM     27  C   UNK d   1      93.931 102.307 -39.563  0.00  0.00     0.002 A 
ATOM     28  C   UNK d   1      93.799 101.818 -40.837  0.00  0.00     0.031 A 
ENDBRANCH  19  23
ENDBRANCH   8  17
BRANCH   2  29
ATOM     29  C   UNK d   1      88.022  95.824 -46.992  0.00  0.00     0.129 C 
BRANCH  29  30
ATOM     30  C   UNK d   1      88.429  95.873 -48.442  0.00  0.00     0.048 C 
BRANCH  30  31
ATOM     31  C   UNK d   1      88.196  97.204 -49.083  0.00  0.00     0.235 C 
BRANCH  31  32
ATOM     32  N   UNK d   1      89.360  97.937 -49.457  0.00  0.00    -0.079 N 
ATOM     33  C   UNK d   1      89.577  98.114 -50.855  0.00  0.00     0.269 C 
ATOM     34  C   UNK d   1      89.338  99.273 -48.838  0.00  0.00     0.269 C 
ATOM     35  H   UNK d   1      90.222  97.473 -49.040  0.00  0.00     0.278 HD
ENDBRANCH  31  32
ENDBRANCH  30  31
ENDBRANCH  29  30
ENDBRANCH   2  29
TORSDOF 7
ENDMDL
