/Users/jonathanwahrer/Desktop/Msc/3_Semester/Drug_Design_Praktikum/waehrer_HTS_screening/HTS_experiment/out/docking_results/vina_output/4agl/0169_docked.pdbqt
 OpenBabel03202223073D

 37 40  0  0  1  0  0  0  0  0999 V2000
   91.2220   98.7400  -44.0750 C   0  0  2  0  0  3  0  0  0  0  0  0
   90.5990   99.6010  -43.0890 N   0  0  0  0  0  0  0  0  0  0  0  0
   89.2360   99.2090  -43.0230 C   0  0  0  0  0  0  0  0  0  0  0  0
   88.4500   99.3470  -42.0590 O   0  0  0  0  0  0  0  0  0  0  0  0
   88.9050   98.5920  -44.3260 C   0  0  0  0  0  0  0  0  0  0  0  0
   87.8040   98.1190  -44.6850 O   0  0  0  0  0  0  0  0  0  0  0  0
   90.1320   98.6550  -45.1090 C   0  0  0  0  0  0  0  0  0  0  0  0
   90.2070   98.6790  -46.4050 C   0  0  0  0  0  0  0  0  0  0  0  0
   91.4830   98.8070  -46.9930 O   0  0  0  0  0  1  0  0  0  0  0  0
   91.4490   97.4110  -43.4570 C   0  0  0  0  0  0  0  0  0  0  0  0
   91.4420   96.2450  -44.2120 C   0  0  0  0  0  3  0  0  0  0  0  0
   91.6440   95.0060  -43.6430 C   0  0  0  0  0  0  0  0  0  0  0  0
   91.6210   93.4450  -44.7380 Br  0  0  0  0  0  0  0  0  0  0  0  0
   91.8640   94.8680  -42.2900 C   0  0  0  0  0  3  0  0  0  0  0  0
   91.8750   96.0100  -41.5200 C   0  0  0  0  0  3  0  0  0  0  0  0
   91.6720   97.2450  -42.0990 C   0  0  0  0  0  3  0  0  0  0  0  0
   89.0820   98.5800  -47.3230 C   0  0  0  0  0  0  0  0  0  0  0  0
   88.3160   99.4960  -47.9630 C   0  0  0  0  0  0  0  0  0  0  0  0
   87.4360   98.8370  -48.7450 N   0  0  0  0  0  0  0  0  0  0  0  0
   88.3580  100.9900  -47.8260 C   0  0  0  0  0  1  0  0  0  0  0  0
   87.5930   97.5110  -48.6420 C   0  0  0  0  0  0  0  0  0  0  0  0
   86.7150   99.3160  -49.3580 H   0  0  0  0  0  0  0  0  0  0  0  0
   88.6190   97.3210  -47.7560 C   0  0  0  0  0  0  0  0  0  0  0  0
   89.1540   95.9940  -47.3240 C   0  0  0  0  0  1  0  0  0  0  0  0
   86.8170   96.4660  -49.3400 C   0  0  0  0  0  0  0  0  0  0  0  0
   87.2710   95.9700  -50.3810 O   0  0  0  0  0  0  0  0  0  0  0  0
   85.6000   96.0410  -48.8440 O   0  0  0  0  0  0  0  0  0  0  0  0
   85.2110   96.1800  -47.4960 C   0  0  0  0  0  1  0  0  0  0  0  0
   91.2350  100.6680  -42.3120 C   0  0  0  0  0  2  0  0  0  0  0  0
   92.5800  101.0400  -42.8960 C   0  0  0  0  0  2  0  0  0  0  0  0
   93.5610  101.3840  -41.9180 N   0  0  0  0  0  4  0  0  0  0  0  0
   93.0160  101.5890  -40.5820 C   0  0  0  0  0  2  0  0  0  0  0  0
   94.1570  101.4840  -39.6060 C   0  0  0  0  0  2  0  0  0  0  0  0
   95.3360  101.7580  -40.2530 O   0  0  0  0  0  0  0  0  0  0  0  0
   95.2760  102.8360  -41.1190 C   0  0  0  0  0  2  0  0  0  0  0  0
   94.2610  102.6210  -42.2410 C   0  0  0  0  0  2  0  0  0  0  0  0
   94.2920  100.6500  -41.8930 H   0  0  0  0  0  0  0  0  0  0  0  0
  1 10  1  1  0  0  0
  1  2  1  0  0  0  0
  2  3  1  0  0  0  0
  2 29  1  0  0  0  0
  3  4  2  0  0  0  0
  5  3  1  0  0  0  0
  6  5  2  0  0  0  0
  7  5  1  0  0  0  0
  7  1  1  0  0  0  0
  8  7  2  0  0  0  0
  9  8  1  0  0  0  0
 10 16  1  0  0  0  0
 11 12  1  0  0  0  0
 11 10  2  0  0  0  0
 12 14  2  0  0  0  0
 13 12  1  0  0  0  0
 14 15  1  0  0  0  0
 16 15  2  0  0  0  0
 17  8  1  0  0  0  0
 18 20  1  0  0  0  0
 18 17  2  0  0  0  0
 19 21  1  0  0  0  0
 19 18  1  0  0  0  0
 21 23  2  0  0  0  0
 22 19  1  0  0  0  0
 23 24  1  0  0  0  0
 23 17  1  0  0  0  0
 25 27  1  0  0  0  0
 25 21  1  0  0  0  0
 26 25  2  0  0  0  0
 27 28  1  0  0  0  0
 30 29  1  0  0  0  0
 30 31  1  0  0  0  0
 31 37  1  0  0  0  0
 31 32  1  0  0  0  0
 32 33  1  0  0  0  0
 34 33  1  0  0  0  0
 35 34  1  0  0  0  0
 36 31  1  0  0  0  0
 36 35  1  0  0  0  0
M  END
>  <Pose>
1

>  <Score>
-6.261

$$$$
