MODEL 1
REMARK VINA RESULT:    -6.261      0.000      0.000
REMARK INTER + INTRA:         -10.427
REMARK INTER:                  -8.824
REMARK INTRA:                  -1.603
REMARK UNBOUND:                -1.603
REMARK  7 active torsions:
REMARK  status: ('A' for Active; 'I' for Inactive)
REMARK    1  A    between atoms: C_4  and  C_8 
REMARK    2  A    between atoms: N_9  and  C_28 
REMARK    3  A    between atoms: C_15  and  C_17 
REMARK    4  A    between atoms: C_20  and  C_23 
REMARK    5  A    between atoms: C_23  and  O_25 
REMARK    6  A    between atoms: C_28  and  C_29 
REMARK    7  A    between atoms: C_29  and  N_30 
ROOT
ATOM      1  C   UNK d   1      91.222  98.740 -44.075  0.00  0.00     0.161 C 
ATOM      2  N   UNK d   1      90.599  99.601 -43.089  0.00  0.00    -0.331 N 
ATOM      3  C   UNK d   1      89.236  99.209 -43.023  0.00  0.00     0.295 C 
ATOM      4  O   UNK d   1      88.450  99.347 -42.059  0.00  0.00    -0.264 OA
ATOM      5  C   UNK d   1      88.905  98.592 -44.326  0.00  0.00     0.250 C 
ATOM      6  O   UNK d   1      87.804  98.119 -44.685  0.00  0.00    -0.282 OA
ATOM      7  C   UNK d   1      90.132  98.655 -45.109  0.00  0.00     0.062 C 
ATOM      8  C   UNK d   1      90.207  98.679 -46.405  0.00  0.00     0.132 C 
ATOM      9  O   UNK d   1      91.483  98.807 -46.993  0.00  0.00    -0.190 OA
ENDROOT
BRANCH   1  10
ATOM     10  C   UNK d   1      91.449  97.411 -43.457  0.00  0.00    -0.029 A 
ATOM     11  C   UNK d   1      91.442  96.245 -44.212  0.00  0.00     0.028 A 
ATOM     12  C   UNK d   1      91.644  95.006 -43.643  0.00  0.00     0.011 A 
ATOM     13 Br   UNK d   1      91.621  93.445 -44.738  0.00  0.00    -0.051 Br
ATOM     14  C   UNK d   1      91.864  94.868 -42.290  0.00  0.00     0.019 A 
ATOM     15  C   UNK d   1      91.875  96.010 -41.520  0.00  0.00     0.002 A 
ATOM     16  C   UNK d   1      91.672  97.245 -42.099  0.00  0.00     0.009 A 
ENDBRANCH   1  10
BRANCH   8  17
ATOM     17  C   UNK d   1      89.082  98.580 -47.323  0.00  0.00     0.032 A 
ATOM     18  C   UNK d   1      88.316  99.496 -47.963  0.00  0.00     0.019 A 
ATOM     19  N   UNK d   1      87.436  98.837 -48.745  0.00  0.00    -0.354 N 
ATOM     20  C   UNK d   1      88.358 100.990 -47.826  0.00  0.00     0.069 C 
ATOM     21  C   UNK d   1      87.593  97.511 -48.642  0.00  0.00     0.115 A 
ATOM     22  H   UNK d   1      86.715  99.316 -49.358  0.00  0.00     0.166 HD
ATOM     23  C   UNK d   1      88.619  97.321 -47.756  0.00  0.00    -0.014 A 
ATOM     24  C   UNK d   1      89.154  95.994 -47.324  0.00  0.00     0.052 C 
BRANCH  21  25
ATOM     25  C   UNK d   1      86.817  96.466 -49.340  0.00  0.00     0.310 C 
ATOM     26  O   UNK d   1      87.271  95.970 -50.381  0.00  0.00    -0.258 OA
BRANCH  25  27
ATOM     27  O   UNK d   1      85.600  96.041 -48.844  0.00  0.00    -0.321 OA
ATOM     28  C   UNK d   1      85.211  96.180 -47.496  0.00  0.00     0.213 C 
ENDBRANCH  25  27
ENDBRANCH  21  25
ENDBRANCH   8  17
BRANCH   2  29
ATOM     29  C   UNK d   1      91.235 100.668 -42.312  0.00  0.00     0.155 C 
BRANCH  29  30
ATOM     30  C   UNK d   1      92.580 101.040 -42.896  0.00  0.00     0.255 C 
BRANCH  30  31
ATOM     31  N   UNK d   1      93.561 101.384 -41.918  0.00  0.00    -0.066 N 
ATOM     32  C   UNK d   1      93.016 101.589 -40.582  0.00  0.00     0.261 C 
ATOM     33  C   UNK d   1      94.157 101.484 -39.606  0.00  0.00     0.195 C 
ATOM     34  O   UNK d   1      95.336 101.758 -40.253  0.00  0.00    -0.388 OA
ATOM     35  C   UNK d   1      95.276 102.836 -41.119  0.00  0.00     0.195 C 
ATOM     36  C   UNK d   1      94.261 102.621 -42.241  0.00  0.00     0.261 C 
ATOM     37  H   UNK d   1      94.292 100.650 -41.893  0.00  0.00     0.280 HD
ENDBRANCH  30  31
ENDBRANCH  29  30
ENDBRANCH   2  29
TORSDOF 7
ENDMDL
