MODEL 1
REMARK VINA RESULT:    -6.453      0.000      0.000
REMARK INTER + INTRA:         -10.279
REMARK INTER:                  -9.093
REMARK INTRA:                  -1.185
REMARK UNBOUND:                -1.185
REMARK  7 active torsions:
REMARK  status: ('A' for Active; 'I' for Inactive)
REMARK    1  A    between atoms: C_4  and  C_8 
REMARK    2  A    between atoms: N_9  and  C_26 
REMARK    3  A    between atoms: C_15  and  C_17 
REMARK    4  A    between atoms: C_20  and  O_23 
REMARK    5  A    between atoms: C_26  and  C_27 
REMARK    6  A    between atoms: C_27  and  C_28 
REMARK    7  A    between atoms: C_28  and  N_29 
ROOT
ATOM      1  C   UNK d   1      91.201 100.591 -44.151  0.00  0.00     0.161 C 
ATOM      2  N   UNK d   1      91.575 101.190 -45.418  0.00  0.00    -0.332 N 
ATOM      3  C   UNK d   1      92.460 100.350 -46.126  0.00  0.00     0.295 C 
ATOM      4  O   UNK d   1      93.245 100.591 -47.078  0.00  0.00    -0.264 OA
ATOM      5  C   UNK d   1      92.310  99.004 -45.516  0.00  0.00     0.250 C 
ATOM      6  O   UNK d   1      92.944  98.000 -45.897  0.00  0.00    -0.282 OA
ATOM      7  C   UNK d   1      91.326  99.124 -44.456  0.00  0.00     0.062 C 
ATOM      8  C   UNK d   1      90.652  98.138 -43.921  0.00  0.00     0.130 C 
ATOM      9  O   UNK d   1      89.678  98.423 -42.947  0.00  0.00    -0.190 OA
ENDROOT
BRANCH   1  10
ATOM     10  C   UNK d   1      92.077 100.995 -43.038  0.00  0.00    -0.029 A 
ATOM     11  C   UNK d   1      93.119 101.877 -43.211  0.00  0.00     0.028 A 
ATOM     12  C   UNK d   1      93.934 102.245 -42.146  0.00  0.00     0.011 A 
ATOM     13 Br   UNK d   1      95.373 103.466 -42.409  0.00  0.00    -0.051 Br
ATOM     14  C   UNK d   1      93.700 101.722 -40.885  0.00  0.00     0.019 A 
ATOM     15  C   UNK d   1      92.653 100.840 -40.721  0.00  0.00     0.002 A 
ATOM     16  C   UNK d   1      91.847 100.478 -41.782  0.00  0.00     0.009 A 
ENDBRANCH   1  10
BRANCH   8  17
ATOM     17  C   UNK d   1      90.874  96.765 -44.286  0.00  0.00     0.002 A 
ATOM     18  C   UNK d   1      91.487  95.948 -43.325  0.00  0.00     0.024 A 
ATOM     19  C   UNK d   1      91.773  94.639 -43.601  0.00  0.00    -0.028 A 
ATOM     20  C   UNK d   1      91.474  94.065 -44.831  0.00  0.00     0.074 A 
ATOM     21  C   UNK d   1      92.429  93.781 -42.564  0.00  0.00     0.051 C 
ATOM     22  C   UNK d   1      90.880  94.876 -45.747  0.00  0.00     0.038 A 
ATOM     23  C   UNK d   1      90.585  96.199 -45.485  0.00  0.00     0.017 A 
BRANCH  20  24
ATOM     24  O   UNK d   1      91.794  92.738 -45.030  0.00  0.00    -0.355 OA
ATOM     25  C   UNK d   1      91.449  92.079 -46.239  0.00  0.00     0.210 C 
ENDBRANCH  20  24
ENDBRANCH   8  17
BRANCH   2  26
ATOM     26  C   UNK d   1      91.107 102.488 -45.930  0.00  0.00     0.129 C 
BRANCH  26  27
ATOM     27  C   UNK d   1      89.621 102.608 -45.736  0.00  0.00     0.048 C 
BRANCH  27  28
ATOM     28  C   UNK d   1      88.801 101.647 -46.529  0.00  0.00     0.236 C 
BRANCH  28  29
ATOM     29  N   UNK d   1      88.153 100.635 -45.725  0.00  0.00    -0.067 N 
ATOM     30  C   UNK d   1      86.768 100.967 -45.455  0.00  0.00     0.261 C 
ATOM     31  C   UNK d   1      85.843  99.966 -46.094  0.00  0.00     0.195 C 
ATOM     32  O   UNK d   1      86.120  98.705 -45.527  0.00  0.00    -0.388 OA
ATOM     33  C   UNK d   1      87.413  98.298 -45.849  0.00  0.00     0.195 C 
ATOM     34  C   UNK d   1      88.250  99.373 -46.464  0.00  0.00     0.261 C 
ATOM     35  H   UNK d   1      88.634 100.454 -44.819  0.00  0.00     0.280 HD
ENDBRANCH  28  29
ENDBRANCH  27  28
ENDBRANCH  26  27
ENDBRANCH   2  26
TORSDOF 7
ENDMDL
