MODEL 1
REMARK VINA RESULT:    -6.621      0.000      0.000
REMARK INTER + INTRA:          -9.329
REMARK INTER:                  -8.557
REMARK INTRA:                  -0.772
REMARK UNBOUND:                -0.772
REMARK  5 active torsions:
REMARK  status: ('A' for Active; 'I' for Inactive)
REMARK    1  A    between atoms: C_4  and  C_8 
REMARK    2  A    between atoms: N_9  and  C_24 
REMARK    3  A    between atoms: C_15  and  C_17 
REMARK    4  A    between atoms: C_24  and  C_25 
REMARK    5  A    between atoms: C_25  and  N_26 
ROOT
ATOM      1  C   UNK d   1      90.851  97.461 -45.504  0.00  0.00     0.161 C 
ATOM      2  N   UNK d   1      91.786  98.388 -44.940  0.00  0.00    -0.331 N 
ATOM      3  C   UNK d   1      91.231  98.812 -43.704  0.00  0.00     0.295 C 
ATOM      4  O   UNK d   1      91.863  99.348 -42.760  0.00  0.00    -0.264 OA
ATOM      5  C   UNK d   1      89.778  98.525 -43.699  0.00  0.00     0.250 C 
ATOM      6  O   UNK d   1      88.959  98.756 -42.793  0.00  0.00    -0.282 OA
ATOM      7  C   UNK d   1      89.510  97.911 -44.986  0.00  0.00     0.062 C 
ATOM      8  C   UNK d   1      88.357  97.808 -45.609  0.00  0.00     0.130 C 
ATOM      9  O   UNK d   1      88.306  97.248 -46.868  0.00  0.00    -0.190 OA
ENDROOT
BRANCH   2  10
ATOM     10  C   UNK d   1      93.079  98.835 -45.496  0.00  0.00     0.155 C 
BRANCH  10  11
ATOM     11  C   UNK d   1      92.818 100.094 -46.274  0.00  0.00     0.255 C 
BRANCH  11  12
ATOM     12  N   UNK d   1      92.368  99.902 -47.605  0.00  0.00    -0.066 N 
ATOM     13  C   UNK d   1      91.003 100.255 -47.867  0.00  0.00     0.261 C 
ATOM     14  C   UNK d   1      90.808 101.673 -48.327  0.00  0.00     0.195 C 
ATOM     15  O   UNK d   1      91.756 102.100 -49.231  0.00  0.00    -0.388 OA
ATOM     16  C   UNK d   1      93.036 101.973 -48.745  0.00  0.00     0.195 C 
ATOM     17  C   UNK d   1      93.301 100.508 -48.522  0.00  0.00     0.261 C 
ATOM     18  H   UNK d   1      92.448  98.859 -47.801  0.00  0.00     0.280 HD
ENDBRANCH  11  12
ENDBRANCH  10  11
ENDBRANCH   2  10
BRANCH   1  19
ATOM     19  C   UNK d   1      91.113  96.053 -45.094  0.00  0.00    -0.029 A 
ATOM     20  C   UNK d   1      91.563  95.722 -43.833  0.00  0.00     0.028 A 
ATOM     21  C   UNK d   1      91.808  94.408 -43.448  0.00  0.00     0.011 A 
ATOM     22 Br   UNK d   1      92.431  93.994 -41.690  0.00  0.00    -0.051 Br
ATOM     23  C   UNK d   1      91.597  93.410 -44.346  0.00  0.00     0.019 A 
ATOM     24  C   UNK d   1      91.149  93.690 -45.612  0.00  0.00     0.002 A 
ATOM     25  C   UNK d   1      90.913  94.999 -45.974  0.00  0.00     0.009 A 
ENDBRANCH   1  19
BRANCH   8  26
ATOM     26  C   UNK d   1      87.128  98.261 -45.009  0.00  0.00     0.001 A 
ATOM     27  C   UNK d   1      86.246  97.505 -44.293  0.00  0.00     0.015 A 
ATOM     28  C   UNK d   1      85.120  98.083 -43.737  0.00  0.00     0.007 A 
ATOM     29  C   UNK d   1      84.812  99.419 -43.858  0.00  0.00    -0.062 A 
ATOM     30  C   UNK d   1      85.705 100.181 -44.582  0.00  0.00     0.007 A 
ATOM     31  C   UNK d   1      83.592 100.017 -43.249  0.00  0.00     0.048 C 
ATOM     32  C   UNK d   1      86.828  99.626 -45.144  0.00  0.00     0.015 A 
ENDBRANCH   8  26
TORSDOF 5
ENDMDL
