/Users/jonathanwahrer/Desktop/Msc/3_Semester/Drug_Design_Praktikum/waehrer_HTS_screening/HTS_experiment/out/docking_results/vina_output/4agl/0175_docked.pdbqt
 OpenBabel03202223083D

 32 35  0  0  1  0  0  0  0  0999 V2000
   90.8510   97.4610  -45.5040 C   0  0  2  0  0  3  0  0  0  0  0  0
   91.7860   98.3880  -44.9400 N   0  0  0  0  0  0  0  0  0  0  0  0
   91.2310   98.8120  -43.7040 C   0  0  0  0  0  0  0  0  0  0  0  0
   91.8630   99.3480  -42.7600 O   0  0  0  0  0  0  0  0  0  0  0  0
   89.7780   98.5250  -43.6990 C   0  0  0  0  0  0  0  0  0  0  0  0
   88.9590   98.7560  -42.7930 O   0  0  0  0  0  0  0  0  0  0  0  0
   89.5100   97.9110  -44.9860 C   0  0  0  0  0  0  0  0  0  0  0  0
   88.3570   97.8080  -45.6090 C   0  0  0  0  0  0  0  0  0  0  0  0
   88.3060   97.2480  -46.8680 O   0  0  0  0  0  1  0  0  0  0  0  0
   93.0790   98.8350  -45.4960 C   0  0  0  0  0  2  0  0  0  0  0  0
   92.8180  100.0940  -46.2740 C   0  0  0  0  0  2  0  0  0  0  0  0
   92.3680   99.9020  -47.6050 N   0  0  0  0  0  4  0  0  0  0  0  0
   91.0030  100.2550  -47.8670 C   0  0  0  0  0  2  0  0  0  0  0  0
   90.8080  101.6730  -48.3270 C   0  0  0  0  0  2  0  0  0  0  0  0
   91.7560  102.1000  -49.2310 O   0  0  0  0  0  0  0  0  0  0  0  0
   93.0360  101.9730  -48.7450 C   0  0  0  0  0  2  0  0  0  0  0  0
   93.3010  100.5080  -48.5220 C   0  0  0  0  0  2  0  0  0  0  0  0
   92.4480   98.8590  -47.8010 H   0  0  0  0  0  0  0  0  0  0  0  0
   91.1130   96.0530  -45.0940 C   0  0  0  0  0  0  0  0  0  0  0  0
   91.5630   95.7220  -43.8330 C   0  0  0  0  0  3  0  0  0  0  0  0
   91.8080   94.4080  -43.4480 C   0  0  0  0  0  0  0  0  0  0  0  0
   92.4310   93.9940  -41.6900 Br  0  0  0  0  0  0  0  0  0  0  0  0
   91.5970   93.4100  -44.3460 C   0  0  0  0  0  3  0  0  0  0  0  0
   91.1490   93.6900  -45.6120 C   0  0  0  0  0  3  0  0  0  0  0  0
   90.9130   94.9990  -45.9740 C   0  0  0  0  0  3  0  0  0  0  0  0
   87.1280   98.2610  -45.0090 C   0  0  0  0  0  0  0  0  0  0  0  0
   86.2460   97.5050  -44.2930 C   0  0  0  0  0  3  0  0  0  0  0  0
   85.1200   98.0830  -43.7370 C   0  0  0  0  0  3  0  0  0  0  0  0
   84.8120   99.4190  -43.8580 C   0  0  0  0  0  0  0  0  0  0  0  0
   85.7050  100.1810  -44.5820 C   0  0  0  0  0  3  0  0  0  0  0  0
   83.5920  100.0170  -43.2490 C   0  0  0  0  0  1  0  0  0  0  0  0
   86.8280   99.6260  -45.1440 C   0  0  0  0  0  3  0  0  0  0  0  0
  1 19  1  1  0  0  0
  1  7  1  0  0  0  0
  1  2  1  0  0  0  0
  2  3  1  0  0  0  0
  3  5  1  0  0  0  0
  3  4  2  0  0  0  0
  5  6  2  0  0  0  0
  7  5  1  0  0  0  0
  8 26  1  0  0  0  0
  8  7  2  0  0  0  0
  9  8  1  0  0  0  0
 10  2  1  0  0  0  0
 11 10  1  0  0  0  0
 12 11  1  0  0  0  0
 13 12  1  0  0  0  0
 14 13  1  0  0  0  0
 15 16  1  0  0  0  0
 15 14  1  0  0  0  0
 16 17  1  0  0  0  0
 17 12  1  0  0  0  0
 18 12  1  0  0  0  0
 19 20  1  0  0  0  0
 20 21  2  0  0  0  0
 21 22  1  0  0  0  0
 23 21  1  0  0  0  0
 24 23  2  0  0  0  0
 25 24  1  0  0  0  0
 25 19  2  0  0  0  0
 26 27  1  0  0  0  0
 27 28  2  0  0  0  0
 29 28  1  0  0  0  0
 29 31  1  0  0  0  0
 30 29  2  0  0  0  0
 32 26  2  0  0  0  0
 32 30  1  0  0  0  0
M  END
>  <Pose>
1

>  <Score>
-6.621

$$$$
