/Users/jonathanwahrer/Desktop/Msc/3_Semester/Drug_Design_Praktikum/waehrer_HTS_screening/HTS_experiment/out/docking_results/vina_output/4agl/0176_docked.pdbqt
 OpenBabel03202223083D

 33 36  0  0  1  0  0  0  0  0999 V2000
   90.8930   97.6680  -45.1910 C   0  0  1  0  0  3  0  0  0  0  0  0
   89.5250   97.7310  -45.6800 N   0  0  0  0  0  0  0  0  0  0  0  0
   88.7090   98.1900  -44.5830 C   0  0  0  0  0  0  0  0  0  0  0  0
   87.4620   98.0590  -44.5160 O   0  0  0  0  0  0  0  0  0  0  0  0
   89.5980   98.8060  -43.6220 C   0  0  0  0  0  0  0  0  0  0  0  0
   89.3020   99.3400  -42.5070 O   0  0  0  0  0  0  0  0  0  0  0  0
   90.9510   98.7140  -44.1530 C   0  0  0  0  0  0  0  0  0  0  0  0
   91.9910   99.4180  -43.7310 C   0  0  0  0  0  0  0  0  0  0  0  0
   93.2040   99.0980  -44.3770 O   0  0  0  0  0  1  0  0  0  0  0  0
   89.0810   97.3110  -46.9700 C   0  0  0  0  0  2  0  0  0  0  0  0
   88.7770   98.3240  -47.9950 C   0  0  0  0  0  2  0  0  0  0  0  0
   89.5340   99.5990  -48.0320 C   0  0  0  0  0  2  0  0  0  0  0  0
   90.8990   99.5620  -48.4370 N   0  0  0  0  0  4  0  0  0  0  0  0
   91.0760  100.2170  -49.7080 C   0  0  0  0  0  2  0  0  0  0  0  0
   91.4430  101.6810  -49.5830 C   0  0  0  0  0  2  0  0  0  0  0  0
   92.7020  101.8090  -48.9910 O   0  0  0  0  0  0  0  0  0  0  0  0
   92.9950  100.6990  -48.1980 C   0  0  0  0  0  2  0  0  0  0  0  0
   91.7340  100.3340  -47.4650 C   0  0  0  0  0  2  0  0  0  0  0  0
   91.3020   98.6300  -48.3980 H   0  0  0  0  0  0  0  0  0  0  0  0
   91.2020   96.3130  -44.6700 C   0  0  0  0  0  0  0  0  0  0  0  0
   91.1940   95.2280  -45.5160 C   0  0  0  0  0  3  0  0  0  0  0  0
   91.4740   93.9410  -45.0760 C   0  0  0  0  0  0  0  0  0  0  0  0
   91.4720   92.4360  -46.2360 Br  0  0  0  0  0  0  0  0  0  0  0  0
   91.7720   93.7190  -43.7480 C   0  0  0  0  0  3  0  0  0  0  0  0
   91.7800   94.8030  -42.9000 C   0  0  0  0  0  3  0  0  0  0  0  0
   91.4970   96.0980  -43.3570 C   0  0  0  0  0  3  0  0  0  0  0  0
   91.9380  100.4420  -42.7000 C   0  0  0  0  0  0  0  0  0  0  0  0
   92.2310  100.2490  -41.3710 C   0  0  0  0  0  3  0  0  0  0  0  0
   92.1960  101.2690  -40.4420 C   0  0  0  0  0  3  0  0  0  0  0  0
   91.8570  102.5490  -40.8190 C   0  0  0  0  0  0  0  0  0  0  0  0
   91.5590  102.7610  -42.1510 C   0  0  0  0  0  3  0  0  0  0  0  0
   91.8060  103.8710  -39.6490 Cl  0  0  0  0  0  0  0  0  0  0  0  0
   91.5970  101.7340  -43.0730 C   0  0  0  0  0  3  0  0  0  0  0  0
  1 20  1  1  0  0  0
  1  7  1  0  0  0  0
  2  1  1  0  0  0  0
  2  3  1  0  0  0  0
  3  4  2  0  0  0  0
  3  5  1  0  0  0  0
  5  6  2  0  0  0  0
  7  8  2  0  0  0  0
  7  5  1  0  0  0  0
  8 27  1  0  0  0  0
  9  8  1  0  0  0  0
 10  2  1  0  0  0  0
 11 10  1  0  0  0  0
 12 11  1  0  0  0  0
 13 19  1  0  0  0  0
 13 12  1  0  0  0  0
 13 18  1  0  0  0  0
 14 15  1  0  0  0  0
 14 13  1  0  0  0  0
 15 16  1  0  0  0  0
 16 17  1  0  0  0  0
 17 18  1  0  0  0  0
 20 26  1  0  0  0  0
 21 22  1  0  0  0  0
 21 20  2  0  0  0  0
 22 24  2  0  0  0  0
 23 22  1  0  0  0  0
 24 25  1  0  0  0  0
 26 25  2  0  0  0  0
 27 28  1  0  0  0  0
 28 29  2  0  0  0  0
 30 29  1  0  0  0  0
 30 32  1  0  0  0  0
 31 30  2  0  0  0  0
 33 27  2  0  0  0  0
 33 31  1  0  0  0  0
M  END
>  <Pose>
1

>  <Score>
-6.229

$$$$
