MODEL 1
REMARK VINA RESULT:    -6.229      0.000      0.000
REMARK INTER + INTRA:          -9.629
REMARK INTER:                  -8.414
REMARK INTRA:                  -1.215
REMARK UNBOUND:                -1.215
REMARK  6 active torsions:
REMARK  status: ('A' for Active; 'I' for Inactive)
REMARK    1  A    between atoms: C_4  and  C_8 
REMARK    2  A    between atoms: N_9  and  C_24 
REMARK    3  A    between atoms: C_15  and  C_17 
REMARK    4  A    between atoms: C_24  and  C_25 
REMARK    5  A    between atoms: C_25  and  C_26 
REMARK    6  A    between atoms: C_26  and  N_27 
ROOT
ATOM      1  C   UNK d   1      90.893  97.668 -45.191  0.00  0.00     0.161 C 
ATOM      2  N   UNK d   1      89.525  97.731 -45.680  0.00  0.00    -0.332 N 
ATOM      3  C   UNK d   1      88.709  98.190 -44.583  0.00  0.00     0.295 C 
ATOM      4  O   UNK d   1      87.462  98.059 -44.516  0.00  0.00    -0.264 OA
ATOM      5  C   UNK d   1      89.598  98.806 -43.622  0.00  0.00     0.250 C 
ATOM      6  O   UNK d   1      89.302  99.340 -42.507  0.00  0.00    -0.282 OA
ATOM      7  C   UNK d   1      90.951  98.714 -44.153  0.00  0.00     0.062 C 
ATOM      8  C   UNK d   1      91.991  99.418 -43.731  0.00  0.00     0.130 C 
ATOM      9  O   UNK d   1      93.204  99.098 -44.377  0.00  0.00    -0.190 OA
ENDROOT
BRANCH   2  10
ATOM     10  C   UNK d   1      89.081  97.311 -46.970  0.00  0.00     0.129 C 
BRANCH  10  11
ATOM     11  C   UNK d   1      88.777  98.324 -47.995  0.00  0.00     0.048 C 
BRANCH  11  12
ATOM     12  C   UNK d   1      89.534  99.599 -48.032  0.00  0.00     0.236 C 
BRANCH  12  13
ATOM     13  N   UNK d   1      90.899  99.562 -48.437  0.00  0.00    -0.067 N 
ATOM     14  C   UNK d   1      91.076 100.217 -49.708  0.00  0.00     0.261 C 
ATOM     15  C   UNK d   1      91.443 101.681 -49.583  0.00  0.00     0.195 C 
ATOM     16  O   UNK d   1      92.702 101.809 -48.991  0.00  0.00    -0.388 OA
ATOM     17  C   UNK d   1      92.995 100.699 -48.198  0.00  0.00     0.195 C 
ATOM     18  C   UNK d   1      91.734 100.334 -47.465  0.00  0.00     0.261 C 
ATOM     19  H   UNK d   1      91.302  98.630 -48.398  0.00  0.00     0.280 HD
ENDBRANCH  12  13
ENDBRANCH  11  12
ENDBRANCH  10  11
ENDBRANCH   2  10
BRANCH   1  20
ATOM     20  C   UNK d   1      91.202  96.313 -44.670  0.00  0.00    -0.029 A 
ATOM     21  C   UNK d   1      91.194  95.228 -45.516  0.00  0.00     0.028 A 
ATOM     22  C   UNK d   1      91.474  93.941 -45.076  0.00  0.00     0.011 A 
ATOM     23 Br   UNK d   1      91.472  92.436 -46.236  0.00  0.00    -0.051 Br
ATOM     24  C   UNK d   1      91.772  93.719 -43.748  0.00  0.00     0.019 A 
ATOM     25  C   UNK d   1      91.780  94.803 -42.900  0.00  0.00     0.002 A 
ATOM     26  C   UNK d   1      91.497  96.098 -43.357  0.00  0.00     0.009 A 
ENDBRANCH   1  20
BRANCH   8  27
ATOM     27  C   UNK d   1      91.938 100.442 -42.700  0.00  0.00     0.001 A 
ATOM     28  C   UNK d   1      92.231 100.249 -41.371  0.00  0.00     0.016 A 
ATOM     29  C   UNK d   1      92.196 101.269 -40.442  0.00  0.00     0.024 A 
ATOM     30  C   UNK d   1      91.857 102.549 -40.819  0.00  0.00     0.034 A 
ATOM     31  C   UNK d   1      91.559 102.761 -42.151  0.00  0.00     0.024 A 
ATOM     32 Cl   UNK d   1      91.806 103.871 -39.649  0.00  0.00    -0.084 Cl
ATOM     33  C   UNK d   1      91.597 101.734 -43.073  0.00  0.00     0.016 A 
ENDBRANCH   8  27
TORSDOF 6
ENDMDL
