/Users/jonathanwahrer/Desktop/Msc/3_Semester/Drug_Design_Praktikum/waehrer_HTS_screening/HTS_experiment/out/docking_results/vina_output/4agl/0182_docked.pdbqt
 OpenBabel03202223093D

 36 40  0  0  1  0  0  0  0  0999 V2000
   89.9740   98.8020  -42.8650 C   0  0  2  0  0  3  0  0  0  0  0  0
   88.8010   99.3560  -43.4460 N   0  0  0  0  0  0  0  0  0  0  0  0
   88.5840  100.5790  -42.6690 C   0  0  0  0  0  0  0  0  0  0  0  0
   87.4930  101.1360  -42.4660 O   0  0  0  0  0  0  0  0  0  0  0  0
   89.9110  101.0010  -42.1900 C   0  0  0  0  0  0  0  0  0  0  0  0
   90.1990  102.0000  -41.4910 O   0  0  0  0  0  0  0  0  0  0  0  0
   90.8450  100.0030  -42.7050 C   0  0  0  0  0  0  0  0  0  0  0  0
   92.1100  100.1810  -42.9840 C   0  0  0  0  0  0  0  0  0  0  0  0
   92.8060   99.0840  -43.5360 O   0  0  0  0  0  1  0  0  0  0  0  0
   90.5840   97.6270  -43.4120 C   0  0  0  0  0  0  0  0  0  0  0  0
   91.1450   96.6720  -42.5400 C   0  0  0  0  0  3  0  0  0  0  0  0
   91.7580   95.5270  -42.9760 C   0  0  0  0  0  0  0  0  0  0  0  0
   92.4980   94.2730  -41.7310 Br  0  0  0  0  0  0  0  0  0  0  0  0
   91.8610   95.2450  -44.3110 C   0  0  0  0  0  3  0  0  0  0  0  0
   91.3280   96.1480  -45.2030 C   0  0  0  0  0  3  0  0  0  0  0  0
   90.7160   97.2940  -44.7420 C   0  0  0  0  0  3  0  0  0  0  0  0
   92.8070  101.4360  -42.7440 C   0  0  0  0  0  0  0  0  0  0  0  0
   93.3600  101.9540  -41.6370 N   0  0  0  0  0  0  0  0  0  0  0  0
   93.8500  103.1670  -41.9060 C   0  0  0  0  0  0  0  0  0  0  0  0
   93.4610  101.3830  -40.4050 C   0  0  0  0  0  3  0  0  0  0  0  0
   93.6010  103.4220  -43.2170 N   0  0  0  0  0  0  0  0  0  0  0  0
   94.4960  103.9280  -40.9330 C   0  0  0  0  0  0  0  0  0  0  0  0
   92.9620  102.3820  -43.7690 C   0  0  0  0  0  0  0  0  0  0  0  0
   92.5070  102.2550  -45.1820 C   0  0  0  0  0  1  0  0  0  0  0  0
   94.6120  103.3730  -39.6740 C   0  0  0  0  0  3  0  0  0  0  0  0
   95.0190  105.2700  -41.2880 C   0  0  0  0  0  1  0  0  0  0  0  0
   94.0950  102.1140  -39.4300 C   0  0  0  0  0  3  0  0  0  0  0  0
   87.8870   98.9380  -44.4960 C   0  0  0  0  0  2  0  0  0  0  0  0
   86.7020   98.1620  -44.0350 C   0  0  0  0  0  2  0  0  0  0  0  0
   85.5240   98.9860  -43.8520 N   0  0  0  0  0  4  0  0  0  0  0  0
   85.3390   99.8990  -44.9580 C   0  0  0  0  0  2  0  0  0  0  0  0
   84.8620   99.1230  -46.1900 C   0  0  0  0  0  2  0  0  0  0  0  0
   83.5910   98.6360  -45.8640 O   0  0  0  0  0  0  0  0  0  0  0  0
   83.8090   97.6180  -44.9130 C   0  0  0  0  0  2  0  0  0  0  0  0
   84.3420   98.1800  -43.6160 C   0  0  0  0  0  2  0  0  0  0  0  0
   85.6540   99.5800  -42.9970 H   0  0  0  0  0  0  0  0  0  0  0  0
  1 10  1  6  0  0  0
  1  7  1  0  0  0  0
  2  1  1  0  0  0  0
  2  3  1  0  0  0  0
  3  4  2  0  0  0  0
  3  5  1  0  0  0  0
  5  6  2  0  0  0  0
  7  5  1  0  0  0  0
  8 17  1  0  0  0  0
  8  7  2  0  0  0  0
  9  8  1  0  0  0  0
 10 11  1  0  0  0  0
 12 11  2  0  0  0  0
 12 13  1  0  0  0  0
 14 12  1  0  0  0  0
 15 16  1  0  0  0  0
 15 14  2  0  0  0  0
 16 10  2  0  0  0  0
 17 18  1  0  0  0  0
 18 20  1  0  0  0  0
 19 18  1  0  0  0  0
 19 22  1  0  0  0  0
 20 27  2  0  0  0  0
 21 19  2  0  0  0  0
 22 25  2  0  0  0  0
 23 21  1  0  0  0  0
 23 17  2  0  0  0  0
 24 23  1  0  0  0  0
 25 27  1  0  0  0  0
 26 22  1  0  0  0  0
 28 29  1  0  0  0  0
 28  2  1  0  0  0  0
 29 30  1  0  0  0  0
 30 35  1  0  0  0  0
 30 36  1  0  0  0  0
 31 30  1  0  0  0  0
 32 33  1  0  0  0  0
 32 31  1  0  0  0  0
 33 34  1  0  0  0  0
 34 35  1  0  0  0  0
M  END
>  <Pose>
1

>  <Score>
-6.151

$$$$
