MODEL 1
REMARK VINA RESULT:    -6.151      0.000      0.000
REMARK INTER + INTRA:          -9.022
REMARK INTER:                  -7.948
REMARK INTRA:                  -1.074
REMARK UNBOUND:                -1.074
REMARK  5 active torsions:
REMARK  status: ('A' for Active; 'I' for Inactive)
REMARK    1  A    between atoms: C_4  and  C_8 
REMARK    2  A    between atoms: N_9  and  C_28 
REMARK    3  A    between atoms: C_15  and  C_17 
REMARK    4  A    between atoms: C_28  and  C_29 
REMARK    5  A    between atoms: C_29  and  N_30 
ROOT
ATOM      1  C   UNK d   1      89.974  98.802 -42.865  0.00  0.00     0.161 C 
ATOM      2  N   UNK d   1      88.801  99.356 -43.446  0.00  0.00    -0.331 N 
ATOM      3  C   UNK d   1      88.584 100.579 -42.669  0.00  0.00     0.295 C 
ATOM      4  O   UNK d   1      87.493 101.136 -42.466  0.00  0.00    -0.264 OA
ATOM      5  C   UNK d   1      89.911 101.001 -42.190  0.00  0.00     0.251 C 
ATOM      6  O   UNK d   1      90.199 102.000 -41.491  0.00  0.00    -0.282 OA
ATOM      7  C   UNK d   1      90.845 100.003 -42.705  0.00  0.00     0.064 C 
ATOM      8  C   UNK d   1      92.110 100.181 -42.984  0.00  0.00     0.149 C 
ATOM      9  O   UNK d   1      92.806  99.084 -43.536  0.00  0.00    -0.189 OA
ENDROOT
BRANCH   1  10
ATOM     10  C   UNK d   1      90.584  97.627 -43.412  0.00  0.00    -0.029 A 
ATOM     11  C   UNK d   1      91.145  96.672 -42.540  0.00  0.00     0.028 A 
ATOM     12  C   UNK d   1      91.758  95.527 -42.976  0.00  0.00     0.011 A 
ATOM     13 Br   UNK d   1      92.498  94.273 -41.731  0.00  0.00    -0.051 Br
ATOM     14  C   UNK d   1      91.861  95.245 -44.311  0.00  0.00     0.019 A 
ATOM     15  C   UNK d   1      91.328  96.148 -45.203  0.00  0.00     0.002 A 
ATOM     16  C   UNK d   1      90.716  97.294 -44.742  0.00  0.00     0.009 A 
ENDBRANCH   1  10
BRANCH   8  17
ATOM     17  C   UNK d   1      92.807 101.436 -42.744  0.00  0.00     0.102 A 
ATOM     18  N   UNK d   1      93.360 101.954 -41.637  0.00  0.00    -0.302 N 
ATOM     19  C   UNK d   1      93.850 103.167 -41.906  0.00  0.00     0.140 A 
ATOM     20  C   UNK d   1      93.461 101.383 -40.405  0.00  0.00     0.099 A 
ATOM     21  N   UNK d   1      93.601 103.422 -43.217  0.00  0.00    -0.233 NA
ATOM     22  C   UNK d   1      94.496 103.928 -40.933  0.00  0.00    -0.015 A 
ATOM     23  C   UNK d   1      92.962 102.382 -43.769  0.00  0.00     0.063 A 
ATOM     24  C   UNK d   1      92.507 102.255 -45.182  0.00  0.00     0.073 C 
ATOM     25  C   UNK d   1      94.612 103.373 -39.674  0.00  0.00     0.012 A 
ATOM     26  C   UNK d   1      95.019 105.270 -41.288  0.00  0.00     0.052 C 
ATOM     27  C   UNK d   1      94.095 102.114 -39.430  0.00  0.00     0.018 A 
ENDBRANCH   8  17
BRANCH   2  28
ATOM     28  C   UNK d   1      87.887  98.938 -44.496  0.00  0.00     0.155 C 
BRANCH  28  29
ATOM     29  C   UNK d   1      86.702  98.162 -44.035  0.00  0.00     0.255 C 
BRANCH  29  30
ATOM     30  N   UNK d   1      85.524  98.986 -43.852  0.00  0.00    -0.066 N 
ATOM     31  C   UNK d   1      85.339  99.899 -44.958  0.00  0.00     0.261 C 
ATOM     32  C   UNK d   1      84.862  99.123 -46.190  0.00  0.00     0.195 C 
ATOM     33  O   UNK d   1      83.591  98.636 -45.864  0.00  0.00    -0.388 OA
ATOM     34  C   UNK d   1      83.809  97.618 -44.913  0.00  0.00     0.195 C 
ATOM     35  C   UNK d   1      84.342  98.180 -43.616  0.00  0.00     0.261 C 
ATOM     36  H   UNK d   1      85.654  99.580 -42.997  0.00  0.00     0.280 HD
ENDBRANCH  29  30
ENDBRANCH  28  29
ENDBRANCH   2  28
TORSDOF 5
ENDMDL
