/Users/jonathanwahrer/Desktop/Msc/3_Semester/Drug_Design_Praktikum/waehrer_HTS_screening/HTS_experiment/out/docking_results/vina_output/4agl/0184_docked.pdbqt
 OpenBabel03202223093D

 33 36  0  0  1  0  0  0  0  0999 V2000
   92.3000   98.5240  -44.4310 C   0  0  2  0  0  3  0  0  0  0  0  0
   91.4330   97.4120  -44.0930 N   0  0  0  0  0  0  0  0  0  0  0  0
   91.6590   97.1720  -42.6970 C   0  0  0  0  0  0  0  0  0  0  0  0
   91.4940   96.1090  -42.0730 O   0  0  0  0  0  0  0  0  0  0  0  0
   92.1280   98.4270  -42.1220 C   0  0  0  0  0  0  0  0  0  0  0  0
   92.4610   98.7150  -40.9340 O   0  0  0  0  0  0  0  0  0  0  0  0
   92.1630   99.3870  -43.2160 C   0  0  0  0  0  0  0  0  0  0  0  0
   92.1280  100.6990  -43.0960 C   0  0  0  0  0  0  0  0  0  0  0  0
   92.2390  101.4290  -44.2880 O   0  0  0  0  0  1  0  0  0  0  0  0
   91.9240   99.2500  -45.6500 C   0  0  0  0  0  0  0  0  0  0  0  0
   92.8030   99.6620  -46.5940 C   0  0  0  0  0  3  0  0  0  0  0  0
   92.3610  100.3540  -47.7220 C   0  0  0  0  0  0  0  0  0  0  0  0
   93.6260  100.9160  -49.0240 Br  0  0  0  0  0  0  0  0  0  0  0  0
   91.0180  100.6430  -47.9180 C   0  0  0  0  0  3  0  0  0  0  0  0
   90.1410  100.2140  -46.9460 C   0  0  0  0  0  3  0  0  0  0  0  0
   90.5680   99.5370  -45.8420 C   0  0  0  0  0  3  0  0  0  0  0  0
   91.9770  101.4230  -41.8430 C   0  0  0  0  0  0  0  0  0  0  0  0
   92.9460  101.9470  -41.0780 N   0  0  0  0  0  0  0  0  0  0  0  0
   92.4210  102.5890  -40.0030 C   0  0  0  0  0  0  0  0  0  0  0  0
   94.3080  101.9290  -41.1830 C   0  0  0  0  0  3  0  0  0  0  0  0
   91.0730  102.4420  -40.1300 N   0  0  0  0  0  0  0  0  0  0  0  0
   93.2020  103.2110  -39.0420 C   0  0  0  0  0  3  0  0  0  0  0  0
   90.7650  101.7520  -41.2150 C   0  0  0  0  0  0  0  0  0  0  0  0
   89.4590  101.3380  -41.7730 C   0  0  0  0  0  1  0  0  0  0  0  0
   94.5760  103.1890  -39.1570 C   0  0  0  0  0  3  0  0  0  0  0  0
   95.1060  102.5280  -40.2580 C   0  0  0  0  0  3  0  0  0  0  0  0
   90.5250   96.6660  -44.9670 C   0  0  0  0  0  2  0  0  0  0  0  0
   91.2190   95.7140  -45.8710 C   0  0  0  0  0  2  0  0  0  0  0  0
   92.1000   94.6930  -45.2780 C   0  0  0  0  0  2  0  0  0  0  0  0
   91.4690   93.5310  -44.7570 N   0  0  0  0  0  4  0  0  0  0  0  0
   92.1580   93.0810  -43.5720 C   0  0  0  0  0  1  0  0  0  0  0  0
   91.5940   92.4320  -45.7330 C   0  0  0  0  0  1  0  0  0  0  0  0
   90.4390   93.6230  -44.6170 H   0  0  0  0  0  0  0  0  0  0  0  0
  1 10  1  6  0  0  0
  1  2  1  0  0  0  0
  1  7  1  0  0  0  0
  2  3  1  0  0  0  0
  3  5  1  0  0  0  0
  3  4  2  0  0  0  0
  5  6  2  0  0  0  0
  7  8  2  0  0  0  0
  7  5  1  0  0  0  0
  8 17  1  0  0  0  0
  9  8  1  0  0  0  0
 11 10  2  0  0  0  0
 12 11  1  0  0  0  0
 13 12  1  0  0  0  0
 14 12  2  0  0  0  0
 14 15  1  0  0  0  0
 15 16  2  0  0  0  0
 16 10  1  0  0  0  0
 17 23  2  0  0  0  0
 17 18  1  0  0  0  0
 18 19  1  0  0  0  0
 19 22  1  0  0  0  0
 20 18  1  0  0  0  0
 20 26  2  0  0  0  0
 21 19  2  0  0  0  0
 23 21  1  0  0  0  0
 24 23  1  0  0  0  0
 25 22  2  0  0  0  0
 26 25  1  0  0  0  0
 27  2  1  0  0  0  0
 28 29  1  0  0  0  0
 28 27  1  0  0  0  0
 29 30  1  0  0  0  0
 30 33  1  0  0  0  0
 30 31  1  0  0  0  0
 32 30  1  0  0  0  0
M  END
>  <Pose>
1

>  <Score>
-5.743

$$$$
