MODEL 1
REMARK VINA RESULT:    -5.743      0.000      0.000
REMARK INTER + INTRA:          -8.330
REMARK INTER:                  -7.758
REMARK INTRA:                  -0.572
REMARK UNBOUND:                -0.572
REMARK  6 active torsions:
REMARK  status: ('A' for Active; 'I' for Inactive)
REMARK    1  A    between atoms: C_4  and  C_8 
REMARK    2  A    between atoms: N_9  and  C_27 
REMARK    3  A    between atoms: C_15  and  C_17 
REMARK    4  A    between atoms: C_27  and  C_28 
REMARK    5  A    between atoms: C_28  and  C_29 
REMARK    6  A    between atoms: C_29  and  N_30 
ROOT
ATOM      1  C   UNK d   1      92.300  98.524 -44.431  0.00  0.00     0.161 C 
ATOM      2  N   UNK d   1      91.433  97.412 -44.093  0.00  0.00    -0.332 N 
ATOM      3  C   UNK d   1      91.659  97.172 -42.697  0.00  0.00     0.295 C 
ATOM      4  O   UNK d   1      91.494  96.109 -42.073  0.00  0.00    -0.264 OA
ATOM      5  C   UNK d   1      92.128  98.427 -42.122  0.00  0.00     0.251 C 
ATOM      6  O   UNK d   1      92.461  98.715 -40.934  0.00  0.00    -0.282 OA
ATOM      7  C   UNK d   1      92.163  99.387 -43.216  0.00  0.00     0.064 C 
ATOM      8  C   UNK d   1      92.128 100.699 -43.096  0.00  0.00     0.149 C 
ATOM      9  O   UNK d   1      92.239 101.429 -44.288  0.00  0.00    -0.189 OA
ENDROOT
BRANCH   1  10
ATOM     10  C   UNK d   1      91.924  99.250 -45.650  0.00  0.00    -0.029 A 
ATOM     11  C   UNK d   1      92.803  99.662 -46.594  0.00  0.00     0.028 A 
ATOM     12  C   UNK d   1      92.361 100.354 -47.722  0.00  0.00     0.011 A 
ATOM     13 Br   UNK d   1      93.626 100.916 -49.024  0.00  0.00    -0.051 Br
ATOM     14  C   UNK d   1      91.018 100.643 -47.918  0.00  0.00     0.019 A 
ATOM     15  C   UNK d   1      90.141 100.214 -46.946  0.00  0.00     0.002 A 
ATOM     16  C   UNK d   1      90.568  99.537 -45.842  0.00  0.00     0.009 A 
ENDBRANCH   1  10
BRANCH   8  17
ATOM     17  C   UNK d   1      91.977 101.423 -41.843  0.00  0.00     0.102 A 
ATOM     18  N   UNK d   1      92.946 101.947 -41.078  0.00  0.00    -0.302 N 
ATOM     19  C   UNK d   1      92.421 102.589 -40.003  0.00  0.00     0.134 A 
ATOM     20  C   UNK d   1      94.308 101.929 -41.183  0.00  0.00     0.099 A 
ATOM     21  N   UNK d   1      91.073 102.442 -40.130  0.00  0.00    -0.233 NA
ATOM     22  C   UNK d   1      93.202 103.211 -39.042  0.00  0.00     0.051 A 
ATOM     23  C   UNK d   1      90.765 101.752 -41.215  0.00  0.00     0.063 A 
ATOM     24  C   UNK d   1      89.459 101.338 -41.773  0.00  0.00     0.073 C 
ATOM     25  C   UNK d   1      94.576 103.189 -39.157  0.00  0.00     0.005 A 
ATOM     26  C   UNK d   1      95.106 102.528 -40.258  0.00  0.00     0.018 A 
ENDBRANCH   8  17
BRANCH   2  27
ATOM     27  C   UNK d   1      90.525  96.666 -44.967  0.00  0.00     0.129 C 
BRANCH  27  28
ATOM     28  C   UNK d   1      91.219  95.714 -45.871  0.00  0.00     0.048 C 
BRANCH  28  29
ATOM     29  C   UNK d   1      92.100  94.693 -45.278  0.00  0.00     0.235 C 
BRANCH  29  30
ATOM     30  N   UNK d   1      91.469  93.531 -44.757  0.00  0.00    -0.079 N 
ATOM     31  C   UNK d   1      92.158  93.081 -43.572  0.00  0.00     0.269 C 
ATOM     32  C   UNK d   1      91.594  92.432 -45.733  0.00  0.00     0.269 C 
ATOM     33  H   UNK d   1      90.439  93.623 -44.617  0.00  0.00     0.278 HD
ENDBRANCH  29  30
ENDBRANCH  28  29
ENDBRANCH  27  28
ENDBRANCH   2  27
TORSDOF 6
ENDMDL
