MODEL 1
REMARK VINA RESULT:    -6.409      0.000      0.000
REMARK INTER + INTRA:          -9.786
REMARK INTER:                  -9.032
REMARK INTRA:                  -0.754
REMARK UNBOUND:                -0.754
REMARK  7 active torsions:
REMARK  status: ('A' for Active; 'I' for Inactive)
REMARK    1  A    between atoms: C_4  and  C_8 
REMARK    2  A    between atoms: N_9  and  C_28 
REMARK    3  A    between atoms: C_15  and  C_17 
REMARK    4  A    between atoms: C_25  and  O_26 
REMARK    5  A    between atoms: C_28  and  C_29 
REMARK    6  A    between atoms: C_29  and  C_30 
REMARK    7  A    between atoms: C_30  and  N_31 
ROOT
ATOM      1  C   UNK d   1      90.863  98.167 -44.192  0.00  0.00     0.161 C 
ATOM      2  N   UNK d   1      89.471  98.540 -44.041  0.00  0.00    -0.332 N 
ATOM      3  C   UNK d   1      88.944  98.634 -45.382  0.00  0.00     0.295 C 
ATOM      4  O   UNK d   1      87.733  98.537 -45.697  0.00  0.00    -0.264 OA
ATOM      5  C   UNK d   1      90.090  98.859 -46.268  0.00  0.00     0.251 C 
ATOM      6  O   UNK d   1      90.096  99.002 -47.518  0.00  0.00    -0.282 OA
ATOM      7  C   UNK d   1      91.292  98.897 -45.443  0.00  0.00     0.064 C 
ATOM      8  C   UNK d   1      92.463  99.431 -45.743  0.00  0.00     0.153 C 
ATOM      9  O   UNK d   1      93.490  99.350 -44.837  0.00  0.00    -0.188 OA
ENDROOT
BRANCH   1  10
ATOM     10  C   UNK d   1      91.069  96.704 -44.342  0.00  0.00    -0.029 A 
ATOM     11  C   UNK d   1      91.564  95.928 -43.292  0.00  0.00     0.028 A 
ATOM     12  C   UNK d   1      91.772  94.582 -43.387  0.00  0.00     0.011 A 
ATOM     13 Br   UNK d   1      92.457  93.594 -41.883  0.00  0.00    -0.051 Br
ATOM     14  C   UNK d   1      91.493  93.931 -44.552  0.00  0.00     0.019 A 
ATOM     15  C   UNK d   1      91.007  94.642 -45.612  0.00  0.00     0.002 A 
ATOM     16  C   UNK d   1      90.799  96.015 -45.503  0.00  0.00     0.009 A 
ENDBRANCH   1  10
BRANCH   8  17
ATOM     17  C   UNK d   1      92.688 100.116 -47.030  0.00  0.00     0.114 A 
ATOM     18  O   UNK d   1      93.252  99.586 -48.082  0.00  0.00    -0.304 OA
ATOM     19  C   UNK d   1      93.333 100.393 -49.087  0.00  0.00     0.119 A 
ATOM     20  C   UNK d   1      92.774 101.582 -48.687  0.00  0.00     0.003 A 
ATOM     21  C   UNK d   1      93.858 100.206 -50.359  0.00  0.00     0.102 A 
ATOM     22  C   UNK d   1      92.366 101.405 -47.382  0.00  0.00     0.054 A 
ATOM     23  C   UNK d   1      92.739 102.622 -49.590  0.00  0.00     0.014 A 
ATOM     24  C   UNK d   1      93.247 102.493 -50.867  0.00  0.00     0.004 A 
ATOM     25  C   UNK d   1      93.806 101.264 -51.231  0.00  0.00     0.040 A 
BRANCH  21  26
ATOM     26  O   UNK d   1      94.414  99.017 -50.757  0.00  0.00    -0.353 OA
ATOM     27  C   UNK d   1      94.124  98.307 -51.918  0.00  0.00     0.210 C 
ENDBRANCH  21  26
ENDBRANCH   8  17
BRANCH   2  28
ATOM     28  C   UNK d   1      88.725  98.757 -42.825  0.00  0.00     0.129 C 
BRANCH  28  29
ATOM     29  C   UNK d   1      88.668 100.222 -42.464  0.00  0.00     0.048 C 
BRANCH  29  30
ATOM     30  C   UNK d   1      89.963 100.945 -42.552  0.00  0.00     0.235 C 
BRANCH  30  31
ATOM     31  N   UNK d   1      90.775 100.879 -41.377  0.00  0.00    -0.079 N 
ATOM     32  C   UNK d   1      90.728 102.146 -40.643  0.00  0.00     0.269 C 
ATOM     33  C   UNK d   1      92.136 100.542 -41.660  0.00  0.00     0.269 C 
ATOM     34  H   UNK d   1      90.417 100.166 -40.679  0.00  0.00     0.278 HD
ENDBRANCH  30  31
ENDBRANCH  29  30
ENDBRANCH  28  29
ENDBRANCH   2  28
TORSDOF 7
ENDMDL
