MODEL 1
REMARK VINA RESULT:    -6.512      0.000      0.000
REMARK INTER + INTRA:          -8.637
REMARK INTER:                  -8.035
REMARK INTRA:                  -0.601
REMARK UNBOUND:                -0.601
REMARK  4 active torsions:
REMARK  status: ('A' for Active; 'I' for Inactive)
REMARK    1  A    between atoms: C_4  and  N_8 
REMARK    2  A    between atoms: C_11  and  C_13 
REMARK       I    between atoms: C_13  and  N_15 
REMARK    3  A    between atoms: N_15  and  C_16 
REMARK    4  A    between atoms: C_16  and  C_17 
ROOT
ATOM      1  C   UNK d   1      92.263 101.149 -42.421  0.00  0.00     0.273 C 
ATOM      2  O   UNK d   1      91.668 102.195 -42.778  0.00  0.00    -0.266 OA
ATOM      3  N   UNK d   1      93.528 101.261 -41.809  0.00  0.00    -0.348 N 
ATOM      4  H   UNK d   1      94.009 100.379 -41.519  0.00  0.00     0.163 HD
ENDROOT
BRANCH   1   5
ATOM      5  C   UNK d   1      91.609  99.868 -42.659  0.00  0.00     0.165 A 
ATOM      6  N   UNK d   1      90.325  99.646 -43.029  0.00  0.00    -0.125 NA
ATOM      7  N   UNK d   1      90.145  98.339 -43.134  0.00  0.00    -0.060 NA
ATOM      8  N   UNK d   1      91.247  97.697 -42.853  0.00  0.00    -0.224 N 
ATOM      9  C   UNK d   1      92.177  98.619 -42.553  0.00  0.00     0.159 A 
BRANCH   8  10
ATOM     10  C   UNK d   1      91.501  96.286 -42.842  0.00  0.00     0.060 A 
ATOM     11  C   UNK d   1      91.458  95.510 -43.975  0.00  0.00     0.050 A 
ATOM     12  C   UNK d   1      91.714  94.137 -43.913  0.00  0.00     0.013 A 
ATOM     13 Br   UNK d   1      91.654  93.058 -45.483  0.00  0.00    -0.051 Br
ATOM     14  C   UNK d   1      92.015  93.529 -42.714  0.00  0.00     0.019 A 
ATOM     15  C   UNK d   1      92.062  94.296 -41.572  0.00  0.00     0.004 A 
ATOM     16  C   UNK d   1      91.805  95.669 -41.648  0.00  0.00     0.032 A 
ENDBRANCH   8  10
ENDBRANCH   1   5
BRANCH   3  17
ATOM     17  C   UNK d   1      94.208 102.511 -41.557  0.00  0.00     0.203 C 
BRANCH  17  18
ATOM     18  C   UNK d   1      94.357 102.758 -40.081  0.00  0.00     0.148 A 
ATOM     19  N   UNK d   1      93.382 102.887 -39.149  0.00  0.00    -0.319 N 
ATOM     20  C   UNK d   1      93.935 103.096 -37.950  0.00  0.00     0.130 A 
ATOM     21  C   UNK d   1      91.932 102.871 -39.066  0.00  0.00     0.132 C 
ATOM     22  N   UNK d   1      95.275 103.096 -38.153  0.00  0.00    -0.135 NA
ATOM     23  C   UNK d   1      92.879 103.246 -36.884  0.00  0.00     0.082 C 
ATOM     24  N   UNK d   1      95.527 102.892 -39.431  0.00  0.00    -0.133 NA
ATOM     25  C   UNK d   1      91.659 103.540 -37.732  0.00  0.00     0.028 C 
ENDBRANCH  17  18
ENDBRANCH   3  17
TORSDOF 4
ENDMDL
