MODEL 1
REMARK VINA RESULT:    -6.896      0.000      0.000
REMARK INTER + INTRA:          -7.826
REMARK INTER:                  -7.703
REMARK INTRA:                  -0.124
REMARK UNBOUND:                -0.124
REMARK  2 active torsions:
REMARK  status: ('A' for Active; 'I' for Inactive)
REMARK    1  A    between atoms: C_4  and  N_8 
REMARK    2  A    between atoms: C_14  and  C_18 
ROOT
ATOM      1  N   UNK d   1      91.290  97.043 -43.215  0.00  0.00    -0.246 N 
ATOM      2  C   UNK d   1      90.359  97.753 -44.056  0.00  0.00     0.268 C 
ATOM      3  O   UNK d   1      89.928  97.307 -45.156  0.00  0.00    -0.269 OA
ATOM      4  C   UNK d   1      90.019  99.028 -43.426  0.00  0.00     0.285 C 
ATOM      5  O   UNK d   1      89.820 100.112 -44.234  0.00  0.00    -0.260 OA
ATOM      6  N   UNK d   1      90.313 101.155 -43.453  0.00  0.00    -0.264 N 
ATOM      7  C   UNK d   1      91.469 100.698 -42.792  0.00  0.00     0.083 C 
ATOM      8  C   UNK d   1      91.332  99.365 -42.757  0.00  0.00     0.080 C 
ATOM      9  C   UNK d   1      91.894  98.066 -42.404  0.00  0.00     0.266 C 
ATOM     10  O   UNK d   1      92.767  97.873 -41.532  0.00  0.00    -0.267 OA
ATOM     11  H   UNK d   1      89.905 102.094 -43.374  0.00  0.00     0.194 HD
ENDROOT
BRANCH   1  12
ATOM     12  C   UNK d   1      91.583  95.661 -43.171  0.00  0.00     0.047 A 
ATOM     13  C   UNK d   1      91.532  94.859 -44.309  0.00  0.00     0.049 A 
ATOM     14  C   UNK d   1      91.810  93.516 -44.310  0.00  0.00     0.013 A 
ATOM     15 Br   UNK d   1      91.725  92.448 -45.889  0.00  0.00    -0.051 Br
ATOM     16  C   UNK d   1      92.165  92.880 -43.139  0.00  0.00     0.019 A 
ATOM     17  C   UNK d   1      92.223  93.665 -41.991  0.00  0.00     0.004 A 
ATOM     18  C   UNK d   1      91.942  95.010 -42.001  0.00  0.00     0.030 A 
ENDBRANCH   1  12
BRANCH   7  19
ATOM     19  C   UNK d   1      92.561 101.462 -42.210  0.00  0.00     0.036 A 
ATOM     20  C   UNK d   1      92.616 101.881 -40.877  0.00  0.00     0.040 A 
ATOM     21  N   UNK d   1      93.752 102.523 -40.689  0.00  0.00    -0.278 N 
ATOM     22  C   UNK d   1      91.567 101.671 -39.852  0.00  0.00     0.071 C 
ATOM     23  N   UNK d   1      94.424 102.533 -41.838  0.00  0.00    -0.184 NA
ATOM     24  C   UNK d   1      94.218 103.134 -39.446  0.00  0.00     0.179 C 
ATOM     25  C   UNK d   1      93.728 101.903 -42.769  0.00  0.00     0.154 A 
ENDBRANCH   7  19
TORSDOF 2
ENDMDL
