/Users/jonathanwahrer/Desktop/Msc/3_Semester/Drug_Design_Praktikum/waehrer_HTS_screening/HTS_experiment/out/docking_results/vina_output/4agl/0205_docked.pdbqt
 OpenBabel03202223103D

 25 28  0  0  1  0  0  0  0  0999 V2000
   91.2900   97.0430  -43.2150 N   0  0  0  0  0  0  0  0  0  0  0  0
   90.3590   97.7530  -44.0560 C   0  0  0  0  0  0  0  0  0  0  0  0
   89.9280   97.3070  -45.1560 O   0  0  0  0  0  0  0  0  0  0  0  0
   90.0190   99.0280  -43.4260 C   0  0  2  0  0  3  0  0  0  0  0  0
   89.8200  100.1120  -44.2340 O   0  0  0  0  0  0  0  0  0  0  0  0
   90.3130  101.1550  -43.4530 N   0  0  0  0  0  0  0  0  0  0  0  0
   91.4690  100.6980  -42.7920 C   0  0  0  0  0  0  0  0  0  0  0  0
   91.3320   99.3650  -42.7570 C   0  0  0  0  0  0  0  0  0  0  0  0
   91.8940   98.0660  -42.4040 C   0  0  0  0  0  0  0  0  0  0  0  0
   92.7670   97.8730  -41.5320 O   0  0  0  0  0  0  0  0  0  0  0  0
   89.9050  102.0940  -43.3740 H   0  0  0  0  0  0  0  0  0  0  0  0
   91.5830   95.6610  -43.1710 C   0  0  0  0  0  0  0  0  0  0  0  0
   91.5320   94.8590  -44.3090 C   0  0  0  0  0  3  0  0  0  0  0  0
   91.8100   93.5160  -44.3100 C   0  0  0  0  0  0  0  0  0  0  0  0
   91.7250   92.4480  -45.8890 Br  0  0  0  0  0  0  0  0  0  0  0  0
   92.1650   92.8800  -43.1390 C   0  0  0  0  0  3  0  0  0  0  0  0
   92.2230   93.6650  -41.9910 C   0  0  0  0  0  3  0  0  0  0  0  0
   91.9420   95.0100  -42.0010 C   0  0  0  0  0  3  0  0  0  0  0  0
   92.5610  101.4620  -42.2100 C   0  0  0  0  0  0  0  0  0  0  0  0
   92.6160  101.8810  -40.8770 C   0  0  0  0  0  0  0  0  0  0  0  0
   93.7520  102.5230  -40.6890 N   0  0  0  0  0  0  0  0  0  0  0  0
   91.5670  101.6710  -39.8520 C   0  0  0  0  0  1  0  0  0  0  0  0
   94.4240  102.5330  -41.8380 N   0  0  0  0  0  0  0  0  0  0  0  0
   94.2180  103.1340  -39.4460 C   0  0  0  0  0  1  0  0  0  0  0  0
   93.7280  101.9030  -42.7690 C   0  0  0  0  0  3  0  0  0  0  0  0
  1 12  1  0  0  0  0
  1  9  1  0  0  0  0
  2  4  1  0  0  0  0
  2  1  1  0  0  0  0
  3  2  2  0  0  0  0
  4  5  1  6  0  0  0
  4  8  1  0  0  0  0
  5  6  1  0  0  0  0
  6 11  1  0  0  0  0
  6  7  1  0  0  0  0
  7  8  2  0  0  0  0
  7 19  1  0  0  0  0
  8  9  1  0  0  0  0
  9 10  2  0  0  0  0
 12 18  1  0  0  0  0
 13 12  2  0  0  0  0
 14 13  1  0  0  0  0
 14 16  2  0  0  0  0
 15 14  1  0  0  0  0
 16 17  1  0  0  0  0
 18 17  2  0  0  0  0
 19 20  2  0  0  0  0
 20 21  1  0  0  0  0
 20 22  1  0  0  0  0
 21 24  1  0  0  0  0
 23 21  1  0  0  0  0
 25 19  1  0  0  0  0
 25 23  2  0  0  0  0
M  END
>  <Pose>
1

>  <Score>
-6.896

$$$$
