/Users/jonathanwahrer/Desktop/Msc/3_Semester/Drug_Design_Praktikum/waehrer_HTS_screening/HTS_experiment/out/docking_results/vina_output/4agl/0211_docked.pdbqt
 OpenBabel03202223103D

 22 25  0  0  1  0  0  0  0  0999 V2000
   90.8860   97.6010  -45.0890 N   0  0  0  0  0  0  0  0  0  0  0  0
   89.6390   98.2700  -44.9770 C   0  0  0  0  0  0  0  0  0  0  0  0
   88.4920   97.7180  -45.1610 O   0  0  0  0  0  0  0  0  0  0  0  0
   89.8810   99.6750  -44.6180 C   0  0  1  0  0  3  0  0  0  0  0  0
   89.8230   99.7980  -43.1270 C   0  0  1  0  0  0  0  0  0  0  0  0
   91.0200   99.1190  -42.7860 O   0  0  0  0  0  0  0  0  0  0  0  0
   91.8980   99.9960  -43.4770 C   0  0  1  0  0  3  0  0  0  0  0  0
   91.3470   99.8710  -44.8850 C   0  0  1  0  0  3  0  0  0  0  0  0
   91.8470   98.5890  -45.4200 C   0  0  0  0  0  0  0  0  0  0  0  0
   92.9260   98.4230  -46.0470 O   0  0  0  0  0  0  0  0  0  0  0  0
   91.4990  101.2850  -42.8690 C   0  0  0  0  0  2  0  0  0  0  0  0
   90.1810  101.1530  -42.6260 C   0  0  0  0  0  2  0  0  0  0  0  0
   91.1260   96.1860  -44.9050 C   0  0  0  0  0  0  0  0  0  0  0  0
   91.5710   95.6680  -43.6980 C   0  0  0  0  0  3  0  0  0  0  0  0
   91.8120   94.3520  -43.4660 C   0  0  0  0  0  0  0  0  0  0  0  0
   92.4250   93.7850  -41.7480 Br  0  0  0  0  0  0  0  0  0  0  0  0
   91.6050   93.4510  -44.4920 C   0  0  0  0  0  3  0  0  0  0  0  0
   91.1620   93.9170  -45.7120 C   0  0  0  0  0  3  0  0  0  0  0  0
   90.9240   95.2780  -45.9180 C   0  0  0  0  0  3  0  0  0  0  0  0
   88.6190   99.2200  -42.4870 C   0  0  0  0  0  2  0  0  0  0  0  0
   87.7720  100.2620  -42.1040 O   0  0  0  0  0  0  0  0  0  0  0  0
   87.5630  100.1970  -41.1380 H   0  0  0  0  0  0  0  0  0  0  0  0
  1  2  1  0  0  0  0
  1 13  1  0  0  0  0
  3  2  2  0  0  0  0
  4  2  1  1  0  0  0
  4  5  1  0  0  0  0
  5  6  1  0  0  0  0
  5 12  1  0  0  0  0
  5 20  1  1  0  0  0
  7 11  1  1  0  0  0
  7  6  1  0  0  0  0
  8  9  1  1  0  0  0
  8  4  1  0  0  0  0
  8  7  1  0  0  0  0
  9  1  1  0  0  0  0
 10  9  2  0  0  0  0
 11 12  1  0  0  0  0
 13 14  1  0  0  0  0
 14 15  2  0  0  0  0
 15 16  1  0  0  0  0
 17 15  1  0  0  0  0
 18 17  2  0  0  0  0
 19 18  1  0  0  0  0
 19 13  2  0  0  0  0
 20 21  1  0  0  0  0
 21 22  1  0  0  0  0
M  END
>  <Pose>
1

>  <Score>
-6.165

$$$$
