MODEL 1
REMARK VINA RESULT:    -6.800      0.000      0.000
REMARK INTER + INTRA:          -7.692
REMARK INTER:                  -7.595
REMARK INTRA:                  -0.097
REMARK UNBOUND:                -0.097
REMARK  2 active torsions:
REMARK  status: ('A' for Active; 'I' for Inactive)
REMARK    1  A    between atoms: C_4  and  N_8 
REMARK    2  A    between atoms: C_14  and  C_18 
ROOT
ATOM      1  N   UNK d   1      91.172  99.236 -43.615  0.00  0.00    -0.246 N 
ATOM      2  C   UNK d   1      90.853  99.274 -45.024  0.00  0.00     0.268 C 
ATOM      3  O   UNK d   1      91.140 100.150 -45.847  0.00  0.00    -0.269 OA
ATOM      4  C   UNK d   1      90.091  98.032 -45.345  0.00  0.00     0.285 C 
ATOM      5  O   UNK d   1      90.358  97.507 -46.596  0.00  0.00    -0.260 OA
ATOM      6  N   UNK d   1      90.170  96.163 -46.377  0.00  0.00    -0.264 N 
ATOM      7  C   UNK d   1      90.838  95.908 -45.129  0.00  0.00     0.083 C 
ATOM      8  C   UNK d   1      90.813  97.036 -44.460  0.00  0.00     0.080 C 
ATOM      9  C   UNK d   1      91.143  97.832 -43.272  0.00  0.00     0.266 C 
ATOM     10  O   UNK d   1      91.357  97.323 -42.167  0.00  0.00    -0.267 OA
ATOM     11  H   UNK d   1      89.674  95.475 -46.953  0.00  0.00     0.194 HD
ENDROOT
BRANCH   1  12
ATOM     12  C   UNK d   1      91.442 100.354 -42.794  0.00  0.00     0.047 A 
ATOM     13  C   UNK d   1      92.675 100.964 -42.840  0.00  0.00     0.049 A 
ATOM     14  C   UNK d   1      92.971 102.068 -42.034  0.00  0.00     0.013 A 
ATOM     15 Br   UNK d   1      94.685 102.891 -42.117  0.00  0.00    -0.051 Br
ATOM     16  C   UNK d   1      92.039 102.585 -41.165  0.00  0.00     0.019 A 
ATOM     17  C   UNK d   1      90.803 101.976 -41.118  0.00  0.00     0.004 A 
ATOM     18  C   UNK d   1      90.511 100.869 -41.927  0.00  0.00     0.030 A 
ENDBRANCH   1  12
BRANCH   7  19
ATOM     19  C   UNK d   1      91.439  94.686 -44.665  0.00  0.00     0.036 A 
ATOM     20  C   UNK d   1      92.018  94.568 -43.404  0.00  0.00     0.127 A 
ATOM     21  N   UNK d   1      92.483  93.317 -43.238  0.00  0.00    -0.284 N 
ATOM     22  N   UNK d   1      92.202  92.678 -44.361  0.00  0.00    -0.177 NA
ATOM     23  C   UNK d   1      93.164  92.784 -42.047  0.00  0.00     0.179 C 
ATOM     24  C   UNK d   1      91.578  93.448 -45.249  0.00  0.00     0.065 A 
ATOM     25  C   UNK d   1      91.095  93.078 -46.622  0.00  0.00     0.073 C 
ENDBRANCH   7  19
TORSDOF 2
ENDMDL
