MODEL 1
REMARK VINA RESULT:    -6.205      0.000      0.000
REMARK INTER + INTRA:          -9.241
REMARK INTER:                  -8.018
REMARK INTRA:                  -1.223
REMARK UNBOUND:                -1.223
REMARK  5 active torsions:
REMARK  status: ('A' for Active; 'I' for Inactive)
REMARK    1  A    between atoms: C_4  and  N_8 
REMARK    2  A    between atoms: C_10  and  C_14 
REMARK       I    between atoms: C_14  and  N_16 
REMARK    3  A    between atoms: N_19  and  C_22 
REMARK    4  A    between atoms: C_22  and  C_23 
REMARK    5  A    between atoms: C_23  and  N_24 
ROOT
ATOM      1  C   UNK d   1      88.400  99.159 -44.986  0.00  0.00     0.226 C 
ATOM      2  O   UNK d   1      88.884  99.783 -45.963  0.00  0.00    -0.273 OA
ATOM      3  N   UNK d   1      87.007  99.052 -44.788  0.00  0.00    -0.348 N 
ATOM      4  C   UNK d   1      86.411  98.335 -43.669  0.00  0.00     0.156 C 
ATOM      5  C   UNK d   1      85.037  97.826 -44.089  0.00  0.00     0.292 C 
ATOM      6  N   UNK d   1      84.935  97.600 -45.517  0.00  0.00     0.093 N 
ATOM      7  C   UNK d   1      84.983  98.849 -46.193  0.00  0.00     0.292 C 
ATOM      8  C   UNK d   1      86.131  99.702 -45.771  0.00  0.00     0.156 C 
ENDROOT
BRANCH   1   9
ATOM      9  C   UNK d   1      89.313  98.535 -44.049  0.00  0.00     0.105 C 
ATOM     10  C   UNK d   1      90.353  97.637 -44.752  0.00  0.00     0.146 C 
ATOM     11  N   UNK d   1      91.093  97.261 -43.556  0.00  0.00    -0.317 N 
ATOM     12  C   UNK d   1      91.278  98.503 -42.887  0.00  0.00     0.225 C 
ATOM     13  C   UNK d   1      90.309  99.507 -43.406  0.00  0.00     0.119 C 
ATOM     14  O   UNK d   1      92.131  98.719 -41.995  0.00  0.00    -0.273 OA
BRANCH  11  15
ATOM     15  C   UNK d   1      91.478  95.941 -43.230  0.00  0.00     0.038 A 
ATOM     16  C   UNK d   1      91.493  94.966 -44.210  0.00  0.00     0.048 A 
ATOM     17  C   UNK d   1      91.855  93.649 -43.950  0.00  0.00     0.013 A 
ATOM     18 Br   UNK d   1      91.842  92.393 -45.361  0.00  0.00    -0.051 Br
ATOM     19  C   UNK d   1      92.216  93.302 -42.649  0.00  0.00     0.019 A 
ATOM     20  C   UNK d   1      92.215  94.241 -41.640  0.00  0.00     0.004 A 
ATOM     21  C   UNK d   1      91.846  95.529 -41.968  0.00  0.00     0.030 A 
ENDBRANCH  11  15
ENDBRANCH   1   9
BRANCH   6  22
ATOM     22  C   UNK d   1      85.811  96.580 -45.971  0.00  0.00     0.292 C 
BRANCH  22  23
ATOM     23  C   UNK d   1      85.784  96.364 -47.463  0.00  0.00     0.159 C 
BRANCH  23  24
ATOM     24  N   UNK d   1      87.073  96.116 -48.042  0.00  0.00    -0.348 N 
ATOM     25  C   UNK d   1      88.255  96.624 -47.687  0.00  0.00     0.209 A 
ATOM     26  N   UNK d   1      89.218  96.135 -48.498  0.00  0.00    -0.255 NA
ATOM     27  C   UNK d   1      88.642  95.306 -49.376  0.00  0.00     0.135 A 
ATOM     28  C   UNK d   1      87.299  95.302 -49.082  0.00  0.00     0.111 A 
ENDBRANCH  23  24
ENDBRANCH  22  23
ENDBRANCH   6  22
TORSDOF 5
ENDMDL
