MODEL 1
REMARK VINA RESULT:    -6.833      0.000      0.000
REMARK INTER + INTRA:          -9.817
REMARK INTER:                  -9.230
REMARK INTRA:                  -0.587
REMARK UNBOUND:                -0.587
REMARK  6 active torsions:
REMARK  status: ('A' for Active; 'I' for Inactive)
REMARK    1  A    between atoms: C_4  and  O_8 
REMARK    2  A    between atoms: O_8  and  C_9 
REMARK    3  A    between atoms: C_9  and  C_10 
REMARK    4  A    between atoms: C_10  and  N_11 
REMARK       I    between atoms: N_11  and  C_12 
REMARK    5  A    between atoms: C_12  and  C_14 
REMARK    6  A    between atoms: C_14  and  N_15 
ROOT
ATOM      1  N   UNK d   1      91.157  91.216 -47.682  0.00  0.00    -0.358 N 
ATOM      2  C   UNK d   1      91.816  90.306 -48.555  0.00  0.00     0.236 C 
ATOM      3  O   UNK d   1      92.911  89.820 -48.104  0.00  0.00    -0.272 OA
ATOM      4  H   UNK d   1      90.259  91.638 -47.997  0.00  0.00     0.162 HD
ENDROOT
BRANCH   2   5
ATOM      5  C   UNK d   1      91.328  89.911 -49.893  0.00  0.00     0.237 C 
BRANCH   5   6
ATOM      6  N   UNK d   1      90.335  88.872 -49.887  0.00  0.00    -0.279 N 
ATOM      7  C   UNK d   1      88.931  89.158 -50.003  0.00  0.00     0.232 C 
ATOM      8  O   UNK d   1      88.353  90.260 -49.826  0.00  0.00    -0.272 OA
ATOM      9  C   UNK d   1      88.254  87.915 -50.372  0.00  0.00     0.100 C 
ATOM     10  C   UNK d   1      89.342  86.829 -50.486  0.00  0.00     0.100 C 
ATOM     11  C   UNK d   1      87.391  87.319 -49.295  0.00  0.00     0.022 C 
ATOM     12  C   UNK d   1      88.861  85.674 -49.681  0.00  0.00     0.022 C 
ATOM     13  C   UNK d   1      90.501  87.451 -49.794  0.00  0.00     0.232 C 
ATOM     14  C   UNK d   1      87.333  85.861 -49.793  0.00  0.00     0.018 C 
ATOM     15  C   UNK d   1      89.012  86.036 -48.249  0.00  0.00    -0.025 C 
ATOM     16  C   UNK d   1      88.242  87.105 -48.076  0.00  0.00    -0.025 C 
ATOM     17  O   UNK d   1      91.450  86.878 -49.230  0.00  0.00    -0.272 OA
ENDBRANCH   5   6
ENDBRANCH   2   5
BRANCH   1  18
ATOM     18  C   UNK d   1      91.679  91.570 -46.397  0.00  0.00     0.149 C 
BRANCH  18  19
ATOM     19  C   UNK d   1      91.343  93.033 -46.067  0.00  0.00     0.195 C 
BRANCH  19  20
ATOM     20  O   UNK d   1      91.765  93.372 -44.892  0.00  0.00    -0.350 OA
BRANCH  20  21
ATOM     21  C   UNK d   1      92.122  93.645 -43.692  0.00  0.00     0.070 A 
ATOM     22  C   UNK d   1      93.193  92.952 -43.098  0.00  0.00     0.055 A 
ATOM     23  C   UNK d   1      93.625  93.192 -41.823  0.00  0.00     0.013 A 
ATOM     24 Br   UNK d   1      95.084  92.231 -41.051  0.00  0.00    -0.051 Br
ATOM     25  C   UNK d   1      93.009  94.145 -41.058  0.00  0.00     0.019 A 
ATOM     26  C   UNK d   1      91.950  94.858 -41.586  0.00  0.00     0.004 A 
ATOM     27  C   UNK d   1      91.519  94.615 -42.867  0.00  0.00     0.037 A 
ENDBRANCH  20  21
ENDBRANCH  19  20
ENDBRANCH  18  19
ENDBRANCH   1  18
TORSDOF 6
ENDMDL
