/Users/jonathanwahrer/Desktop/Msc/3_Semester/Drug_Design_Praktikum/waehrer_HTS_screening/HTS_experiment/out/docking_results/vina_output/4agl/0226_docked.pdbqt
 OpenBabel03202223113D

 30 33  0  0  0  0  0  0  0  0999 V2000
   91.3030   97.9410  -44.2970 N   0  0  0  0  0  0  0  0  0  0  0  0
   91.4150   96.6090  -44.1630 C   0  0  0  0  0  0  0  0  0  0  0  0
   91.6280   96.2900  -42.8350 C   0  0  0  0  0  0  0  0  0  0  0  0
   91.6370   97.4650  -42.1940 N   0  0  0  0  0  0  0  0  0  0  0  0
   91.4430   98.4820  -43.0540 C   0  0  0  0  0  0  0  0  0  0  0  0
   91.7680   95.0050  -42.4630 N   0  0  0  0  0  0  0  0  0  0  0  0
   91.7050   94.0170  -43.3720 C   0  0  0  0  0  0  0  0  0  0  0  0
   91.8310   92.8040  -43.0680 O   0  0  0  0  0  0  0  0  0  0  0  0
   91.4950   94.3160  -44.6830 N   0  0  0  0  0  0  0  0  0  0  0  0
   91.3490   95.5850  -45.1050 C   0  0  0  0  0  0  0  0  0  0  0  0
   91.1560   95.8250  -46.3410 O   0  0  0  0  0  0  0  0  0  0  0  0
   91.9940   94.6390  -41.0800 C   0  0  0  0  0  1  0  0  0  0  0  0
   91.4520   93.5180  -45.3580 H   0  0  0  0  0  0  0  0  0  0  0  0
   91.0700   98.6770  -45.5080 C   0  0  0  0  0  2  0  0  0  0  0  0
   89.6880   99.2440  -45.5940 C   0  0  0  0  0  0  0  0  0  0  0  0
   89.4960  100.4660  -45.4940 O   0  0  0  0  0  0  0  0  0  0  0  0
   88.5350   98.3710  -45.8000 C   0  0  0  0  0  0  0  0  0  0  0  0
   88.3810   97.6380  -46.9510 C   0  0  0  0  0  3  0  0  0  0  0  0
   87.2850   96.8140  -47.1440 C   0  0  0  0  0  3  0  0  0  0  0  0
   86.2910   96.6910  -46.1840 C   0  0  0  0  0  0  0  0  0  0  0  0
   84.8020   95.5470  -46.4880 Br  0  0  0  0  0  0  0  0  0  0  0  0
   86.4420   97.4250  -45.0290 C   0  0  0  0  0  3  0  0  0  0  0  0
   87.5370   98.2400  -44.8510 C   0  0  0  0  0  3  0  0  0  0  0  0
   91.3770   99.8710  -42.7880 N   0  0  0  0  0  0  0  0  0  0  0  0
   90.2130  100.4000  -42.1540 C   0  0  0  0  0  2  0  0  0  0  0  0
   90.3170  101.7630  -41.5770 C   0  0  0  0  0  2  0  0  0  0  0  0
   91.3140  102.6120  -42.1570 N   0  0  0  0  0  0  0  0  0  0  0  0
   92.5710  101.8880  -42.1630 C   0  0  0  0  0  2  0  0  0  0  0  0
   90.9570  103.1220  -43.4500 C   0  0  0  0  0  1  0  0  0  0  0  0
   92.4690  100.7220  -43.1480 C   0  0  0  0  0  2  0  0  0  0  0  0
  1  2  1  0  0  0  0
  1  5  1  0  0  0  0
  2  3  2  0  0  0  0
  3  6  1  0  0  0  0
  3  4  1  0  0  0  0
  5 24  1  0  0  0  0
  5  4  2  0  0  0  0
  6 12  1  0  0  0  0
  7  8  2  0  0  0  0
  7  6  1  0  0  0  0
  9  7  1  0  0  0  0
 10  9  1  0  0  0  0
 10  2  1  0  0  0  0
 11 10  2  0  0  0  0
 13  9  1  0  0  0  0
 14  1  1  0  0  0  0
 15 14  1  0  0  0  0
 15 16  2  0  0  0  0
 17 15  1  0  0  0  0
 17 23  1  0  0  0  0
 18 17  2  0  0  0  0
 19 18  1  0  0  0  0
 19 20  2  0  0  0  0
 20 22  1  0  0  0  0
 21 20  1  0  0  0  0
 22 23  2  0  0  0  0
 24 25  1  0  0  0  0
 25 26  1  0  0  0  0
 27 26  1  0  0  0  0
 28 27  1  0  0  0  0
 29 27  1  0  0  0  0
 30 24  1  0  0  0  0
 30 28  1  0  0  0  0
M  END
>  <Pose>
1

>  <Score>
-6.380

$$$$
