MODEL 1
REMARK VINA RESULT:    -6.029      0.000      0.000
REMARK INTER + INTRA:          -8.907
REMARK INTER:                  -8.496
REMARK INTRA:                  -0.411
REMARK UNBOUND:                -0.411
REMARK  7 active torsions:
REMARK  status: ('A' for Active; 'I' for Inactive)
REMARK    1  A    between atoms: C_5  and  C_8 
REMARK    2  A    between atoms: C_8  and  C_10 
REMARK    3  A    between atoms: C_11  and  C_25 
REMARK    4  A    between atoms: N_12  and  C_17 
REMARK    5  A    between atoms: C_17  and  C_18 
REMARK    6  A    between atoms: C_18  and  N_19 
REMARK    7  A    between atoms: C_27  and  O_32 
ROOT
ATOM      1  C   UNK d   1      90.911  99.531 -44.539  0.00  0.00     0.167 C 
ATOM      2  C   UNK d   1      90.020  98.431 -44.016  0.00  0.00     0.140 C 
ATOM      3  N   UNK d   1      89.204  98.127 -45.169  0.00  0.00    -0.334 N 
ATOM      4  C   UNK d   1      90.036  98.313 -46.309  0.00  0.00     0.291 C 
ATOM      5  O   UNK d   1      89.736  98.010 -47.505  0.00  0.00    -0.264 OA
ATOM      6  C   UNK d   1      91.306  98.915 -45.858  0.00  0.00     0.230 C 
ATOM      7  O   UNK d   1      92.400  98.898 -46.445  0.00  0.00    -0.286 OA
ENDROOT
BRANCH   1   8
ATOM      8  C   UNK d   1      92.062  99.841 -43.710  0.00  0.00     0.173 C 
ATOM      9  O   UNK d   1      93.204  99.436 -44.011  0.00  0.00    -0.291 OA
BRANCH   8  10
ATOM     10  C   UNK d   1      91.898 100.636 -42.507  0.00  0.00     0.011 A 
ATOM     11  C   UNK d   1      92.682 100.390 -41.374  0.00  0.00     0.016 A 
ATOM     12  C   UNK d   1      92.542 101.123 -40.225  0.00  0.00     0.020 A 
ATOM     13  C   UNK d   1      91.609 102.131 -40.175  0.00  0.00     0.011 A 
ATOM     14 Br   UNK d   1      91.429 103.135 -38.575  0.00  0.00    -0.051 Br
ATOM     15  C   UNK d   1      90.811 102.422 -41.250  0.00  0.00     0.020 A 
ATOM     16  C   UNK d   1      90.981 101.661 -42.392  0.00  0.00     0.016 A 
ENDBRANCH   8  10
ENDBRANCH   1   8
BRANCH   2  17
ATOM     17  C   UNK d   1      90.733  97.288 -43.466  0.00  0.00    -0.031 A 
ATOM     18  C   UNK d   1      91.067  96.173 -44.249  0.00  0.00     0.049 A 
ATOM     19  C   UNK d   1      91.747  95.095 -43.722  0.00  0.00     0.105 A 
ATOM     20  C   UNK d   1      92.130  95.073 -42.393  0.00  0.00     0.140 A 
ATOM     21  C   UNK d   1      91.813  96.160 -41.606  0.00  0.00     0.043 A 
ATOM     22  O   UNK d   1      92.815  94.000 -41.837  0.00  0.00    -0.189 OA
ATOM     23  C   UNK d   1      91.129  97.235 -42.150  0.00  0.00     0.012 A 
BRANCH  19  24
ATOM     24  O   UNK d   1      92.078  93.991 -44.488  0.00  0.00    -0.353 OA
ATOM     25  C   UNK d   1      91.399  93.627 -45.663  0.00  0.00     0.210 C 
ENDBRANCH  19  24
ENDBRANCH   2  17
BRANCH   3  26
ATOM     26  C   UNK d   1      87.825  97.714 -45.243  0.00  0.00     0.154 C 
BRANCH  26  27
ATOM     27  C   UNK d   1      86.852  98.840 -45.064  0.00  0.00     0.255 C 
BRANCH  27  28
ATOM     28  N   UNK d   1      86.194  98.885 -43.816  0.00  0.00    -0.066 N 
ATOM     29  C   UNK d   1      85.350  97.690 -43.703  0.00  0.00     0.261 C 
ATOM     30  C   UNK d   1      84.170  97.735 -44.617  0.00  0.00     0.195 C 
ATOM     31  O   UNK d   1      83.905  98.969 -45.156  0.00  0.00    -0.388 OA
ATOM     32  C   UNK d   1      84.016  99.961 -44.212  0.00  0.00     0.195 C 
ATOM     33  C   UNK d   1      85.373 100.016 -43.565  0.00  0.00     0.261 C 
ATOM     34  H   UNK d   1      86.884  98.798 -43.018  0.00  0.00     0.280 HD
ENDBRANCH  27  28
ENDBRANCH  26  27
ENDBRANCH   3  26
TORSDOF 7
ENDMDL
