MODEL 1
REMARK VINA RESULT:    -6.014      0.000      0.000
REMARK INTER + INTRA:          -6.521
REMARK INTER:                  -7.068
REMARK INTRA:                   0.547
REMARK UNBOUND:                 0.547
REMARK  3 active torsions:
REMARK  status: ('A' for Active; 'I' for Inactive)
REMARK    1  A    between atoms: C_5  and  C_8 
REMARK    2  A    between atoms: C_8  and  C_10 
REMARK    3  A    between atoms: N_21  and  C_24 
ROOT
ATOM      1  C   UNK d   1      89.955  98.011 -44.567  0.00  0.00     0.193 C 
ATOM      2  N   UNK d   1      89.996  99.156 -43.671  0.00  0.00    -0.283 N 
ATOM      3  N   UNK d   1      90.654  99.508 -42.511  0.00  0.00    -0.188 NA
ATOM      4  C   UNK d   1      90.579 100.676 -41.976  0.00  0.00     0.138 A 
ATOM      5  C   UNK d   1      89.760 101.693 -42.593  0.00  0.00     0.019 A 
ATOM      6  C   UNK d   1      89.081 101.426 -43.685  0.00  0.00     0.002 A 
ATOM      7  C   UNK d   1      89.104 100.118 -44.313  0.00  0.00     0.142 A 
ATOM      8  C   UNK d   1      89.589 100.069 -45.718  0.00  0.00     0.122 C 
ATOM      9  C   UNK d   1      90.231  98.688 -45.892  0.00  0.00     0.126 C 
ATOM     10  C   UNK d   1      91.647  98.981 -46.100  0.00  0.00     0.234 C 
ATOM     11  O   UNK d   1      92.588  98.143 -46.026  0.00  0.00    -0.272 OA
ATOM     12  N   UNK d   1      91.792 100.356 -46.398  0.00  0.00    -0.288 N 
ATOM     13  C   UNK d   1      90.618 101.069 -46.028  0.00  0.00     0.234 C 
ATOM     14  O   UNK d   1      90.479 102.315 -45.974  0.00  0.00    -0.272 OA
ENDROOT
BRANCH   1  15
ATOM     15  C   UNK d   1      90.974  97.014 -44.211  0.00  0.00     0.184 C 
ATOM     16  O   UNK d   1      91.806  97.351 -43.307  0.00  0.00    -0.290 OA
BRANCH  15  17
ATOM     17  C   UNK d   1      91.103  95.699 -44.798  0.00  0.00     0.012 A 
ATOM     18  C   UNK d   1      90.535  95.370 -46.002  0.00  0.00     0.016 A 
ATOM     19  C   UNK d   1      90.694  94.103 -46.516  0.00  0.00     0.020 A 
ATOM     20  C   UNK d   1      91.409  93.113 -45.879  0.00  0.00     0.011 A 
ATOM     21 Br   UNK d   1      91.592  91.375 -46.648  0.00  0.00    -0.051 Br
ATOM     22  C   UNK d   1      91.978  93.447 -44.670  0.00  0.00     0.020 A 
ATOM     23  C   UNK d   1      91.825  94.711 -44.148  0.00  0.00     0.016 A 
ENDBRANCH  15  17
ENDBRANCH   1  15
BRANCH  12  24
ATOM     24  C   UNK d   1      92.954 100.974 -46.992  0.00  0.00     0.130 C 
ATOM     25  C   UNK d   1      93.108 100.677 -48.453  0.00  0.00     0.027 C 
ENDBRANCH  12  24
TORSDOF 3
ENDMDL
