/Users/jonathanwahrer/Desktop/Msc/3_Semester/Drug_Design_Praktikum/waehrer_HTS_screening/HTS_experiment/out/docking_results/vina_output/4agl/0243_docked.pdbqt
 OpenBabel03202223123D

 30 33  0  0  1  0  0  0  0  0999 V2000
   90.4080  102.5640  -42.2910 C   0  0  2  0  0  3  0  0  0  0  0  0
   89.4260  101.4180  -42.3000 C   0  0  0  0  0  2  0  0  0  0  0  0
   90.0700  100.4020  -43.1040 N   0  0  0  0  0  0  0  0  0  0  0  0
   91.1200  101.0000  -43.9120 C   0  0  1  0  0  3  0  0  0  0  0  0
   91.2410  102.4350  -43.5360 C   0  0  0  0  0  2  0  0  0  0  0  0
   92.3430  100.2120  -43.6420 C   0  0  0  0  0  0  0  0  0  0  0  0
   93.4090  100.8070  -43.3680 O   0  0  0  0  0  0  0  0  0  0  0  0
   92.2550   98.8000  -43.7040 N   0  0  0  0  0  0  0  0  0  0  0  0
   91.0100   98.0700  -43.6330 C   0  0  1  0  0  3  0  0  0  0  0  0
   89.9030   99.0000  -43.2680 C   0  0  0  0  0  0  0  0  0  0  0  0
   88.7210   98.5370  -43.0820 O   0  0  0  0  0  0  0  0  0  0  0  0
   93.1670   98.2830  -43.8080 H   0  0  0  0  0  0  0  0  0  0  0  0
   91.2930  102.5210  -41.1560 N   0  0  0  0  0  0  0  0  0  0  0  0
   90.9940  103.2190  -39.9830 C   0  0  0  0  0  0  0  0  0  0  0  0
   89.9250  103.9140  -39.8910 O   0  0  0  0  0  0  0  0  0  0  0  0
   92.1590  101.9590  -41.2270 H   0  0  0  0  0  0  0  0  0  0  0  0
   91.8560  103.2150  -38.7930 C   0  0  0  0  0  0  0  0  0  0  0  0
   91.3850  103.5940  -37.5540 C   0  0  0  0  0  3  0  0  0  0  0  0
   92.1940  103.5890  -36.4360 C   0  0  0  0  0  3  0  0  0  0  0  0
   93.5180  103.2060  -36.4970 C   0  0  0  0  0  0  0  0  0  0  0  0
   94.6690  103.1840  -34.9850 Br  0  0  0  0  0  0  0  0  0  0  0  0
   93.9910  102.8240  -37.7480 C   0  0  0  0  0  3  0  0  0  0  0  0
   93.1760  102.8320  -38.8550 C   0  0  0  0  0  3  0  0  0  0  0  0
   90.7370   97.3260  -44.9170 C   0  0  0  0  0  2  0  0  0  0  0  0
   91.1040   95.8860  -44.8010 C   0  0  0  0  0  0  0  0  0  0  0  0
   91.4620   95.3440  -43.5660 C   0  0  0  0  0  3  0  0  0  0  0  0
   91.7910   94.0070  -43.5180 C   0  0  0  0  0  3  0  0  0  0  0  0
   91.7800   93.1870  -44.6330 C   0  0  0  0  0  3  0  0  0  0  0  0
   91.4210   93.7670  -45.8270 C   0  0  0  0  0  3  0  0  0  0  0  0
   91.0830   95.0970  -45.9370 C   0  0  0  0  0  3  0  0  0  0  0  0
  1 13  1  1  0  0  0
  2  1  1  0  0  0  0
  3  2  1  0  0  0  0
  4  6  1  0  0  0  0
  4  5  1  1  0  0  0
  4  3  1  0  0  0  0
  5  1  1  0  0  0  0
  6  7  2  0  0  0  0
  8  6  1  0  0  0  0
  8  9  1  0  0  0  0
  9 24  1  6  0  0  0
  9 10  1  0  0  0  0
 10  3  1  0  0  0  0
 10 11  2  0  0  0  0
 12  8  1  0  0  0  0
 13 14  1  0  0  0  0
 14 15  2  0  0  0  0
 14 17  1  0  0  0  0
 16 13  1  0  0  0  0
 17 18  1  0  0  0  0
 18 19  2  0  0  0  0
 20 19  1  0  0  0  0
 20 21  1  0  0  0  0
 22 20  2  0  0  0  0
 23 17  2  0  0  0  0
 23 22  1  0  0  0  0
 24 25  1  0  0  0  0
 25 26  1  0  0  0  0
 26 27  2  0  0  0  0
 28 27  1  0  0  0  0
 29 28  2  0  0  0  0
 30 29  1  0  0  0  0
 30 25  2  0  0  0  0
M  END
>  <Pose>
1

>  <Score>
-6.199

$$$$
