MODEL 1
REMARK VINA RESULT:    -6.046      0.000      0.000
REMARK INTER + INTRA:          -7.236
REMARK INTER:                  -6.753
REMARK INTRA:                  -0.483
REMARK UNBOUND:                -0.483
REMARK  2 active torsions:
REMARK  status: ('A' for Active; 'I' for Inactive)
REMARK    1  A    between atoms: C_5  and  C_8 
REMARK       I    between atoms: C_8  and  N_10 
REMARK    2  A    between atoms: N_10  and  C_11 
ROOT
ATOM      1  C   UNK d   1      90.973  98.746 -42.866  0.00  0.00     0.105 C 
ATOM      2  C   UNK d   1      89.761  99.622 -43.084  0.00  0.00     0.152 C 
ATOM      3  N   UNK d   1      90.154 100.447 -44.213  0.00  0.00    -0.335 N 
ATOM      4  C   UNK d   1      91.599 100.553 -44.242  0.00  0.00     0.181 C 
ATOM      5  C   UNK d   1      92.155  99.613 -43.226  0.00  0.00     0.061 C 
ATOM      6  C   UNK d   1      92.020 100.227 -45.629  0.00  0.00     0.243 C 
ATOM      7  O   UNK d   1      92.969  99.456 -45.903  0.00  0.00    -0.271 OA
ATOM      8  N   UNK d   1      91.330 100.803 -46.722  0.00  0.00    -0.337 N 
ATOM      9  C   UNK d   1      89.947 101.223 -46.634  0.00  0.00     0.179 C 
ATOM     10  C   UNK d   1      90.039 102.614 -47.175  0.00  0.00     0.037 C 
ATOM     11  C   UNK d   1      91.011 102.422 -48.345  0.00  0.00     0.022 C 
ATOM     12  C   UNK d   1      91.744 101.107 -48.063  0.00  0.00     0.127 C 
ATOM     13  C   UNK d   1      89.448 101.134 -45.238  0.00  0.00     0.243 C 
ATOM     14  O   UNK d   1      88.341 101.691 -44.923  0.00  0.00    -0.271 OA
ENDROOT
BRANCH   1  15
ATOM     15  N   UNK d   1      90.995  97.594 -43.706  0.00  0.00    -0.351 N 
ATOM     16  C   UNK d   1      91.449  96.355 -43.186  0.00  0.00     0.252 C 
ATOM     17  O   UNK d   1      91.825  96.283 -41.997  0.00  0.00    -0.268 OA
ATOM     18  H   UNK d   1      90.671  97.699 -44.700  0.00  0.00     0.163 HD
BRANCH  16  19
ATOM     19  C   UNK d   1      91.488  95.140 -44.023  0.00  0.00     0.032 A 
ATOM     20  C   UNK d   1      91.122  95.227 -45.348  0.00  0.00     0.018 A 
ATOM     21  C   UNK d   1      91.147  94.112 -46.157  0.00  0.00     0.020 A 
ATOM     22  C   UNK d   1      91.536  92.870 -45.684  0.00  0.00     0.011 A 
ATOM     23 Br   UNK d   1      91.546  91.377 -46.857  0.00  0.00    -0.051 Br
ATOM     24  C   UNK d   1      91.903  92.782 -44.354  0.00  0.00     0.020 A 
ATOM     25  C   UNK d   1      91.871  93.921 -43.552  0.00  0.00     0.018 A 
ENDBRANCH  16  19
ENDBRANCH   1  15
TORSDOF 2
ENDMDL
