MODEL 1
REMARK VINA RESULT:    -5.973      0.000      0.000
REMARK INTER + INTRA:          -7.183
REMARK INTER:                  -6.672
REMARK INTRA:                  -0.511
REMARK UNBOUND:                -0.511
REMARK  2 active torsions:
REMARK  status: ('A' for Active; 'I' for Inactive)
REMARK    1  A    between atoms: C_5  and  C_8 
REMARK       I    between atoms: C_8  and  N_10 
REMARK    2  A    between atoms: N_10  and  N_11 
ROOT
ATOM      1  N   UNK d   1      90.755  99.189 -43.584  0.00  0.00    -0.187 N 
ATOM      2  C   UNK d   1      91.759 100.191 -43.465  0.00  0.00     0.251 C 
ATOM      3  O   UNK d   1      92.965  99.974 -43.827  0.00  0.00    -0.271 OA
ATOM      4  C   UNK d   1      91.188 101.435 -42.888  0.00  0.00     0.101 C 
ATOM      5  C   UNK d   1      89.708 101.108 -42.836  0.00  0.00     0.101 C 
ATOM      6  C   UNK d   1      89.222 101.805 -44.089  0.00  0.00     0.022 C 
ATOM      7  C   UNK d   1      89.877 103.175 -43.816  0.00  0.00     0.018 C 
ATOM      8  C   UNK d   1      91.299 102.584 -43.850  0.00  0.00     0.022 C 
ATOM      9  C   UNK d   1      91.231 101.978 -45.226  0.00  0.00    -0.025 C 
ATOM     10  C   UNK d   1      90.033 101.408 -45.274  0.00  0.00    -0.025 C 
ATOM     11  C   UNK d   1      89.589  99.642 -42.927  0.00  0.00     0.251 C 
ATOM     12  O   UNK d   1      88.634  98.960 -42.498  0.00  0.00    -0.271 OA
ENDROOT
BRANCH   1  13
ATOM     13  N   UNK d   1      90.824  97.927 -44.231  0.00  0.00    -0.254 N 
ATOM     14  C   UNK d   1      91.344  96.791 -43.575  0.00  0.00     0.270 C 
ATOM     15  O   UNK d   1      91.770  96.847 -42.375  0.00  0.00    -0.266 OA
ATOM     16  H   UNK d   1      90.476  97.850 -45.204  0.00  0.00     0.191 HD
BRANCH  14  17
ATOM     17  C   UNK d   1      91.407  95.517 -44.249  0.00  0.00     0.033 A 
ATOM     18  C   UNK d   1      91.041  95.445 -45.590  0.00  0.00     0.018 A 
ATOM     19  C   UNK d   1      91.074  94.247 -46.272  0.00  0.00     0.020 A 
ATOM     20  C   UNK d   1      91.469  93.102 -45.644  0.00  0.00     0.011 A 
ATOM     21 Br   UNK d   1      91.503  91.452 -46.611  0.00  0.00    -0.051 Br
ATOM     22  C   UNK d   1      91.839  93.157 -44.300  0.00  0.00     0.020 A 
ATOM     23  C   UNK d   1      91.802  94.353 -43.632  0.00  0.00     0.018 A 
ENDBRANCH  14  17
ENDBRANCH   1  13
TORSDOF 2
ENDMDL
