/Users/jonathanwahrer/Desktop/Msc/3_Semester/Drug_Design_Praktikum/waehrer_HTS_screening/HTS_experiment/out/docking_results/vina_output/4agl/0257_docked.pdbqt
 OpenBabel03202223133D

 31 34  0  0  1  0  0  0  0  0999 V2000
   91.2330   98.0660  -44.9880 C   0  0  2  0  0  3  0  0  0  0  0  0
   90.1530   98.7830  -45.7390 C   0  0  2  0  0  3  0  0  0  0  0  0
   90.5600  100.1700  -45.5420 N   0  0  0  0  0  0  0  0  0  0  0  0
   91.9960  100.1410  -45.6660 C   0  0  0  0  0  0  0  0  0  0  0  0
   92.6900  101.1110  -46.0120 O   0  0  0  0  0  0  0  0  0  0  0  0
   92.4530   98.7880  -45.3130 C   0  0  0  0  0  0  0  0  0  0  0  0
   93.6320   98.3480  -45.2980 O   0  0  0  0  0  0  0  0  0  0  0  0
   91.1310   97.0020  -44.2330 C   0  0  2  0  0  3  0  0  0  0  0  0
   90.9730   97.1740  -42.8430 O   0  0  0  0  0  1  0  0  0  0  0  0
   91.1830   95.6780  -44.8280 C   0  0  0  0  0  0  0  0  0  0  0  0
   91.8230   94.6370  -44.1430 C   0  0  0  0  0  3  0  0  0  0  0  0
   91.9130   93.3790  -44.6960 C   0  0  0  0  0  3  0  0  0  0  0  0
   91.3880   93.0760  -45.9340 C   0  0  0  0  0  0  0  0  0  0  0  0
   91.4990   91.3440  -46.7190 Br  0  0  0  0  0  0  0  0  0  0  0  0
   90.7530   94.0870  -46.6250 C   0  0  0  0  0  3  0  0  0  0  0  0
   90.6630   95.3590  -46.0650 C   0  0  0  0  0  3  0  0  0  0  0  0
   88.8200   98.4820  -45.1610 C   0  0  0  0  0  0  0  0  0  0  0  0
   88.5240   99.0040  -43.9600 N   0  0  0  0  0  0  0  0  0  0  0  0
   87.3540   98.8110  -43.3470 C   0  0  0  0  0  3  0  0  0  0  0  0
   86.4100   98.0390  -43.9820 C   0  0  0  0  0  3  0  0  0  0  0  0
   86.6700   97.4850  -45.2130 C   0  0  0  0  0  3  0  0  0  0  0  0
   87.8880   97.7140  -45.8000 C   0  0  0  0  0  3  0  0  0  0  0  0
   89.7080  101.2970  -45.2960 C   0  0  0  0  0  2  0  0  0  0  0  0
   90.3040  102.2510  -44.2720 C   0  0  0  0  0  2  0  0  0  0  0  0
   89.7100  101.8960  -42.9090 C   0  0  0  0  0  2  0  0  0  0  0  0
   90.7360  101.4860  -41.9700 N   0  0  0  0  0  0  0  0  0  0  0  0
   91.5780  100.4320  -42.0790 C   0  0  0  0  0  2  0  0  0  0  0  0
   92.3760  100.3980  -40.9990 N   0  0  0  0  0  0  0  0  0  0  0  0
   92.0700  101.4170  -40.1820 C   0  0  0  0  0  3  0  0  0  0  0  0
   93.1370   99.6880  -40.8020 H   0  0  0  0  0  0  0  0  0  0  0  0
   91.0390  102.0870  -40.8090 C   0  0  0  0  0  3  0  0  0  0  0  0
  1  8  1  6  0  0  0
  2  3  1  0  0  0  0
  2 17  1  1  0  0  0
  2  1  1  0  0  0  0
  3 23  1  0  0  0  0
  4  3  1  0  0  0  0
  4  6  1  0  0  0  0
  5  4  2  0  0  0  0
  6  7  2  0  0  0  0
  6  1  1  0  0  0  0
  8  9  1  1  0  0  0
 10  8  1  0  0  0  0
 10 11  1  0  0  0  0
 12 11  2  0  0  0  0
 13 12  1  0  0  0  0
 14 13  1  0  0  0  0
 15 16  1  0  0  0  0
 15 13  2  0  0  0  0
 16 10  2  0  0  0  0
 17 18  1  0  0  0  0
 18 19  2  0  0  0  0
 20 19  1  0  0  0  0
 21 20  2  0  0  0  0
 22 21  1  0  0  0  0
 22 17  2  0  0  0  0
 23 24  1  0  0  0  0
 24 25  1  0  0  0  0
 25 26  1  0  0  0  0
 26 31  1  0  0  0  0
 27 26  1  0  0  0  0
 27 28  1  0  0  0  0
 28 30  1  0  0  0  0
 28 29  1  0  0  0  0
 31 29  2  0  0  0  0
M  END
>  <Pose>
1

>  <Score>
-6.299

$$$$
