MODEL 1
REMARK VINA RESULT:    -6.327      0.000      0.000
REMARK INTER + INTRA:         -10.012
REMARK INTER:                  -8.916
REMARK INTRA:                  -1.097
REMARK UNBOUND:                -1.097
REMARK  7 active torsions:
REMARK  status: ('A' for Active; 'I' for Inactive)
REMARK    1  A    between atoms: C_5  and  C_8 
REMARK    2  A    between atoms: C_10  and  C_24 
REMARK    3  A    between atoms: N_11  and  C_16 
REMARK    4  A    between atoms: C_16  and  C_17 
REMARK    5  A    between atoms: C_17  and  N_18 
REMARK    6  A    between atoms: C_27  and  C_30 
REMARK    7  A    between atoms: C_30  and  O_32 
ROOT
ATOM      1  C   UNK d   1      88.322  98.508 -44.767  0.00  0.00     0.130 C 
ATOM      2  C   UNK d   1      89.496  98.933 -45.181  0.00  0.00     0.062 A 
ATOM      3  C   UNK d   1      90.674  99.267 -44.303  0.00  0.00     0.161 A 
ATOM      4  N   UNK d   1      91.686  99.759 -45.172  0.00  0.00    -0.331 N 
ATOM      5  C   UNK d   1      91.292  99.634 -46.554  0.00  0.00     0.295 A 
ATOM      6  O   UNK d   1      91.945  99.898 -47.573  0.00  0.00    -0.264 OA
ATOM      7  C   UNK d   1      89.907  99.109 -46.555  0.00  0.00     0.250 A 
ATOM      8  O   UNK d   1      89.223  98.863 -47.600  0.00  0.00    -0.282 OA
ATOM      9  O   UNK d   1      88.185  98.356 -43.368  0.00  0.00    -0.190 OA
ENDROOT
BRANCH   3  10
ATOM     10  C   UNK d   1      91.064  97.961 -43.688  0.00  0.00    -0.030 A 
ATOM     11  C   UNK d   1      91.068  96.855 -44.477  0.00  0.00     0.011 A 
ATOM     12  C   UNK d   1      91.415  95.623 -43.960  0.00  0.00     0.018 A 
ATOM     13  C   UNK d   1      91.758  95.509 -42.641  0.00  0.00     0.039 A 
ATOM     14  C   UNK d   1      91.754  96.626 -41.847  0.00  0.00     0.018 A 
ATOM     15  C   UNK d   1      91.408  97.866 -42.360  0.00  0.00     0.011 A 
BRANCH  13  16
ATOM     16  C   UNK d   1      92.125  94.206 -42.080  0.00  0.00     0.292 C 
ATOM     17  O   UNK d   1      91.344  93.231 -42.221  0.00  0.00    -0.259 OA
BRANCH  16  18
ATOM     18  O   UNK d   1      93.289  93.988 -41.396  0.00  0.00    -0.323 OA
ATOM     19  C   UNK d   1      93.980  92.759 -41.428  0.00  0.00     0.213 C 
ENDBRANCH  16  18
ENDBRANCH  13  16
ENDBRANCH   3  10
BRANCH   4  20
ATOM     20  C   UNK d   1      92.965 100.314 -44.817  0.00  0.00     0.155 C 
BRANCH  20  21
ATOM     21  C   UNK d   1      92.915 101.535 -43.964  0.00  0.00     0.255 C 
BRANCH  21  22
ATOM     22  N   UNK d   1      93.359 101.360 -42.614  0.00  0.00    -0.066 N 
ATOM     23  C   UNK d   1      92.292 101.377 -41.635  0.00  0.00     0.261 C 
ATOM     24  C   UNK d   1      92.901 100.987 -40.304  0.00  0.00     0.195 C 
ATOM     25  O   UNK d   1      93.758 102.055 -39.947  0.00  0.00    -0.388 OA
ATOM     26  C   UNK d   1      94.821 102.006 -40.854  0.00  0.00     0.195 C 
ATOM     27  C   UNK d   1      94.286 102.436 -42.211  0.00  0.00     0.261 C 
ATOM     28  H   UNK d   1      93.948 100.492 -42.501  0.00  0.00     0.280 HD
ENDBRANCH  21  22
ENDBRANCH  20  21
ENDBRANCH   4  20
BRANCH   1  29
ATOM     29  C   UNK d   1      87.211  98.203 -45.657  0.00  0.00     0.001 A 
ATOM     30  C   UNK d   1      87.019  96.896 -46.123  0.00  0.00     0.015 A 
ATOM     31  C   UNK d   1      85.967  96.540 -46.939  0.00  0.00     0.020 A 
ATOM     32  C   UNK d   1      85.040  97.479 -47.338  0.00  0.00     0.011 A 
ATOM     33 Br   UNK d   1      83.591  96.959 -48.473  0.00  0.00    -0.051 Br
ATOM     34  C   UNK d   1      85.206  98.769 -46.893  0.00  0.00     0.020 A 
ATOM     35  C   UNK d   1      86.277  99.126 -46.064  0.00  0.00     0.015 A 
ENDBRANCH   1  29
TORSDOF 7
ENDMDL
