/Users/jonathanwahrer/Desktop/Msc/3_Semester/Drug_Design_Praktikum/waehrer_HTS_screening/HTS_experiment/out/docking_results/vina_output/4agl/0274_docked.pdbqt
 OpenBabel03202223143D

 31 34  0  0  1  0  0  0  0  0999 V2000
   89.3770   97.6480  -45.7510 C   0  0  0  0  0  0  0  0  0  0  0  0
   89.7600   98.1750  -44.6040 C   0  0  0  0  0  0  0  0  0  0  0  0
   91.1180   98.2510  -43.9910 C   0  0  1  0  0  3  0  0  0  0  0  0
   91.0820   99.5370  -43.2750 N   0  0  0  0  0  0  0  0  0  0  0  0
   89.7540   99.6500  -42.8000 C   0  0  0  0  0  0  0  0  0  0  0  0
   89.4020  100.3580  -41.8480 O   0  0  0  0  0  0  0  0  0  0  0  0
   88.8900   98.8030  -43.6130 C   0  0  0  0  0  0  0  0  0  0  0  0
   87.6520   98.5940  -43.5460 O   0  0  0  0  0  0  0  0  0  0  0  0
   90.3690   97.0500  -46.5530 O   0  0  0  0  0  1  0  0  0  0  0  0
   88.0110   97.6400  -46.2460 C   0  0  0  0  0  0  0  0  0  0  0  0
   87.1750   96.5670  -46.0330 C   0  0  0  0  0  3  0  0  0  0  0  0
   85.8800   96.5420  -46.5280 C   0  0  0  0  0  3  0  0  0  0  0  0
   85.3810   97.5980  -47.2560 C   0  0  0  0  0  0  0  0  0  0  0  0
   83.5920   97.5740  -47.9450 Br  0  0  0  0  0  0  0  0  0  0  0  0
   86.2060   98.6760  -47.4770 C   0  0  0  0  0  3  0  0  0  0  0  0
   87.5110   98.6940  -46.9750 C   0  0  0  0  0  3  0  0  0  0  0  0
   91.4490   97.1210  -43.1210 C   0  0  0  0  0  0  0  0  0  0  0  0
   91.4310   95.8090  -43.6100 C   0  0  0  0  0  3  0  0  0  0  0  0
   91.7290   94.7170  -42.8540 C   0  0  0  0  0  3  0  0  0  0  0  0
   92.0730   94.8740  -41.5240 C   0  0  0  0  0  3  0  0  0  0  0  0
   92.0990   96.1420  -41.0190 C   0  0  0  0  0  3  0  0  0  0  0  0
   91.7930   97.2630  -41.7960 C   0  0  0  0  0  3  0  0  0  0  0  0
   92.2160  100.3800  -43.1590 C   0  0  0  0  0  2  0  0  0  0  0  0
   92.6490  100.8060  -41.8170 C   0  0  0  0  0  2  0  0  0  0  0  0
   93.0670  102.1680  -41.6850 N   0  0  0  0  0  4  0  0  0  0  0  0
   94.3130  102.4980  -42.2830 C   0  0  0  0  0  2  0  0  0  0  0  0
   95.3460  102.6800  -41.1920 C   0  0  0  0  0  2  0  0  0  0  0  0
   95.2120  101.7390  -40.1750 O   0  0  0  0  0  0  0  0  0  0  0  0
   94.0480  101.9060  -39.4490 C   0  0  0  0  0  2  0  0  0  0  0  0
   93.0490  102.6390  -40.3170 C   0  0  0  0  0  2  0  0  0  0  0  0
   92.3170  102.7350  -42.1890 H   0  0  0  0  0  0  0  0  0  0  0  0
  1  2  2  0  0  0  0
  2  3  1  0  0  0  0
  2  7  1  0  0  0  0
  3  4  1  0  0  0  0
  3 17  1  1  0  0  0
  4 23  1  0  0  0  0
  4  5  1  0  0  0  0
  5  6  2  0  0  0  0
  7  8  2  0  0  0  0
  7  5  1  0  0  0  0
  9  1  1  0  0  0  0
 10 11  1  0  0  0  0
 10  1  1  0  0  0  0
 12 11  2  0  0  0  0
 13 12  1  0  0  0  0
 14 13  1  0  0  0  0
 15 13  2  0  0  0  0
 15 16  1  0  0  0  0
 16 10  2  0  0  0  0
 17 22  1  0  0  0  0
 18 17  2  0  0  0  0
 18 19  1  0  0  0  0
 19 20  2  0  0  0  0
 20 21  1  0  0  0  0
 22 21  2  0  0  0  0
 23 24  1  0  0  0  0
 24 25  1  0  0  0  0
 25 30  1  0  0  0  0
 26 25  1  0  0  0  0
 26 27  1  0  0  0  0
 27 28  1  0  0  0  0
 28 29  1  0  0  0  0
 30 29  1  0  0  0  0
 31 25  1  0  0  0  0
M  END
>  <Pose>
1

>  <Score>
-6.493

$$$$
