MODEL 1
REMARK VINA RESULT:    -6.493      0.000      0.000
REMARK INTER + INTRA:          -9.014
REMARK INTER:                  -8.391
REMARK INTRA:                  -0.623
REMARK UNBOUND:                -0.623
REMARK  5 active torsions:
REMARK  status: ('A' for Active; 'I' for Inactive)
REMARK    1  A    between atoms: C_5  and  C_8 
REMARK    2  A    between atoms: C_10  and  C_24 
REMARK    3  A    between atoms: N_11  and  C_16 
REMARK    4  A    between atoms: C_16  and  C_17 
REMARK    5  A    between atoms: C_17  and  N_18 
ROOT
ATOM      1  C   UNK d   1      89.377  97.648 -45.751  0.00  0.00     0.130 C 
ATOM      2  C   UNK d   1      89.760  98.175 -44.604  0.00  0.00     0.062 C 
ATOM      3  C   UNK d   1      91.118  98.251 -43.991  0.00  0.00     0.161 C 
ATOM      4  N   UNK d   1      91.082  99.537 -43.275  0.00  0.00    -0.331 N 
ATOM      5  C   UNK d   1      89.754  99.650 -42.800  0.00  0.00     0.295 C 
ATOM      6  O   UNK d   1      89.402 100.358 -41.848  0.00  0.00    -0.264 OA
ATOM      7  C   UNK d   1      88.890  98.803 -43.613  0.00  0.00     0.250 C 
ATOM      8  O   UNK d   1      87.652  98.594 -43.546  0.00  0.00    -0.282 OA
ATOM      9  O   UNK d   1      90.369  97.050 -46.553  0.00  0.00    -0.190 OA
ENDROOT
BRANCH   1  10
ATOM     10  C   UNK d   1      88.011  97.640 -46.246  0.00  0.00     0.001 A 
ATOM     11  C   UNK d   1      87.175  96.567 -46.033  0.00  0.00     0.015 A 
ATOM     12  C   UNK d   1      85.880  96.542 -46.528  0.00  0.00     0.020 A 
ATOM     13  C   UNK d   1      85.381  97.598 -47.256  0.00  0.00     0.011 A 
ATOM     14 Br   UNK d   1      83.592  97.574 -47.945  0.00  0.00    -0.051 Br
ATOM     15  C   UNK d   1      86.206  98.676 -47.477  0.00  0.00     0.020 A 
ATOM     16  C   UNK d   1      87.511  98.694 -46.975  0.00  0.00     0.015 A 
ENDBRANCH   1  10
BRANCH   3  17
ATOM     17  C   UNK d   1      91.449  97.121 -43.121  0.00  0.00    -0.031 A 
ATOM     18  C   UNK d   1      91.431  95.809 -43.610  0.00  0.00     0.009 A 
ATOM     19  C   UNK d   1      91.729  94.717 -42.854  0.00  0.00     0.001 A 
ATOM     20  C   UNK d   1      92.073  94.874 -41.524  0.00  0.00     0.000 A 
ATOM     21  C   UNK d   1      92.099  96.142 -41.019  0.00  0.00     0.001 A 
ATOM     22  C   UNK d   1      91.793  97.263 -41.796  0.00  0.00     0.009 A 
ENDBRANCH   3  17
BRANCH   4  23
ATOM     23  C   UNK d   1      92.216 100.380 -43.159  0.00  0.00     0.155 C 
BRANCH  23  24
ATOM     24  C   UNK d   1      92.649 100.806 -41.817  0.00  0.00     0.255 C 
BRANCH  24  25
ATOM     25  N   UNK d   1      93.067 102.168 -41.685  0.00  0.00    -0.066 N 
ATOM     26  C   UNK d   1      94.313 102.498 -42.283  0.00  0.00     0.261 C 
ATOM     27  C   UNK d   1      95.346 102.680 -41.192  0.00  0.00     0.195 C 
ATOM     28  O   UNK d   1      95.212 101.739 -40.175  0.00  0.00    -0.388 OA
ATOM     29  C   UNK d   1      94.048 101.906 -39.449  0.00  0.00     0.195 C 
ATOM     30  C   UNK d   1      93.049 102.639 -40.317  0.00  0.00     0.261 C 
ATOM     31  H   UNK d   1      92.317 102.735 -42.189  0.00  0.00     0.280 HD
ENDBRANCH  24  25
ENDBRANCH  23  24
ENDBRANCH   4  23
TORSDOF 5
ENDMDL
