MODEL 1
REMARK VINA RESULT:    -6.865      0.000      0.000
REMARK INTER + INTRA:         -10.210
REMARK INTER:                  -9.273
REMARK INTRA:                  -0.937
REMARK UNBOUND:                -0.937
REMARK  7 active torsions:
REMARK  status: ('A' for Active; 'I' for Inactive)
REMARK    1  A    between atoms: C_5  and  C_8 
REMARK    2  A    between atoms: C_8  and  O_9 
REMARK    3  A    between atoms: C_8  and  C_10 
REMARK    4  A    between atoms: C_10  and  N_11 
REMARK    5  A    between atoms: N_18  and  C_21 
REMARK    6  A    between atoms: C_19  and  N_20 
REMARK    7  A    between atoms: C_21  and  C_22 
ROOT
ATOM      1  N   UNK d   1      91.614 100.203 -43.135  0.00  0.00    -0.178 N 
ATOM      2  C   UNK d   1      90.274 100.014 -43.069  0.00  0.00     0.079 A 
ATOM      3  C   UNK d   1      89.994  98.946 -43.906  0.00  0.00     0.079 A 
ATOM      4  C   UNK d   1      88.681  98.534 -44.039  0.00  0.00     0.032 A 
ATOM      5  C   UNK d   1      87.635  99.164 -43.354  0.00  0.00     0.002 A 
ATOM      6  C   UNK d   1      87.966 100.230 -42.527  0.00  0.00     0.002 A 
ATOM      7  C   UNK d   1      89.261 100.659 -42.377  0.00  0.00     0.032 A 
ATOM      8  N   UNK d   1      91.147  98.485 -44.475  0.00  0.00    -0.177 N 
ATOM      9  C   UNK d   1      92.126  99.286 -43.977  0.00  0.00     0.681 A 
ENDROOT
BRANCH   1  10
ATOM     10  C   UNK d   1      92.274 101.234 -42.387  0.00  0.00     0.184 C 
BRANCH  10  11
ATOM     11  C   UNK d   1      92.964 100.729 -41.157  0.00  0.00     0.170 C 
BRANCH  11  12
ATOM     12  C   UNK d   1      92.749 101.675 -39.998  0.00  0.00    -0.028 A 
ATOM     13  C   UNK d   1      93.812 102.071 -39.225  0.00  0.00     0.011 A 
ATOM     14  C   UNK d   1      93.620 102.932 -38.177  0.00  0.00     0.019 A 
ATOM     15  C   UNK d   1      92.349 103.390 -37.914  0.00  0.00     0.011 A 
ATOM     16 Br   UNK d   1      92.071 104.594 -36.452  0.00  0.00    -0.051 Br
ATOM     17  C   UNK d   1      91.251 103.026 -38.657  0.00  0.00     0.019 A 
ATOM     18  C   UNK d   1      91.495 102.154 -39.707  0.00  0.00     0.011 A 
ENDBRANCH  11  12
BRANCH  11  19
ATOM     19  O   UNK d   1      92.544  99.480 -40.742  0.00  0.00    -0.389 OA
ATOM     20  H   UNK d   1      91.574  99.399 -40.664  0.00  0.00     0.210 HD
ENDBRANCH  11  19
ENDBRANCH  10  11
ENDBRANCH   1  10
BRANCH   9  21
ATOM     21  N   UNK d   1      93.372  99.158 -44.290  0.00  0.00    -0.234 N 
ATOM     22  H   UNK d   1      93.906  98.310 -43.933  0.00  0.00     0.174 HD
ATOM     23  H   UNK d   1      93.927  99.802 -44.858  0.00  0.00     0.174 HD
ENDBRANCH   9  21
BRANCH   8  24
ATOM     24  C   UNK d   1      91.208  97.377 -45.381  0.00  0.00     0.186 C 
BRANCH  24  25
ATOM     25  C   UNK d   1      91.397  96.051 -44.698  0.00  0.00    -0.039 A 
ATOM     26  C   UNK d   1      91.415  94.898 -45.465  0.00  0.00     0.009 A 
ATOM     27  C   UNK d   1      91.585  93.644 -44.912  0.00  0.00     0.001 A 
ATOM     28  C   UNK d   1      91.741  93.568 -43.550  0.00  0.00     0.000 A 
ATOM     29  C   UNK d   1      91.726  94.693 -42.768  0.00  0.00     0.001 A 
ATOM     30  C   UNK d   1      91.555  95.922 -43.347  0.00  0.00     0.009 A 
ENDBRANCH  24  25
ENDBRANCH   8  24
TORSDOF 7
ENDMDL
