/Users/jonathanwahrer/Desktop/Msc/3_Semester/Drug_Design_Praktikum/waehrer_HTS_screening/HTS_experiment/out/docking_results/vina_output/4agl/0293_docked.pdbqt
 OpenBabel03202223153D

 27 30  0  0  0  0  0  0  0  0999 V2000
   91.4820   97.7610  -43.2380 C   0  0  0  0  0  3  0  0  0  0  0  0
   90.3360   98.4530  -43.2360 C   0  0  0  0  0  0  0  0  0  0  0  0
   89.1570   97.9800  -43.7900 O   0  0  0  0  0  0  0  0  0  0  0  0
   88.1210   98.8980  -43.6500 C   0  0  0  0  0  0  0  0  0  0  0  0
   88.6100   99.9900  -43.0010 C   0  0  0  0  0  0  0  0  0  0  0  0
   87.7830  101.0610  -42.7310 C   0  0  0  0  0  3  0  0  0  0  0  0
   86.4780  100.9720  -43.1390 C   0  0  0  0  0  3  0  0  0  0  0  0
   85.9720   99.8500  -43.8080 C   0  0  0  0  0  0  0  0  0  0  0  0
   86.7800   98.7750  -44.0860 C   0  0  0  0  0  0  0  0  0  0  0  0
   84.6300   99.8390  -44.1900 O   0  0  0  0  0  1  0  0  0  0  0  0
   90.0320   99.7570  -42.7110 C   0  0  0  0  0  0  0  0  0  0  0  0
   90.8480  100.5130  -42.1260 O   0  0  0  0  0  0  0  0  0  0  0  0
   91.5220   96.4360  -43.8490 C   0  0  0  0  0  0  0  0  0  0  0  0
   91.4660   96.2970  -45.2260 C   0  0  0  0  0  3  0  0  0  0  0  0
   91.4980   95.0580  -45.8360 C   0  0  0  0  0  3  0  0  0  0  0  0
   91.5880   93.9020  -45.0940 C   0  0  0  0  0  0  0  0  0  0  0  0
   91.6370   92.1790  -45.9440 Br  0  0  0  0  0  0  0  0  0  0  0  0
   91.6450   94.0210  -43.7210 C   0  0  0  0  0  3  0  0  0  0  0  0
   91.6110   95.2780  -43.1100 C   0  0  0  0  0  3  0  0  0  0  0  0
   86.3960   97.5380  -44.7770 C   0  0  0  0  0  2  0  0  0  0  0  0
   85.6290   97.6360  -45.9570 N   0  0  0  0  0  4  0  0  0  0  0  0
   86.4500   97.7620  -47.1430 C   0  0  0  0  0  2  0  0  0  0  0  0
   86.8350   96.3820  -47.6410 C   0  0  0  0  0  2  0  0  0  0  0  0
   85.7470   95.8520  -48.3160 O   0  0  0  0  0  0  0  0  0  0  0  0
   84.5860   96.2880  -47.6670 C   0  0  0  0  0  2  0  0  0  0  0  0
   84.8410   96.4100  -46.1730 C   0  0  0  0  0  2  0  0  0  0  0  0
   84.9160   98.3920  -45.9010 H   0  0  0  0  0  0  0  0  0  0  0  0
  1  2  2  0  0  0  0
  2 11  1  0  0  0  0
  3  4  1  0  0  0  0
  3  2  1  0  0  0  0
  4  5  1  0  0  0  0
  5  6  2  0  0  0  0
  5 11  1  0  0  0  0
  7  6  1  0  0  0  0
  8  7  2  0  0  0  0
  9  8  1  0  0  0  0
  9  4  2  0  0  0  0
 10  8  1  0  0  0  0
 11 12  2  0  0  0  0
 13  1  1  0  0  0  0
 13 19  1  0  0  0  0
 14 13  2  0  0  0  0
 15 14  1  0  0  0  0
 15 16  2  0  0  0  0
 16 18  1  0  0  0  0
 17 16  1  0  0  0  0
 18 19  2  0  0  0  0
 20  9  1  0  0  0  0
 21 27  1  0  0  0  0
 21 20  1  0  0  0  0
 22 21  1  0  0  0  0
 23 22  1  0  0  0  0
 24 25  1  0  0  0  0
 24 23  1  0  0  0  0
 25 26  1  0  0  0  0
 26 21  1  0  0  0  0
M  END
>  <Pose>
1

>  <Score>
-6.166

$$$$
