MODEL 1
REMARK VINA RESULT:    -6.166      0.000      0.000
REMARK INTER + INTRA:          -8.134
REMARK INTER:                  -7.247
REMARK INTRA:                  -0.887
REMARK UNBOUND:                -0.887
REMARK  3 active torsions:
REMARK  status: ('A' for Active; 'I' for Inactive)
REMARK    1  A    between atoms: C_5  and  C_8 
REMARK    2  A    between atoms: C_16  and  C_17 
REMARK    3  A    between atoms: C_17  and  N_18 
ROOT
ATOM      1  C   UNK d   1      91.482  97.761 -43.238  0.00  0.00     0.053 C 
ATOM      2  C   UNK d   1      90.336  98.453 -43.236  0.00  0.00     0.127 A 
ATOM      3  O   UNK d   1      89.157  97.980 -43.790  0.00  0.00    -0.305 OA
ATOM      4  C   UNK d   1      88.121  98.898 -43.650  0.00  0.00     0.101 A 
ATOM      5  C   UNK d   1      88.610  99.990 -43.001  0.00  0.00     0.051 A 
ATOM      6  C   UNK d   1      87.783 101.061 -42.731  0.00  0.00     0.021 A 
ATOM      7  C   UNK d   1      86.478 100.972 -43.139  0.00  0.00     0.041 A 
ATOM      8  C   UNK d   1      85.972  99.850 -43.808  0.00  0.00     0.118 A 
ATOM      9  C   UNK d   1      86.780  98.775 -44.086  0.00  0.00     0.039 A 
ATOM     10  O   UNK d   1      84.630  99.839 -44.190  0.00  0.00    -0.191 OA
ATOM     11  C   UNK d   1      90.032  99.757 -42.711  0.00  0.00     0.218 A 
ATOM     12  O   UNK d   1      90.848 100.513 -42.126  0.00  0.00    -0.284 OA
ENDROOT
BRANCH   1  13
ATOM     13  C   UNK d   1      91.522  96.436 -43.849  0.00  0.00    -0.033 A 
ATOM     14  C   UNK d   1      91.466  96.297 -45.226  0.00  0.00     0.013 A 
ATOM     15  C   UNK d   1      91.498  95.058 -45.836  0.00  0.00     0.020 A 
ATOM     16  C   UNK d   1      91.588  93.902 -45.094  0.00  0.00     0.011 A 
ATOM     17 Br   UNK d   1      91.637  92.179 -45.944  0.00  0.00    -0.051 Br
ATOM     18  C   UNK d   1      91.645  94.021 -43.721  0.00  0.00     0.020 A 
ATOM     19  C   UNK d   1      91.611  95.278 -43.110  0.00  0.00     0.013 A 
ENDBRANCH   1  13
BRANCH   9  20
ATOM     20  C   UNK d   1      86.396  97.538 -44.777  0.00  0.00     0.279 C 
BRANCH  20  21
ATOM     21  N   UNK d   1      85.629  97.636 -45.957  0.00  0.00    -0.063 N 
ATOM     22  C   UNK d   1      86.450  97.762 -47.143  0.00  0.00     0.261 C 
ATOM     23  C   UNK d   1      86.835  96.382 -47.641  0.00  0.00     0.195 C 
ATOM     24  O   UNK d   1      85.747  95.852 -48.316  0.00  0.00    -0.388 OA
ATOM     25  C   UNK d   1      84.586  96.288 -47.667  0.00  0.00     0.195 C 
ATOM     26  C   UNK d   1      84.841  96.410 -46.173  0.00  0.00     0.261 C 
ATOM     27  H   UNK d   1      84.916  98.392 -45.901  0.00  0.00     0.280 HD
ENDBRANCH  20  21
ENDBRANCH   9  20
TORSDOF 3
ENDMDL
