/Users/jonathanwahrer/Desktop/Msc/3_Semester/Drug_Design_Praktikum/waehrer_HTS_screening/HTS_experiment/out/docking_results/vina_output/4agl/0305_docked.pdbqt
 OpenBabel03202223163D

 27 30  0  0  0  0  0  0  0  0999 V2000
   90.4800   97.1500  -45.3510 C   0  0  0  0  0  0  0  0  0  0  0  0
   90.9860   96.1630  -44.6230 N   0  0  0  0  0  0  0  0  0  0  0  0
   91.0340   95.0140  -45.3420 C   0  0  0  0  0  0  0  0  0  0  0  0
   90.5460   95.3130  -46.5610 N   0  0  0  0  0  0  0  0  0  0  0  0
   90.2160   96.5620  -46.5910 N   0  0  0  0  0  0  0  0  0  0  0  0
   91.5460   94.0010  -44.6330 N   0  0  0  0  0  0  0  0  0  0  0  0
   91.8370   94.5210  -43.4360 C   0  0  0  0  0  0  0  0  0  0  0  0
   91.5030   95.8820  -43.3950 C   0  0  0  0  0  0  0  0  0  0  0  0
   91.7390   96.6120  -42.3180 N   0  0  0  0  0  0  0  0  0  0  0  0
   92.3100   95.9860  -41.2430 C   0  0  0  0  0  0  0  0  0  0  0  0
   92.5470   96.6410  -40.2010 O   0  0  0  0  0  0  0  0  0  0  0  0
   92.6330   94.6870  -41.2470 N   0  0  0  0  0  0  0  0  0  0  0  0
   92.4080   93.9290  -42.3340 C   0  0  0  0  0  0  0  0  0  0  0  0
   92.6990   92.7060  -42.3760 O   0  0  0  0  0  0  0  0  0  0  0  0
   91.5660   98.0350  -42.1800 C   0  0  0  0  0  1  0  0  0  0  0  0
   93.0650   94.2100  -40.4300 H   0  0  0  0  0  0  0  0  0  0  0  0
   90.1760   98.5560  -45.1600 C   0  0  0  0  0  0  0  0  0  0  0  0
   88.9740   98.8770  -44.5260 C   0  0  0  0  0  3  0  0  0  0  0  0
   88.6590  100.1500  -44.1660 C   0  0  0  0  0  3  0  0  0  0  0  0
   89.5430  101.1760  -44.4260 C   0  0  0  0  0  0  0  0  0  0  0  0
   89.1010  102.9470  -43.9230 Br  0  0  0  0  0  0  0  0  0  0  0  0
   90.7460  100.9230  -45.0480 C   0  0  0  0  0  3  0  0  0  0  0  0
   91.0100   99.6200  -45.3880 C   0  0  0  0  0  3  0  0  0  0  0  0
   91.7390   92.6350  -45.0640 C   0  0  0  0  0  2  0  0  0  0  0  0
   91.3380   92.4160  -46.5070 C   0  0  0  0  0  2  0  0  0  0  0  0
   91.2480   91.0660  -46.8210 O   0  0  0  0  0  0  0  0  0  0  0  0
   92.3890   90.7310  -47.5500 C   0  0  0  0  0  1  0  0  0  0  0  0
  1 17  1  0  0  0  0
  1  2  1  0  0  0  0
  2  8  1  0  0  0  0
  3  6  1  0  0  0  0
  3  2  1  0  0  0  0
  4  3  2  0  0  0  0
  5  4  1  0  0  0  0
  5  1  2  0  0  0  0
  6  7  1  0  0  0  0
  7  8  2  0  0  0  0
  7 13  1  0  0  0  0
  8  9  1  0  0  0  0
  9 15  1  0  0  0  0
  9 10  1  0  0  0  0
 10 11  2  0  0  0  0
 12 10  1  0  0  0  0
 12 16  1  0  0  0  0
 13 12  1  0  0  0  0
 14 13  2  0  0  0  0
 17 18  1  0  0  0  0
 18 19  2  0  0  0  0
 20 19  1  0  0  0  0
 20 21  1  0  0  0  0
 22 20  2  0  0  0  0
 23 17  2  0  0  0  0
 23 22  1  0  0  0  0
 24  6  1  0  0  0  0
 25 24  1  0  0  0  0
 26 25  1  0  0  0  0
 27 26  1  0  0  0  0
M  END
>  <Pose>
1

>  <Score>
-7.143

$$$$
