MODEL 1
REMARK VINA RESULT:    -7.143      0.000      0.000
REMARK INTER + INTRA:          -8.977
REMARK INTER:                  -8.813
REMARK INTRA:                  -0.165
REMARK UNBOUND:                -0.165
REMARK  4 active torsions:
REMARK  status: ('A' for Active; 'I' for Inactive)
REMARK    1  A    between atoms: C_5  and  C_8 
REMARK    2  A    between atoms: N_13  and  C_23 
REMARK    3  A    between atoms: C_23  and  C_24 
REMARK    4  A    between atoms: C_24  and  O_25 
ROOT
ATOM      1  C   UNK d   1      90.480  97.150 -45.351  0.00  0.00     0.185 A 
ATOM      2  N   UNK d   1      90.986  96.163 -44.623  0.00  0.00    -0.107 N 
ATOM      3  C   UNK d   1      91.034  95.014 -45.342  0.00  0.00     0.736 A 
ATOM      4  N   UNK d   1      90.546  95.313 -46.561  0.00  0.00     0.045 NA
ATOM      5  N   UNK d   1      90.216  96.562 -46.591  0.00  0.00    -0.114 NA
ATOM      6  N   UNK d   1      91.546  94.001 -44.633  0.00  0.00    -0.168 N 
ATOM      7  C   UNK d   1      91.837  94.521 -43.436  0.00  0.00     0.165 A 
ATOM      8  C   UNK d   1      91.503  95.882 -43.395  0.00  0.00     0.170 A 
ATOM      9  N   UNK d   1      91.739  96.612 -42.318  0.00  0.00    -0.287 N 
ATOM     10  C   UNK d   1      92.310  95.986 -41.243  0.00  0.00     0.330 A 
ATOM     11  O   UNK d   1      92.547  96.641 -40.201  0.00  0.00    -0.246 OA
ATOM     12  N   UNK d   1      92.633  94.687 -41.247  0.00  0.00    -0.273 N 
ATOM     13  C   UNK d   1      92.408  93.929 -42.334  0.00  0.00     0.280 A 
ATOM     14  O   UNK d   1      92.699  92.706 -42.376  0.00  0.00    -0.265 OA
ATOM     15  C   UNK d   1      91.566  98.035 -42.180  0.00  0.00     0.163 C 
ATOM     16  H   UNK d   1      93.065  94.210 -40.430  0.00  0.00     0.173 HD
ENDROOT
BRANCH   1  17
ATOM     17  C   UNK d   1      90.176  98.556 -45.160  0.00  0.00     0.013 A 
ATOM     18  C   UNK d   1      88.974  98.877 -44.526  0.00  0.00     0.017 A 
ATOM     19  C   UNK d   1      88.659 100.150 -44.166  0.00  0.00     0.020 A 
ATOM     20  C   UNK d   1      89.543 101.176 -44.426  0.00  0.00     0.011 A 
ATOM     21 Br   UNK d   1      89.101 102.947 -43.923  0.00  0.00    -0.051 Br
ATOM     22  C   UNK d   1      90.746 100.923 -45.048  0.00  0.00     0.020 A 
ATOM     23  C   UNK d   1      91.010  99.620 -45.388  0.00  0.00     0.017 A 
ENDBRANCH   1  17
BRANCH   6  24
ATOM     24  C   UNK d   1      91.739  92.635 -45.064  0.00  0.00     0.174 C 
BRANCH  24  25
ATOM     25  C   UNK d   1      91.338  92.416 -46.507  0.00  0.00     0.187 C 
BRANCH  25  26
ATOM     26  O   UNK d   1      91.248  91.066 -46.821  0.00  0.00    -0.394 OA
ATOM     27  C   UNK d   1      92.389  90.731 -47.550  0.00  0.00     0.201 C 
ENDBRANCH  25  26
ENDBRANCH  24  25
ENDBRANCH   6  24
TORSDOF 4
ENDMDL
