MODEL 1
REMARK VINA RESULT:    -5.082      0.000      0.000
REMARK INTER + INTRA:          -8.505
REMARK INTER:                  -6.865
REMARK INTRA:                  -1.640
REMARK UNBOUND:                -1.640
REMARK  6 active torsions:
REMARK  status: ('A' for Active; 'I' for Inactive)
REMARK    1  A    between atoms: C_5  and  C_8 
REMARK    2  A    between atoms: C_9  and  C_28 
REMARK    3  A    between atoms: C_16  and  C_17 
REMARK    4  A    between atoms: C_17  and  N_18 
REMARK    5  A    between atoms: C_28  and  O_30 
REMARK    6  A    between atoms: O_30  and  C_31 
ROOT
ATOM      1  C   UNK d   1      91.369  99.864 -42.823  0.00  0.00     0.065 A 
ATOM      2  C   UNK d   1      90.575 100.308 -43.853  0.00  0.00     0.166 A 
ATOM      3  O   UNK d   1      90.132  99.515 -44.810  0.00  0.00    -0.302 OA
ATOM      4  C   UNK d   1      90.424  98.240 -44.833  0.00  0.00     0.101 A 
ATOM      5  C   UNK d   1      91.201  97.742 -43.848  0.00  0.00     0.050 A 
ATOM      6  C   UNK d   1      91.523  96.403 -43.844  0.00  0.00     0.021 A 
ATOM      7  C   UNK d   1      91.038  95.611 -44.853  0.00  0.00     0.041 A 
ATOM      8  C   UNK d   1      90.227  96.140 -45.875  0.00  0.00     0.118 A 
ATOM      9  C   UNK d   1      89.896  97.462 -45.901  0.00  0.00     0.039 A 
ATOM     10  O   UNK d   1      89.831  95.193 -46.804  0.00  0.00    -0.191 OA
ATOM     11  C   UNK d   1      91.704  98.509 -42.815  0.00  0.00     0.199 A 
ATOM     12  O   UNK d   1      92.415  98.051 -41.915  0.00  0.00    -0.286 OA
ENDROOT
BRANCH   9  13
ATOM     13  C   UNK d   1      89.099  98.151 -46.886  0.00  0.00     0.279 C 
BRANCH  13  14
ATOM     14  N   UNK d   1      87.764  98.535 -46.673  0.00  0.00    -0.064 N 
ATOM     15  C   UNK d   1      87.580  99.939 -46.765  0.00  0.00     0.254 C 
ATOM     16  C   UNK d   1      86.480 100.573 -46.009  0.00  0.00     0.144 C 
ATOM     17  N   UNK d   1      85.993  99.791 -44.957  0.00  0.00    -0.413 N 
ATOM     18  C   UNK d   1      85.770  98.429 -45.181  0.00  0.00     0.144 C 
ATOM     19  C   UNK d   1      85.743 100.361 -43.700  0.00  0.00     0.143 C 
ATOM     20  C   UNK d   1      86.980  97.774 -45.768  0.00  0.00     0.254 C 
ATOM     21  H   UNK d   1      87.299  98.207 -47.658  0.00  0.00     0.280 HD
ENDBRANCH  13  14
ENDBRANCH   9  13
BRANCH   2  22
ATOM     22  C   UNK d   1      90.212 101.734 -43.883  0.00  0.00     0.318 C 
ATOM     23  O   UNK d   1      89.055 102.054 -43.511  0.00  0.00    -0.257 OA
BRANCH  22  24
ATOM     24  O   UNK d   1      91.057 102.720 -44.288  0.00  0.00    -0.316 OA
BRANCH  24  25
ATOM     25  C   UNK d   1      90.772 104.069 -44.005  0.00  0.00     0.175 C 
ATOM     26  C   UNK d   1      91.555 104.493 -42.794  0.00  0.00     0.034 C 
ENDBRANCH  24  25
ENDBRANCH  22  24
ENDBRANCH   2  22
BRANCH   1  27
ATOM     27  C   UNK d   1      91.802 100.764 -41.788  0.00  0.00    -0.019 A 
ATOM     28  C   UNK d   1      90.985 101.165 -40.735  0.00  0.00     0.014 A 
ATOM     29  C   UNK d   1      91.402 102.016 -39.735  0.00  0.00     0.020 A 
ATOM     30  C   UNK d   1      92.677 102.500 -39.762  0.00  0.00     0.011 A 
ATOM     31 Br   UNK d   1      93.241 103.676 -38.364  0.00  0.00    -0.051 Br
ATOM     32  C   UNK d   1      93.527 102.133 -40.785  0.00  0.00     0.020 A 
ATOM     33  C   UNK d   1      93.078 101.264 -41.792  0.00  0.00     0.014 A 
ENDBRANCH   1  27
TORSDOF 6
ENDMDL
