MODEL 1
REMARK VINA RESULT:    -7.144      0.000      0.000
REMARK INTER + INTRA:         -12.113
REMARK INTER:                 -10.486
REMARK INTRA:                  -1.627
REMARK UNBOUND:                -1.627
REMARK  8 active torsions:
REMARK  status: ('A' for Active; 'I' for Inactive)
REMARK    1  A    between atoms: C_5  and  C_8 
REMARK    2  A    between atoms: N_9  and  C_26 
REMARK    3  A    between atoms: C_14  and  C_15 
REMARK    4  A    between atoms: C_15  and  C_17 
REMARK    5  A    between atoms: C_20  and  O_23 
REMARK    6  A    between atoms: C_26  and  C_27 
REMARK    7  A    between atoms: C_27  and  C_28 
REMARK    8  A    between atoms: C_28  and  N_29 
ROOT
ATOM      1  C   UNK d   1      90.121  99.213 -44.191  0.00  0.00     0.161 A 
ATOM      2  N   UNK d   1      90.760 100.500 -44.150  0.00  0.00    -0.332 N 
ATOM      3  C   UNK d   1      91.817 100.574 -45.087  0.00  0.00     0.295 A 
ATOM      4  O   UNK d   1      92.606 101.545 -45.307  0.00  0.00    -0.264 OA
ATOM      5  C   UNK d   1      91.892  99.296 -45.830  0.00  0.00     0.250 A 
ATOM      6  O   UNK d   1      92.721  99.033 -46.730  0.00  0.00    -0.282 OA
ATOM      7  C   UNK d   1      90.833  98.473 -45.285  0.00  0.00     0.062 A 
ENDROOT
BRANCH   7   8
ATOM      8  C   UNK d   1      90.603  97.245 -45.692  0.00  0.00     0.130 C 
ATOM      9  O   UNK d   1      89.891  97.077 -46.899  0.00  0.00    -0.190 OA
BRANCH   8  10
ATOM     10  C   UNK d   1      91.017  96.036 -45.026  0.00  0.00     0.002 A 
ATOM     11  C   UNK d   1      91.147  94.811 -45.580  0.00  0.00     0.024 A 
ATOM     12  C   UNK d   1      91.589  93.739 -44.832  0.00  0.00    -0.028 A 
ATOM     13  C   UNK d   1      91.924  93.837 -43.498  0.00  0.00     0.074 A 
ATOM     14  C   UNK d   1      91.718  92.399 -45.493  0.00  0.00     0.051 C 
ATOM     15  C   UNK d   1      91.782  95.099 -42.956  0.00  0.00     0.038 A 
ATOM     16  C   UNK d   1      91.346  96.181 -43.669  0.00  0.00     0.017 A 
BRANCH  13  17
ATOM     17  O   UNK d   1      92.368  92.753 -42.751  0.00  0.00    -0.355 OA
ATOM     18  C   UNK d   1      93.524  92.879 -41.934  0.00  0.00     0.210 C 
ENDBRANCH  13  17
ENDBRANCH   8  10
ENDBRANCH   7   8
BRANCH   1  19
ATOM     19  C   UNK d   1      88.676  99.289 -44.424  0.00  0.00    -0.030 A 
ATOM     20  C   UNK d   1      88.172  99.914 -45.544  0.00  0.00     0.011 A 
ATOM     21  C   UNK d   1      86.794  99.990 -45.768  0.00  0.00     0.019 A 
ATOM     22  C   UNK d   1      85.904  99.441 -44.871  0.00  0.00     0.011 A 
ATOM     23 Br   UNK d   1      84.018  99.567 -45.210  0.00  0.00    -0.051 Br
ATOM     24  C   UNK d   1      86.397  98.819 -43.757  0.00  0.00     0.019 A 
ATOM     25  C   UNK d   1      87.755  98.754 -43.552  0.00  0.00     0.011 A 
ENDBRANCH   1  19
BRANCH   2  26
ATOM     26  C   UNK d   1      90.359 101.565 -43.249  0.00  0.00     0.129 C 
BRANCH  26  27
ATOM     27  C   UNK d   1      90.786 101.334 -41.825  0.00  0.00     0.048 C 
BRANCH  27  28
ATOM     28  C   UNK d   1      91.976 100.428 -41.741  0.00  0.00     0.236 C 
BRANCH  28  29
ATOM     29  N   UNK d   1      93.096 101.024 -41.072  0.00  0.00    -0.067 N 
ATOM     30  C   UNK d   1      92.733 101.718 -39.853  0.00  0.00     0.261 C 
ATOM     31  C   UNK d   1      94.043 102.074 -39.143  0.00  0.00     0.195 C 
ATOM     32  O   UNK d   1      95.129 101.859 -39.979  0.00  0.00    -0.388 OA
ATOM     33  C   UNK d   1      94.942 102.532 -41.206  0.00  0.00     0.195 C 
ATOM     34  C   UNK d   1      93.812 101.868 -41.985  0.00  0.00     0.261 C 
ATOM     35  H   UNK d   1      93.762 100.248 -40.778  0.00  0.00     0.280 HD
ENDBRANCH  28  29
ENDBRANCH  27  28
ENDBRANCH  26  27
ENDBRANCH   2  26
TORSDOF 8
ENDMDL
