MODEL 1
REMARK VINA RESULT:    -5.964      0.000      0.000
REMARK INTER + INTRA:          -9.710
REMARK INTER:                  -8.405
REMARK INTRA:                  -1.305
REMARK UNBOUND:                -1.305
REMARK  7 active torsions:
REMARK  status: ('A' for Active; 'I' for Inactive)
REMARK    1  A    between atoms: C_5  and  C_8 
REMARK    2  A    between atoms: N_9  and  C_25 
REMARK    3  A    between atoms: C_15  and  C_17 
REMARK    4  A    between atoms: C_19  and  O_23 
REMARK    5  A    between atoms: C_25  and  C_26 
REMARK    6  A    between atoms: C_26  and  C_27 
REMARK    7  A    between atoms: C_27  and  N_28 
ROOT
ATOM      1  C   UNK d   1      90.324  98.590 -44.404  0.00  0.00     0.161 C 
ATOM      2  N   UNK d   1      90.686  98.890 -45.774  0.00  0.00    -0.332 N 
ATOM      3  C   UNK d   1      92.038  99.354 -45.740  0.00  0.00     0.295 C 
ATOM      4  O   UNK d   1      92.876  99.303 -46.674  0.00  0.00    -0.264 OA
ATOM      5  C   UNK d   1      92.238  99.897 -44.401  0.00  0.00     0.250 C 
ATOM      6  O   UNK d   1      93.264 100.418 -43.896  0.00  0.00    -0.282 OA
ATOM      7  C   UNK d   1      90.983  99.735 -43.674  0.00  0.00     0.062 C 
ATOM      8  C   UNK d   1      90.583 100.411 -42.625  0.00  0.00     0.130 C 
ATOM      9  O   UNK d   1      89.349 100.023 -42.073  0.00  0.00    -0.190 OA
ENDROOT
BRANCH   2  10
ATOM     10  C   UNK d   1      89.848  98.753 -46.978  0.00  0.00     0.129 C 
BRANCH  10  11
ATOM     11  C   UNK d   1      88.542  99.545 -46.810  0.00  0.00     0.048 C 
BRANCH  11  12
ATOM     12  C   UNK d   1      87.387  98.587 -46.770  0.00  0.00     0.236 C 
BRANCH  12  13
ATOM     13  N   UNK d   1      86.294  99.196 -46.050  0.00  0.00    -0.067 N 
ATOM     14  C   UNK d   1      86.607  99.547 -44.701  0.00  0.00     0.261 C 
ATOM     15  C   UNK d   1      86.723  98.367 -43.798  0.00  0.00     0.195 C 
ATOM     16  O   UNK d   1      85.570  97.602 -43.833  0.00  0.00    -0.388 OA
ATOM     17  C   UNK d   1      85.407  97.143 -45.141  0.00  0.00     0.195 C 
ATOM     18  C   UNK d   1      85.119  98.345 -46.019  0.00  0.00     0.261 C 
ATOM     19  H   UNK d   1      86.011 100.063 -46.563  0.00  0.00     0.280 HD
ENDBRANCH  12  13
ENDBRANCH  11  12
ENDBRANCH  10  11
ENDBRANCH   2  10
BRANCH   1  20
ATOM     20  C   UNK d   1      90.861  97.304 -43.983  0.00  0.00    -0.030 A 
ATOM     21  C   UNK d   1      90.937  96.254 -44.866  0.00  0.00     0.011 A 
ATOM     22  C   UNK d   1      91.438  95.011 -44.472  0.00  0.00     0.019 A 
ATOM     23  C   UNK d   1      91.868  94.815 -43.181  0.00  0.00     0.011 A 
ATOM     24 Br   UNK d   1      92.550  93.115 -42.648  0.00  0.00    -0.051 Br
ATOM     25  C   UNK d   1      91.798  95.854 -42.291  0.00  0.00     0.019 A 
ATOM     26  C   UNK d   1      91.299  97.078 -42.698  0.00  0.00     0.011 A 
ENDBRANCH   1  20
BRANCH   8  27
ATOM     27  C   UNK d   1      91.342 101.512 -42.040  0.00  0.00     0.004 A 
ATOM     28  C   UNK d   1      92.185 101.381 -40.960  0.00  0.00     0.051 A 
ATOM     29  C   UNK d   1      92.891 102.423 -40.387  0.00  0.00     0.069 A 
ATOM     30  C   UNK d   1      92.752 103.672 -40.920  0.00  0.00     0.037 A 
ATOM     31  C   UNK d   1      91.911 103.852 -42.015  0.00  0.00     0.004 A 
ATOM     32  C   UNK d   1      91.222 102.789 -42.559  0.00  0.00     0.014 A 
BRANCH  29  33
ATOM     33  O   UNK d   1      93.689 102.110 -39.309  0.00  0.00    -0.356 OA
ATOM     34  C   UNK d   1      93.819 102.805 -38.117  0.00  0.00     0.210 C 
ENDBRANCH  29  33
ENDBRANCH   8  27
TORSDOF 7
ENDMDL
