MODEL 1
REMARK VINA RESULT:    -5.473      0.000      0.000
REMARK INTER + INTRA:          -8.154
REMARK INTER:                  -7.073
REMARK INTRA:                  -1.080
REMARK UNBOUND:                -1.080
REMARK  5 active torsions:
REMARK  status: ('A' for Active; 'I' for Inactive)
REMARK    1  A    between atoms: C_5  and  C_8 
REMARK    2  A    between atoms: N_9  and  C_24 
REMARK    3  A    between atoms: C_15  and  C_17 
REMARK    4  A    between atoms: C_24  and  C_25 
REMARK    5  A    between atoms: C_25  and  N_26 
ROOT
ATOM      1  C   UNK d   1      89.418 100.794 -45.538  0.00  0.00     0.161 C 
ATOM      2  N   UNK d   1      90.489 101.625 -45.125  0.00  0.00    -0.331 N 
ATOM      3  C   UNK d   1      91.638 101.070 -45.835  0.00  0.00     0.295 C 
ATOM      4  O   UNK d   1      92.665 101.707 -46.198  0.00  0.00    -0.264 OA
ATOM      5  C   UNK d   1      91.341  99.651 -46.025  0.00  0.00     0.250 C 
ATOM      6  O   UNK d   1      92.050  98.774 -46.583  0.00  0.00    -0.282 OA
ATOM      7  C   UNK d   1      90.025  99.435 -45.421  0.00  0.00     0.062 C 
ATOM      8  C   UNK d   1      89.556  98.324 -44.882  0.00  0.00     0.130 C 
ATOM      9  O   UNK d   1      88.302  98.307 -44.292  0.00  0.00    -0.190 OA
ENDROOT
BRANCH   2  10
ATOM     10  C   UNK d   1      90.585 102.808 -44.266  0.00  0.00     0.155 C 
BRANCH  10  11
ATOM     11  C   UNK d   1      91.405 102.611 -43.029  0.00  0.00     0.255 C 
BRANCH  11  12
ATOM     12  N   UNK d   1      91.040 101.418 -42.299  0.00  0.00    -0.066 N 
ATOM     13  C   UNK d   1      90.416 101.703 -41.037  0.00  0.00     0.261 C 
ATOM     14  C   UNK d   1      91.351 102.275 -40.011  0.00  0.00     0.195 C 
ATOM     15  O   UNK d   1      92.499 101.497 -39.853  0.00  0.00    -0.388 OA
ATOM     16  C   UNK d   1      93.134 101.479 -41.104  0.00  0.00     0.195 C 
ATOM     17  C   UNK d   1      92.255 100.669 -42.031  0.00  0.00     0.261 C 
ATOM     18  H   UNK d   1      90.411 100.794 -42.841  0.00  0.00     0.280 HD
ENDBRANCH  11  12
ENDBRANCH  10  11
ENDBRANCH   2  10
BRANCH   1  19
ATOM     19  C   UNK d   1      88.098 100.944 -45.058  0.00  0.00    -0.030 A 
ATOM     20  C   UNK d   1      87.803 101.245 -43.758  0.00  0.00     0.011 A 
ATOM     21  C   UNK d   1      86.474 101.398 -43.337  0.00  0.00     0.019 A 
ATOM     22  C   UNK d   1      85.421 101.251 -44.211  0.00  0.00     0.011 A 
ATOM     23 Br   UNK d   1      83.602 101.447 -43.691  0.00  0.00    -0.051 Br
ATOM     24  C   UNK d   1      85.713 100.948 -45.514  0.00  0.00     0.019 A 
ATOM     25  C   UNK d   1      87.022 100.802 -45.910  0.00  0.00     0.011 A 
ENDBRANCH   1  19
BRANCH   8  26
ATOM     26  C   UNK d   1      90.286  97.064 -44.869  0.00  0.00     0.001 A 
ATOM     27  C   UNK d   1      91.079  96.861 -43.731  0.00  0.00     0.016 A 
ATOM     28  C   UNK d   1      91.802  95.706 -43.542  0.00  0.00     0.024 A 
ATOM     29  C   UNK d   1      91.731  94.720 -44.520  0.00  0.00     0.034 A 
ATOM     30  C   UNK d   1      90.950  94.926 -45.635  0.00  0.00     0.024 A 
ATOM     31 Cl   UNK d   1      92.655  93.256 -44.270  0.00  0.00    -0.084 Cl
ATOM     32  C   UNK d   1      90.229  96.088 -45.815  0.00  0.00     0.016 A 
ENDBRANCH   8  26
TORSDOF 5
ENDMDL
