/Users/jonathanwahrer/Desktop/Msc/3_Semester/Drug_Design_Praktikum/waehrer_HTS_screening/HTS_experiment/out/docking_results/vina_output/4agl/0362_docked.pdbqt
 OpenBabel03202223203D

 36 40  0  0  1  0  0  0  0  0999 V2000
   91.9060   98.7110  -45.3040 C   0  0  2  0  0  3  0  0  0  0  0  0
   91.1060   97.5680  -45.1610 N   0  0  0  0  0  0  0  0  0  0  0  0
   91.4610   97.0920  -43.8340 C   0  0  0  0  0  0  0  0  0  0  0  0
   91.3990   95.8980  -43.3840 O   0  0  0  0  0  0  0  0  0  0  0  0
   91.9180   98.2420  -43.0620 C   0  0  0  0  0  0  0  0  0  0  0  0
   92.3330   98.3270  -41.8620 O   0  0  0  0  0  0  0  0  0  0  0  0
   91.8130   99.3760  -43.9790 C   0  0  0  0  0  0  0  0  0  0  0  0
   91.7070  100.6590  -43.6880 C   0  0  0  0  0  0  0  0  0  0  0  0
   91.6730  101.6010  -44.7070 O   0  0  0  0  0  1  0  0  0  0  0  0
   91.8390   99.5800  -46.4370 C   0  0  0  0  0  0  0  0  0  0  0  0
   90.6570   99.9720  -46.9970 C   0  0  0  0  0  3  0  0  0  0  0  0
   90.6520  100.7980  -48.1010 C   0  0  0  0  0  3  0  0  0  0  0  0
   91.8200  101.2590  -48.6800 C   0  0  0  0  0  0  0  0  0  0  0  0
   91.8130  102.4030  -50.2070 Br  0  0  0  0  0  0  0  0  0  0  0  0
   93.0120  100.8580  -48.1060 C   0  0  0  0  0  3  0  0  0  0  0  0
   92.9960  100.0330  -47.0050 C   0  0  0  0  0  3  0  0  0  0  0  0
   91.6200  101.1510  -42.3220 C   0  0  0  0  0  0  0  0  0  0  0  0
   92.6130  101.6190  -41.5470 N   0  0  0  0  0  0  0  0  0  0  0  0
   92.1200  102.0170  -40.3510 C   0  0  0  0  0  0  0  0  0  0  0  0
   93.9620  101.7600  -41.6980 C   0  0  0  0  0  3  0  0  0  0  0  0
   90.7980  101.7890  -40.3930 N   0  0  0  0  0  0  0  0  0  0  0  0
   92.9220  102.5320  -39.3550 C   0  0  0  0  0  3  0  0  0  0  0  0
   90.4520  101.2640  -41.5660 C   0  0  0  0  0  0  0  0  0  0  0  0
   89.1140  100.8500  -42.0660 C   0  0  0  0  0  1  0  0  0  0  0  0
   94.2790  102.6630  -39.5370 C   0  0  0  0  0  3  0  0  0  0  0  0
   94.7970  102.2610  -40.7480 C   0  0  0  0  0  3  0  0  0  0  0  0
   90.1570   96.8030  -45.9030 C   0  0  0  0  0  3  0  0  0  0  0  0
   88.7300   97.0390  -45.8550 C   0  0  0  0  0  3  0  0  0  0  0  0
   88.2280   98.1570  -44.9710 C   0  0  0  0  0  2  0  0  0  0  0  0
   86.8940   97.8680  -44.4550 N   0  0  0  0  0  4  0  0  0  0  0  0
   86.0150   97.2670  -45.4150 C   0  0  0  0  0  2  0  0  0  0  0  0
   85.2520   98.2400  -46.2640 C   0  0  0  0  0  2  0  0  0  0  0  0
   85.7340   99.5210  -46.2040 O   0  0  0  0  0  0  0  0  0  0  0  0
   85.8820  100.0360  -44.9430 C   0  0  0  0  0  2  0  0  0  0  0  0
   86.2620   99.0300  -43.9080 C   0  0  0  0  0  2  0  0  0  0  0  0
   87.0260   97.1680  -43.6840 H   0  0  0  0  0  0  0  0  0  0  0  0
  1 10  1  6  0  0  0
  1  2  1  0  0  0  0
  1  7  1  0  0  0  0
  2  3  1  0  0  0  0
  3  4  2  0  0  0  0
  3  5  1  0  0  0  0
  5  6  2  0  0  0  0
  7  8  2  0  0  0  0
  7  5  1  0  0  0  0
  8 17  1  0  0  0  0
  9  8  1  0  0  0  0
 11 10  1  0  0  0  0
 12 11  2  0  0  0  0
 13 15  2  0  0  0  0
 13 12  1  0  0  0  0
 14 13  1  0  0  0  0
 15 16  1  0  0  0  0
 16 10  2  0  0  0  0
 17 23  2  0  0  0  0
 17 18  1  0  0  0  0
 18 19  1  0  0  0  0
 19 22  1  0  0  0  0
 20 18  1  0  0  0  0
 20 26  2  0  0  0  0
 21 19  2  0  0  0  0
 23 21  1  0  0  0  0
 24 23  1  0  0  0  0
 25 22  2  0  0  0  0
 26 25  1  0  0  0  0
 27 28  2  0  0  0  0
 27  2  1  0  0  0  0
 28 29  1  0  0  0  0
 29 30  1  0  0  0  0
 30 35  1  0  0  0  0
 30 36  1  0  0  0  0
 31 30  1  0  0  0  0
 32 33  1  0  0  0  0
 32 31  1  0  0  0  0
 33 34  1  0  0  0  0
 34 35  1  0  0  0  0
M  END
>  <Pose>
1

>  <Score>
-5.623

$$$$
