/Users/jonathanwahrer/Desktop/Msc/3_Semester/Drug_Design_Praktikum/waehrer_HTS_screening/HTS_experiment/out/docking_results/vina_output/4agl/0381_docked.pdbqt
 OpenBabel03202223213D

 29 32  0  0  0  0  0  0  0  0999 V2000
   90.9130   99.4680  -43.5400 N   0  0  0  0  0  0  0  0  0  0  0  0
   89.7910   98.9740  -44.0550 N   0  0  0  0  0  0  0  0  0  0  0  0
   88.5760   99.5380  -43.8010 C   0  0  0  0  0  0  0  0  0  0  0  0
   88.5080  100.6200  -43.0110 N   0  0  0  0  0  0  0  0  0  0  0  0
   87.1340  101.0450  -42.8510 C   0  0  0  0  0  3  0  0  0  0  0  0
   86.2900  100.1010  -43.6560 C   0  0  0  0  0  3  0  0  0  0  0  0
   87.2680   99.2180  -44.2620 N   0  0  0  0  0  0  0  0  0  0  0  0
   89.6030  101.1640  -42.4630 C   0  0  0  0  0  0  0  0  0  0  0  0
   89.5370  102.1750  -41.7240 O   0  0  0  0  0  0  0  0  0  0  0  0
   90.8070  100.5530  -42.7540 C   0  0  0  0  0  0  0  0  0  0  0  0
   91.8630  101.0260  -42.2620 O   0  0  0  0  0  0  0  0  0  0  0  0
   92.2350   98.8900  -43.8320 C   0  0  0  0  0  2  0  0  0  0  0  0
   92.1000   97.6310  -44.5640 C   0  0  0  0  0  0  0  0  0  0  0  0
   91.4290   96.4700  -44.1630 N   0  0  0  0  0  0  0  0  0  0  0  0
   90.9680   96.4980  -43.2100 H   0  0  0  0  0  0  0  0  0  0  0  0
   92.6910   97.6470  -45.7160 O   0  0  0  0  0  0  0  0  0  0  0  0
   91.3230   95.2900  -44.9050 C   0  0  0  0  0  0  0  0  0  0  0  0
   90.6690   95.1160  -46.0990 C   0  0  0  0  0  3  0  0  0  0  0  0
   90.6440   93.8920  -46.7820 C   0  0  0  0  0  3  0  0  0  0  0  0
   91.2820   92.7860  -46.2870 C   0  0  0  0  0  0  0  0  0  0  0  0
   91.2610   91.1110  -47.2070 Br  0  0  0  0  0  0  0  0  0  0  0  0
   91.9470   92.9370  -45.0860 C   0  0  0  0  0  3  0  0  0  0  0  0
   91.9660   94.1330  -44.4240 C   0  0  0  0  0  3  0  0  0  0  0  0
   86.9160   98.1990  -45.1770 C   0  0  0  0  0  0  0  0  0  0  0  0
   87.5760   97.9700  -46.3540 C   0  0  0  0  0  3  0  0  0  0  0  0
   87.1960   96.9740  -47.2370 C   0  0  0  0  0  3  0  0  0  0  0  0
   86.1140   96.1710  -46.9340 C   0  0  0  0  0  3  0  0  0  0  0  0
   85.4450   96.3800  -45.7690 C   0  0  0  0  0  3  0  0  0  0  0  0
   85.8290   97.3760  -44.8960 C   0  0  0  0  0  3  0  0  0  0  0  0
  1 10  1  0  0  0  0
  2  3  2  0  0  0  0
  2  1  1  0  0  0  0
  3  4  1  0  0  0  0
  4  5  1  0  0  0  0
  4  8  1  0  0  0  0
  6  5  2  0  0  0  0
  7  3  1  0  0  0  0
  7  6  1  0  0  0  0
  8  9  2  0  0  0  0
 10  8  1  0  0  0  0
 10 11  2  0  0  0  0
 12  1  1  0  0  0  0
 13 14  1  0  0  0  0
 13 12  1  0  0  0  0
 14 15  1  0  0  0  0
 16 13  2  0  0  0  0
 17 23  1  0  0  0  0
 17 14  1  0  0  0  0
 18 17  2  0  0  0  0
 19 20  2  0  0  0  0
 19 18  1  0  0  0  0
 20 22  1  0  0  0  0
 21 20  1  0  0  0  0
 22 23  2  0  0  0  0
 24 29  1  0  0  0  0
 24  7  1  0  0  0  0
 25 24  2  0  0  0  0
 26 27  2  0  0  0  0
 26 25  1  0  0  0  0
 27 28  1  0  0  0  0
 28 29  2  0  0  0  0
M  END
>  <Pose>
1

>  <Score>
-6.554

$$$$
