MODEL 1
REMARK VINA RESULT:    -7.518      0.000      0.000
REMARK INTER + INTRA:          -9.465
REMARK INTER:                  -9.275
REMARK INTRA:                  -0.190
REMARK UNBOUND:                -0.190
REMARK  4 active torsions:
REMARK  status: ('A' for Active; 'I' for Inactive)
REMARK    1  A    between atoms: C_5  and  N_8 
REMARK       I    between atoms: N_8  and  C_9 
REMARK    2  A    between atoms: C_9  and  C_11 
REMARK    3  A    between atoms: C_11  and  N_12 
REMARK    4  A    between atoms: N_19  and  C_22 
ROOT
ATOM      1  N   UNK d   1      91.966  97.691 -42.289  0.00  0.00    -0.261 N 
ATOM      2  N   UNK d   1      92.084  97.331 -41.010  0.00  0.00    -0.239 N 
ATOM      3  N   UNK d   1      92.015  96.023 -40.917  0.00  0.00    -0.279 N 
ATOM      4  C   UNK d   1      91.851  95.513 -42.161  0.00  0.00     0.152 A 
ATOM      5  C   UNK d   1      91.822  96.558 -42.997  0.00  0.00     0.155 A 
ATOM      6  C   UNK d   1      91.653  95.999 -44.246  0.00  0.00     0.286 A 
ATOM      7  O   UNK d   1      91.580  96.697 -45.301  0.00  0.00    -0.265 OA
ATOM      8  N   UNK d   1      91.580  94.660 -44.194  0.00  0.00    -0.241 N 
ATOM      9  C   UNK d   1      91.704  94.346 -42.873  0.00  0.00     0.286 A 
ATOM     10  O   UNK d   1      91.678  93.159 -42.448  0.00  0.00    -0.265 OA
ATOM     11  H   UNK d   1      92.210  98.016 -40.236  0.00  0.00     0.208 HD
ATOM     12  H   UNK d   1      92.073  95.424 -40.056  0.00  0.00     0.189 HD
ENDROOT
BRANCH   1  13
ATOM     13  C   UNK d   1      91.994  99.062 -42.760  0.00  0.00     0.254 C 
BRANCH  13  14
ATOM     14  C   UNK d   1      90.626  99.407 -43.324  0.00  0.00     0.242 C 
ATOM     15  N   UNK d   1      89.484  99.267 -42.524  0.00  0.00    -0.326 N 
ATOM     16  H   UNK d   1      89.606  98.913 -41.523  0.00  0.00     0.169 HD
ATOM     17  O   UNK d   1      90.542  99.809 -44.503  0.00  0.00    -0.271 OA
BRANCH  15  18
ATOM     18  C   UNK d   1      88.156  99.557 -42.912  0.00  0.00     0.034 A 
ATOM     19  C   UNK d   1      87.511 100.759 -42.719  0.00  0.00     0.031 A 
ATOM     20  C   UNK d   1      86.211 101.001 -43.143  0.00  0.00     0.021 A 
ATOM     21  C   UNK d   1      85.499 100.023 -43.790  0.00  0.00     0.011 A 
ATOM     22 Br   UNK d   1      83.718 100.285 -44.399  0.00  0.00    -0.051 Br
ATOM     23  C   UNK d   1      86.123  98.812 -43.995  0.00  0.00     0.021 A 
ATOM     24  C   UNK d   1      87.395  98.578 -43.579  0.00  0.00     0.031 A 
ENDBRANCH  15  18
ENDBRANCH  13  14
ENDBRANCH   1  13
BRANCH   8  25
ATOM     25  C   UNK d   1      91.409  93.724 -45.269  0.00  0.00     0.046 A 
ATOM     26  C   UNK d   1      90.728  94.077 -46.414  0.00  0.00     0.031 A 
ATOM     27  C   UNK d   1      90.570  93.186 -47.457  0.00  0.00     0.009 A 
ATOM     28  C   UNK d   1      91.080  91.901 -47.408  0.00  0.00    -0.062 A 
ATOM     29  C   UNK d   1      91.761  91.546 -46.263  0.00  0.00     0.009 A 
ATOM     30  C   UNK d   1      90.895  90.967 -48.551  0.00  0.00     0.048 C 
ATOM     31  C   UNK d   1      91.918  92.444 -45.220  0.00  0.00     0.031 A 
ENDBRANCH   8  25
TORSDOF 4
ENDMDL
