/Users/jonathanwahrer/Desktop/Msc/3_Semester/Drug_Design_Praktikum/waehrer_HTS_screening/HTS_experiment/out/docking_results/vina_output/4agl/0382_docked.pdbqt
 OpenBabel03202223213D

 31 34  0  0  0  0  0  0  0  0999 V2000
   91.9660   97.6910  -42.2890 N   0  0  0  0  0  0  0  0  0  0  0  0
   92.0840   97.3310  -41.0100 N   0  0  0  0  0  0  0  0  0  0  0  0
   92.0150   96.0230  -40.9170 N   0  0  0  0  0  0  0  0  0  0  0  0
   91.8510   95.5130  -42.1610 C   0  0  0  0  0  0  0  0  0  0  0  0
   91.8220   96.5580  -42.9970 C   0  0  0  0  0  0  0  0  0  0  0  0
   91.6530   95.9990  -44.2460 C   0  0  0  0  0  0  0  0  0  0  0  0
   91.5800   96.6970  -45.3010 O   0  0  0  0  0  0  0  0  0  0  0  0
   91.5800   94.6600  -44.1940 N   0  0  0  0  0  0  0  0  0  0  0  0
   91.7040   94.3460  -42.8730 C   0  0  0  0  0  0  0  0  0  0  0  0
   91.6780   93.1590  -42.4480 O   0  0  0  0  0  0  0  0  0  0  0  0
   92.2100   98.0160  -40.2360 H   0  0  0  0  0  0  0  0  0  0  0  0
   92.0730   95.4240  -40.0560 H   0  0  0  0  0  0  0  0  0  0  0  0
   91.9940   99.0620  -42.7600 C   0  0  0  0  0  2  0  0  0  0  0  0
   90.6260   99.4070  -43.3240 C   0  0  0  0  0  0  0  0  0  0  0  0
   89.4840   99.2670  -42.5240 N   0  0  0  0  0  0  0  0  0  0  0  0
   89.6060   98.9130  -41.5230 H   0  0  0  0  0  0  0  0  0  0  0  0
   90.5420   99.8090  -44.5030 O   0  0  0  0  0  0  0  0  0  0  0  0
   88.1560   99.5570  -42.9120 C   0  0  0  0  0  0  0  0  0  0  0  0
   87.5110  100.7590  -42.7190 C   0  0  0  0  0  3  0  0  0  0  0  0
   86.2110  101.0010  -43.1430 C   0  0  0  0  0  3  0  0  0  0  0  0
   85.4990  100.0230  -43.7900 C   0  0  0  0  0  0  0  0  0  0  0  0
   83.7180  100.2850  -44.3990 Br  0  0  0  0  0  0  0  0  0  0  0  0
   86.1230   98.8120  -43.9950 C   0  0  0  0  0  3  0  0  0  0  0  0
   87.3950   98.5780  -43.5790 C   0  0  0  0  0  3  0  0  0  0  0  0
   91.4090   93.7240  -45.2690 C   0  0  0  0  0  0  0  0  0  0  0  0
   90.7280   94.0770  -46.4140 C   0  0  0  0  0  3  0  0  0  0  0  0
   90.5700   93.1860  -47.4570 C   0  0  0  0  0  3  0  0  0  0  0  0
   91.0800   91.9010  -47.4080 C   0  0  0  0  0  0  0  0  0  0  0  0
   91.7610   91.5460  -46.2630 C   0  0  0  0  0  3  0  0  0  0  0  0
   90.8950   90.9670  -48.5510 C   0  0  0  0  0  1  0  0  0  0  0  0
   91.9180   92.4440  -45.2200 C   0  0  0  0  0  3  0  0  0  0  0  0
  1  2  1  0  0  0  0
  2  3  1  0  0  0  0
  2 11  1  0  0  0  0
  3 12  1  0  0  0  0
  4  3  1  0  0  0  0
  5  1  1  0  0  0  0
  5  4  2  0  0  0  0
  6  8  1  0  0  0  0
  6  5  1  0  0  0  0
  7  6  2  0  0  0  0
  8  9  1  0  0  0  0
  9 10  2  0  0  0  0
  9  4  1  0  0  0  0
 13  1  1  0  0  0  0
 14 13  1  0  0  0  0
 14 15  1  0  0  0  0
 15 16  1  0  0  0  0
 17 14  2  0  0  0  0
 18 19  1  0  0  0  0
 18 15  1  0  0  0  0
 20 19  2  0  0  0  0
 21 20  1  0  0  0  0
 22 21  1  0  0  0  0
 23 21  2  0  0  0  0
 23 24  1  0  0  0  0
 24 18  2  0  0  0  0
 25 31  1  0  0  0  0
 25  8  1  0  0  0  0
 26 25  2  0  0  0  0
 27 28  2  0  0  0  0
 27 26  1  0  0  0  0
 28 29  1  0  0  0  0
 29 31  2  0  0  0  0
 30 28  1  0  0  0  0
M  END
>  <Pose>
1

>  <Score>
-7.518

$$$$
