MODEL 1
REMARK VINA RESULT:    -6.710      0.000      0.000
REMARK INTER + INTRA:          -9.336
REMARK INTER:                  -8.083
REMARK INTRA:                  -1.253
REMARK UNBOUND:                -1.253
REMARK  4 active torsions:
REMARK  status: ('A' for Active; 'I' for Inactive)
REMARK    1  A    between atoms: C_5  and  N_8 
REMARK       I    between atoms: N_8  and  C_9 
REMARK    2  A    between atoms: C_9  and  C_11 
REMARK    3  A    between atoms: C_18  and  N_23 
REMARK    4  A    between atoms: C_20  and  N_22 
ROOT
ATOM      1  C   UNK d   1      90.673  98.967 -43.780  0.00  0.00     0.127 C 
ATOM      2  C   UNK d   1      89.205  98.660 -43.789  0.00  0.00     0.122 C 
ATOM      3  C   UNK d   1      88.694  98.157 -45.070  0.00  0.00     0.224 C 
ATOM      4  O   UNK d   1      87.719  97.358 -45.044  0.00  0.00    -0.273 OA
ATOM      5  N   UNK d   1      89.294  98.565 -46.287  0.00  0.00    -0.310 N 
ATOM      6  C   UNK d   1      90.565  99.178 -46.277  0.00  0.00     0.160 A 
ATOM      7  N   UNK d   1      91.120  99.576 -47.464  0.00  0.00    -0.044 NA
ATOM      8  C   UNK d   1      92.311 100.174 -47.527  0.00  0.00     0.728 A 
ATOM      9  N   UNK d   1      92.966 100.377 -46.377  0.00  0.00    -0.045 NA
ATOM     10  C   UNK d   1      92.460  99.998 -45.167  0.00  0.00     0.151 A 
ATOM     11  C   UNK d   1      91.229  99.379 -45.075  0.00  0.00     0.048 A 
ATOM     12  H   UNK d   1      88.811  98.423 -47.221  0.00  0.00     0.170 HD
ENDROOT
BRANCH   1  13
ATOM     13  C   UNK d   1      91.350  97.686 -43.246  0.00  0.00     0.231 C 
ATOM     14  N   UNK d   1      91.352  96.588 -43.983  0.00  0.00    -0.327 N 
ATOM     15  H   UNK d   1      91.873  95.884 -42.940  0.00  0.00     0.169 HD
ATOM     16  O   UNK d   1      91.841  97.915 -42.070  0.00  0.00    -0.272 OA
BRANCH  14  17
ATOM     17  C   UNK d   1      91.355  95.448 -44.747  0.00  0.00     0.034 A 
ATOM     18  C   UNK d   1      91.976  94.296 -44.167  0.00  0.00     0.031 A 
ATOM     19  C   UNK d   1      91.975  93.103 -44.793  0.00  0.00     0.021 A 
ATOM     20  C   UNK d   1      91.380  92.935 -46.019  0.00  0.00     0.011 A 
ATOM     21 Br   UNK d   1      91.383  91.226 -46.893  0.00  0.00    -0.051 Br
ATOM     22  C   UNK d   1      90.773  94.019 -46.613  0.00  0.00     0.021 A 
ATOM     23  C   UNK d   1      90.771  95.236 -45.976  0.00  0.00     0.031 A 
ENDBRANCH  14  17
ENDBRANCH   1  13
BRANCH  10  24
ATOM     24  N   UNK d   1      93.201 100.226 -43.973  0.00  0.00    -0.383 N 
ATOM     25  H   UNK d   1      94.202 100.027 -43.887  0.00  0.00     0.157 HD
ATOM     26  H   UNK d   1      92.694 100.611 -43.136  0.00  0.00     0.157 HD
ENDBRANCH  10  24
BRANCH   8  27
ATOM     27  N   UNK d   1      92.877 100.584 -48.794  0.00  0.00    -0.210 N 
ATOM     28  C   UNK d   1      94.073 101.351 -48.750  0.00  0.00     0.167 C 
ATOM     29  C   UNK d   1      94.845 101.365 -50.038  0.00  0.00     0.188 C 
ATOM     30  O   UNK d   1      94.281 100.541 -51.006  0.00  0.00    -0.388 OA
ATOM     31  C   UNK d   1      92.927 100.794 -51.175  0.00  0.00     0.188 C 
ATOM     32  C   UNK d   1      92.196 100.183 -50.007  0.00  0.00     0.167 C 
ENDBRANCH   8  27
TORSDOF 4
ENDMDL
