/Users/jonathanwahrer/Desktop/Msc/3_Semester/Drug_Design_Praktikum/waehrer_HTS_screening/HTS_experiment/out/docking_results/vina_output/4agl/0386_docked.pdbqt
 OpenBabel03202223223D

 36 39  0  0  1  0  0  0  0  0999 V2000
   91.6610   98.0090  -43.6180 C   0  0  2  0  0  3  0  0  0  0  0  0
   91.2600   97.0470  -42.5160 C   0  0  0  0  0  2  0  0  0  0  0  0
   92.2680   97.1620  -41.4190 C   0  0  0  0  0  0  0  0  0  0  0  0
   92.7810   96.1680  -40.9370 O   0  0  0  0  0  0  0  0  0  0  0  0
   92.5770   98.4600  -40.9890 N   0  0  0  0  0  0  0  0  0  0  0  0
   92.3380   99.5760  -41.8220 C   0  0  0  0  0  0  0  0  0  0  0  0
   92.5380  100.8360  -41.3840 N   0  0  0  0  0  0  0  0  0  0  0  0
   92.2530  101.9450  -42.0670 C   0  0  0  0  0  0  0  0  0  0  0  0
   91.7180  101.7400  -43.2990 N   0  0  0  0  0  0  0  0  0  0  0  0
   91.4910  100.5010  -43.8060 C   0  0  0  0  0  0  0  0  0  0  0  0
   91.7870   99.3700  -43.1090 C   0  0  0  0  0  0  0  0  0  0  0  0
   92.9910   98.6650  -40.0400 H   0  0  0  0  0  0  0  0  0  0  0  0
   90.9750   97.7680  -44.9160 C   0  0  0  0  0  0  0  0  0  0  0  0
   89.6340   97.6940  -45.0200 N   0  0  0  0  0  0  0  0  0  0  0  0
   89.7330   97.6260  -46.3620 H   0  0  0  0  0  0  0  0  0  0  0  0
   91.8630   97.6550  -45.8660 O   0  0  0  0  0  0  0  0  0  0  0  0
   88.2680   97.6190  -45.1280 C   0  0  0  0  0  0  0  0  0  0  0  0
   87.5600   98.3970  -44.1560 C   0  0  0  0  0  3  0  0  0  0  0  0
   86.2070   98.3200  -44.1550 C   0  0  0  0  0  3  0  0  0  0  0  0
   85.4880   97.5350  -45.0390 C   0  0  0  0  0  0  0  0  0  0  0  0
   83.5980   97.5030  -44.9470 Br  0  0  0  0  0  0  0  0  0  0  0  0
   86.1490   96.7870  -45.9710 C   0  0  0  0  0  3  0  0  0  0  0  0
   87.5240   96.8500  -45.9910 C   0  0  0  0  0  3  0  0  0  0  0  0
   90.9350  100.3810  -45.0770 O   0  0  0  0  0  0  0  0  0  0  0  0
   89.9640  100.1150  -45.2230 H   0  0  0  0  0  0  0  0  0  0  0  0
   92.5210  103.2550  -41.6050 N   0  0  0  0  0  0  0  0  0  0  0  0
   92.2060  103.7880  -40.3050 C   0  0  0  0  0  2  0  0  0  0  0  0
   93.3550  104.6910  -39.8670 C   0  0  0  0  0  2  0  0  0  0  0  0
   94.6690  104.2590  -40.4470 C   0  0  2  0  0  3  0  0  0  0  0  0
   94.6430  104.2760  -41.9350 C   0  0  0  0  0  2  0  0  0  0  0  0
   93.2050  104.1950  -42.4990 C   0  0  0  0  0  2  0  0  0  0  0  0
   95.1220  102.9620  -39.8910 C   0  0  0  0  0  0  0  0  0  0  0  0
   95.1420  102.8380  -38.6490 O   0  0  0  0  0  0  0  0  0  0  0  0
   95.5340  101.8670  -40.6830 N   0  0  0  0  0  0  0  0  0  0  0  0
   95.0960  101.6380  -41.5940 H   0  0  0  0  0  0  0  0  0  0  0  0
   96.3110  101.2660  -40.3370 H   0  0  0  0  0  0  0  0  0  0  0  0
  1 13  1  6  0  0  0
  1 11  1  0  0  0  0
  1  2  1  0  0  0  0
  2  3  1  0  0  0  0
  3  5  1  0  0  0  0
  3  4  2  0  0  0  0
  5 12  1  0  0  0  0
  6  7  1  0  0  0  0
  6  5  1  0  0  0  0
  8 26  1  0  0  0  0
  8  7  2  0  0  0  0
  9  8  1  0  0  0  0
 10  9  2  0  0  0  0
 10 11  1  0  0  0  0
 11  6  2  0  0  0  0
 14 13  1  0  0  0  0
 15 14  1  0  0  0  0
 16 13  2  0  0  0  0
 17 14  1  0  0  0  0
 17 18  1  0  0  0  0
 18 19  2  0  0  0  0
 20 21  1  0  0  0  0
 20 19  1  0  0  0  0
 22 20  2  0  0  0  0
 23 22  1  0  0  0  0
 23 17  2  0  0  0  0
 24 10  1  0  0  0  0
 25 24  1  0  0  0  0
 26 27  1  0  0  0  0
 27 28  1  0  0  0  0
 29 32  1  6  0  0  0
 29 28  1  0  0  0  0
 30 29  1  0  0  0  0
 31 30  1  0  0  0  0
 31 26  1  0  0  0  0
 32 33  2  0  0  0  0
 34 36  1  0  0  0  0
 34 32  1  0  0  0  0
 35 34  1  0  0  0  0
M  END
>  <Pose>
1

>  <Score>
-7.017

$$$$
