MODEL 1
REMARK VINA RESULT:    -6.326      0.000      0.000
REMARK INTER + INTRA:          -7.884
REMARK INTER:                  -7.435
REMARK INTRA:                  -0.449
REMARK UNBOUND:                -0.449
REMARK  3 active torsions:
REMARK  status: ('A' for Active; 'I' for Inactive)
REMARK    1  A    between atoms: C_5  and  N_8 
REMARK    2  A    between atoms: C_11  and  C_18 
REMARK    3  A    between atoms: C_12  and  N_13 
REMARK       I    between atoms: C_18  and  N_20 
ROOT
ATOM      1  N   UNK d   1      91.450  96.845 -43.381  0.00  0.00    -0.216 N 
ATOM      2  N   UNK d   1      92.092  97.081 -42.265  0.00  0.00    -0.177 NA
ATOM      3  C   UNK d   1      91.881  98.330 -41.803  0.00  0.00     0.160 A 
ATOM      4  C   UNK d   1      91.039  98.924 -42.703  0.00  0.00     0.097 A 
ATOM      5  C   UNK d   1      90.784  97.981 -43.676  0.00  0.00     0.153 A 
ENDROOT
BRANCH   4   6
ATOM      6  C   UNK d   1      90.535 100.289 -42.610  0.00  0.00     0.259 C 
ATOM      7  O   UNK d   1      89.337 100.421 -42.265  0.00  0.00    -0.267 OA
ATOM      8  N   UNK d   1      91.320 101.429 -42.885  0.00  0.00    -0.338 N 
ATOM      9  C   UNK d   1      90.724 102.737 -42.763  0.00  0.00     0.146 C 
ATOM     10  C   UNK d   1      92.707 101.407 -43.291  0.00  0.00     0.228 C 
ATOM     11  C   UNK d   1      91.384 103.442 -41.615  0.00  0.00     0.142 C 
ATOM     12  N   UNK d   1      92.690 102.876 -41.299  0.00  0.00    -0.358 N 
ATOM     13  C   UNK d   1      93.459 102.145 -42.249  0.00  0.00     0.235 C 
ATOM     14  H   UNK d   1      93.064 103.027 -40.315  0.00  0.00     0.162 HD
ATOM     15  O   UNK d   1      94.712 102.149 -42.174  0.00  0.00    -0.272 OA
ENDBRANCH   4   6
BRANCH   5  16
ATOM     16  N   UNK d   1      89.941  98.161 -44.837  0.00  0.00    -0.317 N 
ATOM     17  C   UNK d   1      88.657  97.867 -44.973  0.00  0.00     0.098 A 
ATOM     18  C   UNK d   1      88.220  98.190 -46.237  0.00  0.00     0.019 A 
ATOM     19  C   UNK d   1      89.319  98.706 -46.881  0.00  0.00     0.019 A 
ATOM     20  C   UNK d   1      90.374  98.679 -45.997  0.00  0.00     0.098 A 
ENDBRANCH   5  16
BRANCH   1  21
ATOM     21  C   UNK d   1      91.474  95.616 -44.113  0.00  0.00     0.060 A 
ATOM     22  C   UNK d   1      91.264  95.572 -45.478  0.00  0.00     0.033 A 
ATOM     23  C   UNK d   1      91.282  94.400 -46.206  0.00  0.00     0.021 A 
ATOM     24  C   UNK d   1      91.517  93.201 -45.565  0.00  0.00     0.011 A 
ATOM     25 Br   UNK d   1      91.547  91.563 -46.551  0.00  0.00    -0.051 Br
ATOM     26  C   UNK d   1      91.728  93.226 -44.199  0.00  0.00     0.021 A 
ATOM     27  C   UNK d   1      91.707  94.407 -43.484  0.00  0.00     0.033 A 
ENDBRANCH   1  21
TORSDOF 3
ENDMDL
