/Users/jonathanwahrer/Desktop/Msc/3_Semester/Drug_Design_Praktikum/waehrer_HTS_screening/HTS_experiment/out/docking_results/vina_output/4agl/0393_docked.pdbqt
 OpenBabel03202223223D

 27 30  0  0  0  0  0  0  0  0999 V2000
   91.4500   96.8450  -43.3810 N   0  0  0  0  0  0  0  0  0  0  0  0
   92.0920   97.0810  -42.2650 N   0  0  0  0  0  0  0  0  0  0  0  0
   91.8810   98.3300  -41.8030 C   0  0  0  0  0  3  0  0  0  0  0  0
   91.0390   98.9240  -42.7030 C   0  0  0  0  0  0  0  0  0  0  0  0
   90.7840   97.9810  -43.6760 C   0  0  0  0  0  0  0  0  0  0  0  0
   90.5350  100.2890  -42.6100 C   0  0  0  0  0  0  0  0  0  0  0  0
   89.3370  100.4210  -42.2650 O   0  0  0  0  0  0  0  0  0  0  0  0
   91.3200  101.4290  -42.8850 N   0  0  0  0  0  0  0  0  0  0  0  0
   90.7240  102.7370  -42.7630 C   0  0  0  0  0  2  0  0  0  0  0  0
   92.7070  101.4070  -43.2910 C   0  0  0  0  0  2  0  0  0  0  0  0
   91.3840  103.4420  -41.6150 C   0  0  0  0  0  2  0  0  0  0  0  0
   92.6900  102.8760  -41.2990 N   0  0  0  0  0  0  0  0  0  0  0  0
   93.4590  102.1450  -42.2490 C   0  0  0  0  0  0  0  0  0  0  0  0
   93.0640  103.0270  -40.3150 H   0  0  0  0  0  0  0  0  0  0  0  0
   94.7120  102.1490  -42.1740 O   0  0  0  0  0  0  0  0  0  0  0  0
   89.9410   98.1610  -44.8370 N   0  0  0  0  0  0  0  0  0  0  0  0
   88.6570   97.8670  -44.9730 C   0  0  0  0  0  3  0  0  0  0  0  0
   88.2200   98.1900  -46.2370 C   0  0  0  0  0  3  0  0  0  0  0  0
   89.3190   98.7060  -46.8810 C   0  0  0  0  0  3  0  0  0  0  0  0
   90.3740   98.6790  -45.9970 C   0  0  0  0  0  3  0  0  0  0  0  0
   91.4740   95.6160  -44.1130 C   0  0  0  0  0  0  0  0  0  0  0  0
   91.2640   95.5720  -45.4780 C   0  0  0  0  0  3  0  0  0  0  0  0
   91.2820   94.4000  -46.2060 C   0  0  0  0  0  3  0  0  0  0  0  0
   91.5170   93.2010  -45.5650 C   0  0  0  0  0  0  0  0  0  0  0  0
   91.5470   91.5630  -46.5510 Br  0  0  0  0  0  0  0  0  0  0  0  0
   91.7280   93.2260  -44.1990 C   0  0  0  0  0  3  0  0  0  0  0  0
   91.7070   94.4070  -43.4840 C   0  0  0  0  0  3  0  0  0  0  0  0
  1  2  1  0  0  0  0
  2  3  2  0  0  0  0
  4  6  1  0  0  0  0
  4  3  1  0  0  0  0
  5  1  1  0  0  0  0
  5  4  2  0  0  0  0
  6  7  2  0  0  0  0
  8  9  1  0  0  0  0
  8  6  1  0  0  0  0
  9 11  1  0  0  0  0
 10  8  1  0  0  0  0
 10 13  1  0  0  0  0
 11 12  1  0  0  0  0
 12 14  1  0  0  0  0
 13 15  2  0  0  0  0
 13 12  1  0  0  0  0
 16  5  1  0  0  0  0
 17 16  1  0  0  0  0
 18 17  2  0  0  0  0
 19 18  1  0  0  0  0
 19 20  2  0  0  0  0
 20 16  1  0  0  0  0
 21 27  1  0  0  0  0
 21  1  1  0  0  0  0
 22 21  2  0  0  0  0
 23 24  2  0  0  0  0
 23 22  1  0  0  0  0
 24 26  1  0  0  0  0
 25 24  1  0  0  0  0
 26 27  2  0  0  0  0
M  END
>  <Pose>
1

>  <Score>
-6.326

$$$$
