MODEL 1
REMARK VINA RESULT:    -6.252      0.000      0.000
REMARK INTER + INTRA:          -7.813
REMARK INTER:                  -7.349
REMARK INTRA:                  -0.464
REMARK UNBOUND:                -0.464
REMARK  3 active torsions:
REMARK  status: ('A' for Active; 'I' for Inactive)
REMARK    1  A    between atoms: C_5  and  N_8 
REMARK    2  A    between atoms: C_11  and  N_15 
REMARK    3  A    between atoms: N_18  and  C_21 
ROOT
ATOM      1  N   UNK d   1      90.650  98.655 -44.621  0.00  0.00    -0.251 N 
ATOM      2  C   UNK d   1      89.373  99.082 -45.082  0.00  0.00     0.262 C 
ATOM      3  O   UNK d   1      88.379  98.339 -45.229  0.00  0.00    -0.270 OA
ATOM      4  C   UNK d   1      89.365 100.524 -45.369  0.00  0.00     0.289 C 
ATOM      5  C   UNK d   1      90.841 100.807 -45.622  0.00  0.00     0.146 C 
ATOM      6  C   UNK d   1      91.517  99.799 -44.745  0.00  0.00     0.233 C 
ATOM      7  O   UNK d   1      92.642 100.021 -44.259  0.00  0.00    -0.273 OA
ENDROOT
BRANCH   4   8
ATOM      8  N   UNK d   1      88.869 101.362 -44.301  0.00  0.00    -0.055 N 
ATOM      9  C   UNK d   1      88.377 100.595 -43.182  0.00  0.00     0.255 C 
ATOM     10  C   UNK d   1      89.365 100.442 -42.047  0.00  0.00     0.150 C 
ATOM     11  N   UNK d   1      90.080 101.669 -41.804  0.00  0.00    -0.378 N 
ATOM     12  C   UNK d   1      89.551 102.817 -42.502  0.00  0.00     0.150 C 
ATOM     13  C   UNK d   1      89.716 102.457 -43.991  0.00  0.00     0.255 C 
ATOM     14  H   UNK d   1      87.977 101.796 -44.718  0.00  0.00     0.281 HD
BRANCH  11  15
ATOM     15  C   UNK d   1      91.208 101.766 -40.983  0.00  0.00     0.030 A 
ATOM     16  C   UNK d   1      92.303 100.927 -41.024  0.00  0.00     0.032 A 
ATOM     17  C   UNK d   1      93.386 101.053 -40.169  0.00  0.00     0.042 A 
ATOM     18  C   UNK d   1      93.403 102.045 -39.226  0.00  0.00     0.107 A 
ATOM     19  C   UNK d   1      92.333 102.912 -39.139  0.00  0.00     0.042 A 
ATOM     20  O   UNK d   1      94.462 102.227 -38.335  0.00  0.00    -0.192 OA
ATOM     21  C   UNK d   1      91.264 102.766 -40.005  0.00  0.00     0.032 A 
ENDBRANCH  11  15
ENDBRANCH   4   8
BRANCH   1  22
ATOM     22  C   UNK d   1      91.046  97.375 -44.124  0.00  0.00     0.045 A 
ATOM     23  C   UNK d   1      91.355  97.182 -42.808  0.00  0.00     0.031 A 
ATOM     24  C   UNK d   1      91.744  95.928 -42.326  0.00  0.00     0.021 A 
ATOM     25  C   UNK d   1      91.829  94.842 -43.153  0.00  0.00     0.011 A 
ATOM     26 Br   UNK d   1      92.359  93.121 -42.502  0.00  0.00    -0.051 Br
ATOM     27  C   UNK d   1      91.517  95.030 -44.480  0.00  0.00     0.021 A 
ATOM     28  C   UNK d   1      91.130  96.294 -44.953  0.00  0.00     0.031 A 
ENDBRANCH   1  22
TORSDOF 3
ENDMDL
