MODEL 1
REMARK VINA RESULT:    -6.747      0.000      0.000
REMARK INTER + INTRA:          -9.494
REMARK INTER:                  -8.324
REMARK INTRA:                  -1.169
REMARK UNBOUND:                -1.169
REMARK  4 active torsions:
REMARK  status: ('A' for Active; 'I' for Inactive)
REMARK    1  A    between atoms: C_5  and  N_8 
REMARK    2  A    between atoms: C_11  and  N_15 
REMARK    3  A    between atoms: C_18  and  N_21 
REMARK    4  A    between atoms: C_18  and  C_27 
REMARK       I    between atoms: C_27  and  N_29 
ROOT
ATOM      1  N   UNK d   1      90.164  99.493 -44.921  0.00  0.00    -0.399 N 
ATOM      2  C   UNK d   1      89.233 100.351 -44.307  0.00  0.00     0.120 C 
ATOM      3  C   UNK d   1      88.127 100.677 -45.320  0.00  0.00     0.060 C 
ATOM      4  C   UNK d   1      87.300  99.452 -45.641  0.00  0.00     0.112 C 
ATOM      5  C   UNK d   1      88.185  98.278 -45.772  0.00  0.00     0.060 C 
ATOM      6  C   UNK d   1      89.630  98.673 -45.942  0.00  0.00     0.120 C 
ENDROOT
BRANCH   1   7
ATOM      7  C   UNK d   1      91.214  98.953 -44.156  0.00  0.00     0.181 C 
ATOM      8  C   UNK d   1      91.878  97.863 -44.917  0.00  0.00     0.254 C 
ATOM      9  N   UNK d   1      91.583  96.629 -44.255  0.00  0.00    -0.251 N 
ATOM     10  O   UNK d   1      92.567  98.032 -45.952  0.00  0.00    -0.270 OA
ATOM     11  C   UNK d   1      91.344  96.983 -42.899  0.00  0.00     0.233 C 
ATOM     12  C   UNK d   1      90.778  98.357 -42.837  0.00  0.00     0.138 C 
ATOM     13  O   UNK d   1      91.585  96.218 -41.899  0.00  0.00    -0.273 OA
BRANCH   9  14
ATOM     14  C   UNK d   1      91.544  95.328 -44.847  0.00  0.00     0.045 A 
ATOM     15  C   UNK d   1      90.787  95.109 -45.967  0.00  0.00     0.031 A 
ATOM     16  C   UNK d   1      90.738  93.842 -46.561  0.00  0.00     0.021 A 
ATOM     17  C   UNK d   1      91.440  92.774 -46.052  0.00  0.00     0.011 A 
ATOM     18 Br   UNK d   1      91.379  91.040 -46.855  0.00  0.00    -0.051 Br
ATOM     19  C   UNK d   1      92.201  92.994 -44.925  0.00  0.00     0.021 A 
ATOM     20  C   UNK d   1      92.243  94.253 -44.346  0.00  0.00     0.031 A 
ENDBRANCH   9  14
ENDBRANCH   1   7
BRANCH   4  21
ATOM     21  N   UNK d   1      86.259  99.361 -44.703  0.00  0.00    -0.396 N 
ATOM     22  C   UNK d   1      86.096  98.167 -43.987  0.00  0.00     0.118 C 
ATOM     23  C   UNK d   1      84.645  97.707 -44.214  0.00  0.00     0.019 C 
ATOM     24  C   UNK d   1      83.774  98.760 -43.560  0.00  0.00     0.003 C 
ATOM     25  C   UNK d   1      84.493 100.038 -43.281  0.00  0.00     0.019 C 
ATOM     26  C   UNK d   1      85.450 100.443 -44.413  0.00  0.00     0.118 C 
ENDBRANCH   4  21
BRANCH   4  27
ATOM     27  C   UNK d   1      86.682  99.730 -46.986  0.00  0.00     0.243 C 
ATOM     28  O   UNK d   1      87.047 100.746 -47.651  0.00  0.00    -0.271 OA
ATOM     29  N   UNK d   1      85.692  98.899 -47.563  0.00  0.00    -0.368 N 
ATOM     30  H   UNK d   1      84.756  99.278 -47.750  0.00  0.00     0.159 HD
ATOM     31  H   UNK d   1      85.898  97.910 -47.802  0.00  0.00     0.159 HD
ENDBRANCH   4  27
TORSDOF 4
ENDMDL
