MODEL 1
REMARK VINA RESULT:    -6.861      0.000      0.000
REMARK INTER + INTRA:         -10.273
REMARK INTER:                  -9.267
REMARK INTRA:                  -1.005
REMARK UNBOUND:                -1.005
REMARK  6 active torsions:
REMARK  status: ('A' for Active; 'I' for Inactive)
REMARK    1  A    between atoms: C_5  and  N_8 
REMARK    2  A    between atoms: N_15  and  C_16 
REMARK    3  A    between atoms: C_16  and  C_17 
REMARK       I    between atoms: C_17  and  N_19 
REMARK    4  A    between atoms: N_19  and  C_20 
REMARK    5  A    between atoms: C_22  and  O_28 
REMARK    6  A    between atoms: C_24  and  O_26 
ROOT
ATOM      1  N   UNK d   1      91.605 101.312 -43.155  0.00  0.00    -0.241 N 
ATOM      2  C   UNK d   1      90.816 100.469 -43.828  0.00  0.00     0.286 A 
ATOM      3  O   UNK d   1      89.751  99.953 -43.351  0.00  0.00    -0.265 OA
ATOM      4  C   UNK d   1      91.262 100.199 -45.101  0.00  0.00     0.155 A 
ATOM      5  C   UNK d   1      92.392 100.924 -45.211  0.00  0.00     0.152 A 
ATOM      6  N   UNK d   1      92.854 100.676 -46.461  0.00  0.00    -0.279 N 
ATOM      7  N   UNK d   1      92.044  99.841 -47.087  0.00  0.00    -0.239 N 
ATOM      8  N   UNK d   1      91.065  99.546 -46.256  0.00  0.00    -0.261 N 
ATOM      9  C   UNK d   1      92.612 101.604 -44.036  0.00  0.00     0.286 A 
ATOM     10  O   UNK d   1      93.554 102.379 -43.747  0.00  0.00    -0.265 OA
ATOM     11  H   UNK d   1      93.730 101.097 -46.849  0.00  0.00     0.189 HD
ATOM     12  H   UNK d   1      92.211  99.508 -48.074  0.00  0.00     0.208 HD
ENDROOT
BRANCH   8  13
ATOM     13  C   UNK d   1      89.973  98.667 -46.560  0.00  0.00     0.254 C 
BRANCH  13  14
ATOM     14  C   UNK d   1      90.078  97.354 -45.929  0.00  0.00     0.242 C 
ATOM     15  O   UNK d   1      89.066  96.638 -45.673  0.00  0.00    -0.271 OA
ATOM     16  N   UNK d   1      91.365  96.878 -45.590  0.00  0.00    -0.326 N 
ATOM     17  H   UNK d   1      92.231  97.467 -45.791  0.00  0.00     0.169 HD
BRANCH  16  18
ATOM     18  C   UNK d   1      91.486  95.606 -44.977  0.00  0.00     0.040 A 
ATOM     19  C   UNK d   1      91.594  95.592 -43.608  0.00  0.00     0.066 A 
ATOM     20  C   UNK d   1      91.748  94.378 -42.929  0.00  0.00     0.073 A 
ATOM     21  C   UNK d   1      91.792  93.204 -43.633  0.00  0.00     0.073 A 
ATOM     22  C   UNK d   1      91.685  93.201 -45.022  0.00  0.00     0.073 A 
ATOM     23  C   UNK d   1      91.532  94.420 -45.664  0.00  0.00     0.066 A 
BRANCH  20  24
ATOM     24  O   UNK d   1      91.842  94.483 -41.561  0.00  0.00    -0.356 OA
ATOM     25  C   UNK d   1      92.114  95.653 -40.882  0.00  0.00     0.210 C 
ENDBRANCH  20  24
BRANCH  22  26
ATOM     26  O   UNK d   1      91.743  91.982 -45.663  0.00  0.00    -0.356 OA
ATOM     27  C   UNK d   1      91.225  91.666 -46.918  0.00  0.00     0.210 C 
ENDBRANCH  22  26
ENDBRANCH  16  18
ENDBRANCH  13  14
ENDBRANCH   8  13
BRANCH   1  28
ATOM     28  C   UNK d   1      91.477 101.828 -41.828  0.00  0.00     0.046 A 
ATOM     29  C   UNK d   1      92.185 101.279 -40.787  0.00  0.00     0.031 A 
ATOM     30  C   UNK d   1      92.056 101.792 -39.487  0.00  0.00     0.021 A 
ATOM     31  C   UNK d   1      91.223 102.853 -39.224  0.00  0.00     0.011 A 
ATOM     32 Br   UNK d   1      91.047 103.564 -37.440  0.00  0.00    -0.051 Br
ATOM     33  C   UNK d   1      90.516 103.402 -40.268  0.00  0.00     0.021 A 
ATOM     34  C   UNK d   1      90.648 102.891 -41.538  0.00  0.00     0.031 A 
ENDBRANCH   1  28
TORSDOF 6
ENDMDL
