/Users/jonathanwahrer/Desktop/Msc/3_Semester/Drug_Design_Praktikum/waehrer_HTS_screening/HTS_experiment/out/docking_results/vina_output/4agl/0414_docked.pdbqt
 OpenBabel03202223243D

 35 38  0  0  0  0  0  0  0  0999 V2000
   87.1720   98.2050  -45.4150 N   0  0  0  0  0  0  0  0  0  0  0  0
   88.5190   98.3490  -45.5050 C   0  0  0  0  0  0  0  0  0  0  0  0
   89.2190   98.2080  -46.5560 O   0  0  0  0  0  0  0  0  0  0  0  0
   89.0340   98.6800  -44.2640 C   0  0  0  0  0  0  0  0  0  0  0  0
   87.9870   98.7290  -43.4440 C   0  0  0  0  0  0  0  0  0  0  0  0
   88.4650   99.0510  -42.2180 N   0  0  0  0  0  0  0  0  0  0  0  0
   89.7830   99.1890  -42.3290 N   0  0  0  0  0  0  0  0  0  0  0  0
   90.1680   98.9670  -43.5710 N   0  0  0  0  0  0  0  0  0  0  0  0
   86.8370   98.4390  -44.1380 C   0  0  0  0  0  0  0  0  0  0  0  0
   85.6710   98.3950  -43.6860 O   0  0  0  0  0  0  0  0  0  0  0  0
   87.8930   99.1680  -41.3570 H   0  0  0  0  0  0  0  0  0  0  0  0
   90.4120   99.4340  -41.5450 H   0  0  0  0  0  0  0  0  0  0  0  0
   91.5090   99.0080  -44.1430 C   0  0  0  0  0  2  0  0  0  0  0  0
   91.7770   97.7080  -44.8610 C   0  0  0  0  0  0  0  0  0  0  0  0
   92.5790   97.8430  -45.8190 O   0  0  0  0  0  0  0  0  0  0  0  0
   91.1560   96.5360  -44.4340 N   0  0  0  0  0  0  0  0  0  0  0  0
   90.5050   96.6400  -43.5920 H   0  0  0  0  0  0  0  0  0  0  0  0
   91.2950   95.2400  -44.9890 C   0  0  0  0  0  0  0  0  0  0  0  0
   92.0290   94.2160  -44.4390 C   0  0  0  0  0  3  0  0  0  0  0  0
   92.1180   92.9590  -45.0520 C   0  0  0  0  0  3  0  0  0  0  0  0
   91.4700   92.6930  -46.2350 C   0  0  0  0  0  0  0  0  0  0  0  0
   90.7330   93.7080  -46.7930 C   0  0  0  0  0  3  0  0  0  0  0  0
   90.6480   94.9470  -46.1870 C   0  0  0  0  0  3  0  0  0  0  0  0
   91.5910   91.3690  -46.8360 C   0  0  0  0  0  0  0  0  0  0  0  0
   92.6970   90.7790  -46.7520 O   0  0  0  0  0  0  0  0  0  0  0  0
   90.5790   90.7220  -47.4890 O   0  0  0  0  0  0  0  0  0  0  0  0
   90.3930   90.6610  -48.8740 C   0  0  0  0  0  2  0  0  0  0  0  0
   89.6250   89.3610  -49.1530 C   0  0  0  0  0  1  0  0  0  0  0  0
   86.3380   97.8640  -46.5200 C   0  0  0  0  0  0  0  0  0  0  0  0
   86.2540   96.5430  -46.9320 C   0  0  0  0  0  3  0  0  0  0  0  0
   85.4690   96.1830  -47.9820 C   0  0  0  0  0  3  0  0  0  0  0  0
   84.7240   97.1080  -48.6820 C   0  0  0  0  0  0  0  0  0  0  0  0
   83.6120   96.6480  -50.1550 Br  0  0  0  0  0  0  0  0  0  0  0  0
   84.8160   98.4160  -48.2630 C   0  0  0  0  0  3  0  0  0  0  0  0
   85.6020   98.7950  -47.2080 C   0  0  0  0  0  3  0  0  0  0  0  0
  1  9  1  0  0  0  0
  2  1  1  0  0  0  0
  2  4  1  0  0  0  0
  3  2  2  0  0  0  0
  4  8  1  0  0  0  0
  4  5  2  0  0  0  0
  5  6  1  0  0  0  0
  6 11  1  0  0  0  0
  7  6  1  0  0  0  0
  7 12  1  0  0  0  0
  8  7  1  0  0  0  0
  9 10  2  0  0  0  0
  9  5  1  0  0  0  0
 13  8  1  0  0  0  0
 14 16  1  0  0  0  0
 14 13  1  0  0  0  0
 15 14  2  0  0  0  0
 16 17  1  0  0  0  0
 18 19  1  0  0  0  0
 18 16  1  0  0  0  0
 20 19  2  0  0  0  0
 21 20  1  0  0  0  0
 22 21  2  0  0  0  0
 22 23  1  0  0  0  0
 23 18  2  0  0  0  0
 24 25  2  0  0  0  0
 24 21  1  0  0  0  0
 26 24  1  0  0  0  0
 27 26  1  0  0  0  0
 28 27  1  0  0  0  0
 29  1  1  0  0  0  0
 30 29  1  0  0  0  0
 31 30  2  0  0  0  0
 32 34  2  0  0  0  0
 32 31  1  0  0  0  0
 33 32  1  0  0  0  0
 34 35  1  0  0  0  0
 35 29  2  0  0  0  0
M  END
>  <Pose>
1

>  <Score>
-6.694

$$$$
