MODEL 1
REMARK VINA RESULT:    -7.088      0.000      0.000
REMARK INTER + INTRA:          -8.686
REMARK INTER:                  -8.332
REMARK INTRA:                  -0.354
REMARK UNBOUND:                -0.354
REMARK  3 active torsions:
REMARK  status: ('A' for Active; 'I' for Inactive)
REMARK    1  A    between atoms: C_5  and  N_8 
REMARK    2  A    between atoms: N_15  and  C_16 
REMARK    3  A    between atoms: C_19  and  N_22 
ROOT
ATOM      1  N   UNK d   1      91.523  96.485 -43.936  0.00  0.00    -0.241 N 
ATOM      2  C   UNK d   1      91.474  95.561 -44.921  0.00  0.00     0.286 A 
ATOM      3  O   UNK d   1      91.333  95.764 -46.169  0.00  0.00    -0.265 OA
ATOM      4  C   UNK d   1      91.601  94.284 -44.404  0.00  0.00     0.160 A 
ATOM      5  C   UNK d   1      91.728  94.455 -43.086  0.00  0.00     0.152 A 
ATOM      6  N   UNK d   1      91.853  93.206 -42.576  0.00  0.00    -0.278 N 
ATOM      7  N   UNK d   1      91.800  92.338 -43.573  0.00  0.00    -0.234 N 
ATOM      8  N   UNK d   1      91.644  92.978 -44.720  0.00  0.00    -0.234 N 
ATOM      9  C   UNK d   1      91.681  95.801 -42.790  0.00  0.00     0.286 A 
ATOM     10  O   UNK d   1      91.767  96.352 -41.664  0.00  0.00    -0.265 OA
ATOM     11  H   UNK d   1      91.972  92.992 -41.552  0.00  0.00     0.189 HD
ATOM     12  H   UNK d   1      91.866  91.289 -43.511  0.00  0.00     0.209 HD
ENDROOT
BRANCH   8  13
ATOM     13  C   UNK d   1      91.542  92.391 -46.023  0.00  0.00     0.058 A 
ATOM     14  C   UNK d   1      92.320  91.309 -46.379  0.00  0.00     0.034 A 
ATOM     15  C   UNK d   1      92.244  90.718 -47.634  0.00  0.00     0.038 A 
ATOM     16  C   UNK d   1      91.368  91.212 -48.577  0.00  0.00     0.103 A 
ATOM     17  C   UNK d   1      90.589  92.294 -48.224  0.00  0.00     0.038 A 
ATOM     18  C   UNK d   1      90.668  92.880 -46.970  0.00  0.00     0.034 A 
BRANCH  16  19
ATOM     19  N   UNK d   1      91.267  90.628 -49.873  0.00  0.00    -0.116 N 
ATOM     20  O   UNK d   1      91.459  91.285 -50.913  0.00  0.00    -0.532 OA
ATOM     21  O   UNK d   1      90.950  89.312 -49.985  0.00  0.00    -0.532 OA
ENDBRANCH  16  19
ENDBRANCH   8  13
BRANCH   1  22
ATOM     22  C   UNK d   1      91.424  97.905 -44.107  0.00  0.00     0.046 A 
ATOM     23  C   UNK d   1      92.524  98.701 -44.349  0.00  0.00     0.031 A 
ATOM     24  C   UNK d   1      92.395 100.077 -44.510  0.00  0.00     0.021 A 
ATOM     25  C   UNK d   1      91.161 100.689 -44.433  0.00  0.00     0.011 A 
ATOM     26 Br   UNK d   1      90.961 102.581 -44.653  0.00  0.00    -0.051 Br
ATOM     27  C   UNK d   1      90.058  99.896 -44.193  0.00  0.00     0.021 A 
ATOM     28  C   UNK d   1      90.196  98.530 -44.033  0.00  0.00     0.031 A 
ENDBRANCH   1  22
TORSDOF 3
ENDMDL
