MODEL 1
REMARK VINA RESULT:    -5.885      0.000      0.000
REMARK INTER + INTRA:          -7.299
REMARK INTER:                  -6.573
REMARK INTRA:                  -0.726
REMARK UNBOUND:                -0.726
REMARK  2 active torsions:
REMARK  status: ('A' for Active; 'I' for Inactive)
REMARK    1  A    between atoms: C_5  and  N_8 
REMARK    2  A    between atoms: C_12  and  C_20 
ROOT
ATOM      1  N   UNK d   1      90.360  97.717 -45.377  0.00  0.00    -0.252 N 
ATOM      2  C   UNK d   1      91.304  98.749 -45.616  0.00  0.00     0.239 C 
ATOM      3  O   UNK d   1      92.331  98.614 -46.323  0.00  0.00    -0.272 OA
ATOM      4  C   UNK d   1      90.870  99.980 -44.902  0.00  0.00     0.138 C 
ATOM      5  C   UNK d   1      91.508 100.105 -43.552  0.00  0.00     0.142 C 
ATOM      6  O   UNK d   1      90.485 100.779 -42.849  0.00  0.00    -0.360 OA
ATOM      7  C   UNK d   1      89.481  99.793 -43.021  0.00  0.00     0.160 C 
ATOM      8  C   UNK d   1      89.418  99.706 -44.507  0.00  0.00     0.128 C 
ATOM      9  C   UNK d   1      89.139  98.308 -44.932  0.00  0.00     0.239 C 
ATOM     10  O   UNK d   1      88.030  97.770 -44.896  0.00  0.00    -0.272 OA
ATOM     11  C   UNK d   1      90.217  98.607 -42.511  0.00  0.00     0.005 C 
ATOM     12  C   UNK d   1      91.474  98.784 -42.905  0.00  0.00     0.015 C 
ENDROOT
BRANCH   1  13
ATOM     13  C   UNK d   1      90.660  96.329 -45.573  0.00  0.00     0.045 A 
ATOM     14  C   UNK d   1      91.527  95.653 -44.744  0.00  0.00     0.031 A 
ATOM     15  C   UNK d   1      91.825  94.320 -44.923  0.00  0.00     0.021 A 
ATOM     16  C   UNK d   1      91.232  93.655 -45.969  0.00  0.00     0.011 A 
ATOM     17 Br   UNK d   1      91.619  91.820 -46.249  0.00  0.00    -0.051 Br
ATOM     18  C   UNK d   1      90.365  94.308 -46.809  0.00  0.00     0.021 A 
ATOM     19  C   UNK d   1      90.060  95.659 -46.630  0.00  0.00     0.031 A 
ENDBRANCH   1  13
BRANCH   5  20
ATOM     20  C   UNK d   1      92.791 100.818 -43.520  0.00  0.00     0.298 C 
ATOM     21  O   UNK d   1      93.056 101.435 -42.328  0.00  0.00    -0.356 OA
ATOM     22  C   UNK d   1      92.988 102.794 -42.510  0.00  0.00     0.197 C 
ATOM     23  C   UNK d   1      92.660 103.011 -43.950  0.00  0.00     0.197 C 
ATOM     24  O   UNK d   1      92.881 101.764 -44.524  0.00  0.00    -0.356 OA
ENDBRANCH   5  20
TORSDOF 2
ENDMDL
