MODEL 1
REMARK VINA RESULT:    -6.170      0.000      0.000
REMARK INTER + INTRA:          -6.870
REMARK INTER:                  -6.531
REMARK INTRA:                  -0.339
REMARK UNBOUND:                -0.339
REMARK  1 active torsions:
REMARK  status: ('A' for Active; 'I' for Inactive)
REMARK    1  A    between atoms: C_5  and  N_8 
ROOT
ATOM      1  N   UNK d   1      90.698  98.246 -45.158  0.00  0.00    -0.231 N 
ATOM      2  C   UNK d   1      91.652  99.035 -45.893  0.00  0.00     0.357 A 
ATOM      3  O   UNK d   1      92.843  98.631 -45.998  0.00  0.00    -0.244 OA
ATOM      4  N   UNK d   1      91.188 100.238 -46.463  0.00  0.00    -0.169 NA
ATOM      5  C   UNK d   1      89.997 100.663 -46.371  0.00  0.00     0.202 A 
ATOM      6  C   UNK d   1      88.883  99.990 -45.659  0.00  0.00     0.140 A 
ATOM      7  C   UNK d   1      88.312 100.951 -44.674  0.00  0.00     0.269 C 
ATOM      8  N   UNK d   1      86.942 100.797 -44.340  0.00  0.00    -0.043 N 
ATOM      9  C   UNK d   1      86.329  99.608 -44.783  0.00  0.00     0.140 A 
ATOM     10  C   UNK d   1      86.725  99.010 -45.986  0.00  0.00    -0.021 A 
ATOM     11  C   UNK d   1      86.119  97.857 -46.398  0.00  0.00     0.016 A 
ATOM     12  C   UNK d   1      85.119  97.226 -45.693  0.00  0.00    -0.061 A 
ATOM     13  C   UNK d   1      84.733  97.818 -44.509  0.00  0.00     0.009 A 
ATOM     14  C   UNK d   1      85.330  98.990 -44.063  0.00  0.00     0.038 A 
ATOM     15  C   UNK d   1      84.486  95.975 -46.172  0.00  0.00     0.048 C 
ATOM     16  C   UNK d   1      87.806  99.723 -46.715  0.00  0.00     0.070 C 
ATOM     17  C   UNK d   1      86.137 101.966 -44.732  0.00  0.00     0.276 C 
ATOM     18  C   UNK d   1      89.362  98.727 -45.056  0.00  0.00     0.251 A 
ATOM     19  O   UNK d   1      88.568  97.982 -44.391  0.00  0.00    -0.271 OA
ATOM     20  O   UNK d   1      89.669 101.886 -46.994  0.00  0.00    -0.173 OA
ATOM     21  H   UNK d   1      86.873 100.787 -43.279  0.00  0.00     0.286 HD
ENDROOT
BRANCH   1  22
ATOM     22  C   UNK d   1      91.090  97.021 -44.556  0.00  0.00     0.047 A 
ATOM     23  C   UNK d   1      91.398  97.032 -43.214  0.00  0.00     0.031 A 
ATOM     24  C   UNK d   1      91.793  95.880 -42.544  0.00  0.00     0.021 A 
ATOM     25  C   UNK d   1      91.881  94.699 -43.230  0.00  0.00     0.011 A 
ATOM     26 Br   UNK d   1      92.423  93.124 -42.302  0.00  0.00    -0.051 Br
ATOM     27  C   UNK d   1      91.576  94.661 -44.582  0.00  0.00     0.021 A 
ATOM     28  C   UNK d   1      91.185  95.822 -45.227  0.00  0.00     0.031 A 
ENDBRANCH   1  22
TORSDOF 1
ENDMDL
