/Users/jonathanwahrer/Desktop/Msc/3_Semester/Drug_Design_Praktikum/waehrer_HTS_screening/HTS_experiment/out/docking_results/vina_output/4agl/0441_docked.pdbqt
 OpenBabel03202223273D

 36 39  0  0  1  0  0  0  0  0999 V2000
   91.4920   93.8890  -45.0750 C   0  0  0  0  0  0  0  0  0  0  0  0
   91.3130   95.1540  -44.6500 N   0  0  0  0  0  0  0  0  0  0  0  0
   91.6050   95.4710  -43.3990 C   0  0  0  0  0  0  0  0  0  0  0  0
   91.5130   96.6410  -42.7530 N   0  0  0  0  0  0  0  0  0  0  0  0
   91.9410   96.3960  -41.4930 C   0  0  0  0  0  3  0  0  0  0  0  0
   92.2890   95.1120  -41.3660 N   0  0  0  0  0  0  0  0  0  0  0  0
   92.0970   94.4900  -42.5310 C   0  0  0  0  0  0  0  0  0  0  0  0
   92.2840   93.1890  -42.9600 C   0  0  0  0  0  0  0  0  0  0  0  0
   91.9730   92.9280  -44.2330 N   0  0  0  0  0  0  0  0  0  0  0  0
   91.1850   93.5080  -46.4140 N   0  0  0  0  0  0  0  0  0  0  0  0
   91.2340   92.1700  -46.8550 C   0  0  0  0  0  0  0  0  0  0  0  0
   91.5560   91.2620  -46.0690 O   0  0  0  0  0  0  0  0  0  0  0  0
   90.9100   94.2830  -47.0830 H   0  0  0  0  0  0  0  0  0  0  0  0
   90.9020   91.8500  -48.2560 C   0  0  0  0  0  2  0  0  0  0  0  0
   91.5560   90.7090  -48.7300 O   0  0  0  0  0  0  0  0  0  0  0  0
   90.8690   89.8070  -49.5120 C   0  0  0  0  0  0  0  0  0  0  0  0
   90.1370   90.2340  -50.5940 C   0  0  0  0  0  3  0  0  0  0  0  0
   89.4360   89.3270  -51.3940 C   0  0  0  0  0  3  0  0  0  0  0  0
   89.4790   87.9820  -51.0960 C   0  0  0  0  0  0  0  0  0  0  0  0
   88.5170   86.7350  -52.1930 Br  0  0  0  0  0  0  0  0  0  0  0  0
   90.2140   87.5570  -50.0090 C   0  0  0  0  0  3  0  0  0  0  0  0
   90.8980   88.4630  -49.2320 C   0  0  0  0  0  3  0  0  0  0  0  0
   92.7740   92.2570  -42.0570 O   0  0  0  0  0  0  0  0  0  0  0  0
   93.5020   91.6300  -42.4170 H   0  0  0  0  0  0  0  0  0  0  0  0
   91.0800   97.9140  -43.1850 C   0  0  2  0  0  3  0  0  0  0  0  0
   91.1650   98.0500  -44.5770 O   0  0  0  0  0  0  0  0  0  0  0  0
   92.3660   98.7340  -44.7440 C   0  0  2  0  0  3  0  0  0  0  0  0
   92.1570   99.8890  -43.7760 C   0  0  1  0  0  3  0  0  0  0  0  0
   91.6900   99.0950  -42.5590 C   0  0  1  0  0  3  0  0  0  0  0  0
   92.5690   99.2060  -46.1540 C   0  0  0  0  0  2  0  0  0  0  0  0
   93.2500  100.3880  -46.2520 O   0  0  0  0  0  0  0  0  0  0  0  0
   92.8800  100.9030  -47.0150 H   0  0  0  0  0  0  0  0  0  0  0  0
   93.2860  100.6240  -43.5470 O   0  0  0  0  0  0  0  0  0  0  0  0
   93.2810  101.0950  -42.6530 H   0  0  0  0  0  0  0  0  0  0  0  0
   90.7520   99.8530  -41.8230 O   0  0  0  0  0  0  0  0  0  0  0  0
   90.4060  100.5290  -42.4570 H   0  0  0  0  0  0  0  0  0  0  0  0
  1  2  2  0  0  0  0
  1  9  1  0  0  0  0
  2  3  1  0  0  0  0
  3  4  1  0  0  0  0
  3  7  2  0  0  0  0
  4  5  1  0  0  0  0
  5  6  2  0  0  0  0
  7  6  1  0  0  0  0
  8  7  1  0  0  0  0
  8 23  1  0  0  0  0
  9  8  2  0  0  0  0
 10  1  1  0  0  0  0
 11 10  1  0  0  0  0
 11 12  2  0  0  0  0
 13 10  1  0  0  0  0
 14 11  1  0  0  0  0
 15 14  1  0  0  0  0
 16 22  1  0  0  0  0
 16 15  1  0  0  0  0
 17 16  2  0  0  0  0
 18 19  2  0  0  0  0
 18 17  1  0  0  0  0
 19 21  1  0  0  0  0
 20 19  1  0  0  0  0
 21 22  2  0  0  0  0
 24 23  1  0  0  0  0
 25  4  1  1  0  0  0
 25 29  1  0  0  0  0
 26 25  1  0  0  0  0
 27 30  1  6  0  0  0
 27 26  1  0  0  0  0
 27 28  1  0  0  0  0
 28 33  1  1  0  0  0
 28 29  1  0  0  0  0
 29 35  1  6  0  0  0
 31 30  1  0  0  0  0
 32 31  1  0  0  0  0
 33 34  1  0  0  0  0
 36 35  1  0  0  0  0
M  END
>  <Pose>
1

>  <Score>
-7.361

$$$$
