/Users/jonathanwahrer/Desktop/Msc/3_Semester/Drug_Design_Praktikum/waehrer_HTS_screening/HTS_experiment/out/docking_results/vina_output/4agl/0444_docked.pdbqt
 OpenBabel03202223273D

 33 36  0  0  1  0  0  0  0  0999 V2000
   90.2130  100.0330  -44.1360 N   0  0  0  0  0  0  0  0  0  0  0  0
   91.1280  100.8740  -44.6690 C   0  0  0  0  0  0  0  0  0  0  0  0
   90.6950  101.2500  -45.9210 C   0  0  0  0  0  0  0  0  0  0  0  0
   89.5490  100.6250  -46.0940 N   0  0  0  0  0  0  0  0  0  0  0  0
   89.2120   99.8550  -45.0120 C   0  0  0  0  0  0  0  0  0  0  0  0
   91.3810  102.0970  -46.7430 N   0  0  0  0  0  0  0  0  0  0  0  0
   92.5400  102.5820  -46.2940 C   0  0  0  0  0  0  0  0  0  0  0  0
   93.1860  103.3670  -47.0400 O   0  0  0  0  0  0  0  0  0  0  0  0
   92.9880  102.2330  -45.0810 N   0  0  0  0  0  0  0  0  0  0  0  0
   92.3310  101.3960  -44.2440 C   0  0  0  0  0  0  0  0  0  0  0  0
   92.7700  101.0900  -43.1260 O   0  0  0  0  0  0  0  0  0  0  0  0
   90.8320  102.4440  -48.0540 C   0  0  0  0  0  1  0  0  0  0  0  0
   93.8960  102.6320  -44.7660 H   0  0  0  0  0  0  0  0  0  0  0  0
   90.2600   99.4550  -42.8110 C   0  0  0  0  0  2  0  0  0  0  0  0
   91.0730   98.2000  -42.6810 C   0  0  1  0  0  3  0  0  0  0  0  0
   91.5970   97.6010  -43.9470 C   0  0  0  0  0  2  0  0  0  0  0  0
   91.4380   96.3000  -44.0710 O   0  0  0  0  0  0  0  0  0  0  0  0
   91.4410   95.1440  -44.6890 C   0  0  0  0  0  0  0  0  0  0  0  0
   92.0070   93.9850  -44.1960 C   0  0  0  0  0  3  0  0  0  0  0  0
   91.9800   92.7980  -44.8940 C   0  0  0  0  0  3  0  0  0  0  0  0
   91.3720   92.7590  -46.1200 C   0  0  0  0  0  0  0  0  0  0  0  0
   91.3380   91.1180  -47.0770 Br  0  0  0  0  0  0  0  0  0  0  0  0
   90.7950   93.9010  -46.6380 C   0  0  0  0  0  3  0  0  0  0  0  0
   90.8190   95.0710  -45.9560 C   0  0  0  0  0  3  0  0  0  0  0  0
   92.1590   98.3610  -41.8100 O   0  0  0  0  0  0  0  0  0  0  0  0
   93.0110   98.3830  -42.3550 H   0  0  0  0  0  0  0  0  0  0  0  0
   88.0440   99.0120  -44.9660 N   0  0  0  0  0  0  0  0  0  0  0  0
   88.0940   97.8850  -45.9230 C   0  0  0  0  0  2  0  0  0  0  0  0
   87.0760   96.8410  -45.6980 C   0  0  0  0  0  2  0  0  0  0  0  0
   85.8200   97.3580  -45.2150 N   0  0  0  0  0  0  0  0  0  0  0  0
   86.0940   97.9350  -43.9370 C   0  0  0  0  0  2  0  0  0  0  0  0
   85.1810   98.2200  -46.1540 C   0  0  0  0  0  1  0  0  0  0  0  0
   86.9640   99.1850  -44.0600 C   0  0  0  0  0  2  0  0  0  0  0  0
  1 14  1  0  0  0  0
  2 10  1  0  0  0  0
  2  1  1  0  0  0  0
  3  2  2  0  0  0  0
  4  3  1  0  0  0  0
  4  5  2  0  0  0  0
  5 27  1  0  0  0  0
  5  1  1  0  0  0  0
  6  7  1  0  0  0  0
  6  3  1  0  0  0  0
  7  9  1  0  0  0  0
  8  7  2  0  0  0  0
  9 13  1  0  0  0  0
  9 10  1  0  0  0  0
 10 11  2  0  0  0  0
 12  6  1  0  0  0  0
 14 15  1  0  0  0  0
 15 16  1  6  0  0  0
 15 25  1  0  0  0  0
 17 16  1  0  0  0  0
 18 19  1  0  0  0  0
 18 17  1  0  0  0  0
 20 19  2  0  0  0  0
 21 20  1  0  0  0  0
 22 21  1  0  0  0  0
 23 21  2  0  0  0  0
 23 24  1  0  0  0  0
 24 18  2  0  0  0  0
 26 25  1  0  0  0  0
 27 33  1  0  0  0  0
 28 29  1  0  0  0  0
 28 27  1  0  0  0  0
 29 30  1  0  0  0  0
 30 31  1  0  0  0  0
 32 30  1  0  0  0  0
 33 31  1  0  0  0  0
M  END
>  <Pose>
1

>  <Score>
-6.263

$$$$
