MODEL 1
REMARK VINA RESULT:    -5.566      0.000      0.000
REMARK INTER + INTRA:          -6.459
REMARK INTER:                  -6.217
REMARK INTRA:                  -0.242
REMARK UNBOUND:                -0.242
REMARK  2 active torsions:
REMARK  status: ('A' for Active; 'I' for Inactive)
REMARK    1  A    between atoms: C_7  and  C_8 
REMARK    2  A    between atoms: C_8  and  N_9 
ROOT
ATOM      1  C   UNK d   1      91.600  97.350 -44.135  0.00  0.00     0.284 C 
ENDROOT
BRANCH   1   2
ATOM      2  C   UNK d   1      91.466  95.911 -44.365  0.00  0.00    -0.012 A 
ATOM      3  C   UNK d   1      91.710  95.054 -43.279  0.00  0.00     0.021 A 
ATOM      4 Br   UNK d   1      92.040  95.681 -41.501  0.00  0.00    -0.050 Br
ATOM      5  C   UNK d   1      91.718  93.699 -43.553  0.00  0.00     0.059 A 
ATOM      6  C   UNK d   1      91.488  93.231 -44.831  0.00  0.00     0.106 A 
ATOM      7  C   UNK d   1      91.246  94.041 -45.916  0.00  0.00     0.105 A 
ATOM      8  O   UNK d   1      91.462  91.879 -45.291  0.00  0.00    -0.323 OA
ATOM      9  C   UNK d   1      91.242  95.380 -45.638  0.00  0.00     0.050 A 
ATOM     10  O   UNK d   1      91.086  93.175 -46.985  0.00  0.00    -0.323 OA
ATOM     11  C   UNK d   1      91.850  91.971 -46.695  0.00  0.00     0.352 C 
ENDBRANCH   1   2
BRANCH   1  12
ATOM     12  N   UNK d   1      90.467  98.178 -44.142  0.00  0.00     0.016 N 
ATOM     13  C   UNK d   1      90.969  99.333 -44.969  0.00  0.00     0.517 C 
ATOM     14  N   UNK d   1      90.167 100.482 -44.920  0.00  0.00     0.171 N 
ATOM     15  C   UNK d   1      90.044 100.864 -43.525  0.00  0.00     0.551 C 
ATOM     16  C   UNK d   1      88.885 100.109 -45.529  0.00  0.00     0.551 C 
ATOM     17  N   UNK d   1      89.328  99.808 -42.854  0.00  0.00     0.171 N 
ATOM     18  C   UNK d   1      90.103  98.611 -42.794  0.00  0.00     0.517 C 
ATOM     19  C   UNK d   1      88.035  99.489 -43.471  0.00  0.00     0.551 C 
ATOM     20  N   UNK d   1      88.314  98.995 -44.810  0.00  0.00     0.171 N 
ATOM     21  C   UNK d   1      89.232  97.837 -44.777  0.00  0.00     0.517 C 
ENDBRANCH   1  12
TORSDOF 2
ENDMDL
