/Users/jonathanwahrer/Desktop/Msc/3_Semester/Drug_Design_Praktikum/waehrer_HTS_screening/HTS_experiment/out/docking_results/vina_output/4agl/0455_docked.pdbqt
 OpenBabel03202223273D

 26 29  0  0  0  0  0  0  0  0999 V2000
   91.4540  100.0960  -44.2530 N   0  0  0  0  0  0  0  0  0  0  0  0
   90.0310   99.7140  -44.4510 C   0  0  0  0  0  2  0  0  0  0  0  0
   89.9820   98.2790  -43.9360 C   0  0  0  0  0  2  0  0  0  0  0  0
   91.2580   97.7060  -43.7110 N   0  0  0  0  0  0  0  0  0  0  0  0
   92.1610   97.8870  -44.8180 C   0  0  0  0  0  2  0  0  0  0  0  0
   92.1300   99.3120  -45.2880 C   0  0  0  0  0  2  0  0  0  0  0  0
   91.6090  101.5150  -44.5050 C   0  0  0  0  0  2  0  0  0  0  0  0
   92.4240  102.1450  -43.4370 C   0  0  0  0  0  0  0  0  0  0  0  0
   93.2630  103.2230  -43.7110 C   0  0  0  0  0  0  0  0  0  0  0  0
   93.3400  103.8300  -45.5210 Br  0  0  0  0  0  0  0  0  0  0  0  0
   94.0130  103.8410  -42.7370 C   0  0  0  0  0  3  0  0  0  0  0  0
   93.9680  103.4170  -41.4320 C   0  0  0  0  0  0  0  0  0  0  0  0
   93.1550  102.3620  -41.1290 C   0  0  0  0  0  0  0  0  0  0  0  0
   94.7080  104.0140  -40.4200 O   0  0  0  0  0  0  0  0  0  0  0  0
   92.3970  101.7390  -42.1190 C   0  0  0  0  0  3  0  0  0  0  0  0
   93.0950  101.9190  -39.8170 O   0  0  0  0  0  0  0  0  0  0  0  0
   94.0080  102.3080  -38.8230 C   0  0  0  0  0  2  0  0  0  0  0  0
   94.5250  103.6900  -39.0650 C   0  0  0  0  0  2  0  0  0  0  0  0
   91.8260   97.8290  -42.4230 C   0  0  0  0  0  2  0  0  0  0  0  0
   92.0820   96.5920  -41.7080 C   0  0  0  0  0  0  0  0  0  0  0  0
   92.5710   96.6000  -40.5590 O   0  0  0  0  0  0  0  0  0  0  0  0
   91.7820   95.3390  -42.2910 N   0  0  0  0  0  0  0  0  0  0  0  0
   91.3620   95.2490  -43.2610 H   0  0  0  0  0  0  0  0  0  0  0  0
   92.0260   94.0770  -41.6040 C   0  0  0  0  0  3  0  0  0  0  0  0
   93.3690   93.4750  -41.5980 C   0  0  0  0  0  2  0  0  0  0  0  0
   92.3400   92.9000  -42.5240 C   0  0  0  0  0  2  0  0  0  0  0  0
  2  1  1  0  0  0  0
  2  3  1  0  0  0  0
  3  4  1  0  0  0  0
  4 19  1  0  0  0  0
  5  4  1  0  0  0  0
  6  5  1  0  0  0  0
  6  1  1  0  0  0  0
  7  1  1  0  0  0  0
  7  8  1  0  0  0  0
  8 15  1  0  0  0  0
  9  8  2  0  0  0  0
  9 11  1  0  0  0  0
 10  9  1  0  0  0  0
 11 12  2  0  0  0  0
 12 13  1  0  0  0  0
 12 14  1  0  0  0  0
 13 16  1  0  0  0  0
 14 18  1  0  0  0  0
 15 13  2  0  0  0  0
 16 17  1  0  0  0  0
 18 17  1  0  0  0  0
 19 20  1  0  0  0  0
 20 21  2  0  0  0  0
 22 20  1  0  0  0  0
 22 24  1  0  0  0  0
 23 22  1  0  0  0  0
 24 25  1  0  0  0  0
 26 24  1  0  0  0  0
 26 25  1  0  0  0  0
M  END
>  <Pose>
1

>  <Score>
-5.570

$$$$
