/Users/jonathanwahrer/Desktop/Msc/3_Semester/Drug_Design_Praktikum/waehrer_HTS_screening/HTS_experiment/out/docking_results/vina_output/4agl/0459_docked.pdbqt
 OpenBabel03202223283D

 29 32  0  0  0  0  0  0  0  0999 V2000
   91.3240   92.4680  -46.3000 C   0  0  0  0  0  0  0  0  0  0  0  0
   91.8800   92.4760  -45.0130 C   0  0  0  0  0  3  0  0  0  0  0  0
   91.9170   93.6020  -44.2220 C   0  0  0  0  0  3  0  0  0  0  0  0
   91.3970   94.7930  -44.6780 C   0  0  0  0  0  0  0  0  0  0  0  0
   90.8470   94.8040  -45.9420 C   0  0  0  0  0  3  0  0  0  0  0  0
   90.8080   93.6640  -46.7460 C   0  0  0  0  0  3  0  0  0  0  0  0
   91.3170   91.3080  -47.0540 O   0  0  0  0  0  0  0  0  0  0  0  0
   91.6480   91.2560  -48.4090 C   0  0  0  0  0  2  0  0  0  0  0  0
   90.9280   90.2180  -49.1680 C   0  0  0  0  0  0  0  0  0  0  0  0
   89.8710   90.5680  -50.0180 C   0  0  0  0  0  0  0  0  0  0  0  0
   89.3900   92.4210  -50.0960 Br  0  0  0  0  0  0  0  0  0  0  0  0
   89.2110   89.6220  -50.7610 C   0  0  0  0  0  3  0  0  0  0  0  0
   89.5710   88.2910  -50.6930 C   0  0  0  0  0  0  0  0  0  0  0  0
   90.6090   87.9190  -49.8640 C   0  0  0  0  0  0  0  0  0  0  0  0
   89.1040   87.1280  -51.3090 O   0  0  0  0  0  0  0  0  0  0  0  0
   91.2740   88.8870  -49.1130 C   0  0  0  0  0  3  0  0  0  0  0  0
   90.7520   86.5520  -49.9880 O   0  0  0  0  0  0  0  0  0  0  0  0
   90.0250   86.0780  -51.1080 C   0  0  0  0  0  2  0  0  0  0  0  0
   91.4290   96.0000  -43.8470 C   0  0  0  0  0  0  0  0  0  0  0  0
   91.1220   97.2630  -44.1860 N   0  0  0  0  0  0  0  0  0  0  0  0
   91.2920   98.0470  -43.1170 N   0  0  0  0  0  0  0  0  0  0  0  0
   91.7050   97.2940  -42.1080 N   0  0  0  0  0  0  0  0  0  0  0  0
   91.7870   96.0520  -42.5540 N   0  0  0  0  0  0  0  0  0  0  0  0
   91.0820   99.4760  -43.0110 C   0  0  0  0  0  2  0  0  0  0  0  0
   92.2570  100.2050  -43.5350 C   0  0  0  0  0  0  0  0  0  0  0  0
   92.3180  101.4390  -43.4140 O   0  0  0  0  0  0  0  0  0  0  0  0
   93.2920   99.4830  -44.1680 N   0  0  0  0  0  0  0  0  0  0  0  0
   93.1200   98.5850  -44.6980 H   0  0  0  0  0  0  0  0  0  0  0  0
   94.2730   99.8330  -44.1230 H   0  0  0  0  0  0  0  0  0  0  0  0
  1  2  1  0  0  0  0
  2  3  2  0  0  0  0
  4  3  1  0  0  0  0
  4 19  1  0  0  0  0
  5  4  2  0  0  0  0
  6  1  2  0  0  0  0
  6  5  1  0  0  0  0
  7  1  1  0  0  0  0
  8  7  1  0  0  0  0
  9 16  1  0  0  0  0
  9  8  1  0  0  0  0
 10  9  2  0  0  0  0
 11 10  1  0  0  0  0
 12 13  2  0  0  0  0
 12 10  1  0  0  0  0
 13 14  1  0  0  0  0
 14 16  2  0  0  0  0
 15 18  1  0  0  0  0
 15 13  1  0  0  0  0
 17 14  1  0  0  0  0
 18 17  1  0  0  0  0
 19 23  1  0  0  0  0
 20 19  2  0  0  0  0
 20 21  1  0  0  0  0
 21 24  1  0  0  0  0
 21 22  1  0  0  0  0
 23 22  2  0  0  0  0
 25 26  2  0  0  0  0
 25 24  1  0  0  0  0
 27 29  1  0  0  0  0
 27 25  1  0  0  0  0
 28 27  1  0  0  0  0
M  END
>  <Pose>
1

>  <Score>
-6.966

$$$$
