MODEL 1
REMARK VINA RESULT:    -7.103      0.000      0.000
REMARK INTER + INTRA:          -9.940
REMARK INTER:                  -9.179
REMARK INTRA:                  -0.761
REMARK UNBOUND:                -0.761
REMARK  5 active torsions:
REMARK  status: ('A' for Active; 'I' for Inactive)
REMARK    1  A    between atoms: C_7  and  C_8 
REMARK    2  A    between atoms: N_9  and  N_10 
REMARK    3  A    between atoms: N_10  and  C_11 
REMARK    4  A    between atoms: C_13  and  N_19 
REMARK    5  A    between atoms: C_15  and  O_17 
ROOT
ATOM      1  C   UNK d   1      90.735  94.689 -46.184  0.00  0.00     0.762 A 
ATOM      2  N   UNK d   1      91.211  94.514 -44.940  0.00  0.00     0.132 NA
ATOM      3  C   UNK d   1      91.711  93.327 -44.504  0.00  0.00     0.744 A 
ATOM      4  N   UNK d   1      91.703  92.332 -45.390  0.00  0.00    -0.017 NA
ATOM      5  C   UNK d   1      91.247  92.439 -46.635  0.00  0.00     0.302 A 
ATOM      6  N   UNK d   1      90.756  93.654 -47.023  0.00  0.00    -0.016 NA
ENDROOT
BRANCH   1   7
ATOM      7  N   UNK d   1      90.216  95.967 -46.486  0.00  0.00    -0.105 N 
ATOM      8  H   UNK d   1      89.865  96.149 -47.451  0.00  0.00     0.208 HD
BRANCH   7   9
ATOM      9  N   UNK d   1      90.156  96.986 -45.557  0.00  0.00    -0.172 NA
ATOM     10  C   UNK d   1      89.132  97.536 -45.059  0.00  0.00     0.152 C 
BRANCH  10  11
ATOM     11  C   UNK d   1      89.235  98.605 -44.088  0.00  0.00     0.003 A 
ATOM     12  C   UNK d   1      88.123  99.174 -43.508  0.00  0.00     0.025 A 
ATOM     13 Br   UNK d   1      86.402  98.540 -43.987  0.00  0.00    -0.050 Br
ATOM     14  C   UNK d   1      88.254 100.197 -42.588  0.00  0.00     0.059 A 
ATOM     15  C   UNK d   1      89.500 100.697 -42.205  0.00  0.00     0.106 A 
ATOM     16  C   UNK d   1      90.632 100.129 -42.785  0.00  0.00     0.105 A 
ATOM     17  O   UNK d   1      89.926 101.687 -41.334  0.00  0.00    -0.323 OA
ATOM     18  C   UNK d   1      90.475  99.109 -43.701  0.00  0.00     0.054 A 
ATOM     19  O   UNK d   1      91.717 100.787 -42.252  0.00  0.00    -0.323 OA
ATOM     20  C   UNK d   1      91.307 101.894 -41.474  0.00  0.00     0.352 C 
ENDBRANCH  10  11
ENDBRANCH   7   9
ENDBRANCH   1   7
BRANCH   3  21
ATOM     21  N   UNK d   1      92.195  93.235 -43.197  0.00  0.00    -0.209 N 
ATOM     22  C   UNK d   1      93.513  92.714 -42.919  0.00  0.00     0.167 C 
ATOM     23  C   UNK d   1      93.961  93.082 -41.521  0.00  0.00     0.188 C 
ATOM     24  O   UNK d   1      93.534  94.284 -41.061  0.00  0.00    -0.388 OA
ATOM     25  C   UNK d   1      92.278  94.706 -41.368  0.00  0.00     0.188 C 
ATOM     26  C   UNK d   1      91.406  93.672 -42.074  0.00  0.00     0.167 C 
ENDBRANCH   3  21
BRANCH   5  27
ATOM     27  O   UNK d   1      91.253  91.385 -47.533  0.00  0.00    -0.323 OA
ATOM     28  C   UNK d   1      92.398  90.592 -47.698  0.00  0.00     0.213 C 
ENDBRANCH   5  27
TORSDOF 5
ENDMDL
