/Users/jonathanwahrer/Desktop/Msc/3_Semester/Drug_Design_Praktikum/waehrer_HTS_screening/HTS_experiment/out/docking_results/vina_output/4agl/0467_docked.pdbqt
 OpenBabel03202223283D

 28 31  0  0  1  0  0  0  0  0999 V2000
   90.7350   94.6890  -46.1840 C   0  0  1  0  0  3  0  0  0  0  0  0
   91.2110   94.5140  -44.9400 N   0  0  0  0  0  0  0  0  0  0  0  0
   91.7110   93.3270  -44.5040 C   0  0  0  0  0  0  0  0  0  0  0  0
   91.7030   92.3320  -45.3900 N   0  0  0  0  0  0  0  0  0  0  0  0
   91.2470   92.4390  -46.6350 C   0  0  0  0  0  0  0  0  0  0  0  0
   90.7560   93.6540  -47.0230 N   0  0  0  0  0  0  0  0  0  0  0  0
   90.2160   95.9670  -46.4860 N   0  0  0  0  0  0  0  0  0  0  0  0
   89.8650   96.1490  -47.4510 H   0  0  0  0  0  0  0  0  0  0  0  0
   90.1560   96.9860  -45.5570 N   0  0  0  0  0  0  0  0  0  0  0  0
   89.1320   97.5360  -45.0590 C   0  0  0  0  0  3  0  0  0  0  0  0
   89.2350   98.6050  -44.0880 C   0  0  0  0  0  0  0  0  0  0  0  0
   88.1230   99.1740  -43.5080 C   0  0  0  0  0  0  0  0  0  0  0  0
   86.4020   98.5400  -43.9870 Br  0  0  0  0  0  0  0  0  0  0  0  0
   88.2540  100.1970  -42.5880 C   0  0  0  0  0  3  0  0  0  0  0  0
   89.5000  100.6970  -42.2050 C   0  0  0  0  0  0  0  0  0  0  0  0
   90.6320  100.1290  -42.7850 C   0  0  0  0  0  0  0  0  0  0  0  0
   89.9260  101.6870  -41.3340 O   0  0  0  0  0  0  0  0  0  0  0  0
   90.4750   99.1090  -43.7010 C   0  0  0  0  0  3  0  0  0  0  0  0
   91.7170  100.7870  -42.2520 O   0  0  0  0  0  0  0  0  0  0  0  0
   91.3070  101.8940  -41.4740 C   0  0  0  0  0  2  0  0  0  0  0  0
   92.1950   93.2350  -43.1970 N   0  0  0  0  0  0  0  0  0  0  0  0
   93.5130   92.7140  -42.9190 C   0  0  0  0  0  2  0  0  0  0  0  0
   93.9610   93.0820  -41.5210 C   0  0  0  0  0  2  0  0  0  0  0  0
   93.5340   94.2840  -41.0610 O   0  0  0  0  0  0  0  0  0  0  0  0
   92.2780   94.7060  -41.3680 C   0  0  0  0  0  2  0  0  0  0  0  0
   91.4060   93.6720  -42.0740 C   0  0  0  0  0  2  0  0  0  0  0  0
   91.2530   91.3850  -47.5330 O   0  0  0  0  0  0  0  0  0  0  0  0
   92.3980   90.5920  -47.6980 C   0  0  0  0  0  1  0  0  0  0  0  0
  1  7  1  1  0  0  0
  1  2  1  0  0  0  0
  2  3  2  0  0  0  0
  3 21  1  0  0  0  0
  4  3  1  0  0  0  0
  5  4  2  0  0  0  0
  6  5  2  0  0  0  0
  6  1  1  0  0  0  0
  7  9  1  0  0  0  0
  8  7  1  0  0  0  0
  9 10  2  0  0  0  0
 10 11  1  0  0  0  0
 11 18  2  0  0  0  0
 11 12  1  0  0  0  0
 12 14  2  0  0  0  0
 13 12  1  0  0  0  0
 14 15  1  0  0  0  0
 15 17  1  0  0  0  0
 16 19  1  0  0  0  0
 16 15  2  0  0  0  0
 18 16  1  0  0  0  0
 19 20  1  0  0  0  0
 20 17  1  0  0  0  0
 21 22  1  0  0  0  0
 21 26  1  0  0  0  0
 22 23  1  0  0  0  0
 23 24  1  0  0  0  0
 25 24  1  0  0  0  0
 26 25  1  0  0  0  0
 27  5  1  0  0  0  0
 28 27  1  0  0  0  0
M  END
>  <Pose>
1

>  <Score>
-7.103

$$$$
