MODEL 1
REMARK VINA RESULT:    -7.503      0.000      0.000
REMARK INTER + INTRA:          -9.165
REMARK INTER:                  -8.819
REMARK INTRA:                  -0.347
REMARK UNBOUND:                -0.347
REMARK  3 active torsions:
REMARK  status: ('A' for Active; 'I' for Inactive)
REMARK    1  A    between atoms: C_11  and  C_13 
REMARK       I    between atoms: C_13  and  N_15 
REMARK    2  A    between atoms: N_18  and  C_21 
REMARK    3  A    between atoms: C_21  and  C_22 
ROOT
ATOM      1  C   UNK d   1      91.102  99.210 -44.036  0.00  0.00     0.277 C 
ATOM      2  O   UNK d   1      91.915  99.773 -44.825  0.00  0.00    -0.265 OA
ATOM      3  N   UNK d   1      90.028  99.952 -43.505  0.00  0.00    -0.343 N 
ATOM      4  C   UNK d   1      89.887 101.337 -43.876  0.00  0.00     0.145 C 
ATOM      5  C   UNK d   1      88.524 101.656 -44.452  0.00  0.00     0.137 C 
ATOM      6  N   UNK d   1      87.572 100.793 -43.856  0.00  0.00    -0.404 N 
ATOM      7  C   UNK d   1      87.892 100.456 -42.525  0.00  0.00     0.137 C 
ATOM      8  C   UNK d   1      89.035  99.428 -42.599  0.00  0.00     0.145 C 
ENDROOT
BRANCH   1   9
ATOM      9  C   UNK d   1      91.326  97.795 -43.715  0.00  0.00     0.147 A 
ATOM     10  C   UNK d   1      91.600  97.420 -42.420  0.00  0.00     0.098 A 
ATOM     11  C   UNK d   1      91.818  96.103 -42.072  0.00  0.00     0.187 A 
ATOM     12  C   UNK d   1      91.758  95.133 -43.055  0.00  0.00     0.048 A 
ATOM     13  O   UNK d   1      92.070  95.766 -40.869  0.00  0.00    -0.287 OA
ATOM     14  C   UNK d   1      91.481  95.572 -44.335  0.00  0.00     0.091 A 
ATOM     15  C   UNK d   1      91.971  93.814 -42.737  0.00  0.00     0.020 A 
ATOM     16  C   UNK d   1      91.423  94.594 -45.318  0.00  0.00     0.057 A 
ATOM     17  O   UNK d   1      91.282  96.838 -44.608  0.00  0.00    -0.304 OA
ATOM     18  C   UNK d   1      91.633  93.257 -45.026  0.00  0.00     0.013 A 
ATOM     19 Br   UNK d   1      91.544  91.943 -46.406  0.00  0.00    -0.051 Br
ATOM     20  C   UNK d   1      91.908  92.865 -43.729  0.00  0.00     0.020 A 
ENDBRANCH   1   9
BRANCH   6  21
ATOM     21  C   UNK d   1      87.012  99.792 -44.671  0.00  0.00     0.181 C 
BRANCH  21  22
ATOM     22  C   UNK d   1      85.731  99.253 -44.222  0.00  0.00     0.108 A 
ATOM     23  N   UNK d   1      84.792  99.936 -43.547  0.00  0.00    -0.106 NA
ATOM     24  O   UNK d   1      83.814  99.130 -43.332  0.00  0.00    -0.106 OA
ATOM     25  N   UNK d   1      84.055  97.943 -43.831  0.00  0.00    -0.108 NA
ATOM     26  C   UNK d   1      85.275  97.978 -44.411  0.00  0.00     0.088 A 
ATOM     27  C   UNK d   1      85.969  96.854 -45.109  0.00  0.00     0.075 C 
ENDBRANCH  21  22
ENDBRANCH   6  21
TORSDOF 3
ENDMDL
