/Users/jonathanwahrer/Desktop/Msc/3_Semester/Drug_Design_Praktikum/waehrer_HTS_screening/HTS_experiment/out/docking_results/vina_output/4agl/0471_docked.pdbqt
 OpenBabel03202223293D

 27 30  0  0  0  0  0  0  0  0999 V2000
   91.1020   99.2100  -44.0360 C   0  0  0  0  0  0  0  0  0  0  0  0
   91.9150   99.7730  -44.8250 O   0  0  0  0  0  0  0  0  0  0  0  0
   90.0280   99.9520  -43.5050 N   0  0  0  0  0  0  0  0  0  0  0  0
   89.8870  101.3370  -43.8760 C   0  0  0  0  0  2  0  0  0  0  0  0
   88.5240  101.6560  -44.4520 C   0  0  0  0  0  2  0  0  0  0  0  0
   87.5720  100.7930  -43.8560 N   0  0  0  0  0  0  0  0  0  0  0  0
   87.8920  100.4560  -42.5250 C   0  0  0  0  0  2  0  0  0  0  0  0
   89.0350   99.4280  -42.5990 C   0  0  0  0  0  2  0  0  0  0  0  0
   91.3260   97.7950  -43.7150 C   0  0  0  0  0  0  0  0  0  0  0  0
   91.6000   97.4200  -42.4200 C   0  0  0  0  0  3  0  0  0  0  0  0
   91.8180   96.1030  -42.0720 C   0  0  0  0  0  0  0  0  0  0  0  0
   91.7580   95.1330  -43.0550 C   0  0  0  0  0  0  0  0  0  0  0  0
   92.0700   95.7660  -40.8690 O   0  0  0  0  0  0  0  0  0  0  0  0
   91.4810   95.5720  -44.3350 C   0  0  0  0  0  0  0  0  0  0  0  0
   91.9710   93.8140  -42.7370 C   0  0  0  0  0  3  0  0  0  0  0  0
   91.4230   94.5940  -45.3180 C   0  0  0  0  0  3  0  0  0  0  0  0
   91.2820   96.8380  -44.6080 O   0  0  0  0  0  0  0  0  0  0  0  0
   91.6330   93.2570  -45.0260 C   0  0  0  0  0  0  0  0  0  0  0  0
   91.5440   91.9430  -46.4060 Br  0  0  0  0  0  0  0  0  0  0  0  0
   91.9080   92.8650  -43.7290 C   0  0  0  0  0  3  0  0  0  0  0  0
   87.0120   99.7920  -44.6710 C   0  0  0  0  0  2  0  0  0  0  0  0
   85.7310   99.2530  -44.2220 C   0  0  0  0  0  0  0  0  0  0  0  0
   84.7920   99.9360  -43.5470 N   0  0  0  0  0  0  0  0  0  0  0  0
   83.8140   99.1300  -43.3320 O   0  0  0  0  0  0  0  0  0  0  0  0
   84.0550   97.9430  -43.8310 N   0  0  0  0  0  0  0  0  0  0  0  0
   85.2750   97.9780  -44.4110 C   0  0  0  0  0  0  0  0  0  0  0  0
   85.9690   96.8540  -45.1090 C   0  0  0  0  0  1  0  0  0  0  0  0
  1  9  1  0  0  0  0
  1  3  1  0  0  0  0
  2  1  2  0  0  0  0
  3  8  1  0  0  0  0
  4  3  1  0  0  0  0
  5  4  1  0  0  0  0
  5  6  1  0  0  0  0
  6  7  1  0  0  0  0
  8  7  1  0  0  0  0
  9 10  2  0  0  0  0
 10 11  1  0  0  0  0
 11 13  2  0  0  0  0
 12 15  1  0  0  0  0
 12 11  1  0  0  0  0
 14 12  2  0  0  0  0
 16 18  2  0  0  0  0
 16 14  1  0  0  0  0
 17 14  1  0  0  0  0
 17  9  1  0  0  0  0
 18 20  1  0  0  0  0
 19 18  1  0  0  0  0
 20 15  2  0  0  0  0
 21 22  1  0  0  0  0
 21  6  1  0  0  0  0
 22 23  2  0  0  0  0
 23 24  1  0  0  0  0
 25 24  1  0  0  0  0
 26 22  1  0  0  0  0
 26 25  2  0  0  0  0
 27 26  1  0  0  0  0
M  END
>  <Pose>
1

>  <Score>
-7.503

$$$$
