MODEL 1
REMARK VINA RESULT:    -6.631      0.000      0.000
REMARK INTER + INTRA:         -10.592
REMARK INTER:                  -9.732
REMARK INTRA:                  -0.860
REMARK UNBOUND:                -0.860
REMARK  8 active torsions:
REMARK  status: ('A' for Active; 'I' for Inactive)
REMARK    1  A    between atoms: N_8  and  C_28 
REMARK    2  A    between atoms: C_11  and  N_12 
REMARK       I    between atoms: N_13  and  C_14 
REMARK    3  A    between atoms: C_14  and  C_16 
REMARK    4  A    between atoms: C_16  and  O_17 
REMARK    5  A    between atoms: O_17  and  N_18 
REMARK    6  A    between atoms: C_19  and  C_20 
REMARK    7  A    between atoms: C_23  and  O_26 
REMARK    8  A    between atoms: C_28  and  N_29 
ROOT
ATOM      1 Br   UNK d   1      86.006  97.704 -44.754  0.00  0.00    -0.051 Br
ATOM      2  C   UNK d   1      87.759  98.439 -44.581  0.00  0.00     0.011 A 
ATOM      3  C   UNK d   1      88.895  97.740 -45.014  0.00  0.00     0.035 A 
ATOM      4  C   UNK d   1      90.097  98.367 -44.849  0.00  0.00     0.028 A 
ATOM      5  C   UNK d   1      90.247  99.618 -44.289  0.00  0.00     0.052 A 
ATOM      6  C   UNK d   1      89.131 100.300 -43.859  0.00  0.00     0.032 A 
ATOM      7  C   UNK d   1      87.877  99.691 -44.018  0.00  0.00     0.021 A 
ATOM      8  N   UNK d   1      91.610 100.020 -44.243  0.00  0.00    -0.295 N 
ATOM      9  C   UNK d   1      92.370  98.923 -44.814  0.00  0.00     0.281 A 
ATOM     10  O   UNK d   1      93.610  98.909 -44.961  0.00  0.00    -0.265 OA
ATOM     11  C   UNK d   1      91.410  97.902 -45.170  0.00  0.00     0.157 A 
ENDROOT
BRANCH  11  12
ATOM     12  N   UNK d   1      91.629  96.705 -45.555  0.00  0.00    -0.166 NA
ATOM     13  N   UNK d   1      91.666  95.573 -45.273  0.00  0.00    -0.244 N 
ATOM     14  C   UNK d   1      91.718  94.208 -44.913  0.00  0.00     0.264 C 
ATOM     15  H   UNK d   1      92.329  95.823 -44.079  0.00  0.00     0.192 HD
ATOM     16  O   UNK d   1      92.090  93.638 -43.911  0.00  0.00    -0.269 OA
BRANCH  14  17
ATOM     17  C   UNK d   1      91.196  93.352 -46.089  0.00  0.00     0.308 C 
BRANCH  17  18
ATOM     18  O   UNK d   1      91.914  92.106 -45.958  0.00  0.00    -0.247 OA
BRANCH  18  19
ATOM     19  N   UNK d   1      91.452  91.068 -46.816  0.00  0.00    -0.145 NA
ATOM     20  C   UNK d   1      91.106  91.305 -48.021  0.00  0.00     0.157 C 
BRANCH  20  21
ATOM     21  C   UNK d   1      90.626  90.237 -48.867  0.00  0.00    -0.016 A 
ATOM     22  C   UNK d   1      89.438  90.222 -49.518  0.00  0.00     0.015 A 
ATOM     23  C   UNK d   1      89.126  89.041 -50.238  0.00  0.00     0.037 A 
ATOM     24  C   UNK d   1      89.881  87.950 -50.354  0.00  0.00     0.068 A 
ATOM     25  C   UNK d   1      91.059  88.016 -49.690  0.00  0.00     0.037 A 
ATOM     26  C   UNK d   1      91.524  89.035 -48.950  0.00  0.00     0.015 A 
BRANCH  24  27
ATOM     27  O   UNK d   1      89.449  86.853 -51.108  0.00  0.00    -0.356 OA
ATOM     28  C   UNK d   1      88.678  87.041 -52.288  0.00  0.00     0.210 C 
ENDBRANCH  24  27
ENDBRANCH  20  21
ENDBRANCH  18  19
ENDBRANCH  17  18
ENDBRANCH  14  17
ENDBRANCH  11  12
BRANCH   8  29
ATOM     29  C   UNK d   1      92.250 101.251 -43.809  0.00  0.00     0.253 C 
BRANCH  29  30
ATOM     30  N   UNK d   1      92.923 101.092 -42.615  0.00  0.00    -0.392 N 
ATOM     31  C   UNK d   1      93.909 102.074 -42.413  0.00  0.00     0.145 C 
ATOM     32  C   UNK d   1      93.831 102.593 -40.975  0.00  0.00     0.187 C 
ATOM     33  O   UNK d   1      92.460 102.943 -40.833  0.00  0.00    -0.388 OA
ATOM     34  C   UNK d   1      91.704 101.775 -40.668  0.00  0.00     0.187 C 
ATOM     35  C   UNK d   1      92.178 100.633 -41.513  0.00  0.00     0.145 C 
ENDBRANCH  29  30
ENDBRANCH   8  29
TORSDOF 8
ENDMDL
