/Users/jonathanwahrer/Desktop/Msc/3_Semester/Drug_Design_Praktikum/waehrer_HTS_screening/HTS_experiment/out/docking_results/vina_output/4agl/0484_docked.pdbqt
 OpenBabel03202223303D

 35 38  0  0  1  0  0  0  0  0999 V2000
   86.0060   97.7040  -44.7540 Br  0  0  0  0  0  0  0  0  0  0  0  0
   87.7590   98.4390  -44.5810 C   0  0  0  0  0  0  0  0  0  0  0  0
   88.8950   97.7400  -45.0140 C   0  0  0  0  0  3  0  0  0  0  0  0
   90.0970   98.3670  -44.8490 C   0  0  0  0  0  0  0  0  0  0  0  0
   90.2470   99.6180  -44.2890 C   0  0  0  0  0  0  0  0  0  0  0  0
   89.1310  100.3000  -43.8590 C   0  0  0  0  0  3  0  0  0  0  0  0
   87.8770   99.6910  -44.0180 C   0  0  0  0  0  3  0  0  0  0  0  0
   91.6100  100.0200  -44.2430 N   0  0  0  0  0  0  0  0  0  0  0  0
   92.3700   98.9230  -44.8140 C   0  0  0  0  0  0  0  0  0  0  0  0
   93.6100   98.9090  -44.9610 O   0  0  0  0  0  0  0  0  0  0  0  0
   91.4100   97.9020  -45.1700 C   0  0  1  0  0  3  0  0  0  0  0  0
   91.6290   96.7050  -45.5550 N   0  0  0  0  0  2  0  0  0  0  0  0
   91.6660   95.5730  -45.2730 N   0  0  0  0  0  0  0  0  0  0  0  0
   91.7180   94.2080  -44.9130 C   0  0  0  0  0  0  0  0  0  0  0  0
   92.3290   95.8230  -44.0790 H   0  0  0  0  0  0  0  0  0  0  0  0
   92.0900   93.6380  -43.9110 O   0  0  0  0  0  0  0  0  0  0  0  0
   91.1960   93.3520  -46.0890 C   0  0  0  0  0  2  0  0  0  0  0  0
   91.9140   92.1060  -45.9580 O   0  0  0  0  0  0  0  0  0  0  0  0
   91.4520   91.0680  -46.8160 N   0  0  0  0  0  0  0  0  0  0  0  0
   91.1060   91.3050  -48.0210 C   0  0  0  0  0  3  0  0  0  0  0  0
   90.6260   90.2370  -48.8670 C   0  0  0  0  0  0  0  0  0  0  0  0
   89.4380   90.2220  -49.5180 C   0  0  0  0  0  3  0  0  0  0  0  0
   89.1260   89.0410  -50.2380 C   0  0  0  0  0  3  0  0  0  0  0  0
   89.8810   87.9500  -50.3540 C   0  0  0  0  0  0  0  0  0  0  0  0
   91.0590   88.0160  -49.6900 C   0  0  0  0  0  3  0  0  0  0  0  0
   91.5240   89.0350  -48.9500 C   0  0  0  0  0  3  0  0  0  0  0  0
   89.4490   86.8530  -51.1080 O   0  0  0  0  0  0  0  0  0  0  0  0
   88.6780   87.0410  -52.2880 C   0  0  0  0  0  1  0  0  0  0  0  0
   92.2500  101.2510  -43.8090 C   0  0  0  0  0  2  0  0  0  0  0  0
   92.9230  101.0920  -42.6150 N   0  0  0  0  0  0  0  0  0  0  0  0
   93.9090  102.0740  -42.4130 C   0  0  0  0  0  2  0  0  0  0  0  0
   93.8310  102.5930  -40.9750 C   0  0  0  0  0  2  0  0  0  0  0  0
   92.4600  102.9430  -40.8330 O   0  0  0  0  0  0  0  0  0  0  0  0
   91.7040  101.7750  -40.6680 C   0  0  0  0  0  2  0  0  0  0  0  0
   92.1780  100.6330  -41.5130 C   0  0  0  0  0  2  0  0  0  0  0  0
  1  2  1  0  0  0  0
  2  7  1  0  0  0  0
  3  4  1  0  0  0  0
  3  2  2  0  0  0  0
  4  5  2  0  0  0  0
  5  8  1  0  0  0  0
  5  6  1  0  0  0  0
  7  6  2  0  0  0  0
  8 29  1  0  0  0  0
  9  8  1  0  0  0  0
 10  9  2  0  0  0  0
 11 12  1  1  0  0  0
 11  4  1  0  0  0  0
 11  9  1  0  0  0  0
 12 13  1  0  0  0  0
 13 14  1  0  0  0  0
 13 15  1  0  0  0  0
 14 16  2  0  0  0  0
 17 18  1  0  0  0  0
 17 14  1  0  0  0  0
 19 18  1  0  0  0  0
 20 19  2  0  0  0  0
 21 20  1  0  0  0  0
 22 21  2  0  0  0  0
 23 22  1  0  0  0  0
 24 23  2  0  0  0  0
 24 25  1  0  0  0  0
 25 26  2  0  0  0  0
 26 21  1  0  0  0  0
 27 24  1  0  0  0  0
 28 27  1  0  0  0  0
 29 30  1  0  0  0  0
 30 31  1  0  0  0  0
 30 35  1  0  0  0  0
 31 32  1  0  0  0  0
 32 33  1  0  0  0  0
 33 34  1  0  0  0  0
 35 34  1  0  0  0  0
M  END
>  <Pose>
1

>  <Score>
-6.631

$$$$
