MODEL 1
REMARK VINA RESULT:    -6.329      0.000      0.000
REMARK INTER + INTRA:          -6.514
REMARK INTER:                  -6.514
REMARK INTRA:                   0.000
REMARK UNBOUND:                 0.000
REMARK  1 active torsions:
REMARK  status: ('A' for Active; 'I' for Inactive)
REMARK    1  A    between atoms: C_19  and  N_23 
ROOT
ATOM      1 Br   UNK d   1      85.107  98.307 -43.897  0.00  0.00    -0.051 Br
ATOM      2  C   UNK d   1      86.789  98.649 -44.773  0.00  0.00     0.011 A 
ATOM      3  C   UNK d   1      87.946  98.058 -44.338  0.00  0.00     0.030 A 
ATOM      4  C   UNK d   1      89.138  98.317 -44.981  0.00  0.00    -0.002 A 
ATOM      5  C   UNK d   1      89.110  99.172 -46.049  0.00  0.00     0.045 A 
ATOM      6  C   UNK d   1      87.919  99.779 -46.497  0.00  0.00     0.031 A 
ATOM      7  C   UNK d   1      86.745  99.510 -45.846  0.00  0.00     0.021 A 
ATOM      8  N   UNK d   1      90.411  99.339 -46.606  0.00  0.00    -0.320 N 
ATOM      9  C   UNK d   1      91.302  98.558 -45.859  0.00  0.00     0.247 A 
ATOM     10  O   UNK d   1      92.549  98.465 -46.074  0.00  0.00    -0.271 OA
ATOM     11  C   UNK d   1      90.532  97.856 -44.772  0.00  0.00     0.145 A 
ATOM     12  C   UNK d   1      90.707  96.429 -45.017  0.00  0.00     0.049 A 
ATOM     13  C   UNK d   1      91.347  95.632 -44.120  0.00  0.00     0.200 A 
ATOM     14  N   UNK d   1      91.339  94.371 -44.643  0.00  0.00    -0.148 NA
ATOM     15  N   UNK d   1      90.729  94.366 -45.810  0.00  0.00    -0.280 N 
ATOM     16  C   UNK d   1      90.324  95.605 -46.080  0.00  0.00     0.036 A 
ATOM     17  C   UNK d   1      89.588  96.121 -47.276  0.00  0.00     0.070 C 
ATOM     18  O   UNK d   1      91.874  96.116 -42.917  0.00  0.00    -0.272 OA
ATOM     19  C   UNK d   1      91.706  97.478 -42.688  0.00  0.00     0.162 A 
ATOM     20  C   UNK d   1      91.101  98.294 -43.511  0.00  0.00     0.100 A 
ATOM     21  C   UNK d   1      91.015  99.707 -43.104  0.00  0.00     0.101 C 
ATOM     22  N   UNK d   1      90.935 100.832 -42.801  0.00  0.00    -0.191 NA
ATOM     23  C   UNK d   1      90.769 100.180 -47.758  0.00  0.00     0.159 C 
ATOM     24  H   UNK d   1      90.561  93.554 -46.458  0.00  0.00     0.189 HD
ENDROOT
BRANCH  19  25
ATOM     25  N   UNK d   1      92.233  98.039 -41.453  0.00  0.00    -0.379 N 
ATOM     26  H   UNK d   1      93.163  97.671 -41.171  0.00  0.00     0.158 HD
ATOM     27  H   UNK d   1      91.742  98.737 -40.898  0.00  0.00     0.158 HD
ENDBRANCH  19  25
TORSDOF 1
ENDMDL
