MODEL 1
REMARK VINA RESULT:    -5.815      0.000      0.000
REMARK INTER + INTRA:          -5.985
REMARK INTER:                  -5.985
REMARK INTRA:                   0.000
REMARK UNBOUND:                 0.000
REMARK  1 active torsions:
REMARK  status: ('A' for Active; 'I' for Inactive)
REMARK    1  A    between atoms: C_15  and  N_19 
ROOT
ATOM      1 Br   UNK d   1      85.534  99.148 -43.982  0.00  0.00    -0.051 Br
ATOM      2  C   UNK d   1      87.154  99.372 -44.949  0.00  0.00     0.011 A 
ATOM      3  C   UNK d   1      88.394  99.283 -44.365  0.00  0.00     0.030 A 
ATOM      4  C   UNK d   1      89.537  99.459 -45.144  0.00  0.00    -0.002 A 
ATOM      5  C   UNK d   1      89.495  99.718 -46.473  0.00  0.00     0.045 A 
ATOM      6  C   UNK d   1      88.234  99.808 -47.067  0.00  0.00     0.031 A 
ATOM      7  C   UNK d   1      87.095  99.637 -46.313  0.00  0.00     0.021 A 
ATOM      8  N   UNK d   1      90.788  99.854 -47.032  0.00  0.00    -0.320 N 
ATOM      9  C   UNK d   1      91.720  99.670 -45.992  0.00  0.00     0.247 A 
ATOM     10  O   UNK d   1      92.976  99.718 -46.103  0.00  0.00    -0.271 OA
ATOM     11  C   UNK d   1      90.976  99.407 -44.729  0.00  0.00     0.146 A 
ATOM     12  C   UNK d   1      91.247 100.477 -43.736  0.00  0.00     0.071 A 
ATOM     13  C   UNK d   1      91.650 100.227 -42.542  0.00  0.00     0.060 A 
ATOM     14  N   UNK d   1      91.877  98.875 -42.056  0.00  0.00    -0.342 N 
ATOM     15  C   UNK d   1      91.621  97.848 -42.991  0.00  0.00     0.118 A 
ATOM     16  C   UNK d   1      91.212  98.079 -44.208  0.00  0.00     0.093 A 
ATOM     17  C   UNK d   1      90.991  96.918 -45.062  0.00  0.00     0.101 C 
ATOM     18  N   UNK d   1      90.810  96.008 -45.756  0.00  0.00    -0.191 NA
ATOM     19  C   UNK d   1      91.824 101.521 -41.813  0.00  0.00     0.106 A 
ATOM     20  O   UNK d   1      91.479 102.501 -42.720  0.00  0.00    -0.301 OA
ATOM     21  C   UNK d   1      91.115 101.959 -43.915  0.00  0.00     0.294 A 
ATOM     22  O   UNK d   1      90.737 102.522 -44.986  0.00  0.00    -0.259 OA
ATOM     23  C   UNK d   1      93.248 101.641 -41.305  0.00  0.00     0.053 C 
ATOM     24  C   UNK d   1      90.867 101.607 -40.639  0.00  0.00     0.053 C 
ATOM     25  C   UNK d   1      91.137 100.136 -48.432  0.00  0.00     0.159 C 
ATOM     26  H   UNK d   1      92.201  98.730 -41.085  0.00  0.00     0.167 HD
ENDROOT
BRANCH  15  27
ATOM     27  N   UNK d   1      91.831  96.475 -42.560  0.00  0.00    -0.384 N 
ATOM     28  H   UNK d   1      92.477  96.328 -41.758  0.00  0.00     0.157 HD
ATOM     29  H   UNK d   1      91.364  95.686 -43.028  0.00  0.00     0.157 HD
ENDBRANCH  15  27
TORSDOF 1
ENDMDL
