/Users/jonathanwahrer/Desktop/Msc/3_Semester/Drug_Design_Praktikum/waehrer_HTS_screening/HTS_experiment/out/docking_results/vina_output/4agl/0513_docked.pdbqt
 OpenBabel03202223313D

 33 36  0  0  0  0  0  0  0  0999 V2000
   92.1960   97.9780  -41.9720 N   0  0  0  0  0  0  0  0  0  0  0  0
   91.4340   98.9640  -42.6550 C   0  0  0  0  0  0  0  0  0  0  0  0
   90.2020   98.8160  -42.6730 O   0  0  0  0  0  0  0  0  0  0  0  0
   93.2320   98.0970  -41.9700 H   0  0  0  0  0  0  0  0  0  0  0  0
   91.6400   96.8880  -41.3290 N   0  0  0  0  0  0  0  0  0  0  0  0
   90.7040   96.9860  -40.8480 H   0  0  0  0  0  0  0  0  0  0  0  0
   92.2350   95.6210  -41.2620 C   0  0  0  0  0  3  0  0  0  0  0  0
   92.2470   94.7350  -42.2340 C   0  0  0  0  0  0  0  0  0  0  0  0
   91.6700   94.8270  -43.5790 C   0  0  0  0  0  0  0  0  0  0  0  0
   92.8660   93.4010  -42.1800 C   0  0  0  0  0  0  0  0  0  0  0  0
   90.9700   95.8200  -44.2280 C   0  0  0  0  0  3  0  0  0  0  0  0
   91.9080   93.6710  -44.2860 C   0  0  0  0  0  0  0  0  0  0  0  0
   90.5080   95.6980  -45.5380 C   0  0  0  0  0  0  0  0  0  0  0  0
   89.5460   97.1290  -46.3690 Br  0  0  0  0  0  0  0  0  0  0  0  0
   90.7650   94.5300  -46.2090 C   0  0  0  0  0  3  0  0  0  0  0  0
   91.4580   93.5130  -45.6050 C   0  0  0  0  0  3  0  0  0  0  0  0
   92.6380   92.7950  -43.4390 N   0  0  0  0  0  0  0  0  0  0  0  0
   92.9660   91.8340  -43.6950 H   0  0  0  0  0  0  0  0  0  0  0  0
   93.4700   92.9340  -41.1830 O   0  0  0  0  0  0  0  0  0  0  0  0
   92.0400  100.1350  -43.3260 C   0  0  0  0  0  2  0  0  0  0  0  0
   92.0860   99.9930  -44.7060 N   0  0  0  0  0  0  0  0  0  0  0  0
   91.3540  100.5240  -45.6840 C   0  0  0  0  0  0  0  0  0  0  0  0
   91.7770   99.9990  -46.8980 C   0  0  0  0  0  0  0  0  0  0  0  0
   90.3600  101.4340  -45.6160 N   0  0  0  0  0  0  0  0  0  0  0  0
   92.7780   99.1420  -46.6200 N   0  0  0  0  0  0  0  0  0  0  0  0
   91.1750  100.4030  -48.0730 C   0  0  0  0  0  0  0  0  0  0  0  0
   92.9640   99.1380  -45.3190 C   0  0  0  0  0  3  0  0  0  0  0  0
   91.5780   99.9070  -49.1560 O   0  0  0  0  0  0  0  0  0  0  0  0
   90.2000  101.2950  -47.9850 N   0  0  0  0  0  0  0  0  0  0  0  0
   89.8000  101.7990  -46.8040 C   0  0  0  0  0  0  0  0  0  0  0  0
   89.5230  101.7580  -49.2070 C   0  0  0  0  0  1  0  0  0  0  0  0
   88.8740  102.6430  -46.7660 O   0  0  0  0  0  0  0  0  0  0  0  0
   89.9360  102.0180  -44.3760 C   0  0  0  0  0  1  0  0  0  0  0  0
  1  4  1  0  0  0  0
  1  5  1  0  0  0  0
  2  1  1  0  0  0  0
  3  2  2  0  0  0  0
  5  7  1  0  0  0  0
  5  6  1  0  0  0  0
  8 10  1  0  0  0  0
  8  7  2  0  0  0  0
  9  8  1  0  0  0  0
 10 19  2  0  0  0  0
 11  9  1  0  0  0  0
 12  9  2  0  0  0  0
 12 17  1  0  0  0  0
 13 11  2  0  0  0  0
 14 13  1  0  0  0  0
 15 16  2  0  0  0  0
 15 13  1  0  0  0  0
 16 12  1  0  0  0  0
 17 10  1  0  0  0  0
 18 17  1  0  0  0  0
 20  2  1  0  0  0  0
 21 20  1  0  0  0  0
 22 24  1  0  0  0  0
 22 21  1  0  0  0  0
 23 25  1  0  0  0  0
 23 22  2  0  0  0  0
 24 33  1  0  0  0  0
 25 27  2  0  0  0  0
 26 29  1  0  0  0  0
 26 23  1  0  0  0  0
 27 21  1  0  0  0  0
 28 26  2  0  0  0  0
 29 30  1  0  0  0  0
 30 32  2  0  0  0  0
 30 24  1  0  0  0  0
 31 29  1  0  0  0  0
M  END
>  <Pose>
1

>  <Score>
-7.282

$$$$
