MODEL 1
REMARK VINA RESULT:    -7.526      0.000      0.000
REMARK INTER + INTRA:          -9.868
REMARK INTER:                  -9.286
REMARK INTRA:                  -0.582
REMARK UNBOUND:                -0.582
REMARK  4 active torsions:
REMARK  status: ('A' for Active; 'I' for Inactive)
REMARK    1  A    between atoms: N_12  and  N_13 
REMARK       I    between atoms: N_13  and  C_14 
REMARK    2  A    between atoms: C_14  and  C_16 
REMARK    3  A    between atoms: C_16  and  N_17 
REMARK       I    between atoms: N_17  and  C_18 
REMARK    4  A    between atoms: C_18  and  C_20 
ROOT
ATOM      1  N   UNK d   1      91.085  98.609 -42.382  0.00  0.00    -0.245 N 
ATOM      2  C   UNK d   1      89.953  99.325 -42.814  0.00  0.00     0.255 C 
ATOM      3  O   UNK d   1      89.136  98.741 -43.610  0.00  0.00    -0.270 OA
ATOM      4  H   UNK d   1      91.775  99.082 -41.736  0.00  0.00     0.192 HD
ENDROOT
BRANCH   2   5
ATOM      5  C   UNK d   1      89.572 100.694 -42.452  0.00  0.00     0.227 C 
BRANCH   5   6
ATOM      6  N   UNK d   1      90.079 101.186 -41.203  0.00  0.00    -0.348 N 
ATOM      7  C   UNK d   1      91.394 101.719 -41.087  0.00  0.00     0.252 C 
ATOM      8  O   UNK d   1      92.093 101.723 -42.174  0.00  0.00    -0.268 OA
ATOM      9  H   UNK d   1      89.522 101.159 -40.335  0.00  0.00     0.163 HD
BRANCH   7  10
ATOM     10  C   UNK d   1      92.000 102.236 -39.899  0.00  0.00     0.034 A 
ATOM     11  C   UNK d   1      93.342 102.125 -39.567  0.00  0.00     0.056 A 
ATOM     12  C   UNK d   1      93.855 102.646 -38.428  0.00  0.00     0.106 A 
ATOM     13  C   UNK d   1      93.054 103.322 -37.530  0.00  0.00     0.105 A 
ATOM     14  O   UNK d   1      95.171 102.696 -37.836  0.00  0.00    -0.323 OA
ATOM     15  C   UNK d   1      91.731 103.452 -37.812  0.00  0.00     0.041 A 
ATOM     16  O   UNK d   1      93.853 103.753 -36.458  0.00  0.00    -0.323 OA
ATOM     17  C   UNK d   1      91.182 102.922 -38.989  0.00  0.00     0.020 A 
ATOM     18  C   UNK d   1      95.131 103.972 -37.103  0.00  0.00     0.352 C 
ENDBRANCH   7  10
ENDBRANCH   5   6
ENDBRANCH   2   5
BRANCH   1  19
ATOM     19  N   UNK d   1      91.287  97.339 -42.788  0.00  0.00    -0.166 NA
ATOM     20  C   UNK d   1      91.730  96.294 -42.427  0.00  0.00     0.157 A 
ATOM     21  C   UNK d   1      91.840  94.990 -43.093  0.00  0.00     0.028 A 
ATOM     22  C   UNK d   1      92.293  96.139 -41.052  0.00  0.00     0.277 A 
ATOM     23  C   UNK d   1      91.472  94.596 -44.361  0.00  0.00     0.035 A 
ATOM     24  C   UNK d   1      92.416  94.137 -42.205  0.00  0.00     0.048 A 
ATOM     25  C   UNK d   1      91.670  93.317 -44.796  0.00  0.00     0.011 A 
ATOM     26 Br   UNK d   1      91.174  92.759 -46.541  0.00  0.00    -0.051 Br
ATOM     27  C   UNK d   1      92.258  92.428 -43.904  0.00  0.00     0.021 A 
ATOM     28  C   UNK d   1      92.623  92.825 -42.643  0.00  0.00     0.032 A 
ATOM     29  N   UNK d   1      92.702  94.771 -40.977  0.00  0.00    -0.321 N 
ATOM     30  H   UNK d   1      93.146  94.348 -40.127  0.00  0.00     0.169 HD
ATOM     31  O   UNK d   1      92.355  97.048 -40.222  0.00  0.00    -0.266 OA
ENDBRANCH   1  19
TORSDOF 4
ENDMDL
