MODEL 1
REMARK VINA RESULT:    -6.781      0.000      0.000
REMARK INTER + INTRA:          -7.792
REMARK INTER:                  -7.574
REMARK INTRA:                  -0.218
REMARK UNBOUND:                -0.218
REMARK  2 active torsions:
REMARK  status: ('A' for Active; 'I' for Inactive)
REMARK    1  A    between atoms: N_18  and  C_21 
REMARK    2  A    between atoms: C_21  and  C_22 
ROOT
ATOM      1 Br   UNK d   1      95.246 103.220 -40.200  0.00  0.00    -0.051 Br
ATOM      2  C   UNK d   1      93.583 102.402 -40.653  0.00  0.00     0.011 A 
ATOM      3  C   UNK d   1      93.350 101.847 -41.905  0.00  0.00     0.031 A 
ATOM      4  C   UNK d   1      92.154 101.261 -42.224  0.00  0.00     0.019 A 
ATOM      5  C   UNK d   1      91.175 101.242 -41.242  0.00  0.00     0.044 A 
ATOM      6  C   UNK d   1      91.400 101.791 -39.997  0.00  0.00     0.031 A 
ATOM      7  C   UNK d   1      92.605 102.377 -39.689  0.00  0.00     0.021 A 
ATOM      8  N   UNK d   1      89.999 100.595 -41.732  0.00  0.00    -0.324 N 
ATOM      9  C   UNK d   1      90.229 100.189 -43.065  0.00  0.00     0.267 A 
ATOM     10  O   UNK d   1      89.399  99.594 -43.767  0.00  0.00    -0.270 OA
ATOM     11  C   UNK d   1      91.604 100.609 -43.409  0.00  0.00     0.281 A 
ATOM     12  N   UNK d   1      91.516 101.417 -44.589  0.00  0.00     0.118 N 
ATOM     13  C   UNK d   1      91.296 100.451 -45.664  0.00  0.00     0.239 C 
ATOM     14  C   UNK d   1      92.023  99.209 -45.270  0.00  0.00     0.128 C 
ATOM     15  C   UNK d   1      92.462  99.457 -43.868  0.00  0.00     0.147 C 
ATOM     16  C   UNK d   1      92.191  98.209 -43.161  0.00  0.00     0.235 C 
ATOM     17  O   UNK d   1      92.539  97.929 -41.992  0.00  0.00    -0.272 OA
ATOM     18  N   UNK d   1      91.464  97.346 -44.000  0.00  0.00    -0.285 N 
ATOM     19  C   UNK d   1      91.125  98.010 -45.227  0.00  0.00     0.233 C 
ATOM     20  O   UNK d   1      90.272  97.688 -46.091  0.00  0.00    -0.272 OA
ATOM     21  C   UNK d   1      91.986 101.039 -46.885  0.00  0.00     0.038 C 
ATOM     22  C   UNK d   1      92.551 102.373 -46.443  0.00  0.00     0.032 C 
ATOM     23  C   UNK d   1      92.739 102.106 -44.944  0.00  0.00     0.275 C 
ATOM     24  H   UNK d   1      89.109 100.455 -41.169  0.00  0.00     0.169 HD
ENDROOT
BRANCH  18  25
ATOM     25  C   UNK d   1      91.098  95.997 -43.705  0.00  0.00     0.166 C 
BRANCH  25  26
ATOM     26  C   UNK d   1      91.585  94.981 -44.672  0.00  0.00     0.140 C 
ATOM     27  O   UNK d   1      90.660  94.651 -45.656  0.00  0.00    -0.384 OA
ATOM     28  C   UNK d   1      91.222  93.544 -46.277  0.00  0.00     0.168 C 
ATOM     29  C   UNK d   1      91.906  92.720 -45.232  0.00  0.00     0.029 C 
ATOM     30  C   UNK d   1      92.073  93.705 -44.075  0.00  0.00     0.035 C 
ENDBRANCH  25  26
ENDBRANCH  18  25
TORSDOF 2
ENDMDL
