/Users/jonathanwahrer/Desktop/Msc/3_Semester/Drug_Design_Praktikum/waehrer_HTS_screening/HTS_experiment/out/docking_results/vina_output/4agl/0550_docked.pdbqt
 OpenBabel03202223323D

 30 35  0  0  1  0  0  0  0  0999 V2000
   95.2460  103.2200  -40.2000 Br  0  0  0  0  0  0  0  0  0  0  0  0
   93.5830  102.4020  -40.6530 C   0  0  0  0  0  0  0  0  0  0  0  0
   93.3500  101.8470  -41.9050 C   0  0  0  0  0  3  0  0  0  0  0  0
   92.1540  101.2610  -42.2240 C   0  0  0  0  0  0  0  0  0  0  0  0
   91.1750  101.2420  -41.2420 C   0  0  0  0  0  0  0  0  0  0  0  0
   91.4000  101.7910  -39.9970 C   0  0  0  0  0  3  0  0  0  0  0  0
   92.6050  102.3770  -39.6890 C   0  0  0  0  0  3  0  0  0  0  0  0
   89.9990  100.5950  -41.7320 N   0  0  0  0  0  0  0  0  0  0  0  0
   90.2290  100.1890  -43.0650 C   0  0  0  0  0  0  0  0  0  0  0  0
   89.3990   99.5940  -43.7670 O   0  0  0  0  0  0  0  0  0  0  0  0
   91.6040  100.6090  -43.4090 C   0  0  1  0  0  0  0  0  0  0  0  0
   91.5160  101.4170  -44.5890 N   0  0  2  0  0  0  0  0  0  0  0  0
   91.2960  100.4510  -45.6640 C   0  0  2  0  0  3  0  0  0  0  0  0
   92.0230   99.2090  -45.2700 C   0  0  1  0  0  3  0  0  0  0  0  0
   92.4620   99.4570  -43.8680 C   0  0  2  0  0  3  0  0  0  0  0  0
   92.1910   98.2090  -43.1610 C   0  0  0  0  0  0  0  0  0  0  0  0
   92.5390   97.9290  -41.9920 O   0  0  0  0  0  0  0  0  0  0  0  0
   91.4640   97.3460  -44.0000 N   0  0  0  0  0  0  0  0  0  0  0  0
   91.1250   98.0100  -45.2270 C   0  0  0  0  0  0  0  0  0  0  0  0
   90.2720   97.6880  -46.0910 O   0  0  0  0  0  0  0  0  0  0  0  0
   91.9860  101.0390  -46.8850 C   0  0  0  0  0  2  0  0  0  0  0  0
   92.5510  102.3730  -46.4430 C   0  0  0  0  0  2  0  0  0  0  0  0
   92.7390  102.1060  -44.9440 C   0  0  0  0  0  2  0  0  0  0  0  0
   89.1090  100.4550  -41.1690 H   0  0  0  0  0  0  0  0  0  0  0  0
   91.0980   95.9970  -43.7050 C   0  0  0  0  0  2  0  0  0  0  0  0
   91.5850   94.9810  -44.6720 C   0  0  2  0  0  3  0  0  0  0  0  0
   90.6600   94.6510  -45.6560 O   0  0  0  0  0  0  0  0  0  0  0  0
   91.2220   93.5440  -46.2770 C   0  0  0  0  0  2  0  0  0  0  0  0
   91.9060   92.7200  -45.2320 C   0  0  0  0  0  2  0  0  0  0  0  0
   92.0730   93.7050  -44.0750 C   0  0  0  0  0  2  0  0  0  0  0  0
  2  1  1  0  0  0  0
  2  7  1  0  0  0  0
  3  2  2  0  0  0  0
  4  3  1  0  0  0  0
  4  5  2  0  0  0  0
  5  6  1  0  0  0  0
  6  7  2  0  0  0  0
  8  5  1  0  0  0  0
  8 24  1  0  0  0  0
  9  8  1  0  0  0  0
 10  9  2  0  0  0  0
 11  9  1  1  0  0  0
 11  4  1  0  0  0  0
 12 23  1  6  0  0  0
 12 11  1  0  0  0  0
 13 21  1  6  0  0  0
 13 14  1  0  0  0  0
 13 12  1  0  0  0  0
 14 19  1  1  0  0  0
 14 15  1  0  0  0  0
 15 11  1  0  0  0  0
 15 16  1  1  0  0  0
 16 17  2  0  0  0  0
 18 25  1  0  0  0  0
 18 16  1  0  0  0  0
 19 18  1  0  0  0  0
 20 19  2  0  0  0  0
 21 22  1  0  0  0  0
 22 23  1  0  0  0  0
 26 30  1  0  0  0  0
 26 25  1  1  0  0  0
 27 26  1  0  0  0  0
 28 27  1  0  0  0  0
 28 29  1  0  0  0  0
 29 30  1  0  0  0  0
M  END
>  <Pose>
1

>  <Score>
-6.781

$$$$
