/Users/jonathanwahrer/Desktop/Msc/3_Semester/Drug_Design_Praktikum/waehrer_HTS_screening/HTS_experiment/out/docking_results/vina_output/4agl/0556_docked.pdbqt
 OpenBabel03202223323D

 30 33  0  0  1  0  0  0  0  0999 V2000
   85.3410   98.3940  -43.9700 Br  0  0  0  0  0  0  0  0  0  0  0  0
   86.9980   98.6930  -44.8640 C   0  0  0  0  0  0  0  0  0  0  0  0
   88.1040   98.0470  -44.3690 C   0  0  0  0  0  3  0  0  0  0  0  0
   89.3430   98.2350  -44.9920 C   0  0  0  0  0  0  0  0  0  0  0  0
   89.4240   99.0530  -46.0710 C   0  0  0  0  0  0  0  0  0  0  0  0
   88.3030   99.7240  -46.5950 C   0  0  0  0  0  3  0  0  0  0  0  0
   87.1000   99.5210  -45.9630 C   0  0  0  0  0  3  0  0  0  0  0  0
   90.7540   99.1160  -46.5520 N   0  0  0  0  0  0  0  0  0  0  0  0
   91.5380   98.3010  -45.7330 C   0  0  0  0  0  0  0  0  0  0  0  0
   92.8090   98.0920  -45.8290 O   0  0  0  0  0  0  0  0  0  0  0  0
   90.6570   97.6870  -44.6950 C   0  0  2  0  0  0  0  0  0  0  0  0
   90.8170   96.2630  -44.8300 C   0  0  0  0  0  0  0  0  0  0  0  0
   91.4120   95.5310  -43.8710 C   0  0  0  0  0  0  0  0  0  0  0  0
   91.4040   94.2270  -44.3030 N   0  0  0  0  0  0  0  0  0  0  0  0
   90.8230   94.1800  -45.4820 N   0  0  0  0  0  0  0  0  0  0  0  0
   90.4350   95.3950  -45.8730 C   0  0  0  0  0  0  0  0  0  0  0  0
   89.7430   95.7900  -47.1340 C   0  0  0  0  0  1  0  0  0  0  0  0
   91.9190   96.0820  -42.6800 O   0  0  0  0  0  0  0  0  0  0  0  0
   91.7730   97.4550  -42.5310 C   0  0  0  0  0  0  0  0  0  0  0  0
   91.2090   98.2120  -43.4230 C   0  0  0  0  0  0  0  0  0  0  0  0
   91.1250   99.6690  -47.3770 H   0  0  0  0  0  0  0  0  0  0  0  0
   91.7970   93.4110  -43.7790 H   0  0  0  0  0  0  0  0  0  0  0  0
   91.1030   99.6770  -43.1640 C   0  0  0  0  0  0  0  0  0  0  0  0
   91.9250  100.4260  -43.7220 O   0  0  0  0  0  0  0  0  0  0  0  0
   90.1510  100.2280  -42.3510 O   0  0  0  0  0  0  0  0  0  0  0  0
   89.7450  101.5750  -42.3870 C   0  0  0  0  0  2  0  0  0  0  0  0
   88.3900  101.6210  -43.1000 C   0  0  0  0  0  1  0  0  0  0  0  0
   92.2690   98.0950  -41.3340 N   0  0  0  0  0  0  0  0  0  0  0  0
   93.2700   98.0310  -41.1330 H   0  0  0  0  0  0  0  0  0  0  0  0
   91.6160   98.5910  -40.7260 H   0  0  0  0  0  0  0  0  0  0  0  0
  2  3  1  0  0  0  0
  2  1  1  0  0  0  0
  4 11  1  0  0  0  0
  4  3  2  0  0  0  0
  5  4  1  0  0  0  0
  6  5  2  0  0  0  0
  6  7  1  0  0  0  0
  7  2  2  0  0  0  0
  8  5  1  0  0  0  0
  8  9  1  0  0  0  0
 10  9  2  0  0  0  0
 11  9  1  6  0  0  0
 11 20  1  0  0  0  0
 12 11  1  0  0  0  0
 12 13  2  0  0  0  0
 13 18  1  0  0  0  0
 14 13  1  0  0  0  0
 14 22  1  0  0  0  0
 15 14  1  0  0  0  0
 16 15  2  0  0  0  0
 16 12  1  0  0  0  0
 17 16  1  0  0  0  0
 18 19  1  0  0  0  0
 19 28  1  0  0  0  0
 20 23  1  0  0  0  0
 20 19  2  0  0  0  0
 21  8  1  0  0  0  0
 23 25  1  0  0  0  0
 24 23  2  0  0  0  0
 26 25  1  0  0  0  0
 27 26  1  0  0  0  0
 28 29  1  0  0  0  0
 28 30  1  0  0  0  0
M  END
>  <Pose>
1

>  <Score>
-5.956

$$$$
