/Users/jonathanwahrer/Desktop/Msc/3_Semester/Drug_Design_Praktikum/waehrer_HTS_screening/HTS_experiment/out/docking_results/vina_output/4agl/0558_docked.pdbqt
 OpenBabel03202223323D

 29 32  0  0  1  0  0  0  0  0999 V2000
   85.8330   98.3450  -43.9590 Br  0  0  0  0  0  0  0  0  0  0  0  0
   87.5320   98.4390  -44.8030 C   0  0  0  0  0  0  0  0  0  0  0  0
   88.7200   98.5380  -44.0720 C   0  0  0  0  0  3  0  0  0  0  0  0
   89.9420   98.6050  -44.6880 C   0  0  0  0  0  0  0  0  0  0  0  0
   90.0050   98.5770  -46.0510 C   0  0  0  0  0  0  0  0  0  0  0  0
   88.8430   98.4800  -46.8280 C   0  0  0  0  0  3  0  0  0  0  0  0
   87.6320   98.4130  -46.1810 C   0  0  0  0  0  3  0  0  0  0  0  0
   91.3490   98.6580  -46.4950 N   0  0  0  0  0  0  0  0  0  0  0  0
   92.1650   98.7400  -45.3540 C   0  0  0  0  0  0  0  0  0  0  0  0
   93.4210   98.8260  -45.3040 O   0  0  0  0  0  0  0  0  0  0  0  0
   91.3090   98.7100  -44.1480 C   0  0  1  0  0  0  0  0  0  0  0  0
   91.4820   99.9870  -43.3820 C   0  0  0  0  0  0  0  0  0  0  0  0
   91.8360  100.0770  -42.1270 C   0  0  0  0  0  0  0  0  0  0  0  0
   92.0820   98.8790  -41.4150 N   0  0  0  0  0  0  0  0  0  0  0  0
   91.9440   97.6220  -42.0570 C   0  0  0  0  0  0  0  0  0  0  0  0
   91.5890   97.5290  -43.3140 C   0  0  0  0  0  0  0  0  0  0  0  0
   91.4690   96.1910  -43.9020 C   0  0  0  0  0  0  0  0  0  0  0  0
   91.3760   95.1440  -44.3840 N   0  0  0  0  0  0  0  0  0  0  0  0
   91.8910  101.5110  -41.7540 C   0  0  0  0  0  0  0  0  0  0  0  0
   91.5390  102.2480  -42.8960 O   0  0  0  0  0  0  0  0  0  0  0  0
   91.2820  101.3480  -43.9120 C   0  0  0  0  0  0  0  0  0  0  0  0
   90.9320  101.6610  -45.1010 O   0  0  0  0  0  0  0  0  0  0  0  0
   93.3210  101.9260  -41.4010 C   0  0  0  0  0  1  0  0  0  0  0  0
   90.9600  101.8100  -40.5870 C   0  0  0  0  0  1  0  0  0  0  0  0
   91.6610   98.6540  -47.5160 H   0  0  0  0  0  0  0  0  0  0  0  0
   92.3690   98.8900  -40.4020 H   0  0  0  0  0  0  0  0  0  0  0  0
   92.2020   96.4050  -41.3040 N   0  0  0  0  0  0  0  0  0  0  0  0
   92.5570   95.5350  -41.7340 H   0  0  0  0  0  0  0  0  0  0  0  0
   92.0180   96.4220  -40.2880 H   0  0  0  0  0  0  0  0  0  0  0  0
  2  3  1  0  0  0  0
  2  1  1  0  0  0  0
  4 11  1  0  0  0  0
  4  3  2  0  0  0  0
  5  4  1  0  0  0  0
  6  7  1  0  0  0  0
  6  5  2  0  0  0  0
  7  2  2  0  0  0  0
  8  5  1  0  0  0  0
  8  9  1  0  0  0  0
  9 10  2  0  0  0  0
 11  9  1  6  0  0  0
 11 12  1  0  0  0  0
 11 16  1  0  0  0  0
 12 13  2  0  0  0  0
 13 19  1  0  0  0  0
 13 14  1  0  0  0  0
 14 26  1  0  0  0  0
 15 14  1  0  0  0  0
 15 27  1  0  0  0  0
 16 15  2  0  0  0  0
 17 16  1  0  0  0  0
 18 17  3  0  0  0  0
 19 23  1  0  0  0  0
 19 24  1  0  0  0  0
 20 19  1  0  0  0  0
 21 12  1  0  0  0  0
 21 20  1  0  0  0  0
 22 21  2  0  0  0  0
 25  8  1  0  0  0  0
 27 29  1  0  0  0  0
 28 27  1  0  0  0  0
M  END
>  <Pose>
1

>  <Score>
-7.009

$$$$
