MODEL 1
REMARK VINA RESULT:    -7.009      0.000      0.000
REMARK INTER + INTRA:          -7.214
REMARK INTER:                  -7.214
REMARK INTRA:                   0.000
REMARK UNBOUND:                 0.000
REMARK  1 active torsions:
REMARK  status: ('A' for Active; 'I' for Inactive)
REMARK    1  A    between atoms: C_15  and  N_19 
ROOT
ATOM      1 Br   UNK d   1      85.833  98.345 -43.959  0.00  0.00    -0.051 Br
ATOM      2  C   UNK d   1      87.532  98.439 -44.803  0.00  0.00     0.011 A 
ATOM      3  C   UNK d   1      88.720  98.538 -44.072  0.00  0.00     0.030 A 
ATOM      4  C   UNK d   1      89.942  98.605 -44.688  0.00  0.00    -0.002 A 
ATOM      5  C   UNK d   1      90.005  98.577 -46.051  0.00  0.00     0.043 A 
ATOM      6  C   UNK d   1      88.843  98.480 -46.828  0.00  0.00     0.031 A 
ATOM      7  C   UNK d   1      87.632  98.413 -46.181  0.00  0.00     0.021 A 
ATOM      8  N   UNK d   1      91.349  98.658 -46.495  0.00  0.00    -0.325 N 
ATOM      9  C   UNK d   1      92.165  98.740 -45.354  0.00  0.00     0.246 A 
ATOM     10  O   UNK d   1      93.421  98.826 -45.304  0.00  0.00    -0.271 OA
ATOM     11  C   UNK d   1      91.309  98.710 -44.148  0.00  0.00     0.146 A 
ATOM     12  C   UNK d   1      91.482  99.987 -43.382  0.00  0.00     0.071 A 
ATOM     13  C   UNK d   1      91.836 100.077 -42.127  0.00  0.00     0.060 A 
ATOM     14  N   UNK d   1      92.082  98.879 -41.415  0.00  0.00    -0.342 N 
ATOM     15  C   UNK d   1      91.944  97.622 -42.057  0.00  0.00     0.118 A 
ATOM     16  C   UNK d   1      91.589  97.529 -43.314  0.00  0.00     0.093 A 
ATOM     17  C   UNK d   1      91.469  96.191 -43.902  0.00  0.00     0.101 C 
ATOM     18  N   UNK d   1      91.376  95.144 -44.384  0.00  0.00    -0.191 NA
ATOM     19  C   UNK d   1      91.891 101.511 -41.754  0.00  0.00     0.106 A 
ATOM     20  O   UNK d   1      91.539 102.248 -42.896  0.00  0.00    -0.301 OA
ATOM     21  C   UNK d   1      91.282 101.348 -43.912  0.00  0.00     0.294 A 
ATOM     22  O   UNK d   1      90.932 101.661 -45.101  0.00  0.00    -0.259 OA
ATOM     23  C   UNK d   1      93.321 101.926 -41.401  0.00  0.00     0.053 C 
ATOM     24  C   UNK d   1      90.960 101.810 -40.587  0.00  0.00     0.053 C 
ATOM     25  H   UNK d   1      91.661  98.654 -47.516  0.00  0.00     0.169 HD
ATOM     26  H   UNK d   1      92.369  98.890 -40.402  0.00  0.00     0.167 HD
ENDROOT
BRANCH  15  27
ATOM     27  N   UNK d   1      92.202  96.405 -41.304  0.00  0.00    -0.384 N 
ATOM     28  H   UNK d   1      92.557  95.535 -41.734  0.00  0.00     0.157 HD
ATOM     29  H   UNK d   1      92.018  96.422 -40.288  0.00  0.00     0.157 HD
ENDBRANCH  15  27
TORSDOF 1
ENDMDL
