/Users/jonathanwahrer/Desktop/Msc/3_Semester/Drug_Design_Praktikum/waehrer_HTS_screening/HTS_experiment/out/docking_results/vina_output/4agl/0566_docked.pdbqt
 OpenBabel03202223323D

 30 33  0  0  1  0  0  0  0  0999 V2000
   92.5230   93.7020  -41.7350 Br  0  0  0  0  0  0  0  0  0  0  0  0
   91.8240   94.6000  -43.2670 C   0  0  0  0  0  0  0  0  0  0  0  0
   91.5490   95.9430  -43.2280 C   0  0  0  0  0  3  0  0  0  0  0  0
   91.0330   96.6150  -44.3510 C   0  0  0  0  0  0  0  0  0  0  0  0
   90.7880   95.9530  -45.5210 C   0  0  0  0  0  0  0  0  0  0  0  0
   91.0700   94.5790  -45.5610 C   0  0  0  0  0  3  0  0  0  0  0  0
   91.5730   93.9420  -44.4510 C   0  0  0  0  0  3  0  0  0  0  0  0
   90.2730   96.8360  -46.5070 N   0  0  0  0  0  0  0  0  0  0  0  0
   90.1920   98.1200  -45.9210 C   0  0  0  0  0  0  0  0  0  0  0  0
   89.7620   99.1330  -46.5660 O   0  0  0  0  0  0  0  0  0  0  0  0
   90.6620   98.0340  -44.5490 C   0  0  2  0  0  0  0  0  0  0  0  0
   91.7650   98.9290  -44.2570 N   0  0  0  0  0  0  0  0  0  0  0  0
   91.1560  100.1720  -43.8170 C   0  0  1  0  0  3  0  0  0  0  0  0
   90.0380   99.6790  -42.9440 C   0  0  2  0  0  3  0  0  0  0  0  0
   89.5470   98.4390  -43.6090 C   0  0  1  0  0  3  0  0  0  0  0  0
   88.3130   98.8230  -44.3120 C   0  0  0  0  0  0  0  0  0  0  0  0
   87.6910   98.1970  -45.2320 O   0  0  0  0  0  0  0  0  0  0  0  0
   87.8520  100.0730  -43.8140 N   0  0  0  0  0  0  0  0  0  0  0  0
   88.8630  100.5770  -42.9650 C   0  0  0  0  0  0  0  0  0  0  0  0
   88.8110  101.6500  -42.2910 O   0  0  0  0  0  0  0  0  0  0  0  0
   90.0160   96.5330  -47.4820 H   0  0  0  0  0  0  0  0  0  0  0  0
   92.4050   99.0550  -45.0620 H   0  0  0  0  0  0  0  0  0  0  0  0
   92.1730  100.9840  -43.0790 C   0  0  1  0  0  3  0  0  0  0  0  0
   92.2070  100.5800  -41.6260 C   0  0  0  0  0  1  0  0  0  0  0  0
   93.4300  100.6890  -43.6200 O   0  0  0  0  0  0  0  0  0  0  0  0
   94.1480  101.1650  -43.1270 H   0  0  0  0  0  0  0  0  0  0  0  0
   86.5870  100.7140  -44.1150 C   0  0  0  0  0  2  0  0  0  0  0  0
   85.4710  100.2050  -43.2610 C   0  0  0  0  0  2  0  0  0  0  0  0
   84.5010   99.4700  -44.1940 C   0  0  0  0  0  2  0  0  0  0  0  0
   84.4280   98.0120  -43.8340 C   0  0  0  0  0  1  0  0  0  0  0  0
  2  3  1  0  0  0  0
  2  1  1  0  0  0  0
  4  3  2  0  0  0  0
  5  4  1  0  0  0  0
  6  5  2  0  0  0  0
  6  7  1  0  0  0  0
  7  2  2  0  0  0  0
  8  9  1  0  0  0  0
  8  5  1  0  0  0  0
 10  9  2  0  0  0  0
 11  9  1  6  0  0  0
 11  4  1  0  0  0  0
 11 12  1  0  0  0  0
 11 15  1  0  0  0  0
 12 13  1  0  0  0  0
 13 23  1  1  0  0  0
 13 14  1  0  0  0  0
 14 19  1  6  0  0  0
 15 16  1  6  0  0  0
 15 14  1  0  0  0  0
 16 18  1  0  0  0  0
 17 16  2  0  0  0  0
 18 19  1  0  0  0  0
 19 20  2  0  0  0  0
 21  8  1  0  0  0  0
 22 12  1  0  0  0  0
 23 24  1  1  0  0  0
 25 26  1  0  0  0  0
 25 23  1  0  0  0  0
 27 18  1  0  0  0  0
 27 28  1  0  0  0  0
 29 30  1  0  0  0  0
 29 28  1  0  0  0  0
M  END
>  <Pose>
1

>  <Score>
-6.266

$$$$
