MODEL 1
REMARK VINA RESULT:    -7.048      0.000      0.000
REMARK INTER + INTRA:         -10.000
REMARK INTER:                  -8.902
REMARK INTRA:                  -1.098
REMARK UNBOUND:                -1.098
REMARK  5 active torsions:
REMARK  status: ('A' for Active; 'I' for Inactive)
REMARK    1  A    between atoms: C_13  and  C_29 
REMARK    2  A    between atoms: N_18  and  C_21 
REMARK    3  A    between atoms: C_21  and  C_22 
REMARK    4  A    between atoms: C_22  and  C_23 
REMARK    5  A    between atoms: C_29  and  O_30 
ROOT
ATOM      1 Br   UNK d   1      91.523  93.592 -43.958  0.00  0.00    -0.051 Br
ATOM      2  C   UNK d   1      91.784  95.256 -43.060  0.00  0.00     0.011 A 
ATOM      3  C   UNK d   1      91.701  96.469 -43.707  0.00  0.00     0.031 A 
ATOM      4  C   UNK d   1      91.900  97.689 -43.043  0.00  0.00     0.019 A 
ATOM      5  C   UNK d   1      92.186  97.637 -41.701  0.00  0.00     0.044 A 
ATOM      6  C   UNK d   1      92.270  96.419 -41.042  0.00  0.00     0.031 A 
ATOM      7  C   UNK d   1      92.074  95.227 -41.704  0.00  0.00     0.021 A 
ATOM      8  N   UNK d   1      92.375  98.935 -41.172  0.00  0.00    -0.324 N 
ATOM      9  C   UNK d   1      92.202  99.852 -42.229  0.00  0.00     0.267 A 
ATOM     10  O   UNK d   1      92.311 101.101 -42.071  0.00  0.00    -0.270 OA
ATOM     11  C   UNK d   1      91.893  99.092 -43.459  0.00  0.00     0.279 A 
ATOM     12  N   UNK d   1      92.912  99.340 -44.483  0.00  0.00     0.116 N 
ATOM     13  C   UNK d   1      92.216  99.267 -45.748  0.00  0.00     0.264 C 
ATOM     14  C   UNK d   1      90.795  99.600 -45.513  0.00  0.00     0.130 C 
ATOM     15  C   UNK d   1      90.619  99.620 -44.005  0.00  0.00     0.147 C 
ATOM     16  C   UNK d   1      89.399  98.866 -43.743  0.00  0.00     0.234 C 
ATOM     17  O   UNK d   1      88.955  98.532 -42.617  0.00  0.00    -0.272 OA
ATOM     18  N   UNK d   1      88.741  98.538 -44.986  0.00  0.00    -0.287 N 
ATOM     19  C   UNK d   1      89.805  98.600 -45.959  0.00  0.00     0.233 C 
ATOM     20  O   UNK d   1      89.858  97.919 -46.994  0.00  0.00    -0.272 OA
ATOM     21  H   UNK d   1      92.603  99.171 -40.167  0.00  0.00     0.169 HD
ATOM     22  H   UNK d   1      93.685  98.638 -44.432  0.00  0.00     0.318 HD
ENDROOT
BRANCH  13  23
ATOM     23  C   UNK d   1      92.890 100.154 -46.768  0.00  0.00     0.148 C 
ATOM     24  C   UNK d   1      92.286 101.537 -46.816  0.00  0.00     0.041 C 
BRANCH  23  25
ATOM     25  O   UNK d   1      92.893  99.534 -48.003  0.00  0.00    -0.394 OA
ATOM     26  H   UNK d   1      92.115  98.960 -48.136  0.00  0.00     0.210 HD
ENDBRANCH  23  25
ENDBRANCH  13  23
BRANCH  18  27
ATOM     27  C   UNK d   1      87.365  98.249 -45.233  0.00  0.00     0.139 C 
BRANCH  27  28
ATOM     28  C   UNK d   1      86.506  99.416 -45.627  0.00  0.00     0.059 C 
BRANCH  28  29
ATOM     29  C   UNK d   1      85.868 100.125 -44.505  0.00  0.00    -0.057 A 
ATOM     30  C   UNK d   1      84.591  99.754 -44.102  0.00  0.00     0.007 A 
ATOM     31  C   UNK d   1      84.003 100.381 -43.055  0.00  0.00     0.001 A 
ATOM     32  C   UNK d   1      84.616 101.381 -42.358  0.00  0.00     0.000 A 
ATOM     33  C   UNK d   1      85.890 101.744 -42.768  0.00  0.00     0.001 A 
ATOM     34  C   UNK d   1      86.503 101.128 -43.821  0.00  0.00     0.007 A 
ENDBRANCH  28  29
ENDBRANCH  27  28
ENDBRANCH  18  27
TORSDOF 5
ENDMDL
