/Users/jonathanwahrer/Desktop/Msc/3_Semester/Drug_Design_Praktikum/waehrer_HTS_screening/HTS_experiment/out/docking_results/vina_output/4agl/0578_docked.pdbqt
 OpenBabel03202223333D

 27 30  0  0  1  0  0  0  0  0999 V2000
   87.0990   96.8370  -46.2230 Br  0  0  0  0  0  0  0  0  0  0  0  0
   87.6080   98.0630  -44.8490 C   0  0  0  0  0  0  0  0  0  0  0  0
   88.8870   98.5470  -44.7370 C   0  0  0  0  0  3  0  0  0  0  0  0
   89.2980   99.4500  -43.7400 C   0  0  0  0  0  0  0  0  0  0  0  0
   88.3490   99.8500  -42.8480 C   0  0  0  0  0  0  0  0  0  0  0  0
   87.0320   99.3640  -42.9470 C   0  0  0  0  0  3  0  0  0  0  0  0
   86.6620   98.4810  -43.9350 C   0  0  0  0  0  3  0  0  0  0  0  0
   88.8950  100.7650  -41.9080 N   0  0  0  0  0  0  0  0  0  0  0  0
   90.2540  100.9400  -42.2350 C   0  0  0  0  0  0  0  0  0  0  0  0
   91.0800  101.7070  -41.6170 O   0  0  0  0  0  0  0  0  0  0  0  0
   90.5510  100.0930  -43.4040 C   0  0  2  0  0  0  0  0  0  0  0  0
   90.9220  101.0650  -44.4480 N   0  0  0  0  0  0  0  0  0  0  0  0
   92.3470  101.0890  -44.5610 C   0  0  2  0  0  3  0  0  0  0  0  0
   92.7740   99.7290  -44.1470 C   0  0  1  0  0  3  0  0  0  0  0  0
   91.7250   99.2080  -43.2020 C   0  0  2  0  0  3  0  0  0  0  0  0
   91.6050   97.8130  -43.5600 C   0  0  0  0  0  0  0  0  0  0  0  0
   91.0340   96.9280  -42.8570 O   0  0  0  0  0  0  0  0  0  0  0  0
   92.2280   97.6000  -44.8190 N   0  0  0  0  0  0  0  0  0  0  0  0
   92.6940   98.8350  -45.3450 C   0  0  0  0  0  0  0  0  0  0  0  0
   92.9570   99.0500  -46.5440 O   0  0  0  0  0  0  0  0  0  0  0  0
   93.0250  102.1900  -43.7800 C   0  0  0  0  0  1  0  0  0  0  0  0
   88.3910  101.2380  -41.1020 H   0  0  0  0  0  0  0  0  0  0  0  0
   90.4610  100.8300  -45.3550 H   0  0  0  0  0  0  0  0  0  0  0  0
   92.3410   96.2830  -45.4310 C   0  0  0  0  0  2  0  0  0  0  0  0
   90.9990   95.6650  -45.6850 C   0  0  0  0  0  2  0  0  0  0  0  0
   91.0490   94.1650  -45.7990 C   0  0  0  0  0  2  0  0  0  0  0  0
   91.6230   93.6480  -44.4760 C   0  0  0  0  0  1  0  0  0  0  0  0
  1  2  1  0  0  0  0
  2  3  2  0  0  0  0
  2  7  1  0  0  0  0
  3  4  1  0  0  0  0
  4  5  2  0  0  0  0
  5  8  1  0  0  0  0
  6  5  1  0  0  0  0
  7  6  2  0  0  0  0
  8 22  1  0  0  0  0
  9  8  1  0  0  0  0
  9 10  2  0  0  0  0
 11  4  1  6  0  0  0
 11 15  1  0  0  0  0
 11  9  1  0  0  0  0
 12 11  1  0  0  0  0
 13 12  1  0  0  0  0
 13 14  1  0  0  0  0
 13 21  1  1  0  0  0
 14 19  1  6  0  0  0
 14 15  1  0  0  0  0
 15 16  1  6  0  0  0
 16 17  2  0  0  0  0
 18 16  1  0  0  0  0
 19 18  1  0  0  0  0
 20 19  2  0  0  0  0
 23 12  1  0  0  0  0
 24 18  1  0  0  0  0
 25 24  1  0  0  0  0
 26 25  1  0  0  0  0
 26 27  1  0  0  0  0
M  END
>  <Pose>
1

>  <Score>
-6.137

$$$$
