MODEL 1
REMARK VINA RESULT:    -6.663      0.000      0.000
REMARK INTER + INTRA:          -6.663
REMARK INTER:                  -6.663
REMARK INTRA:                   0.000
REMARK UNBOUND:                 0.000
REMARK  0 active torsions:
REMARK  status: ('A' for Active; 'I' for Inactive)
ROOT
ATOM      1 Br   UNK d   1      91.349  91.747 -47.688  0.00  0.00    -0.051 Br
ATOM      2  C   UNK d   1      91.436  92.975 -46.233  0.00  0.00     0.012 A 
ATOM      3  C   UNK d   1      90.660  94.097 -46.286  0.00  0.00     0.038 A 
ATOM      4  C   UNK d   1      90.704  95.007 -45.243  0.00  0.00     0.062 A 
ATOM      5  C   UNK d   1      91.530  94.781 -44.149  0.00  0.00     0.078 A 
ATOM      6  C   UNK d   1      92.319  93.651 -44.081  0.00  0.00     0.034 A 
ATOM      7  C   UNK d   1      92.244  92.775 -45.141  0.00  0.00     0.021 A 
ATOM      8  N   UNK d   1      91.655  95.635 -43.030  0.00  0.00    -0.195 N 
ATOM      9  N   UNK d   1      92.094  95.172 -41.854  0.00  0.00    -0.039 NA
ATOM     10  N   UNK d   1      92.095  96.195 -41.043  0.00  0.00    -0.023 NA
ATOM     11  N   UNK d   1      91.672  97.281 -41.669  0.00  0.00    -0.111 NA
ATOM     12  C   UNK d   1      91.386  96.927 -42.955  0.00  0.00     0.182 A 
ATOM     13  C   UNK d   1      90.877  97.928 -43.956  0.00  0.00     0.102 C 
ATOM     14  N   UNK d   1      89.804  97.353 -44.763  0.00  0.00    -0.340 N 
ATOM     15  C   UNK d   1      89.799  96.134 -45.498  0.00  0.00     0.255 C 
ATOM     16  O   UNK d   1      88.961  96.009 -46.434  0.00  0.00    -0.268 OA
ATOM     17  C   UNK d   1      92.019  98.189 -44.901  0.00  0.00     0.076 C 
ATOM     18  C   UNK d   1      91.806  99.490 -45.603  0.00  0.00     0.056 C 
ATOM     19  O   UNK d   1      91.820 100.473 -44.650  0.00  0.00    -0.381 OA
ATOM     20  C   UNK d   1      90.785 100.445 -43.755  0.00  0.00     0.171 C 
ATOM     21  C   UNK d   1      90.380  99.130 -43.241  0.00  0.00     0.066 C 
ATOM     22  C   UNK d   1      92.991  99.761 -46.538  0.00  0.00     0.045 C 
ATOM     23  C   UNK d   1      90.575  99.510 -46.469  0.00  0.00     0.045 C 
ATOM     24  H   UNK d   1      88.895  97.904 -44.821  0.00  0.00     0.164 HD
ENDROOT
TORSDOF 0
ENDMDL
