MODEL 1
REMARK VINA RESULT:    -6.937      0.000      0.000
REMARK INTER + INTRA:          -6.937
REMARK INTER:                  -6.937
REMARK INTRA:                   0.000
REMARK UNBOUND:                 0.000
REMARK  0 active torsions:
REMARK  status: ('A' for Active; 'I' for Inactive)
ROOT
ATOM      1 Br   UNK d   1      94.445  91.846 -41.355  0.00  0.00    -0.051 Br
ATOM      2  C   UNK d   1      93.384  93.103 -42.345  0.00  0.00     0.012 A 
ATOM      3  C   UNK d   1      92.955  94.272 -41.753  0.00  0.00     0.038 A 
ATOM      4  C   UNK d   1      92.194  95.173 -42.469  0.00  0.00     0.061 A 
ATOM      5  C   UNK d   1      91.825  94.962 -43.784  0.00  0.00     0.072 A 
ATOM      6  C   UNK d   1      92.265  93.775 -44.365  0.00  0.00     0.034 A 
ATOM      7  C   UNK d   1      93.028  92.871 -43.656  0.00  0.00     0.021 A 
ATOM      8  N   UNK d   1      91.059  95.769 -44.649  0.00  0.00    -0.218 N 
ATOM      9  N   UNK d   1      90.559  95.339 -45.796  0.00  0.00     0.032 NA
ATOM     10  N   UNK d   1      89.901  96.345 -46.351  0.00  0.00    -0.052 NA
ATOM     11  N   UNK d   1      89.989  97.389 -45.562  0.00  0.00    -0.116 NA
ATOM     12  C   UNK d   1      90.719  97.061 -44.467  0.00  0.00     0.176 A 
ATOM     13  C   UNK d   1      90.975  98.049 -43.417  0.00  0.00     0.100 C 
ATOM     14  N   UNK d   1      91.171  97.548 -42.101  0.00  0.00    -0.340 N 
ATOM     15  C   UNK d   1      91.825  96.358 -41.691  0.00  0.00     0.255 C 
ATOM     16  O   UNK d   1      92.166  96.243 -40.484  0.00  0.00    -0.268 OA
ATOM     17  C   UNK d   1      92.207  98.908 -43.741  0.00  0.00     0.069 C 
ATOM     18  C   UNK d   1      91.983 100.298 -43.202  0.00  0.00     0.275 C 
ATOM     19  N   UNK d   1      91.091 100.979 -44.113  0.00  0.00     0.084 N 
ATOM     20  C   UNK d   1      89.967 100.126 -44.395  0.00  0.00     0.275 C 
ATOM     21  C   UNK d   1      89.796  99.016 -43.387  0.00  0.00     0.069 C 
ATOM     22  C   UNK d   1      91.850 101.292 -45.323  0.00  0.00     0.309 C 
ATOM     23  H   UNK d   1      90.781  98.137 -41.337  0.00  0.00     0.164 HD
ENDROOT
TORSDOF 0
ENDMDL
