/Users/jonathanwahrer/Desktop/Msc/3_Semester/Drug_Design_Praktikum/waehrer_HTS_screening/HTS_experiment/out/docking_results/vina_output/4agl/0591_docked.pdbqt
 OpenBabel03202223333D

 23 26  0  0  0  0  0  0  0  0999 V2000
   94.4450   91.8460  -41.3550 Br  0  0  0  0  0  0  0  0  0  0  0  0
   93.3840   93.1030  -42.3450 C   0  0  0  0  0  0  0  0  0  0  0  0
   92.9550   94.2720  -41.7530 C   0  0  0  0  0  3  0  0  0  0  0  0
   92.1940   95.1730  -42.4690 C   0  0  0  0  0  0  0  0  0  0  0  0
   91.8250   94.9620  -43.7840 C   0  0  0  0  0  0  0  0  0  0  0  0
   92.2650   93.7750  -44.3650 C   0  0  0  0  0  3  0  0  0  0  0  0
   93.0280   92.8710  -43.6560 C   0  0  0  0  0  3  0  0  0  0  0  0
   91.0590   95.7690  -44.6490 N   0  0  0  0  0  0  0  0  0  0  0  0
   90.5590   95.3390  -45.7960 N   0  0  0  0  0  0  0  0  0  0  0  0
   89.9010   96.3450  -46.3510 N   0  0  0  0  0  0  0  0  0  0  0  0
   89.9890   97.3890  -45.5620 N   0  0  0  0  0  0  0  0  0  0  0  0
   90.7190   97.0610  -44.4670 C   0  0  0  0  0  0  0  0  0  0  0  0
   90.9750   98.0490  -43.4170 C   0  0  0  0  0  0  0  0  0  0  0  0
   91.1710   97.5480  -42.1010 N   0  0  0  0  0  0  0  0  0  0  0  0
   91.8250   96.3580  -41.6910 C   0  0  0  0  0  0  0  0  0  0  0  0
   92.1660   96.2430  -40.4840 O   0  0  0  0  0  0  0  0  0  0  0  0
   92.2070   98.9080  -43.7410 C   0  0  0  0  0  2  0  0  0  0  0  0
   91.9830  100.2980  -43.2020 C   0  0  0  0  0  2  0  0  0  0  0  0
   91.0910  100.9790  -44.1130 N   0  0  0  0  0  0  0  0  0  0  0  0
   89.9670  100.1260  -44.3950 C   0  0  0  0  0  2  0  0  0  0  0  0
   89.7960   99.0160  -43.3870 C   0  0  0  0  0  2  0  0  0  0  0  0
   91.8500  101.2920  -45.3230 C   0  0  0  0  0  1  0  0  0  0  0  0
   90.7810   98.1370  -41.3370 H   0  0  0  0  0  0  0  0  0  0  0  0
  2  3  1  0  0  0  0
  2  1  1  0  0  0  0
  4  3  2  0  0  0  0
  4 15  1  0  0  0  0
  5  4  1  0  0  0  0
  6  5  2  0  0  0  0
  6  7  1  0  0  0  0
  7  2  2  0  0  0  0
  8 12  1  0  0  0  0
  8  5  1  0  0  0  0
  9  8  1  0  0  0  0
 10  9  2  0  0  0  0
 10 11  1  0  0  0  0
 11 12  2  0  0  0  0
 12 13  1  0  0  0  0
 13 21  1  0  0  0  0
 13 14  1  0  0  0  0
 14 15  1  0  0  0  0
 14 23  1  0  0  0  0
 15 16  2  0  0  0  0
 17 13  1  0  0  0  0
 17 18  1  0  0  0  0
 19 18  1  0  0  0  0
 20 19  1  0  0  0  0
 20 21  1  0  0  0  0
 22 19  1  0  0  0  0
M  END
>  <Pose>
1

>  <Score>
-6.937

$$$$
