MODEL 1
REMARK VINA RESULT:    -6.390      0.000      0.000
REMARK INTER + INTRA:          -6.577
REMARK INTER:                  -6.577
REMARK INTRA:                   0.000
REMARK UNBOUND:                 0.000
REMARK  1 active torsions:
REMARK  status: ('A' for Active; 'I' for Inactive)
REMARK    1  A    between atoms: C_9  and  N_23 
ROOT
ATOM      1 Br   UNK d   1      92.082  94.769 -41.412  0.00  0.00    -0.051 Br
ATOM      2  C   UNK d   1      91.544  95.578 -43.044  0.00  0.00     0.011 A 
ATOM      3  C   UNK d   1      91.528  96.942 -43.133  0.00  0.00     0.031 A 
ATOM      4  C   UNK d   1      91.131  97.537 -44.335  0.00  0.00     0.005 A 
ATOM      5  C   UNK d   1      90.776  96.741 -45.374  0.00  0.00     0.086 A 
ATOM      6  C   UNK d   1      90.793  95.334 -45.278  0.00  0.00     0.039 A 
ATOM      7  C   UNK d   1      91.182  94.754 -44.095  0.00  0.00     0.022 A 
ATOM      8  O   UNK d   1      90.376  97.280 -46.583  0.00  0.00    -0.292 OA
ATOM      9  C   UNK d   1      90.346  98.652 -46.716  0.00  0.00     0.160 A 
ATOM     10  C   UNK d   1      90.676  99.484 -45.757  0.00  0.00     0.100 A 
ATOM     11  C   UNK d   1      91.109  99.010 -44.450  0.00  0.00     0.145 A 
ATOM     12  C   UNK d   1      90.353  99.628 -43.334  0.00  0.00     0.041 A 
ATOM     13  C   UNK d   1      91.221 100.363 -42.575  0.00  0.00     0.160 A 
ATOM     14  N   UNK d   1      90.521 100.931 -41.549  0.00  0.00    -0.156 NA
ATOM     15  N   UNK d   1      89.266 100.545 -41.693  0.00  0.00    -0.280 N 
ATOM     16  C   UNK d   1      89.117  99.753 -42.763  0.00  0.00     0.036 A 
ATOM     17  C   UNK d   1      87.818  99.154 -43.193  0.00  0.00     0.070 C 
ATOM     18  N   UNK d   1      92.533 100.295 -43.091  0.00  0.00    -0.308 N 
ATOM     19  C   UNK d   1      92.495  99.478 -44.232  0.00  0.00     0.247 A 
ATOM     20  O   UNK d   1      93.463  99.168 -44.978  0.00  0.00    -0.271 OA
ATOM     21  C   UNK d   1      90.619 100.910 -45.973  0.00  0.00     0.101 C 
ATOM     22  N   UNK d   1      90.593 102.054 -46.147  0.00  0.00    -0.191 NA
ATOM     23  H   UNK d   1      88.514 100.852 -41.020  0.00  0.00     0.189 HD
ATOM     24  H   UNK d   1      93.388 100.788 -42.668  0.00  0.00     0.170 HD
ENDROOT
BRANCH   9  25
ATOM     25  N   UNK d   1      89.929  99.196 -47.978  0.00  0.00    -0.379 N 
ATOM     26  H   UNK d   1      90.400 100.049 -48.351  0.00  0.00     0.158 HD
ATOM     27  H   UNK d   1      89.163  98.769 -48.546  0.00  0.00     0.158 HD
ENDBRANCH   9  25
TORSDOF 1
ENDMDL
