MODEL 1
REMARK VINA RESULT:    -6.694      0.000      0.000
REMARK INTER + INTRA:          -8.702
REMARK INTER:                  -7.868
REMARK INTRA:                  -0.834
REMARK UNBOUND:                -0.834
REMARK  3 active torsions:
REMARK  status: ('A' for Active; 'I' for Inactive)
REMARK    1  A    between atoms: C_11  and  C_13 
REMARK    2  A    between atoms: C_23  and  C_24 
REMARK    3  A    between atoms: C_24  and  N_25 
ROOT
ATOM      1  C   UNK d   1      91.321  98.698 -43.333  0.00  0.00    -0.001 A 
ATOM      2  C   UNK d   1      92.426  99.526 -43.442  0.00  0.00     0.096 A 
ATOM      3  C   UNK d   1      92.276 100.897 -43.409  0.00  0.00     0.289 A 
ATOM      4  O   UNK d   1      93.336 101.590 -43.517  0.00  0.00    -0.260 OA
ATOM      5  O   UNK d   1      91.102 101.433 -43.274  0.00  0.00    -0.274 OA
ATOM      6  C   UNK d   1      90.043 100.726 -43.167  0.00  0.00     0.101 A 
ATOM      7  C   UNK d   1      90.105  99.320 -43.192  0.00  0.00     0.010 A 
ATOM      8  C   UNK d   1      88.958  98.591 -43.063  0.00  0.00     0.018 A 
ATOM      9  C   UNK d   1      87.754  99.287 -42.916  0.00  0.00     0.041 A 
ATOM     10  C   UNK d   1      87.726 100.668 -42.901  0.00  0.00     0.118 A 
ATOM     11  C   UNK d   1      88.864 101.434 -43.025  0.00  0.00     0.039 A 
ATOM     12  O   UNK d   1      86.459 101.271 -42.753  0.00  0.00    -0.191 OA
ENDROOT
BRANCH   1  13
ATOM     13  C   UNK d   1      91.455  97.245 -43.427  0.00  0.00     0.052 A 
ATOM     14  C   UNK d   1      91.818  96.496 -42.327  0.00  0.00     0.299 A 
ATOM     15  O   UNK d   1      91.965  95.222 -42.418  0.00  0.00    -0.274 OA
ATOM     16  O   UNK d   1      91.987  97.149 -41.250  0.00  0.00    -0.259 OA
ATOM     17  C   UNK d   1      91.782  94.544 -43.553  0.00  0.00     0.089 A 
ATOM     18  C   UNK d   1      91.417  95.236 -44.690  0.00  0.00     0.000 A 
ATOM     19  C   UNK d   1      91.964  93.169 -43.568  0.00  0.00     0.039 A 
ATOM     20  C   UNK d   1      91.235  94.508 -45.852  0.00  0.00     0.033 A 
ATOM     21  C   UNK d   1      91.255  96.597 -44.624  0.00  0.00     0.032 A 
ATOM     22  C   UNK d   1      91.401  93.137 -45.928  0.00  0.00     0.011 A 
ATOM     23 Br   UNK d   1      91.121  92.195 -47.548  0.00  0.00    -0.051 Br
ATOM     24  C   UNK d   1      91.774  92.484 -44.745  0.00  0.00     0.022 A 
ENDBRANCH   1  13
BRANCH  11  25
ATOM     25  C   UNK d   1      88.743 102.865 -43.099  0.00  0.00     0.278 C 
BRANCH  25  26
ATOM     26  N   UNK d   1      88.400 103.686 -42.012  0.00  0.00    -0.075 N 
ATOM     27  C   UNK d   1      89.473 104.271 -41.255  0.00  0.00     0.269 C 
ATOM     28  C   UNK d   1      87.344 104.672 -42.360  0.00  0.00     0.269 C 
ATOM     29  H   UNK d   1      87.912 103.068 -41.301  0.00  0.00     0.279 HD
ENDBRANCH  25  26
ENDBRANCH  11  25
TORSDOF 3
ENDMDL
