/Users/jonathanwahrer/Desktop/Msc/3_Semester/Drug_Design_Praktikum/waehrer_HTS_screening/HTS_experiment/out/docking_results/vina_output/4agl/0596_docked.pdbqt
 OpenBabel03202223333D

 29 32  0  0  0  0  0  0  0  0999 V2000
   91.3210   98.6980  -43.3330 C   0  0  0  0  0  0  0  0  0  0  0  0
   92.4260   99.5260  -43.4420 C   0  0  0  0  0  3  0  0  0  0  0  0
   92.2760  100.8970  -43.4090 C   0  0  0  0  0  0  0  0  0  0  0  0
   93.3360  101.5900  -43.5170 O   0  0  0  0  0  0  0  0  0  0  0  0
   91.1020  101.4330  -43.2740 O   0  0  0  0  0  0  0  0  0  0  0  0
   90.0430  100.7260  -43.1670 C   0  0  0  0  0  0  0  0  0  0  0  0
   90.1050   99.3200  -43.1920 C   0  0  0  0  0  0  0  0  0  0  0  0
   88.9580   98.5910  -43.0630 C   0  0  0  0  0  3  0  0  0  0  0  0
   87.7540   99.2870  -42.9160 C   0  0  0  0  0  3  0  0  0  0  0  0
   87.7260  100.6680  -42.9010 C   0  0  0  0  0  0  0  0  0  0  0  0
   88.8640  101.4340  -43.0250 C   0  0  0  0  0  0  0  0  0  0  0  0
   86.4590  101.2710  -42.7530 O   0  0  0  0  0  1  0  0  0  0  0  0
   91.4550   97.2450  -43.4270 C   0  0  0  0  0  0  0  0  0  0  0  0
   91.8180   96.4960  -42.3270 C   0  0  0  0  0  0  0  0  0  0  0  0
   91.9650   95.2220  -42.4180 O   0  0  0  0  0  0  0  0  0  0  0  0
   91.9870   97.1490  -41.2500 O   0  0  0  0  0  0  0  0  0  0  0  0
   91.7820   94.5440  -43.5530 C   0  0  0  0  0  0  0  0  0  0  0  0
   91.4170   95.2360  -44.6900 C   0  0  0  0  0  0  0  0  0  0  0  0
   91.9640   93.1690  -43.5680 C   0  0  0  0  0  3  0  0  0  0  0  0
   91.2350   94.5080  -45.8520 C   0  0  0  0  0  3  0  0  0  0  0  0
   91.2550   96.5970  -44.6240 C   0  0  0  0  0  3  0  0  0  0  0  0
   91.4010   93.1370  -45.9280 C   0  0  0  0  0  0  0  0  0  0  0  0
   91.1210   92.1950  -47.5480 Br  0  0  0  0  0  0  0  0  0  0  0  0
   91.7740   92.4840  -44.7450 C   0  0  0  0  0  3  0  0  0  0  0  0
   88.7430  102.8650  -43.0990 C   0  0  0  0  0  2  0  0  0  0  0  0
   88.4000  103.6860  -42.0120 N   0  0  0  0  0  4  0  0  0  0  0  0
   89.4730  104.2710  -41.2550 C   0  0  0  0  0  1  0  0  0  0  0  0
   87.3440  104.6720  -42.3600 C   0  0  0  0  0  1  0  0  0  0  0  0
   87.9120  103.0680  -41.3010 H   0  0  0  0  0  0  0  0  0  0  0  0
  1  7  1  0  0  0  0
  2  3  1  0  0  0  0
  2  1  2  0  0  0  0
  3  5  1  0  0  0  0
  4  3  2  0  0  0  0
  5  6  1  0  0  0  0
  6 11  1  0  0  0  0
  7  6  2  0  0  0  0
  7  8  1  0  0  0  0
  8  9  2  0  0  0  0
  9 10  1  0  0  0  0
 10 12  1  0  0  0  0
 11 10  2  0  0  0  0
 13  1  1  0  0  0  0
 13 14  1  0  0  0  0
 14 16  2  0  0  0  0
 15 14  1  0  0  0  0
 17 15  1  0  0  0  0
 18 21  1  0  0  0  0
 18 17  2  0  0  0  0
 19 17  1  0  0  0  0
 20 18  1  0  0  0  0
 21 13  2  0  0  0  0
 22 20  2  0  0  0  0
 22 24  1  0  0  0  0
 23 22  1  0  0  0  0
 24 19  2  0  0  0  0
 25 11  1  0  0  0  0
 25 26  1  0  0  0  0
 26 29  1  0  0  0  0
 26 27  1  0  0  0  0
 28 26  1  0  0  0  0
M  END
>  <Pose>
1

>  <Score>
-6.694

$$$$
