MODEL 1
REMARK VINA RESULT:    -5.925      0.000      0.000
REMARK INTER + INTRA:          -9.041
REMARK INTER:                  -7.656
REMARK INTRA:                  -1.385
REMARK UNBOUND:                -1.385
REMARK  5 active torsions:
REMARK  status: ('A' for Active; 'I' for Inactive)
REMARK    1  A    between atoms: C_7  and  N_17 
REMARK    2  A    between atoms: C_9  and  C_10 
REMARK       I    between atoms: N_20  and  C_23 
REMARK    3  A    between atoms: C_23  and  C_25 
REMARK    4  A    between atoms: C_25  and  C_26 
REMARK    5  A    between atoms: C_26  and  C_27 
ROOT
ATOM      1 Br   UNK d   1      92.247  95.546 -40.984  0.00  0.00    -0.051 Br
ATOM      2  C   UNK d   1      91.740  96.386 -42.620  0.00  0.00     0.011 A 
ATOM      3  C   UNK d   1      91.650  97.773 -42.709  0.00  0.00     0.035 A 
ATOM      4  C   UNK d   1      91.282  98.385 -43.899  0.00  0.00     0.024 A 
ATOM      5  C   UNK d   1      91.000  97.619 -45.010  0.00  0.00     0.073 A 
ATOM      6  N   UNK d   1      90.644  98.215 -46.175  0.00  0.00    -0.207 NA
ATOM      7  C   UNK d   1      90.554  99.553 -46.288  0.00  0.00     0.327 A 
ATOM      8  N   UNK d   1      90.832 100.281 -45.199  0.00  0.00    -0.206 NA
ATOM      9  C   UNK d   1      91.190  99.757 -44.013  0.00  0.00     0.085 A 
ATOM     10  C   UNK d   1      91.096  96.238 -44.895  0.00  0.00     0.034 A 
ATOM     11  C   UNK d   1      91.460  95.610 -43.724  0.00  0.00     0.021 A 
ENDROOT
BRANCH   7  12
ATOM     12  N   UNK d   1      90.177 100.147 -47.536  0.00  0.00    -0.004 N 
ATOM     13  C   UNK d   1      89.710 101.490 -47.321  0.00  0.00     0.265 C 
ATOM     14  C   UNK d   1      88.342 101.580 -46.734  0.00  0.00     0.154 C 
ATOM     15  N   UNK d   1      87.632 100.321 -46.785  0.00  0.00    -0.349 N 
ATOM     16  C   UNK d   1      87.832  99.509 -47.965  0.00  0.00     0.154 C 
ATOM     17  C   UNK d   1      86.799  99.966 -45.697  0.00  0.00     0.220 C 
ATOM     18  C   UNK d   1      89.281  99.336 -48.301  0.00  0.00     0.265 C 
ATOM     19  O   UNK d   1      86.676 100.721 -44.708  0.00  0.00    -0.273 OA
ATOM     20  H   UNK d   1      91.094 100.246 -48.067  0.00  0.00     0.290 HD
BRANCH  17  21
ATOM     21  C   UNK d   1      86.089  98.658 -45.801  0.00  0.00     0.113 C 
BRANCH  21  22
ATOM     22  C   UNK d   1      85.847  98.054 -44.451  0.00  0.00     0.122 C 
BRANCH  22  23
ATOM     23  C   UNK d   1      84.425  98.016 -44.077  0.00  0.00     0.172 C 
ATOM     24  O   UNK d   1      83.952  98.796 -43.225  0.00  0.00    -0.648 OA
ATOM     25  O   UNK d   1      83.591  97.098 -44.683  0.00  0.00    -0.648 OA
ENDBRANCH  22  23
ENDBRANCH  21  22
ENDBRANCH  17  21
ENDBRANCH   7  12
BRANCH   9  26
ATOM     26  C   UNK d   1      91.471 100.637 -42.890  0.00  0.00     0.015 A 
ATOM     27  C   UNK d   1      90.472 100.957 -41.981  0.00  0.00     0.046 A 
ATOM     28  C   UNK d   1      90.704 101.777 -40.897  0.00  0.00     0.025 A 
ATOM     29 Cl   UNK d   1      88.864 100.279 -42.246  0.00  0.00    -0.083 Cl
ATOM     30  C   UNK d   1      91.953 102.318 -40.670  0.00  0.00     0.002 A 
ATOM     31  C   UNK d   1      92.952 101.998 -41.582  0.00  0.00     0.001 A 
ATOM     32  C   UNK d   1      92.711 101.178 -42.662  0.00  0.00     0.015 A 
ENDBRANCH   9  26
TORSDOF 5
ENDMDL
