MODEL 1
REMARK VINA RESULT:    -6.060      0.000      0.000
REMARK INTER + INTRA:          -7.484
REMARK INTER:                  -7.122
REMARK INTRA:                  -0.361
REMARK UNBOUND:                -0.361
REMARK  3 active torsions:
REMARK  status: ('A' for Active; 'I' for Inactive)
REMARK    1  A    between atoms: C_7  and  C_9 
REMARK       I    between atoms: C_9  and  N_11 
REMARK       I    between atoms: N_14  and  C_17 
REMARK    2  A    between atoms: C_17  and  C_19 
REMARK    3  A    between atoms: C_19  and  N_20 
ROOT
ATOM      1  C   UNK d   1      90.618  98.715 -44.376  0.00  0.00     0.270 C 
ATOM      2  O   UNK d   1      89.875  99.269 -45.272  0.00  0.00    -0.266 OA
ATOM      3  N   UNK d   1      91.089  99.562 -43.372  0.00  0.00    -0.344 N 
ATOM      4  C   UNK d   1      91.942  99.194 -42.274  0.00  0.00     0.146 C 
ATOM      5  C   UNK d   1      92.308 100.399 -41.397  0.00  0.00     0.145 C 
ATOM      6  N   UNK d   1      92.743 101.485 -42.262  0.00  0.00    -0.348 N 
ATOM      7  C   UNK d   1      91.998 101.784 -43.486  0.00  0.00     0.145 C 
ATOM      8  C   UNK d   1      90.690 100.995 -43.385  0.00  0.00     0.146 C 
ATOM      9  C   UNK d   1      93.880 102.261 -41.946  0.00  0.00     0.248 C 
ATOM     10  O   UNK d   1      94.496 101.971 -40.892  0.00  0.00    -0.271 OA
ENDROOT
BRANCH   1  11
ATOM     11  C   UNK d   1      90.892  97.296 -44.489  0.00  0.00     0.102 A 
ATOM     12  N   UNK d   1      91.394  96.409 -43.626  0.00  0.00    -0.351 N 
ATOM     13  C   UNK d   1      91.482  95.165 -44.190  0.00  0.00     0.043 A 
ATOM     14  H   UNK d   1      91.691  96.570 -42.652  0.00  0.00     0.166 HD
ATOM     15  C   UNK d   1      91.018  95.240 -45.474  0.00  0.00    -0.006 A 
ATOM     16  C   UNK d   1      91.928  93.948 -43.708  0.00  0.00     0.031 A 
ATOM     17  C   UNK d   1      91.002  94.094 -46.274  0.00  0.00     0.032 A 
ATOM     18  C   UNK d   1      90.654  96.542 -45.666  0.00  0.00     0.049 A 
ATOM     19  C   UNK d   1      91.443  92.885 -45.804  0.00  0.00     0.011 A 
ATOM     20 Br   UNK d   1      91.426  91.306 -46.894  0.00  0.00    -0.051 Br
ATOM     21  C   UNK d   1      91.909  92.816 -44.510  0.00  0.00     0.021 A 
ENDBRANCH   1  11
BRANCH   9  22
ATOM     22  C   UNK d   1      94.280 103.338 -42.837  0.00  0.00     0.374 C 
BRANCH  22  23
ATOM     23  N   UNK d   1      94.305 104.653 -42.235  0.00  0.00     0.101 N 
ATOM     24  C   UNK d   1      92.967 104.969 -41.728  0.00  0.00     0.299 C 
ATOM     25  C   UNK d   1      92.204 105.795 -42.704  0.00  0.00     0.198 C 
ATOM     26  O   UNK d   1      92.511 105.423 -44.011  0.00  0.00    -0.388 OA
ATOM     27  C   UNK d   1      93.815 105.792 -44.349  0.00  0.00     0.198 C 
ATOM     28  C   UNK d   1      94.738 105.689 -43.157  0.00  0.00     0.299 C 
ENDBRANCH  22  23
ENDBRANCH   9  22
TORSDOF 3
ENDMDL
