MODEL 1
REMARK VINA RESULT:    -6.435      0.000      0.000
REMARK INTER + INTRA:          -7.953
REMARK INTER:                  -7.564
REMARK INTRA:                  -0.389
REMARK UNBOUND:                -0.389
REMARK  3 active torsions:
REMARK  status: ('A' for Active; 'I' for Inactive)
REMARK    1  A    between atoms: N_11  and  C_14 
REMARK    2  A    between atoms: C_14  and  C_15 
REMARK    3  A    between atoms: C_15  and  N_16 
ROOT
ATOM      1 Br   UNK d   1      91.474  91.654 -47.244  0.00  0.00    -0.051 Br
ATOM      2  C   UNK d   1      91.528  92.957 -45.858  0.00  0.00     0.011 A 
ATOM      3  C   UNK d   1      91.190  94.273 -46.096  0.00  0.00     0.035 A 
ATOM      4  C   UNK d   1      91.224  95.230 -45.102  0.00  0.00     0.023 A 
ATOM      5  C   UNK d   1      91.613  94.838 -43.835  0.00  0.00     0.045 A 
ATOM      6  N   UNK d   1      91.557  95.951 -43.081  0.00  0.00    -0.349 N 
ATOM      7  C   UNK d   1      91.151  97.016 -43.815  0.00  0.00     0.131 A 
ATOM      8  C   UNK d   1      90.934  96.577 -45.104  0.00  0.00     0.103 A 
ATOM      9  N   UNK d   1      90.521  97.470 -46.025  0.00  0.00    -0.240 NA
ATOM     10  C   UNK d   1      90.316  98.766 -45.722  0.00  0.00     0.213 A 
ATOM     11  N   UNK d   1      90.518  99.221 -44.479  0.00  0.00    -0.305 N 
ATOM     12  C   UNK d   1      90.930  98.348 -43.547  0.00  0.00     0.277 A 
ATOM     13  O   UNK d   1      91.126  98.757 -42.375  0.00  0.00    -0.265 OA
ATOM     14  C   UNK d   1      91.951  93.516 -43.611  0.00  0.00     0.032 A 
ATOM     15  C   UNK d   1      91.920  92.552 -44.599  0.00  0.00     0.021 A 
ATOM     16  H   UNK d   1      91.788  96.013 -42.072  0.00  0.00     0.166 HD
ENDROOT
BRANCH  11  17
ATOM     17  C   UNK d   1      90.298 100.638 -44.141  0.00  0.00     0.152 C 
BRANCH  17  18
ATOM     18  C   UNK d   1      91.591 101.323 -43.918  0.00  0.00     0.137 C 
BRANCH  18  19
ATOM     19  N   UNK d   1      91.702 102.114 -42.747  0.00  0.00    -0.408 N 
ATOM     20  C   UNK d   1      92.947 102.027 -42.066  0.00  0.00     0.147 C 
ATOM     21  C   UNK d   1      92.939 101.052 -40.924  0.00  0.00     0.289 C 
ATOM     22  N   UNK d   1      91.682 101.046 -40.207  0.00  0.00     0.086 N 
ATOM     23  C   UNK d   1      90.904 102.238 -40.499  0.00  0.00     0.289 C 
ATOM     24  H   UNK d   1      91.124 100.182 -40.392  0.00  0.00     0.316 HD
ATOM     25  C   UNK d   1      90.524 102.153 -41.957  0.00  0.00     0.147 C 
ENDBRANCH  18  19
ENDBRANCH  17  18
ENDBRANCH  11  17
TORSDOF 3
ENDMDL
