MODEL 1
REMARK VINA RESULT:    -7.384      0.000      0.000
REMARK INTER + INTRA:          -8.153
REMARK INTER:                  -7.816
REMARK INTRA:                  -0.337
REMARK UNBOUND:                -0.337
REMARK  1 active torsions:
REMARK  status: ('A' for Active; 'I' for Inactive)
REMARK    1  A    between atoms: C_10  and  C_15 
REMARK       I    between atoms: C_15  and  N_17 
ROOT
ATOM      1 Br   UNK d   1      91.478  92.112 -46.425  0.00  0.00    -0.051 Br
ATOM      2  C   UNK d   1      91.562  93.508 -45.133  0.00  0.00     0.012 A 
ATOM      3  C   UNK d   1      91.794  93.182 -43.813  0.00  0.00     0.028 A 
ATOM      4  C   UNK d   1      91.861  94.187 -42.839  0.00  0.00    -0.027 A 
ATOM      5  C   UNK d   1      91.693  95.475 -43.233  0.00  0.00     0.055 A 
ATOM      6  C   UNK d   1      91.459  95.849 -44.538  0.00  0.00     0.044 A 
ATOM      7  C   UNK d   1      91.397  94.848 -45.474  0.00  0.00     0.037 A 
ATOM      8  C   UNK d   1      91.308  97.185 -44.796  0.00  0.00     0.201 A 
ATOM      9  O   UNK d   1      91.097  97.536 -45.969  0.00  0.00    -0.286 OA
ATOM     10  C   UNK d   1      91.381  98.152 -43.805  0.00  0.00     0.098 A 
ATOM     11  C   UNK d   1      91.617  97.712 -42.520  0.00  0.00     0.112 A 
ATOM     12  N   UNK d   1      91.769  96.375 -42.252  0.00  0.00    -0.354 N 
ATOM     13  C   UNK d   1      92.019  95.653 -41.025  0.00  0.00     0.133 A 
ATOM     14  C   UNK d   1      92.085  94.193 -41.383  0.00  0.00     0.061 A 
ENDROOT
BRANCH  10  15
ATOM     15  C   UNK d   1      91.218  99.572 -44.097  0.00  0.00     0.259 C 
ATOM     16  O   UNK d   1      92.228 100.258 -44.377  0.00  0.00    -0.267 OA
ATOM     17  N   UNK d   1      89.921 100.185 -44.064  0.00  0.00    -0.344 N 
ATOM     18  C   UNK d   1      89.732 101.591 -44.349  0.00  0.00     0.152 C 
ATOM     19  C   UNK d   1      88.738  99.412 -43.741  0.00  0.00     0.152 C 
ATOM     20  C   UNK d   1      88.971 102.168 -43.149  0.00  0.00     0.187 C 
ATOM     21  O   UNK d   1      87.838 101.422 -42.928  0.00  0.00    -0.388 OA
ATOM     22  C   UNK d   1      88.084 100.118 -42.551  0.00  0.00     0.187 C 
ENDBRANCH  10  15
TORSDOF 1
ENDMDL
