/Users/jonathanwahrer/Desktop/Msc/3_Semester/Drug_Design_Praktikum/waehrer_HTS_screening/HTS_experiment/out/docking_results/vina_output/4agl/0624_docked.pdbqt
 OpenBabel03202223343D

 22 25  0  0  0  0  0  0  0  0999 V2000
   91.4780   92.1120  -46.4250 Br  0  0  0  0  0  0  0  0  0  0  0  0
   91.5620   93.5080  -45.1330 C   0  0  0  0  0  0  0  0  0  0  0  0
   91.7940   93.1820  -43.8130 C   0  0  0  0  0  3  0  0  0  0  0  0
   91.8610   94.1870  -42.8390 C   0  0  0  0  0  0  0  0  0  0  0  0
   91.6930   95.4750  -43.2330 C   0  0  0  0  0  0  0  0  0  0  0  0
   91.4590   95.8490  -44.5380 C   0  0  0  0  0  0  0  0  0  0  0  0
   91.3970   94.8480  -45.4740 C   0  0  0  0  0  3  0  0  0  0  0  0
   91.3080   97.1850  -44.7960 C   0  0  0  0  0  0  0  0  0  0  0  0
   91.0970   97.5360  -45.9690 O   0  0  0  0  0  0  0  0  0  0  0  0
   91.3810   98.1520  -43.8050 C   0  0  0  0  0  0  0  0  0  0  0  0
   91.6170   97.7120  -42.5200 C   0  0  0  0  0  3  0  0  0  0  0  0
   91.7690   96.3750  -42.2520 N   0  0  0  0  0  0  0  0  0  0  0  0
   92.0190   95.6530  -41.0250 C   0  0  0  0  0  3  0  0  0  0  0  0
   92.0850   94.1930  -41.3830 C   0  0  0  0  0  3  0  0  0  0  0  0
   91.2180   99.5720  -44.0970 C   0  0  0  0  0  0  0  0  0  0  0  0
   92.2280  100.2580  -44.3770 O   0  0  0  0  0  0  0  0  0  0  0  0
   89.9210  100.1850  -44.0640 N   0  0  0  0  0  0  0  0  0  0  0  0
   89.7320  101.5910  -44.3490 C   0  0  0  0  0  2  0  0  0  0  0  0
   88.7380   99.4120  -43.7410 C   0  0  0  0  0  2  0  0  0  0  0  0
   88.9710  102.1680  -43.1490 C   0  0  0  0  0  2  0  0  0  0  0  0
   87.8380  101.4220  -42.9280 O   0  0  0  0  0  0  0  0  0  0  0  0
   88.0840  100.1180  -42.5510 C   0  0  0  0  0  2  0  0  0  0  0  0
  1  2  1  0  0  0  0
  2  3  1  0  0  0  0
  3  4  2  0  0  0  0
  4 14  1  0  0  0  0
  5  4  1  0  0  0  0
  5 12  1  0  0  0  0
  6  5  2  0  0  0  0
  7  2  2  0  0  0  0
  7  6  1  0  0  0  0
  8  6  1  0  0  0  0
  8 10  1  0  0  0  0
  9  8  2  0  0  0  0
 10 11  2  0  0  0  0
 11 12  1  0  0  0  0
 12 13  1  0  0  0  0
 14 13  2  0  0  0  0
 15 17  1  0  0  0  0
 15 10  1  0  0  0  0
 16 15  2  0  0  0  0
 17 19  1  0  0  0  0
 18 17  1  0  0  0  0
 18 20  1  0  0  0  0
 19 22  1  0  0  0  0
 20 21  1  0  0  0  0
 21 22  1  0  0  0  0
M  END
>  <Pose>
1

>  <Score>
-7.384

$$$$
