/Users/jonathanwahrer/Desktop/Msc/3_Semester/Drug_Design_Praktikum/waehrer_HTS_screening/HTS_experiment/out/docking_results/vina_output/4agl/0625_docked.pdbqt
 OpenBabel03202223353D

 31 34  0  0  0  0  0  0  0  0999 V2000
   91.4500   92.0000  -46.7340 Br  0  0  0  0  0  0  0  0  0  0  0  0
   91.1560   93.7210  -46.0260 C   0  0  0  0  0  0  0  0  0  0  0  0
   90.3300   94.6320  -46.6650 C   0  0  0  0  0  3  0  0  0  0  0  0
   90.1150   95.8900  -46.1820 C   0  0  0  0  0  0  0  0  0  0  0  0
   89.3000   96.8870  -46.6390 N   0  0  0  0  0  0  0  0  0  0  0  0
   89.3860   97.9030  -45.7630 C   0  0  0  0  0  0  0  0  0  0  0  0
   90.3050   97.5550  -44.7360 C   0  0  0  0  0  0  0  0  0  0  0  0
   90.7210   96.2850  -45.0420 C   0  0  0  0  0  0  0  0  0  0  0  0
   91.5580   95.3850  -44.3770 C   0  0  0  0  0  3  0  0  0  0  0  0
   91.7840   94.1020  -44.8550 C   0  0  0  0  0  0  0  0  0  0  0  0
   88.7580   96.8610  -48.0110 C   0  0  0  0  0  2  0  0  0  0  0  0
   87.3620   96.2110  -47.8820 C   0  0  0  0  0  0  0  0  0  0  0  0
   87.0550   95.2900  -48.8420 C   0  0  0  0  0  3  0  0  0  0  0  0
   85.8070   94.6470  -48.7830 C   0  0  0  0  0  3  0  0  0  0  0  0
   84.8930   94.8990  -47.8040 C   0  0  0  0  0  3  0  0  0  0  0  0
   85.2540   95.8450  -46.8440 C   0  0  0  0  0  3  0  0  0  0  0  0
   86.4930   96.4970  -46.8940 C   0  0  0  0  0  3  0  0  0  0  0  0
   88.6510   99.1670  -45.7250 C   0  0  0  0  0  2  0  0  0  0  0  0
   87.5120   99.2810  -44.8680 N   0  0  0  0  0  4  0  0  0  0  0  0
   87.0160   98.4270  -43.9390 C   0  0  0  0  0  2  0  0  0  0  0  0
   85.4750   98.5800  -43.9350 C   0  0  0  0  0  2  0  0  0  0  0  0
   85.3490  100.0120  -44.4480 C   0  0  0  0  0  2  0  0  0  0  0  0
   86.3940   99.9510  -45.5540 C   0  0  0  0  0  2  0  0  0  0  0  0
   87.8590  100.2260  -44.2520 H   0  0  0  0  0  0  0  0  0  0  0  0
   90.8540   98.4180  -43.6820 C   0  0  0  0  0  0  0  0  0  0  0  0
   90.2400   98.4460  -42.5810 O   0  0  0  0  0  0  0  0  0  0  0  0
   91.9710   99.1780  -43.7840 O   0  0  0  0  0  0  0  0  0  0  0  0
   92.9990   99.1890  -44.7070 C   0  0  0  0  0  2  0  0  0  0  0  0
   92.6610   99.8720  -46.0260 C   0  0  0  0  0  1  0  0  0  0  0  0
   92.6130   93.1700  -44.2050 O   0  0  0  0  0  0  0  0  0  0  0  0
   92.2450   92.2280  -44.0060 H   0  0  0  0  0  0  0  0  0  0  0  0
  1  2  1  0  0  0  0
  2 10  1  0  0  0  0
  3  4  1  0  0  0  0
  3  2  2  0  0  0  0
  4  8  2  0  0  0  0
  5  4  1  0  0  0  0
  5  6  1  0  0  0  0
  6 18  1  0  0  0  0
  6  7  2  0  0  0  0
  7 25  1  0  0  0  0
  8  7  1  0  0  0  0
  8  9  1  0  0  0  0
 10  9  2  0  0  0  0
 10 30  1  0  0  0  0
 11 12  1  0  0  0  0
 11  5  1  0  0  0  0
 12 17  1  0  0  0  0
 13 14  1  0  0  0  0
 13 12  2  0  0  0  0
 14 15  2  0  0  0  0
 15 16  1  0  0  0  0
 17 16  2  0  0  0  0
 18 19  1  0  0  0  0
 19 24  1  0  0  0  0
 19 20  1  0  0  0  0
 20 21  1  0  0  0  0
 22 21  1  0  0  0  0
 23 19  1  0  0  0  0
 23 22  1  0  0  0  0
 25 26  2  0  0  0  0
 27 25  1  0  0  0  0
 28 27  1  0  0  0  0
 29 28  1  0  0  0  0
 30 31  1  0  0  0  0
M  END
>  <Pose>
1

>  <Score>
-5.632

$$$$
