MODEL 1
REMARK VINA RESULT:    -5.632      0.000      0.000
REMARK INTER + INTRA:          -9.932
REMARK INTER:                  -8.101
REMARK INTRA:                  -1.830
REMARK UNBOUND:                -1.830
REMARK  8 active torsions:
REMARK  status: ('A' for Active; 'I' for Inactive)
REMARK    1  A    between atoms: N_5  and  C_23 
REMARK    2  A    between atoms: C_6  and  C_17 
REMARK    3  A    between atoms: C_7  and  C_12 
REMARK    4  A    between atoms: C_10  and  O_11 
REMARK    5  A    between atoms: C_12  and  O_14 
REMARK    6  A    between atoms: O_14  and  C_15 
REMARK    7  A    between atoms: C_17  and  N_18 
REMARK    8  A    between atoms: C_23  and  C_24 
ROOT
ATOM      1 Br   UNK d   1      91.450  92.000 -46.734  0.00  0.00    -0.048 Br
ATOM      2  C   UNK d   1      91.156  93.721 -46.026  0.00  0.00     0.046 A 
ATOM      3  C   UNK d   1      90.330  94.632 -46.665  0.00  0.00     0.052 A 
ATOM      4  C   UNK d   1      90.115  95.890 -46.182  0.00  0.00     0.048 A 
ATOM      5  N   UNK d   1      89.300  96.887 -46.639  0.00  0.00    -0.343 N 
ATOM      6  C   UNK d   1      89.386  97.903 -45.763  0.00  0.00     0.055 A 
ATOM      7  C   UNK d   1      90.305  97.555 -44.736  0.00  0.00     0.076 A 
ATOM      8  C   UNK d   1      90.721  96.285 -45.042  0.00  0.00     0.012 A 
ATOM      9  C   UNK d   1      91.558  95.385 -44.377  0.00  0.00     0.052 A 
ATOM     10  C   UNK d   1      91.784  94.102 -44.855  0.00  0.00     0.084 A 
ENDROOT
BRANCH   5  11
ATOM     11  C   UNK d   1      88.758  96.861 -48.011  0.00  0.00     0.167 C 
BRANCH  11  12
ATOM     12  C   UNK d   1      87.362  96.211 -47.882  0.00  0.00    -0.040 A 
ATOM     13  C   UNK d   1      87.055  95.290 -48.842  0.00  0.00     0.009 A 
ATOM     14  C   UNK d   1      85.807  94.647 -48.783  0.00  0.00     0.001 A 
ATOM     15  C   UNK d   1      84.893  94.899 -47.804  0.00  0.00     0.000 A 
ATOM     16  C   UNK d   1      85.254  95.845 -46.844  0.00  0.00     0.001 A 
ATOM     17  C   UNK d   1      86.493  96.497 -46.894  0.00  0.00     0.009 A 
ENDBRANCH  11  12
ENDBRANCH   5  11
BRANCH   6  18
ATOM     18  C   UNK d   1      88.651  99.167 -45.725  0.00  0.00     0.292 C 
BRANCH  18  19
ATOM     19  N   UNK d   1      87.512  99.281 -44.868  0.00  0.00    -0.066 N 
ATOM     20  C   UNK d   1      87.016  98.427 -43.939  0.00  0.00     0.235 C 
ATOM     21  C   UNK d   1      85.475  98.580 -43.935  0.00  0.00     0.029 C 
ATOM     22  C   UNK d   1      85.349 100.012 -44.448  0.00  0.00     0.029 C 
ATOM     23  C   UNK d   1      86.394  99.951 -45.554  0.00  0.00     0.235 C 
ATOM     24  H   UNK d   1      87.859 100.226 -44.252  0.00  0.00     0.280 HD
ENDBRANCH  18  19
ENDBRANCH   6  18
BRANCH   7  25
ATOM     25  C   UNK d   1      90.854  98.418 -43.682  0.00  0.00     0.296 C 
ATOM     26  O   UNK d   1      90.240  98.446 -42.581  0.00  0.00    -0.259 OA
BRANCH  25  27
ATOM     27  O   UNK d   1      91.971  99.178 -43.784  0.00  0.00    -0.318 OA
BRANCH  27  28
ATOM     28  C   UNK d   1      92.999  99.189 -44.707  0.00  0.00     0.174 C 
ATOM     29  C   UNK d   1      92.661  99.872 -46.026  0.00  0.00     0.034 C 
ENDBRANCH  27  28
ENDBRANCH  25  27
ENDBRANCH   7  25
BRANCH  10  30
ATOM     30  O   UNK d   1      92.613  93.170 -44.205  0.00  0.00    -0.359 OA
ATOM     31  H   UNK d   1      92.245  92.228 -44.006  0.00  0.00     0.217 HD
ENDBRANCH  10  30
TORSDOF 8
ENDMDL
