MODEL 1
REMARK VINA RESULT:    -6.236      0.000      0.000
REMARK INTER + INTRA:          -9.451
REMARK INTER:                  -8.606
REMARK INTRA:                  -0.845
REMARK UNBOUND:                -0.845
REMARK  7 active torsions:
REMARK  status: ('A' for Active; 'I' for Inactive)
REMARK    1  A    between atoms: C_6  and  O_28 
REMARK    2  A    between atoms: C_10  and  N_11 
REMARK       I    between atoms: N_11  and  C_12 
REMARK    3  A    between atoms: C_12  and  C_14 
REMARK    4  A    between atoms: C_14  and  N_15 
REMARK    5  A    between atoms: N_18  and  C_21 
REMARK    6  A    between atoms: C_21  and  C_22 
REMARK       I    between atoms: C_22  and  N_24 
REMARK    7  A    between atoms: N_24  and  C_25 
ROOT
ATOM      1  N   UNK d   1      91.256  96.847 -44.156  0.00  0.00    -0.324 N 
ATOM      2  C   UNK d   1      91.903  97.931 -44.762  0.00  0.00     0.239 C 
ATOM      3  O   UNK d   1      92.691  97.741 -45.723  0.00  0.00    -0.271 OA
ATOM      4  H   UNK d   1      90.594  97.109 -43.363  0.00  0.00     0.169 HD
ENDROOT
BRANCH   2   5
ATOM      5  C   UNK d   1      91.724  99.327 -44.347  0.00  0.00     0.220 C 
BRANCH   5   6
ATOM      6  N   UNK d   1      90.423  99.768 -44.038  0.00  0.00    -0.401 N 
ATOM      7  C   UNK d   1      90.037  99.823 -42.675  0.00  0.00     0.136 C 
ATOM      8  C   UNK d   1      88.517  99.857 -42.506  0.00  0.00     0.136 C 
ATOM      9  N   UNK d   1      88.020 100.919 -43.272  0.00  0.00    -0.401 N 
ATOM     10  C   UNK d   1      88.905 101.620 -44.118  0.00  0.00     0.136 C 
ATOM     11  C   UNK d   1      89.903 100.797 -44.875  0.00  0.00     0.136 C 
BRANCH   9  12
ATOM     12  C   UNK d   1      86.651 100.923 -43.524  0.00  0.00     0.219 C 
BRANCH  12  13
ATOM     13  C   UNK d   1      86.056  99.767 -44.195  0.00  0.00     0.235 C 
ATOM     14  O   UNK d   1      84.987  99.300 -43.639  0.00  0.00    -0.272 OA
ATOM     15  N   UNK d   1      86.497  99.119 -45.344  0.00  0.00    -0.355 N 
ATOM     16  H   UNK d   1      87.346  99.453 -45.844  0.00  0.00     0.162 HD
BRANCH  15  17
ATOM     17  C   UNK d   1      85.815  97.967 -45.926  0.00  0.00     0.084 A 
ATOM     18  C   UNK d   1      86.528  97.039 -46.819  0.00  0.00     0.027 A 
ATOM     19  C   UNK d   1      86.192  96.595 -45.408  0.00  0.00     0.027 A 
ENDBRANCH  15  17
ENDBRANCH  12  13
ENDBRANCH   9  12
ENDBRANCH   5   6
ENDBRANCH   2   5
BRANCH   1  20
ATOM     20  C   UNK d   1      91.372  95.479 -44.489  0.00  0.00     0.054 A 
ATOM     21  C   UNK d   1      91.743  94.576 -43.505  0.00  0.00     0.040 A 
ATOM     22 Br   UNK d   1      92.101  95.271 -41.753  0.00  0.00    -0.049 Br
ATOM     23  C   UNK d   1      91.873  93.223 -43.723  0.00  0.00     0.055 A 
ATOM     24  C   UNK d   1      91.634  92.691 -44.966  0.00  0.00     0.089 A 
ATOM     25  N   UNK d   1      91.663  91.461 -45.513  0.00  0.00    -0.207 NA
ATOM     26  C   UNK d   1      91.268  93.564 -45.951  0.00  0.00     0.066 A 
ATOM     27  C   UNK d   1      91.328  91.519 -46.816  0.00  0.00     0.244 A 
ATOM     28  N   UNK d   1      91.089  92.819 -47.061  0.00  0.00    -0.319 N 
ATOM     29  H   UNK d   1      90.800  93.218 -47.997  0.00  0.00     0.169 HD
ATOM     30  C   UNK d   1      91.133  94.943 -45.734  0.00  0.00     0.063 A 
BRANCH  27  31
ATOM     31  O   UNK d   1      91.248  90.437 -47.715  0.00  0.00    -0.331 OA
ATOM     32  H   UNK d   1      90.311  90.261 -48.103  0.00  0.00     0.221 HD
ENDBRANCH  27  31
ENDBRANCH   1  20
TORSDOF 7
ENDMDL
