/Users/jonathanwahrer/Desktop/Msc/3_Semester/Drug_Design_Praktikum/waehrer_HTS_screening/HTS_experiment/out/docking_results/vina_output/4agl/0648_docked.pdbqt
 OpenBabel03202223363D

 32 35  0  0  0  0  0  0  0  0999 V2000
   91.8450   97.3960  -45.4160 C   0  0  0  0  0  0  0  0  0  0  0  0
   93.0230   97.9050  -45.3990 O   0  0  0  0  0  0  0  0  0  0  0  0
   90.8010   98.2220  -45.7410 N   0  0  0  0  0  0  0  0  0  0  0  0
   89.4230   97.8460  -45.7980 C   0  0  0  0  0  2  0  0  0  0  0  0
   88.7090   98.4630  -44.6400 C   0  0  0  0  0  2  0  0  0  0  0  0
   89.3630   99.6870  -44.1990 N   0  0  0  0  0  0  0  0  0  0  0  0
   90.2270  100.4570  -45.0300 C   0  0  0  0  0  2  0  0  0  0  0  0
   91.0120   99.6490  -46.0580 C   0  0  0  0  0  2  0  0  0  0  0  0
   89.1030  100.0130  -42.8250 C   0  0  0  0  0  0  0  0  0  0  0  0
   88.4110   99.1490  -42.1410 O   0  0  0  0  0  0  0  0  0  0  0  0
   89.5460  101.1940  -42.1700 C   0  0  0  0  0  0  0  0  0  0  0  0
   89.0080  102.4490  -42.4260 N   0  0  0  0  0  0  0  0  0  0  0  0
   89.6380  103.3440  -41.7380 N   0  0  0  0  0  0  0  0  0  0  0  0
   87.9080  102.7250  -43.3200 C   0  0  0  0  0  1  0  0  0  0  0  0
   90.6020  102.7990  -41.0010 C   0  0  0  0  0  0  0  0  0  0  0  0
   90.5390  101.4190  -41.2830 C   0  0  0  0  0  3  0  0  0  0  0  0
   91.5280  103.4260  -40.0760 C   0  0  0  0  0  0  0  0  0  0  0  0
   91.1600  104.5500  -39.5780 O   0  0  0  0  0  0  0  0  0  0  0  0
   92.7580  102.9140  -39.6950 N   0  0  0  0  0  0  0  0  0  0  0  0
   93.5530  103.6770  -38.7270 C   0  0  0  0  0  2  0  0  0  0  0  0
   93.3270  101.7010  -40.1930 C   0  0  0  0  0  2  0  0  0  0  0  0
   94.9140  103.8600  -39.3640 C   0  0  0  0  0  2  0  0  0  0  0  0
   95.4690  102.5690  -39.4340 O   0  0  0  0  0  0  0  0  0  0  0  0
   94.8300  101.8380  -40.3980 C   0  0  0  0  0  2  0  0  0  0  0  0
   91.7680   95.9960  -45.0850 C   0  0  0  0  0  0  0  0  0  0  0  0
   91.6350   95.4250  -43.8150 C   0  0  0  0  0  0  0  0  0  0  0  0
   91.5240   96.4370  -42.1820 Br  0  0  0  0  0  0  0  0  0  0  0  0
   91.6010   94.0640  -43.9450 C   0  0  0  0  0  3  0  0  0  0  0  0
   91.7080   93.7910  -45.2500 N   0  0  0  0  0  0  0  0  0  0  0  0
   91.8050   94.9120  -45.9130 N   0  0  0  0  0  0  0  0  0  0  0  0
   91.7120   92.4220  -45.7510 C   0  0  0  0  0  2  0  0  0  0  0  0
   91.0140   92.2800  -47.0770 C   0  0  0  0  0  1  0  0  0  0  0  0
  1  2  2  0  0  0  0
  1 25  1  0  0  0  0
  3  1  1  0  0  0  0
  4  3  1  0  0  0  0
  4  5  1  0  0  0  0
  5  6  1  0  0  0  0
  6  9  1  0  0  0  0
  7  6  1  0  0  0  0
  8  3  1  0  0  0  0
  8  7  1  0  0  0  0
  9 11  1  0  0  0  0
  9 10  2  0  0  0  0
 11 16  2  0  0  0  0
 12 11  1  0  0  0  0
 12 13  1  0  0  0  0
 13 15  2  0  0  0  0
 14 12  1  0  0  0  0
 15 17  1  0  0  0  0
 16 15  1  0  0  0  0
 17 19  1  0  0  0  0
 17 18  2  0  0  0  0
 19 20  1  0  0  0  0
 21 19  1  0  0  0  0
 22 20  1  0  0  0  0
 23 22  1  0  0  0  0
 24 21  1  0  0  0  0
 24 23  1  0  0  0  0
 25 26  1  0  0  0  0
 26 27  1  0  0  0  0
 28 26  2  0  0  0  0
 29 28  1  0  0  0  0
 30 29  1  0  0  0  0
 30 25  2  0  0  0  0
 31 29  1  0  0  0  0
 32 31  1  0  0  0  0
M  END
>  <Pose>
1

>  <Score>
-6.467

$$$$
