MODEL 1
REMARK VINA RESULT:    -6.467      0.000      0.000
REMARK INTER + INTRA:          -8.555
REMARK INTER:                  -7.979
REMARK INTRA:                  -0.576
REMARK UNBOUND:                -0.576
REMARK  4 active torsions:
REMARK  status: ('A' for Active; 'I' for Inactive)
REMARK    1  A    between atoms: N_4  and  C_31 
REMARK    2  A    between atoms: C_6  and  C_7 
REMARK       I    between atoms: C_7  and  N_9 
REMARK       I    between atoms: N_12  and  C_15 
REMARK    3  A    between atoms: C_15  and  C_17 
REMARK    4  A    between atoms: C_20  and  C_22 
REMARK       I    between atoms: C_22  and  N_24 
ROOT
ATOM      1  C   UNK d   1      91.845  97.396 -45.416  0.00  0.00     0.275 C 
ATOM      2  O   UNK d   1      93.023  97.905 -45.399  0.00  0.00    -0.266 OA
ATOM      3  N   UNK d   1      90.801  98.222 -45.741  0.00  0.00    -0.344 N 
ATOM      4  C   UNK d   1      89.423  97.846 -45.798  0.00  0.00     0.146 C 
ATOM      5  C   UNK d   1      88.709  98.463 -44.640  0.00  0.00     0.145 C 
ATOM      6  N   UNK d   1      89.363  99.687 -44.199  0.00  0.00    -0.355 N 
ATOM      7  C   UNK d   1      90.227 100.457 -45.030  0.00  0.00     0.145 C 
ATOM      8  C   UNK d   1      91.012  99.649 -46.058  0.00  0.00     0.146 C 
ATOM      9  C   UNK d   1      89.103 100.013 -42.825  0.00  0.00     0.205 C 
ATOM     10  O   UNK d   1      88.411  99.149 -42.141  0.00  0.00    -0.170 OA
ENDROOT
BRANCH   9  11
ATOM     11  C   UNK d   1      89.546 101.194 -42.170  0.00  0.00     0.108 A 
ATOM     12  N   UNK d   1      89.008 102.449 -42.426  0.00  0.00    -0.269 N 
ATOM     13  N   UNK d   1      89.638 103.344 -41.738  0.00  0.00    -0.167 NA
ATOM     14  C   UNK d   1      87.908 102.725 -43.320  0.00  0.00     0.180 C 
ATOM     15  C   UNK d   1      90.602 102.799 -41.001  0.00  0.00     0.147 A 
ATOM     16  C   UNK d   1      90.539 101.419 -41.283  0.00  0.00     0.075 A 
BRANCH  15  17
ATOM     17  C   UNK d   1      91.528 103.426 -40.076  0.00  0.00     0.274 C 
ATOM     18  O   UNK d   1      91.160 104.550 -39.578  0.00  0.00    -0.266 OA
ATOM     19  N   UNK d   1      92.758 102.914 -39.695  0.00  0.00    -0.343 N 
ATOM     20  C   UNK d   1      93.553 103.677 -38.727  0.00  0.00     0.152 C 
ATOM     21  C   UNK d   1      93.327 101.701 -40.193  0.00  0.00     0.152 C 
ATOM     22  C   UNK d   1      94.914 103.860 -39.364  0.00  0.00     0.187 C 
ATOM     23  O   UNK d   1      95.469 102.569 -39.434  0.00  0.00    -0.388 OA
ATOM     24  C   UNK d   1      94.830 101.838 -40.398  0.00  0.00     0.187 C 
ENDBRANCH  15  17
ENDBRANCH   9  11
BRANCH   1  25
ATOM     25  C   UNK d   1      91.768  95.996 -45.085  0.00  0.00     0.163 A 
ATOM     26  C   UNK d   1      91.635  95.425 -43.815  0.00  0.00     0.064 A 
ATOM     27 Br   UNK d   1      91.524  96.437 -42.182  0.00  0.00    -0.047 Br
ATOM     28  C   UNK d   1      91.601  94.064 -43.945  0.00  0.00     0.134 A 
ATOM     29  N   UNK d   1      91.708  93.791 -45.250  0.00  0.00    -0.279 N 
ATOM     30  N   UNK d   1      91.805  94.912 -45.913  0.00  0.00    -0.166 NA
BRANCH  29  31
ATOM     31  C   UNK d   1      91.712  92.422 -45.751  0.00  0.00     0.146 C 
ATOM     32  C   UNK d   1      91.014  92.280 -47.077  0.00  0.00     0.028 C 
ENDBRANCH  29  31
ENDBRANCH   1  25
TORSDOF 4
ENDMDL
