MODEL 1
REMARK VINA RESULT:    -6.090      0.000      0.000
REMARK INTER + INTRA:          -9.045
REMARK INTER:                  -7.870
REMARK INTRA:                  -1.175
REMARK UNBOUND:                -1.175
REMARK  5 active torsions:
REMARK  status: ('A' for Active; 'I' for Inactive)
REMARK    1  A    between atoms: N_4  and  C_7 
REMARK    2  A    between atoms: C_7  and  C_8 
REMARK       I    between atoms: C_8  and  N_10 
REMARK    3  A    between atoms: N_10  and  C_11 
REMARK    4  A    between atoms: C_11  and  C_12 
REMARK    5  A    between atoms: C_15  and  O_24 
ROOT
ATOM      1  C   UNK d   1      91.421  96.857 -43.927  0.00  0.00     0.003 A 
ATOM      2  C   UNK d   1      91.793  96.898 -42.608  0.00  0.00     0.116 A 
ATOM      3  C   UNK d   1      92.144  95.748 -41.925  0.00  0.00     0.140 A 
ATOM      4  C   UNK d   1      92.129  94.521 -42.550  0.00  0.00     0.120 A 
ATOM      5  C   UNK d   1      91.747  94.464 -43.904  0.00  0.00     0.075 A 
ATOM      6  C   UNK d   1      91.401  95.604 -44.580  0.00  0.00    -0.027 A 
ATOM      7  C   UNK d   1      91.015  95.533 -45.991  0.00  0.00     0.060 C 
ATOM      8  C   UNK d   1      90.553  94.229 -46.510  0.00  0.00     0.130 C 
ATOM      9  N   UNK d   1      91.216  93.083 -45.902  0.00  0.00    -0.352 N 
ATOM     10  C   UNK d   1      91.665  93.161 -44.556  0.00  0.00     0.256 C 
ATOM     11  O   UNK d   1      91.985  92.094 -43.950  0.00  0.00    -0.267 OA
ATOM     12  C   UNK d   1      91.362  91.903 -46.723  0.00  0.00     0.152 C 
ATOM     13  O   UNK d   1      92.465  96.137 -40.639  0.00  0.00    -0.320 OA
ATOM     14  C   UNK d   1      92.499  97.538 -40.541  0.00  0.00     0.352 C 
ATOM     15  O   UNK d   1      91.893  98.011 -41.741  0.00  0.00    -0.322 OA
ENDROOT
BRANCH   1  16
ATOM     16  C   UNK d   1      90.998  98.063 -44.671  0.00  0.00     0.164 C 
BRANCH  16  17
ATOM     17  N   UNK d   1      91.789  99.239 -44.360  0.00  0.00    -0.355 N 
ATOM     18  C   UNK d   1      91.516 100.567 -44.607  0.00  0.00     0.237 C 
ATOM     19  O   UNK d   1      90.444 100.931 -45.190  0.00  0.00    -0.272 OA
ATOM     20  H   UNK d   1      92.706  99.003 -43.862  0.00  0.00     0.162 HD
BRANCH  18  21
ATOM     21  C   UNK d   1      92.468 101.636 -44.201  0.00  0.00     0.253 C 
BRANCH  21  22
ATOM     22  N   UNK d   1      92.462 101.672 -42.726  0.00  0.00    -0.271 N 
ATOM     23  C   UNK d   1      93.459 102.028 -41.924  0.00  0.00     0.133 A 
ATOM     24  C   UNK d   1      93.023 101.918 -40.624  0.00  0.00     0.047 A 
ATOM     25 Br   UNK d   1      94.004 102.285 -39.027  0.00  0.00    -0.048 Br
ATOM     26  C   UNK d   1      91.719 101.479 -40.655  0.00  0.00     0.159 A 
ATOM     27  N   UNK d   1      91.426 101.346 -41.957  0.00  0.00    -0.183 NA
ENDBRANCH  21  22
ENDBRANCH  18  21
ENDBRANCH  16  17
ENDBRANCH   1  16
BRANCH   4  28
ATOM     28  O   UNK d   1      92.476  93.350 -41.900  0.00  0.00    -0.352 OA
ATOM     29  C   UNK d   1      93.793  93.129 -41.443  0.00  0.00     0.210 C 
ENDBRANCH   4  28
TORSDOF 5
ENDMDL
