/Users/jonathanwahrer/Desktop/Msc/3_Semester/Drug_Design_Praktikum/waehrer_HTS_screening/HTS_experiment/out/docking_results/vina_output/4agl/0662_docked.pdbqt
 OpenBabel03202223363D

 25 29  0  0  0  0  0  0  0  0999 V2000
   91.5420   93.1860  -45.4520 C   0  0  0  0  0  0  0  0  0  0  0  0
   91.8430   92.7980  -44.2030 N   0  0  0  0  0  0  0  0  0  0  0  0
   91.8430   93.8480  -43.3820 N   0  0  0  0  0  0  0  0  0  0  0  0
   91.5300   94.9470  -44.1270 C   0  0  0  0  0  0  0  0  0  0  0  0
   91.3510   94.5140  -45.3900 N   0  0  0  0  0  0  0  0  0  0  0  0
   91.4660   96.1700  -43.4940 C   0  0  0  0  0  0  0  0  0  0  0  0
   91.7050   96.3230  -42.1400 C   0  0  0  0  0  0  0  0  0  0  0  0
   91.5710   97.6200  -41.8130 N   0  0  0  0  0  0  0  0  0  0  0  0
   91.2560   98.2710  -42.9210 N   0  0  0  0  0  0  0  0  0  0  0  0
   91.1830   97.4240  -43.9680 C   0  0  0  0  0  3  0  0  0  0  0  0
   92.0090   95.2140  -41.4480 N   0  0  0  0  0  0  0  0  0  0  0  0
   92.0700   94.0240  -42.0680 C   0  0  0  0  0  3  0  0  0  0  0  0
   91.6860   98.0580  -40.8740 H   0  0  0  0  0  0  0  0  0  0  0  0
   91.4450   92.3220  -46.6280 C   0  0  0  0  0  0  0  0  0  0  0  0
   90.5990   92.4250  -47.6670 N   0  0  0  0  0  0  0  0  0  0  0  0
   90.8050   91.4600  -48.5460 N   0  0  0  0  0  0  0  0  0  0  0  0
   91.8070   90.6770  -48.1100 C   0  0  0  0  0  3  0  0  0  0  0  0
   92.2200   91.2130  -46.8940 C   0  0  0  0  0  3  0  0  0  0  0  0
   90.0590   91.2770  -49.7940 C   0  0  0  0  0  2  0  0  0  0  0  0
   89.5450   89.9280  -49.9100 N   0  0  0  0  0  0  0  0  0  0  0  0
   89.9690   88.9890  -50.7720 C   0  0  0  0  0  3  0  0  0  0  0  0
   89.2250   87.8450  -50.5640 C   0  0  0  0  0  0  0  0  0  0  0  0
   89.3890   86.2060  -51.4940 Br  0  0  0  0  0  0  0  0  0  0  0  0
   88.3420   88.1340  -49.5480 C   0  0  0  0  0  3  0  0  0  0  0  0
   88.5730   89.4140  -49.1790 N   0  0  0  0  0  0  0  0  0  0  0  0
  1  5  1  0  0  0  0
  1  2  2  0  0  0  0
  2  3  1  0  0  0  0
  3 12  1  0  0  0  0
  4  6  1  0  0  0  0
  4  3  1  0  0  0  0
  5  4  2  0  0  0  0
  6  7  2  0  0  0  0
  7  8  1  0  0  0  0
  7 11  1  0  0  0  0
  8 13  1  0  0  0  0
  9  8  1  0  0  0  0
 10  6  1  0  0  0  0
 10  9  2  0  0  0  0
 12 11  2  0  0  0  0
 14  1  1  0  0  0  0
 15 14  2  0  0  0  0
 16 17  1  0  0  0  0
 16 15  1  0  0  0  0
 17 18  2  0  0  0  0
 18 14  1  0  0  0  0
 19 16  1  0  0  0  0
 20 19  1  0  0  0  0
 20 25  1  0  0  0  0
 21 22  2  0  0  0  0
 21 20  1  0  0  0  0
 22 24  1  0  0  0  0
 23 22  1  0  0  0  0
 24 25  2  0  0  0  0
M  END
>  <Pose>
1

>  <Score>
-7.092

$$$$
