MODEL 1
REMARK VINA RESULT:    -7.266      0.000      0.000
REMARK INTER + INTRA:          -8.399
REMARK INTER:                  -8.115
REMARK INTRA:                  -0.284
REMARK UNBOUND:                -0.284
REMARK  2 active torsions:
REMARK  status: ('A' for Active; 'I' for Inactive)
REMARK    1  A    between atoms: N_4  and  C_7 
REMARK    2  A    between atoms: C_10  and  C_13 
REMARK       I    between atoms: C_13  and  N_15 
ROOT
ATOM      1  C   UNK d   1      91.226 100.821 -43.771  0.00  0.00     0.253 C 
ATOM      2  O   UNK d   1      91.514 101.442 -44.870  0.00  0.00    -0.267 OA
ATOM      3  N   UNK d   1      90.922 101.628 -42.688  0.00  0.00    -0.348 N 
ATOM      4  C   UNK d   1      90.509 101.308 -41.348  0.00  0.00     0.129 C 
ATOM      5  C   UNK d   1      91.735 101.429 -40.463  0.00  0.00     0.061 C 
ATOM      6  C   UNK d   1      92.593 102.596 -40.907  0.00  0.00     0.118 C 
ATOM      7  N   UNK d   1      93.104 103.229 -39.711  0.00  0.00    -0.324 N 
ATOM      8  C   UNK d   1      94.280 102.536 -39.319  0.00  0.00     0.323 C 
ATOM      9  O   UNK d   1      94.838 102.522 -38.174  0.00  0.00    -0.247 OA
ATOM     10  N   UNK d   1      94.746 101.829 -40.479  0.00  0.00    -0.277 N 
ATOM     11  C   UNK d   1      93.828 102.117 -41.556  0.00  0.00     0.254 C 
ATOM     12  O   UNK d   1      94.096 101.968 -42.767  0.00  0.00    -0.270 OA
ATOM     13  C   UNK d   1      91.846 103.618 -41.702  0.00  0.00     0.061 C 
ATOM     14  C   UNK d   1      91.080 103.105 -42.874  0.00  0.00     0.129 C 
ATOM     15  H   UNK d   1      92.716 104.044 -39.198  0.00  0.00     0.165 HD
ATOM     16  H   UNK d   1      95.581 101.212 -40.582  0.00  0.00     0.173 HD
ENDROOT
BRANCH   1  17
ATOM     17  C   UNK d   1      91.275  99.380 -43.871  0.00  0.00     0.032 A 
ATOM     18  C   UNK d   1      91.261  98.777 -45.146  0.00  0.00     0.019 A 
ATOM     19  C   UNK d   1      91.343  97.422 -45.325  0.00  0.00     0.032 A 
ATOM     20  C   UNK d   1      91.446  96.554 -44.265  0.00  0.00     0.058 A 
ATOM     21  C   UNK d   1      91.462  97.113 -43.016  0.00  0.00     0.032 A 
ATOM     22  C   UNK d   1      91.380  98.501 -42.819  0.00  0.00     0.019 A 
BRANCH  20  23
ATOM     23  N   UNK d   1      91.530  95.153 -44.481  0.00  0.00    -0.244 N 
ATOM     24  C   UNK d   1      91.387  94.471 -45.631  0.00  0.00     0.139 A 
ATOM     25  C   UNK d   1      91.546  93.124 -45.387  0.00  0.00     0.047 A 
ATOM     26 Br   UNK d   1      91.447  91.686 -46.662  0.00  0.00    -0.048 Br
ATOM     27  C   UNK d   1      91.792  93.024 -44.035  0.00  0.00     0.159 A 
ATOM     28  N   UNK d   1      91.771  94.262 -43.543  0.00  0.00    -0.179 NA
ENDBRANCH  20  23
ENDBRANCH   1  17
TORSDOF 2
ENDMDL
