/Users/jonathanwahrer/Desktop/Msc/3_Semester/Drug_Design_Praktikum/waehrer_HTS_screening/HTS_experiment/out/docking_results/vina_output/4agl/0666_docked.pdbqt
 OpenBabel03202223373D

 28 31  0  0  0  0  0  0  0  0999 V2000
   90.9500   97.9760  -44.9560 C   0  0  0  0  0  0  0  0  0  0  0  0
   89.8540   98.5400  -45.3680 C   0  0  0  0  0  0  0  0  0  0  0  0
   90.2550   99.6510  -46.2330 C   0  0  0  0  0  0  0  0  0  0  0  0
   89.4350  100.4290  -46.8130 O   0  0  0  0  0  0  0  0  0  0  0  0
   91.6840   99.7380  -46.3300 N   0  0  0  0  0  0  0  0  0  0  0  0
   92.1410   98.6630  -45.5120 C   0  0  0  0  0  0  0  0  0  0  0  0
   93.3440   98.3530  -45.3010 O   0  0  0  0  0  0  0  0  0  0  0  0
   91.1100   96.8610  -44.0990 N   0  0  0  0  0  0  0  0  0  0  0  0
   91.1280   96.9790  -43.0870 H   0  0  0  0  0  0  0  0  0  0  0  0
   91.2460   95.5830  -44.6880 C   0  0  0  0  0  0  0  0  0  0  0  0
   90.8650   95.3490  -45.9730 N   0  0  0  0  0  0  0  0  0  0  0  0
   90.9590   94.1560  -46.5700 C   0  0  0  0  0  3  0  0  0  0  0  0
   91.4580   93.0700  -45.9000 C   0  0  0  0  0  0  0  0  0  0  0  0
   91.5950   91.3480  -46.7200 Br  0  0  0  0  0  0  0  0  0  0  0  0
   91.8630   93.2340  -44.5960 C   0  0  0  0  0  3  0  0  0  0  0  0
   91.7570   94.4670  -44.0130 C   0  0  0  0  0  3  0  0  0  0  0  0
   88.5020   98.1820  -45.0760 N   0  0  0  0  0  0  0  0  0  0  0  0
   87.8650   97.2820  -45.8470 C   0  0  0  0  0  2  0  0  0  0  0  0
   86.5320   96.9130  -45.5920 C   0  0  0  0  0  3  0  0  0  0  0  0
   85.8510   97.4820  -44.5320 C   0  0  0  0  0  3  0  0  0  0  0  0
   86.5260   98.4010  -43.7570 C   0  0  0  0  0  3  0  0  0  0  0  0
   87.8250   98.7320  -44.0380 C   0  0  0  0  0  3  0  0  0  0  0  0
   92.4460  100.6840  -47.0630 C   0  0  0  0  0  0  0  0  0  0  0  0
   92.6720  101.9670  -46.6350 C   0  0  0  0  0  3  0  0  0  0  0  0
   93.4500  102.8760  -47.3830 C   0  0  0  0  0  3  0  0  0  0  0  0
   94.0110  102.4920  -48.5800 C   0  0  0  0  0  3  0  0  0  0  0  0
   93.7890  101.2100  -49.0120 C   0  0  0  0  0  3  0  0  0  0  0  0
   93.0170  100.3240  -48.2590 C   0  0  0  0  0  3  0  0  0  0  0  0
  1  8  1  0  0  0  0
  2 17  1  0  0  0  0
  2  1  2  0  0  0  0
  3  2  1  0  0  0  0
  4  3  2  0  0  0  0
  5  3  1  0  0  0  0
  5  6  1  0  0  0  0
  6  7  2  0  0  0  0
  6  1  1  0  0  0  0
  8  9  1  0  0  0  0
 10  8  1  0  0  0  0
 10 16  1  0  0  0  0
 11 10  2  0  0  0  0
 12 11  1  0  0  0  0
 12 13  2  0  0  0  0
 13 15  1  0  0  0  0
 14 13  1  0  0  0  0
 15 16  2  0  0  0  0
 17 22  1  0  0  0  0
 18 19  1  0  0  0  0
 18 17  1  0  0  0  0
 19 20  2  0  0  0  0
 20 21  1  0  0  0  0
 22 21  2  0  0  0  0
 23 24  1  0  0  0  0
 23  5  1  0  0  0  0
 25 24  2  0  0  0  0
 26 25  1  0  0  0  0
 27 26  2  0  0  0  0
 27 28  1  0  0  0  0
 28 23  2  0  0  0  0
M  END
>  <Pose>
1

>  <Score>
-6.177

$$$$
