MODEL 1
REMARK VINA RESULT:    -6.525      0.000      0.000
REMARK INTER + INTRA:          -8.107
REMARK INTER:                  -7.669
REMARK INTRA:                  -0.438
REMARK UNBOUND:                -0.438
REMARK  3 active torsions:
REMARK  status: ('A' for Active; 'I' for Inactive)
REMARK    1  A    between atoms: C_5  and  N_8 
REMARK    2  A    between atoms: C_10  and  C_12 
REMARK    3  A    between atoms: C_12  and  N_13 
ROOT
ATOM      1  C   UNK d   1      90.308  97.050 -45.301  0.00  0.00     0.160 C 
ENDROOT
BRANCH   1   2
ATOM      2  C   UNK d   1      90.810  97.843 -44.135  0.00  0.00     0.043 C 
ATOM      3  C   UNK d   1      91.186  99.282 -44.429  0.00  0.00     0.149 C 
ATOM      4  N   UNK d   1      90.733  99.555 -43.095  0.00  0.00    -0.213 N 
ATOM      5  C   UNK d   1      89.732  98.552 -43.323  0.00  0.00     0.149 C 
BRANCH   4   6
ATOM      6  C   UNK d   1      91.108 100.414 -42.057  0.00  0.00     0.724 A 
ATOM      7  N   UNK d   1      90.368 101.464 -41.642  0.00  0.00    -0.074 NA
ATOM      8  C   UNK d   1      90.704 102.291 -40.660  0.00  0.00     0.157 A 
ATOM      9  C   UNK d   1      91.889 102.099 -39.988  0.00  0.00     0.047 A 
ATOM     10 Br   UNK d   1      92.402 103.274 -38.568  0.00  0.00    -0.048 Br
ATOM     11  C   UNK d   1      92.674 101.036 -40.383  0.00  0.00     0.157 A 
ATOM     12  N   UNK d   1      92.283 100.229 -41.385  0.00  0.00    -0.074 NA
ENDBRANCH   4   6
ENDBRANCH   1   2
BRANCH   1  13
ATOM     13  N   UNK d   1      90.810  95.708 -45.173  0.00  0.00    -0.257 N 
ATOM     14  N   UNK d   1      91.476  95.311 -44.014  0.00  0.00    -0.296 N 
ATOM     15  C   UNK d   1      91.988  93.997 -43.842  0.00  0.00     0.051 A 
ATOM     16  H   UNK d   1      91.586  96.041 -43.251  0.00  0.00     0.187 HD
ATOM     17  C   UNK d   1      92.610  93.674 -42.724  0.00  0.00    -0.051 A 
ATOM     18  C   UNK d   1      91.832  93.008 -44.890  0.00  0.00     0.036 A 
ATOM     19  C   UNK d   1      93.159  93.899 -41.372  0.00  0.00     0.041 A 
ATOM     20  C   UNK d   1      93.324  92.578 -41.958  0.00  0.00     0.041 A 
ATOM     21  C   UNK d   1      91.204  93.362 -46.000  0.00  0.00     0.078 A 
ATOM     22  C   UNK d   1      90.666  94.725 -46.188  0.00  0.00     0.262 A 
ATOM     23  O   UNK d   1      90.072  95.037 -47.254  0.00  0.00    -0.267 OA
ENDBRANCH   1  13
TORSDOF 3
ENDMDL
