/Users/jonathanwahrer/Desktop/Msc/3_Semester/Drug_Design_Praktikum/waehrer_HTS_screening/HTS_experiment/out/docking_results/vina_output/4agl/0680_docked.pdbqt
 OpenBabel03202223373D

 24 27  0  0  1  0  0  0  0  0999 V2000
   91.2600   96.9170  -44.8530 C   0  0  0  0  0  0  0  0  0  0  0  0
   91.0940   97.2380  -46.0870 O   0  0  0  0  0  0  0  0  0  0  0  0
   91.2300   97.9570  -43.9060 N   0  0  0  0  0  0  0  0  0  0  0  0
   91.3700   98.1520  -42.4960 C   0  0  0  0  0  2  0  0  0  0  0  0
   91.8490   99.5800  -42.8120 C   0  0  1  0  0  3  0  0  0  0  0  0
   90.9860   99.4110  -44.0040 C   0  0  0  0  0  2  0  0  0  0  0  0
   91.4240  100.5200  -41.8110 N   0  0  0  0  0  0  0  0  0  0  0  0
   90.1710  101.2240  -41.7220 C   0  0  0  0  0  0  0  0  0  0  0  0
   89.1010  100.8360  -42.2210 O   0  0  0  0  0  0  0  0  0  0  0  0
   90.4640  102.4640  -40.9230 C   0  0  1  0  0  3  0  0  0  0  0  0
   91.4190  101.9000  -39.8980 C   0  0  2  0  0  3  0  0  0  0  0  0
   91.0820  103.4490  -41.8570 C   0  0  0  0  0  2  0  0  0  0  0  0
   92.2590  102.9820  -39.2800 C   0  0  0  0  0  2  0  0  0  0  0  0
   92.2000  100.9310  -40.6910 C   0  0  0  0  0  0  0  0  0  0  0  0
   93.0330  103.6810  -40.3420 C   0  0  0  0  0  3  0  0  0  0  0  0
   92.4460  103.8690  -41.5060 C   0  0  0  0  0  3  0  0  0  0  0  0
   93.3600  100.5650  -40.3820 O   0  0  0  0  0  0  0  0  0  0  0  0
   91.4570   95.5090  -44.6050 C   0  0  0  0  0  0  0  0  0  0  0  0
   91.7250   95.0470  -43.3090 C   0  0  0  0  0  3  0  0  0  0  0  0
   91.9300   93.7560  -43.0280 N   0  0  0  0  0  0  0  0  0  0  0  0
   91.8840   92.8110  -44.0010 C   0  0  0  0  0  3  0  0  0  0  0  0
   91.6270   93.1760  -45.3010 C   0  0  0  0  0  0  0  0  0  0  0  0
   91.5710   91.8330  -46.6490 Br  0  0  0  0  0  0  0  0  0  0  0  0
   91.4210   94.5210  -45.5630 C   0  0  0  0  0  3  0  0  0  0  0  0
  1 18  1  0  0  0  0
  1  3  1  0  0  0  0
  2  1  2  0  0  0  0
  3  4  1  0  0  0  0
  5  6  1  6  0  0  0
  5  4  1  0  0  0  0
  5  7  1  0  0  0  0
  6  3  1  0  0  0  0
  7  8  1  0  0  0  0
  7 14  1  0  0  0  0
  8 10  1  0  0  0  0
  9  8  2  0  0  0  0
 10 12  1  6  0  0  0
 10 11  1  0  0  0  0
 11 13  1  6  0  0  0
 12 16  1  0  0  0  0
 14 17  2  0  0  0  0
 14 11  1  0  0  0  0
 15 13  1  0  0  0  0
 16 15  2  0  0  0  0
 18 19  1  0  0  0  0
 19 20  2  0  0  0  0
 21 20  1  0  0  0  0
 22 21  2  0  0  0  0
 23 22  1  0  0  0  0
 24 22  1  0  0  0  0
 24 18  2  0  0  0  0
M  END
>  <Pose>
1

>  <Score>
-6.809

$$$$
