MODEL 1
REMARK VINA RESULT:    -6.809      0.000      0.000
REMARK INTER + INTRA:          -6.771
REMARK INTER:                  -7.605
REMARK INTRA:                   0.834
REMARK UNBOUND:                 0.834
REMARK  2 active torsions:
REMARK  status: ('A' for Active; 'I' for Inactive)
REMARK    1  A    between atoms: C_6  and  C_8 
REMARK       I    between atoms: C_8  and  N_10 
REMARK    2  A    between atoms: C_12  and  N_14 
ROOT
ATOM      1  C   UNK d   1      91.260  96.917 -44.853  0.00  0.00     0.255 C 
ATOM      2  O   UNK d   1      91.094  97.238 -46.087  0.00  0.00    -0.267 OA
ATOM      3  N   UNK d   1      91.230  97.957 -43.906  0.00  0.00    -0.344 N 
ATOM      4  C   UNK d   1      91.370  98.152 -42.496  0.00  0.00     0.153 C 
ATOM      5  C   UNK d   1      91.849  99.580 -42.812  0.00  0.00     0.132 C 
ATOM      6  C   UNK d   1      90.986  99.411 -44.004  0.00  0.00     0.153 C 
ENDROOT
BRANCH   5   7
ATOM      7  N   UNK d   1      91.424 100.520 -41.811  0.00  0.00    -0.280 N 
ATOM      8  C   UNK d   1      90.171 101.224 -41.722  0.00  0.00     0.232 C 
ATOM      9  O   UNK d   1      89.101 100.836 -42.221  0.00  0.00    -0.272 OA
ATOM     10  C   UNK d   1      90.464 102.464 -40.923  0.00  0.00     0.095 C 
ATOM     11  C   UNK d   1      91.419 101.900 -39.898  0.00  0.00     0.095 C 
ATOM     12  C   UNK d   1      91.082 103.449 -41.857  0.00  0.00     0.041 C 
ATOM     13  C   UNK d   1      92.259 102.982 -39.280  0.00  0.00     0.041 C 
ATOM     14  C   UNK d   1      92.200 100.931 -40.691  0.00  0.00     0.232 C 
ATOM     15  C   UNK d   1      93.033 103.681 -40.342  0.00  0.00    -0.030 C 
ATOM     16  C   UNK d   1      92.446 103.869 -41.506  0.00  0.00    -0.030 C 
ATOM     17  O   UNK d   1      93.360 100.565 -40.382  0.00  0.00    -0.272 OA
ENDBRANCH   5   7
BRANCH   1  18
ATOM     18  C   UNK d   1      91.457  95.509 -44.605  0.00  0.00     0.051 A 
ATOM     19  C   UNK d   1      91.725  95.047 -43.309  0.00  0.00     0.133 A 
ATOM     20  N   UNK d   1      91.930  93.756 -43.028  0.00  0.00    -0.271 NA
ATOM     21  C   UNK d   1      91.884  92.811 -44.001  0.00  0.00     0.135 A 
ATOM     22  C   UNK d   1      91.627  93.176 -45.301  0.00  0.00     0.029 A 
ATOM     23 Br   UNK d   1      91.571  91.833 -46.649  0.00  0.00    -0.050 Br
ATOM     24  C   UNK d   1      91.421  94.521 -45.563  0.00  0.00     0.039 A 
ENDBRANCH   1  18
TORSDOF 2
ENDMDL
