/Users/jonathanwahrer/Desktop/Msc/3_Semester/Drug_Design_Praktikum/waehrer_HTS_screening/HTS_experiment/out/docking_results/vina_output/4agl/0681_docked.pdbqt
 OpenBabel03202223373D

 25 28  0  0  1  0  0  0  0  0999 V2000
   91.8220  100.9480  -43.7140 C   0  0  0  0  0  0  0  0  0  0  0  0
   91.1780  101.8300  -44.3620 O   0  0  0  0  0  0  0  0  0  0  0  0
   91.7010   99.6090  -44.1040 N   0  0  0  0  0  0  0  0  0  0  0  0
   92.1830   98.2980  -43.7560 C   0  0  0  0  0  2  0  0  0  0  0  0
   91.5570   97.6700  -44.9930 C   0  0  2  0  0  3  0  0  0  0  0  0
   90.8850   98.9970  -45.1710 C   0  0  0  0  0  2  0  0  0  0  0  0
   90.7190   96.5760  -44.7890 O   0  0  0  0  0  0  0  0  0  0  0  0
   91.1060   95.2530  -44.7380 C   0  0  2  0  0  3  0  0  0  0  0  0
   91.0160   94.4960  -45.8280 C   0  0  0  0  0  3  0  0  0  0  0  0
   91.4090   93.0920  -45.8380 C   0  0  0  0  0  0  0  0  0  0  0  0
   91.3070   92.3700  -46.9400 C   0  0  0  0  0  1  0  0  0  0  0  0
   91.9010   92.5400  -44.6250 N   0  0  0  0  0  0  0  0  0  0  0  0
   91.9860   93.3810  -43.4640 C   0  0  0  0  0  0  0  0  0  0  0  0
   92.1830   91.5450  -44.6200 H   0  0  0  0  0  0  0  0  0  0  0  0
   91.6080   94.6660  -43.5210 N   0  0  0  0  0  0  0  0  0  0  0  0
   92.3960   93.1360  -42.2160 N   0  0  0  0  0  0  0  0  0  0  0  0
   91.7820   95.2190  -42.3160 N   0  0  0  0  0  0  0  0  0  0  0  0
   92.2700   94.2660  -41.5130 C   0  0  0  0  0  3  0  0  0  0  0  0
   92.6410  101.3830  -42.6100 C   0  0  0  0  0  0  0  0  0  0  0  0
   92.5050  101.0130  -41.2960 C   0  0  0  0  0  3  0  0  0  0  0  0
   93.3310  101.4640  -40.3070 N   0  0  0  0  0  0  0  0  0  0  0  0
   94.3420  102.3070  -40.5490 C   0  0  0  0  0  3  0  0  0  0  0  0
   94.5290  102.7140  -41.8500 C   0  0  0  0  0  0  0  0  0  0  0  0
   95.9720  103.9250  -42.2320 Br  0  0  0  0  0  0  0  0  0  0  0  0
   93.7060  102.2690  -42.8530 C   0  0  0  0  0  3  0  0  0  0  0  0
  1 19  1  0  0  0  0
  2  1  2  0  0  0  0
  3  4  1  0  0  0  0
  3  1  1  0  0  0  0
  5  7  1  1  0  0  0
  5  4  1  0  0  0  0
  6  5  1  0  0  0  0
  6  3  1  0  0  0  0
  8  7  1  1  0  0  0
  8 15  1  0  0  0  0
  9  8  1  0  0  0  0
 10  9  2  0  0  0  0
 10 12  1  0  0  0  0
 11 10  1  0  0  0  0
 12 14  1  0  0  0  0
 12 13  1  0  0  0  0
 13 16  2  0  0  0  0
 15 13  1  0  0  0  0
 15 17  1  0  0  0  0
 16 18  1  0  0  0  0
 17 18  2  0  0  0  0
 19 20  1  0  0  0  0
 20 21  2  0  0  0  0
 22 21  1  0  0  0  0
 23 22  2  0  0  0  0
 24 23  1  0  0  0  0
 25 19  2  0  0  0  0
 25 23  1  0  0  0  0
M  END
>  <Pose>
1

>  <Score>
-6.505

$$$$
