MODEL 1
REMARK VINA RESULT:    -4.640      0.000      0.000
REMARK INTER + INTRA:          -4.941
REMARK INTER:                  -4.912
REMARK INTRA:                  -0.030
REMARK UNBOUND:                -0.030
REMARK  2 active torsions:
REMARK  status: ('A' for Active; 'I' for Inactive)
REMARK    1  A    between atoms: C_6  and  C_8 
REMARK    2  A    between atoms: C_21  and  N_22 
ROOT
ATOM      1 Br   UNK d   1      91.511  91.710 -46.602  0.00  0.00    -0.050 Br
ATOM      2  C   UNK d   1      91.513  93.215 -45.461  0.00  0.00     0.029 A 
ATOM      3  C   UNK d   1      91.207  94.466 -45.973  0.00  0.00     0.135 A 
ATOM      4  N   UNK d   1      91.222  95.503 -45.123  0.00  0.00    -0.271 NA
ATOM      5  C   UNK d   1      91.513  95.400 -43.817  0.00  0.00     0.134 A 
ATOM      6  C   UNK d   1      91.815  94.157 -43.319  0.00  0.00     0.059 A 
ATOM      7  C   UNK d   1      91.822  93.034 -44.130  0.00  0.00     0.040 A 
ENDROOT
BRANCH   6   8
ATOM      8  C   UNK d   1      92.136  94.004 -41.909  0.00  0.00     0.210 C 
ATOM      9  O   UNK d   1      91.349  94.438 -41.021  0.00  0.00    -0.644 OA
ATOM     10  O   UNK d   1      93.303  93.385 -41.498  0.00  0.00    -0.644 OA
ENDBRANCH   6   8
TORSDOF 2
ENDMDL
