/Users/jonathanwahrer/Desktop/Msc/3_Semester/Drug_Design_Praktikum/waehrer_HTS_screening/HTS_experiment/out/docking_results/vina_output/4agl/0684_docked.pdbqt
 OpenBabel03202223373D

 10 10  0  0  0  0  0  0  0  0999 V2000
   91.5360   91.6910  -46.5550 Br  0  0  0  0  0  0  0  0  0  0  0  0
   91.5330   93.2310  -45.4330 C   0  0  0  0  0  0  0  0  0  0  0  0
   91.2410   94.4890  -45.9170 C   0  0  0  0  0  3  0  0  0  0  0  0
   91.2380   95.5800  -45.1310 N   0  0  0  0  0  0  0  0  0  0  0  0
   91.5280   95.4380  -43.8300 C   0  0  0  0  0  3  0  0  0  0  0  0
   91.8290   94.2170  -43.2690 C   0  0  0  0  0  0  0  0  0  0  0  0
   91.8260   93.1210  -44.0920 C   0  0  0  0  0  3  0  0  0  0  0  0
   92.1420   94.0790  -41.8520 C   0  0  0  0  0  0  0  0  0  0  0  0
   91.3020   94.4440  -40.9940 O   0  0  0  0  0  1  0  0  0  0  0  0
   93.3710   93.5410  -41.4990 O   0  0  0  0  0  0  0  0  0  0  0  0
  1  2  1  0  0  0  0
  2  7  1  0  0  0  0
  3  2  2  0  0  0  0
  3  4  1  0  0  0  0
  4  5  2  0  0  0  0
  5  6  1  0  0  0  0
  6  8  1  0  0  0  0
  7  6  2  0  0  0  0
  8 10  2  0  0  0  0
  8  9  1  0  0  0  0
M  END
>  <Pose>
1

>  <Score>
-4.688

$$$$
