MODEL 1
REMARK VINA RESULT:    -6.235      0.000      0.000
REMARK INTER + INTRA:          -9.078
REMARK INTER:                  -7.693
REMARK INTRA:                  -1.385
REMARK UNBOUND:                -1.385
REMARK  4 active torsions:
REMARK  status: ('A' for Active; 'I' for Inactive)
REMARK    1  A    between atoms: C_11  and  C_14 
REMARK    2  A    between atoms: C_11  and  C_21 
REMARK    3  A    between atoms: C_14  and  N_15 
REMARK    4  A    between atoms: C_21  and  N_22 
ROOT
ATOM      1 Br   UNK d   1      92.303  94.337 -41.368  0.00  0.00    -0.048 Br
ATOM      2  C   UNK d   1      91.836  94.457 -43.206  0.00  0.00     0.046 A 
ATOM      3  C   UNK d   1      91.481  95.682 -43.739  0.00  0.00     0.100 A 
ATOM      4  C   UNK d   1      91.124  95.839 -45.086  0.00  0.00     0.047 A 
ATOM      5  C   UNK d   1      91.125  94.741 -45.910  0.00  0.00     0.037 A 
ATOM      6  C   UNK d   1      91.479  93.513 -45.383  0.00  0.00     0.013 A 
ATOM      7  C   UNK d   1      91.830  93.358 -44.060  0.00  0.00     0.041 A 
ATOM      8 Br   UNK d   1      91.493  91.970 -46.496  0.00  0.00    -0.051 Br
ATOM      9  C   UNK d   1      90.743  97.150 -45.599  0.00  0.00     0.176 C 
ATOM     10  O   UNK d   1      90.031  97.147 -46.640  0.00  0.00    -0.291 OA
ATOM     11  C   UNK d   1      91.154  98.392 -44.955  0.00  0.00     0.095 C 
ATOM     12  C   UNK d   1      91.866  98.046 -43.620  0.00  0.00     0.197 C 
ATOM     13  O   UNK d   1      91.434  96.873 -43.035  0.00  0.00    -0.347 OA
ENDROOT
BRANCH  11  14
ATOM     14  C   UNK d   1      92.114  99.238 -45.657  0.00  0.00     0.256 C 
BRANCH  14  15
ATOM     15  N   UNK d   1      91.833 100.377 -46.401  0.00  0.00    -0.070 N 
ATOM     16  C   UNK d   1      91.670 100.304 -47.819  0.00  0.00     0.235 C 
ATOM     17  C   UNK d   1      90.791 101.520 -48.212  0.00  0.00     0.028 C 
ATOM     18  C   UNK d   1      91.702 102.723 -48.081  0.00  0.00     0.003 C 
ATOM     19  C   UNK d   1      92.922 102.415 -47.241  0.00  0.00     0.028 C 
ATOM     20  C   UNK d   1      92.576 101.573 -46.032  0.00  0.00     0.235 C 
ATOM     21  H   UNK d   1      90.829 100.640 -46.083  0.00  0.00     0.279 HD
ENDBRANCH  14  15
ENDBRANCH  11  14
BRANCH  11  22
ATOM     22  C   UNK d   1      89.899  99.190 -44.639  0.00  0.00     0.256 C 
BRANCH  22  23
ATOM     23  N   UNK d   1      88.994  98.490 -43.761  0.00  0.00    -0.070 N 
ATOM     24  C   UNK d   1      87.702  98.407 -44.428  0.00  0.00     0.235 C 
ATOM     25  C   UNK d   1      87.273  99.778 -44.832  0.00  0.00     0.028 C 
ATOM     26  C   UNK d   1      87.264 100.785 -43.741  0.00  0.00     0.003 C 
ATOM     27  C   UNK d   1      88.338 100.636 -42.721  0.00  0.00     0.028 C 
ATOM     28  C   UNK d   1      88.712  99.184 -42.518  0.00  0.00     0.235 C 
ATOM     29  H   UNK d   1      89.358  97.557 -43.500  0.00  0.00     0.279 HD
ENDBRANCH  22  23
ENDBRANCH  11  22
TORSDOF 4
ENDMDL
