/Users/jonathanwahrer/Desktop/Msc/3_Semester/Drug_Design_Praktikum/waehrer_HTS_screening/HTS_experiment/out/docking_results/vina_output/4agl/0692_docked.pdbqt
 OpenBabel03202223373D

 29 32  0  0  0  0  0  0  0  0999 V2000
   92.3030   94.3370  -41.3680 Br  0  0  0  0  0  0  0  0  0  0  0  0
   91.8360   94.4570  -43.2060 C   0  0  0  0  0  0  0  0  0  0  0  0
   91.4810   95.6820  -43.7390 C   0  0  0  0  0  0  0  0  0  0  0  0
   91.1240   95.8390  -45.0860 C   0  0  0  0  0  0  0  0  0  0  0  0
   91.1250   94.7410  -45.9100 C   0  0  0  0  0  3  0  0  0  0  0  0
   91.4790   93.5130  -45.3830 C   0  0  0  0  0  0  0  0  0  0  0  0
   91.8300   93.3580  -44.0600 C   0  0  0  0  0  3  0  0  0  0  0  0
   91.4930   91.9700  -46.4960 Br  0  0  0  0  0  0  0  0  0  0  0  0
   90.7430   97.1500  -45.5990 C   0  0  0  0  0  0  0  0  0  0  0  0
   90.0310   97.1470  -46.6400 O   0  0  0  0  0  0  0  0  0  0  0  0
   91.1540   98.3920  -44.9550 C   0  0  0  0  0  0  0  0  0  0  0  0
   91.8660   98.0460  -43.6200 C   0  0  0  0  0  2  0  0  0  0  0  0
   91.4340   96.8730  -43.0350 O   0  0  0  0  0  0  0  0  0  0  0  0
   92.1140   99.2380  -45.6570 C   0  0  0  0  0  2  0  0  0  0  0  0
   91.8330  100.3770  -46.4010 N   0  0  0  0  0  4  0  0  0  0  0  0
   91.6700  100.3040  -47.8190 C   0  0  0  0  0  2  0  0  0  0  0  0
   90.7910  101.5200  -48.2120 C   0  0  0  0  0  2  0  0  0  0  0  0
   91.7020  102.7230  -48.0810 C   0  0  0  0  0  2  0  0  0  0  0  0
   92.9220  102.4150  -47.2410 C   0  0  0  0  0  2  0  0  0  0  0  0
   92.5760  101.5730  -46.0320 C   0  0  0  0  0  2  0  0  0  0  0  0
   90.8290  100.6400  -46.0830 H   0  0  0  0  0  0  0  0  0  0  0  0
   89.8990   99.1900  -44.6390 C   0  0  0  0  0  2  0  0  0  0  0  0
   88.9940   98.4900  -43.7610 N   0  0  0  0  0  4  0  0  0  0  0  0
   87.7020   98.4070  -44.4280 C   0  0  0  0  0  2  0  0  0  0  0  0
   87.2730   99.7780  -44.8320 C   0  0  0  0  0  2  0  0  0  0  0  0
   87.2640  100.7850  -43.7410 C   0  0  0  0  0  2  0  0  0  0  0  0
   88.3380  100.6360  -42.7210 C   0  0  0  0  0  2  0  0  0  0  0  0
   88.7120   99.1840  -42.5180 C   0  0  0  0  0  2  0  0  0  0  0  0
   89.3580   97.5570  -43.5000 H   0  0  0  0  0  0  0  0  0  0  0  0
  2  1  1  0  0  0  0
  3  2  1  0  0  0  0
  3 13  1  0  0  0  0
  4  3  2  0  0  0  0
  5  6  2  0  0  0  0
  5  4  1  0  0  0  0
  6  7  1  0  0  0  0
  7  2  2  0  0  0  0
  8  6  1  0  0  0  0
  9  4  1  0  0  0  0
  9 11  1  0  0  0  0
 10  9  2  0  0  0  0
 11 22  1  0  0  0  0
 11 12  1  0  0  0  0
 12 13  1  0  0  0  0
 14 11  1  0  0  0  0
 15 21  1  0  0  0  0
 15 20  1  0  0  0  0
 15 14  1  0  0  0  0
 16 15  1  0  0  0  0
 17 18  1  0  0  0  0
 17 16  1  0  0  0  0
 18 19  1  0  0  0  0
 19 20  1  0  0  0  0
 22 23  1  0  0  0  0
 23 29  1  0  0  0  0
 23 28  1  0  0  0  0
 24 23  1  0  0  0  0
 25 24  1  0  0  0  0
 25 26  1  0  0  0  0
 26 27  1  0  0  0  0
 27 28  1  0  0  0  0
M  END
>  <Pose>
1

>  <Score>
-6.235

$$$$
