/Users/jonathanwahrer/Desktop/Msc/3_Semester/Drug_Design_Praktikum/waehrer_HTS_screening/HTS_experiment/out/docking_results/vina_output/4agl/0695_docked.pdbqt
 OpenBabel03202223383D

 22 25  0  0  0  0  0  0  0  0999 V2000
   91.5440   91.2980  -46.6060 C   0  0  0  0  0  2  0  0  0  0  0  0
   91.5060   92.6070  -45.9050 C   0  0  0  0  0  0  0  0  0  0  0  0
   91.1610   93.7890  -46.5160 C   0  0  0  0  0  3  0  0  0  0  0  0
   91.1360   95.0070  -45.8340 C   0  0  0  0  0  0  0  0  0  0  0  0
   91.4610   95.0650  -44.5010 C   0  0  0  0  0  0  0  0  0  0  0  0
   90.8290   96.3130  -46.2200 O   0  0  0  0  0  0  0  0  0  0  0  0
   91.8090   93.8850  -43.8790 C   0  0  0  0  0  0  0  0  0  0  0  0
   91.3490   96.4000  -44.0940 O   0  0  0  0  0  0  0  0  0  0  0  0
   92.2630   93.9670  -42.0140 Br  0  0  0  0  0  0  0  0  0  0  0  0
   91.8350   92.6780  -44.5480 C   0  0  0  0  0  3  0  0  0  0  0  0
   90.4650   97.0310  -45.0300 C   0  0  0  0  0  2  0  0  0  0  0  0
   91.8550   91.5090  -47.9980 N   0  0  0  0  0  0  0  0  0  0  0  0
   92.7370   91.9550  -48.3020 H   0  0  0  0  0  0  0  0  0  0  0  0
   90.8980   91.0810  -48.9850 C   0  0  0  0  0  0  0  0  0  0  0  0
   90.0470   91.9500  -49.5470 N   0  0  0  0  0  0  0  0  0  0  0  0
   89.1560   91.5420  -50.4680 C   0  0  0  0  0  3  0  0  0  0  0  0
   89.0880   90.2100  -50.8670 C   0  0  0  0  0  3  0  0  0  0  0  0
   89.9380   89.3520  -50.3040 N   0  0  0  0  0  0  0  0  0  0  0  0
   90.8380   89.7610  -49.3730 C   0  0  0  0  0  0  0  0  0  0  0  0
   90.1430   88.0300  -50.4490 C   0  0  0  0  0  3  0  0  0  0  0  0
   91.5490   88.6860  -48.9930 N   0  0  0  0  0  0  0  0  0  0  0  0
   91.1290   87.6170  -49.6480 N   0  0  0  0  0  0  0  0  0  0  0  0
  1  2  1  0  0  0  0
  2 10  1  0  0  0  0
  3  2  2  0  0  0  0
  3  4  1  0  0  0  0
  4  5  2  0  0  0  0
  5  8  1  0  0  0  0
  5  7  1  0  0  0  0
  6  4  1  0  0  0  0
  6 11  1  0  0  0  0
  7  9  1  0  0  0  0
 10  7  2  0  0  0  0
 11  8  1  0  0  0  0
 12  1  1  0  0  0  0
 13 12  1  0  0  0  0
 14 12  1  0  0  0  0
 15 14  2  0  0  0  0
 16 15  1  0  0  0  0
 17 16  2  0  0  0  0
 17 18  1  0  0  0  0
 18 19  1  0  0  0  0
 19 21  2  0  0  0  0
 19 14  1  0  0  0  0
 20 18  1  0  0  0  0
 20 22  2  0  0  0  0
 22 21  1  0  0  0  0
M  END
>  <Pose>
1

>  <Score>
-6.535

$$$$
