/Users/jonathanwahrer/Desktop/Msc/3_Semester/Drug_Design_Praktikum/waehrer_HTS_screening/HTS_experiment/out/docking_results/vina_output/4agl/0706_docked.pdbqt
 OpenBabel03202223393D

 30 33  0  0  0  0  0  0  0  0999 V2000
   89.8260   99.4810  -45.5910 C   0  0  0  0  0  2  0  0  0  0  0  0
   88.6410   98.6920  -45.5450 N   0  0  0  0  0  0  0  0  0  0  0  0
   87.8530   98.6120  -44.4570 C   0  0  0  0  0  0  0  0  0  0  0  0
   88.1090   99.5100  -42.7690 Br  0  0  0  0  0  0  0  0  0  0  0  0
   86.8450   97.7810  -44.7710 N   0  0  0  0  0  0  0  0  0  0  0  0
   86.9840   97.3380  -46.0270 C   0  0  0  0  0  0  0  0  0  0  0  0
   88.1340   97.9230  -46.5220 C   0  0  0  0  0  0  0  0  0  0  0  0
   86.2840   96.5080  -46.8260 N   0  0  0  0  0  0  0  0  0  0  0  0
   88.4810   97.6010  -47.8170 C   0  0  0  0  0  0  0  0  0  0  0  0
   87.7760   96.7720  -48.6050 N   0  0  0  0  0  0  0  0  0  0  0  0
   89.5180   98.1170  -48.2830 O   0  0  0  0  0  0  0  0  0  0  0  0
   86.6610   96.2210  -48.0920 C   0  0  0  0  0  0  0  0  0  0  0  0
   88.1600   96.4480  -49.9660 C   0  0  0  0  0  1  0  0  0  0  0  0
   85.9750   95.4340  -48.8100 O   0  0  0  0  0  0  0  0  0  0  0  0
   85.0790   95.9000  -46.3000 C   0  0  0  0  0  1  0  0  0  0  0  0
   91.1240   98.7660  -45.4950 C   0  0  0  0  0  2  0  0  0  0  0  0
   91.3920   98.0470  -44.2960 N   0  0  0  0  0  0  0  0  0  0  0  0
   91.4530   96.6960  -44.1850 C   0  0  0  0  0  0  0  0  0  0  0  0
   91.7230   96.3590  -42.8810 C   0  0  0  0  0  0  0  0  0  0  0  0
   91.3030   95.6440  -45.0790 C   0  0  0  0  0  0  0  0  0  0  0  0
   91.8220   97.5290  -42.2290 N   0  0  0  0  0  0  0  0  0  0  0  0
   91.8460   95.0730  -42.4550 N   0  0  0  0  0  0  0  0  0  0  0  0
   91.6230   98.5460  -43.0780 C   0  0  0  0  0  0  0  0  0  0  0  0
   91.6460  100.4310  -42.6730 Br  0  0  0  0  0  0  0  0  0  0  0  0
   91.6880   94.1110  -43.3810 C   0  0  0  0  0  0  0  0  0  0  0  0
   92.1340   94.7530  -41.0630 C   0  0  0  0  0  1  0  0  0  0  0  0
   91.7990   92.9140  -42.9980 O   0  0  0  0  0  0  0  0  0  0  0  0
   91.4220   94.3820  -44.6700 N   0  0  0  0  0  0  0  0  0  0  0  0
   91.2600   93.3080  -45.6280 C   0  0  0  0  0  1  0  0  0  0  0  0
   91.0550   95.9660  -46.2720 O   0  0  0  0  0  0  0  0  0  0  0  0
  1  2  1  0  0  0  0
  1 16  1  0  0  0  0
  2  3  1  0  0  0  0
  3  4  1  0  0  0  0
  5  3  2  0  0  0  0
  6  5  1  0  0  0  0
  7  6  2  0  0  0  0
  7  2  1  0  0  0  0
  8 15  1  0  0  0  0
  8  6  1  0  0  0  0
  9  7  1  0  0  0  0
 10 12  1  0  0  0  0
 10  9  1  0  0  0  0
 11  9  2  0  0  0  0
 12  8  1  0  0  0  0
 13 10  1  0  0  0  0
 14 12  2  0  0  0  0
 16 17  1  0  0  0  0
 17 18  1  0  0  0  0
 17 23  1  0  0  0  0
 18 19  2  0  0  0  0
 19 22  1  0  0  0  0
 19 21  1  0  0  0  0
 20 28  1  0  0  0  0
 20 18  1  0  0  0  0
 22 26  1  0  0  0  0
 23 24  1  0  0  0  0
 23 21  2  0  0  0  0
 25 27  2  0  0  0  0
 25 22  1  0  0  0  0
 28 25  1  0  0  0  0
 29 28  1  0  0  0  0
 30 20  2  0  0  0  0
M  END
>  <Pose>
1

>  <Score>
-6.699

$$$$
