MODEL 1
REMARK VINA RESULT:    -6.699      0.000      0.000
REMARK INTER + INTRA:          -8.918
REMARK INTER:                  -7.873
REMARK INTRA:                  -1.045
REMARK UNBOUND:                -1.045
REMARK  3 active torsions:
REMARK  status: ('A' for Active; 'I' for Inactive)
REMARK    1  A    between atoms: N_3  and  C_15 
REMARK    2  A    between atoms: C_15  and  C_16 
REMARK    3  A    between atoms: C_16  and  N_17 
ROOT
ATOM      1  C   UNK d   1      89.826  99.481 -45.591  0.00  0.00     0.152 C 
ENDROOT
BRANCH   1   2
ATOM      2  N   UNK d   1      88.641  98.692 -45.545  0.00  0.00    -0.316 N 
ATOM      3  C   UNK d   1      87.853  98.612 -44.457  0.00  0.00     0.180 A 
ATOM      4 Br   UNK d   1      88.109  99.510 -42.769  0.00  0.00    -0.008 Br
ATOM      5  N   UNK d   1      86.845  97.781 -44.771  0.00  0.00    -0.203 NA
ATOM      6  C   UNK d   1      86.984  97.338 -46.027  0.00  0.00     0.169 A 
ATOM      7  C   UNK d   1      88.134  97.923 -46.522  0.00  0.00     0.152 A 
ATOM      8  N   UNK d   1      86.284  96.508 -46.826  0.00  0.00    -0.286 N 
ATOM      9  C   UNK d   1      88.481  97.601 -47.817  0.00  0.00     0.282 A 
ATOM     10  N   UNK d   1      87.776  96.772 -48.605  0.00  0.00    -0.269 N 
ATOM     11  O   UNK d   1      89.518  98.117 -48.283  0.00  0.00    -0.265 OA
ATOM     12  C   UNK d   1      86.661  96.221 -48.092  0.00  0.00     0.332 A 
ATOM     13  C   UNK d   1      88.160  96.448 -49.966  0.00  0.00     0.164 C 
ATOM     14  O   UNK d   1      85.975  95.434 -48.810  0.00  0.00    -0.246 OA
ATOM     15  C   UNK d   1      85.079  95.900 -46.300  0.00  0.00     0.163 C 
ENDBRANCH   1   2
BRANCH   1  16
ATOM     16  C   UNK d   1      91.124  98.766 -45.495  0.00  0.00     0.152 C 
BRANCH  16  17
ATOM     17  N   UNK d   1      91.392  98.047 -44.296  0.00  0.00    -0.316 N 
ATOM     18  C   UNK d   1      91.453  96.696 -44.185  0.00  0.00     0.152 A 
ATOM     19  C   UNK d   1      91.723  96.359 -42.881  0.00  0.00     0.169 A 
ATOM     20  C   UNK d   1      91.303  95.644 -45.079  0.00  0.00     0.282 A 
ATOM     21  N   UNK d   1      91.822  97.529 -42.229  0.00  0.00    -0.203 NA
ATOM     22  N   UNK d   1      91.846  95.073 -42.455  0.00  0.00    -0.286 N 
ATOM     23  C   UNK d   1      91.623  98.546 -43.078  0.00  0.00     0.180 A 
ATOM     24 Br   UNK d   1      91.646 100.431 -42.673  0.00  0.00    -0.008 Br
ATOM     25  C   UNK d   1      91.688  94.111 -43.381  0.00  0.00     0.332 A 
ATOM     26  C   UNK d   1      92.134  94.753 -41.063  0.00  0.00     0.163 C 
ATOM     27  O   UNK d   1      91.799  92.914 -42.998  0.00  0.00    -0.246 OA
ATOM     28  N   UNK d   1      91.422  94.382 -44.670  0.00  0.00    -0.269 N 
ATOM     29  C   UNK d   1      91.260  93.308 -45.628  0.00  0.00     0.164 C 
ATOM     30  O   UNK d   1      91.055  95.966 -46.272  0.00  0.00    -0.265 OA
ENDBRANCH  16  17
ENDBRANCH   1  16
TORSDOF 3
ENDMDL
