/Users/jonathanwahrer/Desktop/Msc/3_Semester/Drug_Design_Praktikum/waehrer_HTS_screening/HTS_experiment/out/docking_results/vina_output/4agl/0708_docked.pdbqt
 OpenBabel03202223393D

 31 34  0  0  0  0  0  0  0  0999 V2000
   91.8440   99.6080  -43.2630 C   0  0  0  0  0  2  0  0  0  0  0  0
   90.8550   98.5520  -42.8660 C   0  0  0  0  0  2  0  0  0  0  0  0
   91.0360   97.2900  -43.5530 N   0  0  0  0  0  0  0  0  0  0  0  0
   90.7460   97.0700  -44.8720 C   0  0  0  0  0  0  0  0  0  0  0  0
   90.0690   98.4300  -46.0210 Br  0  0  0  0  0  0  0  0  0  0  0  0
   91.0080   95.7970  -45.2000 N   0  0  0  0  0  0  0  0  0  0  0  0
   91.4740   95.1520  -44.1080 C   0  0  0  0  0  0  0  0  0  0  0  0
   91.4800   96.1010  -43.0990 C   0  0  0  0  0  0  0  0  0  0  0  0
   91.8590   93.8750  -43.9470 N   0  0  0  0  0  0  0  0  0  0  0  0
   91.9030   95.7070  -41.8670 C   0  0  0  0  0  0  0  0  0  0  0  0
   92.2930   94.4120  -41.7070 N   0  0  0  0  0  0  0  0  0  0  0  0
   91.9270   96.5190  -40.9190 O   0  0  0  0  0  0  0  0  0  0  0  0
   92.2720   93.5220  -42.7160 C   0  0  0  0  0  0  0  0  0  0  0  0
   92.6100   94.1550  -40.7480 H   0  0  0  0  0  0  0  0  0  0  0  0
   92.6490   92.3190  -42.5120 O   0  0  0  0  0  0  0  0  0  0  0  0
   91.8500   92.8900  -45.0080 C   0  0  0  0  0  1  0  0  0  0  0  0
   91.4120  101.0150  -42.9650 C   0  0  0  0  0  2  0  0  0  0  0  0
   92.5760  101.8860  -42.8780 N   0  0  0  0  0  0  0  0  0  0  0  0
   93.3760  102.1140  -41.8110 C   0  0  0  0  0  0  0  0  0  0  0  0
   94.3690  103.0060  -42.1420 C   0  0  0  0  0  0  0  0  0  0  0  0
   93.3550  101.6260  -40.5310 C   0  0  0  0  0  0  0  0  0  0  0  0
   94.1580  103.3190  -43.4350 N   0  0  0  0  0  0  0  0  0  0  0  0
   95.3160  103.4230  -41.2810 N   0  0  0  0  0  0  0  0  0  0  0  0
   93.0750  102.6400  -43.8700 C   0  0  0  0  0  0  0  0  0  0  0  0
   92.3180  102.6980  -45.6220 Br  0  0  0  0  0  0  0  0  0  0  0  0
   95.2560  102.9150  -40.0250 C   0  0  0  0  0  0  0  0  0  0  0  0
   96.3520  104.3730  -41.6770 C   0  0  0  0  0  1  0  0  0  0  0  0
   96.1470  103.3040  -39.2100 O   0  0  0  0  0  0  0  0  0  0  0  0
   94.2980  102.0370  -39.6590 N   0  0  0  0  0  0  0  0  0  0  0  0
   94.3030  101.6810  -38.6830 H   0  0  0  0  0  0  0  0  0  0  0  0
   92.4520  100.8120  -40.2220 O   0  0  0  0  0  0  0  0  0  0  0  0
  1 17  1  0  0  0  0
  1  2  1  0  0  0  0
  3  8  1  0  0  0  0
  3  2  1  0  0  0  0
  4  3  1  0  0  0  0
  5  4  1  0  0  0  0
  6  4  2  0  0  0  0
  6  7  1  0  0  0  0
  7  9  1  0  0  0  0
  7  8  2  0  0  0  0
  8 10  1  0  0  0  0
  9 13  1  0  0  0  0
 10 11  1  0  0  0  0
 10 12  2  0  0  0  0
 11 14  1  0  0  0  0
 13 15  2  0  0  0  0
 13 11  1  0  0  0  0
 16  9  1  0  0  0  0
 17 18  1  0  0  0  0
 18 19  1  0  0  0  0
 19 21  1  0  0  0  0
 20 19  2  0  0  0  0
 20 23  1  0  0  0  0
 21 31  2  0  0  0  0
 21 29  1  0  0  0  0
 22 20  1  0  0  0  0
 23 26  1  0  0  0  0
 24 22  2  0  0  0  0
 24 18  1  0  0  0  0
 25 24  1  0  0  0  0
 26 29  1  0  0  0  0
 26 28  2  0  0  0  0
 27 23  1  0  0  0  0
 29 30  1  0  0  0  0
M  END
>  <Pose>
1

>  <Score>
-6.498

$$$$
