MODEL 1
REMARK VINA RESULT:    -6.346      0.000      0.000
REMARK INTER + INTRA:          -8.685
REMARK INTER:                  -7.458
REMARK INTRA:                  -1.226
REMARK UNBOUND:                -1.226
REMARK  3 active torsions:
REMARK  status: ('A' for Active; 'I' for Inactive)
REMARK    1  A    between atoms: N_3  and  C_14 
REMARK    2  A    between atoms: C_14  and  C_15 
REMARK    3  A    between atoms: C_15  and  N_16 
ROOT
ATOM      1  C   UNK d   1      91.601  99.759 -44.734  0.00  0.00     0.152 C 
ENDROOT
BRANCH   1   2
ATOM      2  N   UNK d   1      91.691  98.757 -43.729  0.00  0.00    -0.316 N 
ATOM      3  C   UNK d   1      91.909  98.988 -42.413  0.00  0.00     0.180 A 
ATOM      4 Br   UNK d   1      92.114 100.742 -41.686  0.00  0.00    -0.008 Br
ATOM      5  N   UNK d   1      91.949  97.818 -41.757  0.00  0.00    -0.203 NA
ATOM      6  C   UNK d   1      91.761  96.798 -42.624  0.00  0.00     0.169 A 
ATOM      7  C   UNK d   1      91.600  97.413 -43.863  0.00  0.00     0.152 A 
ATOM      8  N   UNK d   1      91.716  95.459 -42.503  0.00  0.00    -0.286 N 
ATOM      9  C   UNK d   1      91.400  96.571 -44.931  0.00  0.00     0.280 A 
ATOM     10  N   UNK d   1      91.356  95.220 -44.803  0.00  0.00    -0.273 N 
ATOM     11  O   UNK d   1      91.257  97.117 -46.064  0.00  0.00    -0.265 OA
ATOM     12  C   UNK d   1      91.516  94.681 -43.581  0.00  0.00     0.330 A 
ATOM     13  H   UNK d   1      91.200  94.635 -45.651  0.00  0.00     0.173 HD
ATOM     14  O   UNK d   1      91.471  93.414 -43.474  0.00  0.00    -0.246 OA
ATOM     15  C   UNK d   1      91.881  94.813 -41.220  0.00  0.00     0.163 C 
ENDBRANCH   1   2
BRANCH   1  16
ATOM     16  C   UNK d   1      90.317 100.503 -44.836  0.00  0.00     0.152 C 
BRANCH  16  17
ATOM     17  N   UNK d   1      89.203  99.847 -45.424  0.00  0.00    -0.316 N 
ATOM     18  C   UNK d   1      88.146  99.303 -44.799  0.00  0.00     0.152 A 
ATOM     19  C   UNK d   1      87.297  98.760 -45.740  0.00  0.00     0.169 A 
ATOM     20  C   UNK d   1      87.751  99.187 -43.475  0.00  0.00     0.280 A 
ATOM     21  N   UNK d   1      87.892  99.009 -46.925  0.00  0.00    -0.203 NA
ATOM     22  N   UNK d   1      86.167  98.164 -45.362  0.00  0.00    -0.286 N 
ATOM     23  C   UNK d   1      89.038  99.661 -46.767  0.00  0.00     0.180 A 
ATOM     24 Br   UNK d   1      90.256 100.245 -48.141  0.00  0.00    -0.008 Br
ATOM     25  C   UNK d   1      85.842  98.084 -44.069  0.00  0.00     0.330 A 
ATOM     26  C   UNK d   1      85.269  97.591 -46.337  0.00  0.00     0.163 C 
ATOM     27  O   UNK d   1      84.769  97.518 -43.676  0.00  0.00    -0.246 OA
ATOM     28  N   UNK d   1      86.616  98.588 -43.091  0.00  0.00    -0.273 N 
ATOM     29  H   UNK d   1      86.331  98.508 -42.082  0.00  0.00     0.173 HD
ATOM     30  O   UNK d   1      88.476  99.662 -42.573  0.00  0.00    -0.265 OA
ENDBRANCH  16  17
ENDBRANCH   1  16
TORSDOF 3
ENDMDL
