/Users/jonathanwahrer/Desktop/Msc/3_Semester/Drug_Design_Praktikum/waehrer_HTS_screening/HTS_experiment/out/docking_results/vina_output/4agl/0716_docked.pdbqt
 OpenBabel03202223403D

 31 35  0  0  1  0  0  0  0  0999 V2000
   92.3240  102.1920  -41.1400 C   0  0  1  0  0  0  0  0  0  0  0  0
   92.2280  100.7090  -41.4170 C   0  0  0  0  0  2  0  0  0  0  0  0
   91.0870  100.4490  -42.3560 C   0  0  2  0  0  0  0  0  0  0  0  0
   91.4750  101.1020  -43.6900 C   0  0  0  0  0  2  0  0  0  0  0  0
   91.6950  102.5750  -43.4600 C   0  0  2  0  0  3  0  0  0  0  0  0
   92.7570  102.8570  -42.4290 C   0  0  0  0  0  2  0  0  0  0  0  0
   90.3980  103.1930  -43.0460 C   0  0  0  0  0  2  0  0  0  0  0  0
   89.9530  102.5550  -41.7490 C   0  0  2  0  0  3  0  0  0  0  0  0
   91.0140  102.7890  -40.7280 C   0  0  0  0  0  2  0  0  0  0  0  0
   89.7920  101.0620  -41.9370 C   0  0  0  0  0  2  0  0  0  0  0  0
   90.8850   99.0010  -42.5770 C   0  0  0  0  0  0  0  0  0  0  0  0
   89.7640   98.6180  -42.9950 O   0  0  0  0  0  0  0  0  0  0  0  0
   91.9320   98.0680  -42.3240 N   0  0  0  0  0  0  0  0  0  0  0  0
   92.8270   98.4630  -41.9800 H   0  0  0  0  0  0  0  0  0  0  0  0
   91.8310   96.6640  -42.5060 C   0  0  0  0  0  0  0  0  0  0  0  0
   91.6980   96.0490  -43.7180 C   0  0  0  0  0  0  0  0  0  0  0  0
   91.6340   94.7160  -43.4860 N   0  0  0  0  0  0  0  0  0  0  0  0
   91.7220   94.5080  -42.1890 N   0  0  0  0  0  0  0  0  0  0  0  0
   91.4930   93.6500  -44.4620 C   0  0  0  0  0  1  0  0  0  0  0  0
   91.8440   95.6730  -41.5450 C   0  0  0  0  0  3  0  0  0  0  0  0
   91.6280   96.5910  -45.0600 C   0  0  0  0  0  0  0  0  0  0  0  0
   92.6680   96.8720  -45.7060 O   0  0  0  0  0  0  0  0  0  0  0  0
   90.4040   96.8440  -45.7380 N   0  0  0  0  0  0  0  0  0  0  0  0
   90.0850   96.1360  -46.4620 H   0  0  0  0  0  0  0  0  0  0  0  0
   89.7960   97.6710  -45.5830 H   0  0  0  0  0  0  0  0  0  0  0  0
   93.2920  102.4220  -40.0690 N   0  0  0  0  0  0  0  0  0  0  0  0
   93.0520  102.4970  -38.7660 N   0  0  0  0  0  0  0  0  0  0  0  0
   94.1900  102.7170  -38.0840 C   0  0  0  0  0  0  0  0  0  0  0  0
   94.4030  102.9070  -36.1870 Br  0  0  0  0  0  0  0  0  0  0  0  0
   95.1860  102.7830  -38.9970 N   0  0  0  0  0  0  0  0  0  0  0  0
   94.6190  102.6000  -40.2000 C   0  0  0  0  0  3  0  0  0  0  0  0
  1  6  1  6  0  0  0
  1  9  1  0  0  0  0
  1 26  1  0  0  0  0
  2  1  1  0  0  0  0
  3 11  1  6  0  0  0
  3 10  1  0  0  0  0
  3  2  1  0  0  0  0
  4  3  1  0  0  0  0
  5  4  1  1  0  0  0
  5  7  1  0  0  0  0
  5  6  1  0  0  0  0
  8  7  1  6  0  0  0
  8  9  1  0  0  0  0
 10  8  1  0  0  0  0
 11 13  1  0  0  0  0
 12 11  2  0  0  0  0
 13 14  1  0  0  0  0
 15 13  1  0  0  0  0
 15 20  1  0  0  0  0
 16 17  1  0  0  0  0
 16 15  2  0  0  0  0
 17 18  1  0  0  0  0
 18 20  2  0  0  0  0
 19 17  1  0  0  0  0
 21 16  1  0  0  0  0
 22 21  2  0  0  0  0
 23 25  1  0  0  0  0
 23 21  1  0  0  0  0
 24 23  1  0  0  0  0
 26 27  1  0  0  0  0
 27 28  2  0  0  0  0
 28 29  1  0  0  0  0
 30 28  1  0  0  0  0
 31 26  1  0  0  0  0
 31 30  2  0  0  0  0
M  END
>  <Pose>
1

>  <Score>
-6.640

$$$$
