MODEL 1
REMARK VINA RESULT:    -5.894      0.000      0.000
REMARK INTER + INTRA:          -6.863
REMARK INTER:                  -6.583
REMARK INTRA:                  -0.280
REMARK UNBOUND:                -0.280
REMARK  2 active torsions:
REMARK  status: ('A' for Active; 'I' for Inactive)
REMARK    1  A    between atoms: C_9  and  N_11 
REMARK    2  A    between atoms: C_12  and  C_17 
ROOT
ATOM      1  N   UNK d   1      91.353  98.863 -45.580  0.00  0.00    -0.348 N 
ATOM      2  C   UNK d   1      90.202  99.709 -45.566  0.00  0.00     0.189 C 
ATOM      3  C   UNK d   1      90.210 100.732 -46.637  0.00  0.00     0.201 C 
ATOM      4  O   UNK d   1      91.366 100.880 -47.354  0.00  0.00    -0.387 OA
ATOM      5  C   UNK d   1      92.511 100.720 -46.582  0.00  0.00     0.187 C 
ATOM      6  C   UNK d   1      92.629  99.340 -46.019  0.00  0.00     0.151 C 
ENDROOT
BRANCH   1   7
ATOM      7  C   UNK d   1      91.300  97.499 -45.136  0.00  0.00     0.145 A 
ATOM      8  N   UNK d   1      91.082  96.515 -46.062  0.00  0.00    -0.223 NA
ATOM      9  C   UNK d   1      91.076  95.217 -45.711  0.00  0.00     0.237 A 
ATOM     10  N   UNK d   1      91.287  94.850 -44.434  0.00  0.00    -0.222 NA
ATOM     11  C   UNK d   1      91.506  95.756 -43.475  0.00  0.00     0.164 A 
ATOM     12  N   UNK d   1      91.720  95.625 -42.153  0.00  0.00    -0.255 N 
ATOM     13  C   UNK d   1      91.510  97.107 -43.844  0.00  0.00     0.095 A 
ATOM     14  N   UNK d   1      91.857  96.843 -41.682  0.00  0.00    -0.163 NA
ATOM     15  C   UNK d   1      91.790  94.396 -41.384  0.00  0.00     0.182 C 
ATOM     16  C   UNK d   1      91.738  97.767 -42.661  0.00  0.00     0.141 A 
ATOM     17 Br   UNK d   1      91.821  99.660 -42.475  0.00  0.00    -0.026 Br
ENDBRANCH   1   7
BRANCH   2  18
ATOM     18  C   UNK d   1      88.947  98.926 -45.505  0.00  0.00     0.198 A 
ATOM     19  N   UNK d   1      88.132  98.833 -44.454  0.00  0.00    -0.207 NA
ATOM     20  C   UNK d   1      87.108  98.015 -44.832  0.00  0.00     0.152 A 
ATOM     21  N   UNK d   1      87.360  97.652 -46.103  0.00  0.00    -0.112 NA
ATOM     22  C   UNK d   1      85.943  97.600 -44.018  0.00  0.00     0.096 C 
ATOM     23  O   UNK d   1      88.471  98.212 -46.483  0.00  0.00    -0.194 OA
ENDBRANCH   2  18
TORSDOF 2
ENDMDL
