MODEL 1
REMARK VINA RESULT:    -5.521      0.000      0.000
REMARK INTER + INTRA:          -6.176
REMARK INTER:                  -5.844
REMARK INTRA:                  -0.332
REMARK UNBOUND:                -0.332
REMARK  1 active torsions:
REMARK  status: ('A' for Active; 'I' for Inactive)
REMARK    1  A    between atoms: C_9  and  N_11 
ROOT
ATOM      1 Br   UNK d   1      90.679  99.191 -46.200  0.00  0.00    -0.026 Br
ATOM      2  C   UNK d   1      90.974  97.516 -45.347  0.00  0.00     0.141 A 
ATOM      3  N   UNK d   1      90.889  96.289 -45.940  0.00  0.00    -0.163 NA
ATOM      4  N   UNK d   1      91.177  95.370 -45.049  0.00  0.00    -0.255 N 
ATOM      5  C   UNK d   1      91.454  95.948 -43.869  0.00  0.00     0.164 A 
ATOM      6  N   UNK d   1      91.811  95.477 -42.664  0.00  0.00    -0.222 NA
ATOM      7  C   UNK d   1      92.046  96.285 -41.633  0.00  0.00     0.237 A 
ATOM      8  N   UNK d   1      91.927  97.600 -41.787  0.00  0.00    -0.223 NA
ATOM      9  C   UNK d   1      91.567  98.188 -42.976  0.00  0.00     0.144 A 
ATOM     10  C   UNK d   1      91.331  97.339 -44.027  0.00  0.00     0.095 A 
ATOM     11  C   UNK d   1      91.215  93.912 -45.231  0.00  0.00     0.182 C 
ENDROOT
BRANCH   9  12
ATOM     12  N   UNK d   1      91.416  99.571 -43.076  0.00  0.00    -0.359 N 
ATOM     13  C   UNK d   1      90.151 100.211 -42.786  0.00  0.00     0.131 C 
ATOM     14  C   UNK d   1      90.314 100.957 -41.445  0.00  0.00     0.079 C 
ATOM     15  C   UNK d   1      91.672 101.540 -41.373  0.00  0.00     0.040 A 
ATOM     16  N   UNK d   1      92.148 102.373 -40.419  0.00  0.00    -0.347 N 
ATOM     17  C   UNK d   1      92.692 101.346 -42.255  0.00  0.00     0.076 A 
ATOM     18  C   UNK d   1      93.423 102.665 -40.730  0.00  0.00     0.209 A 
ATOM     19  C   UNK d   1      91.464 102.886 -39.260  0.00  0.00     0.157 C 
ATOM     20  N   UNK d   1      93.777 102.045 -41.854  0.00  0.00    -0.245 NA
ATOM     21  C   UNK d   1      92.486 100.468 -43.432  0.00  0.00     0.185 C 
ENDBRANCH   9  12
TORSDOF 1
ENDMDL
