MODEL 1
REMARK VINA RESULT:    -6.051      0.000      0.000
REMARK INTER + INTRA:          -7.591
REMARK INTER:                  -7.113
REMARK INTRA:                  -0.478
REMARK UNBOUND:                -0.478
REMARK  3 active torsions:
REMARK  status: ('A' for Active; 'I' for Inactive)
REMARK    1  A    between atoms: C_9  and  N_11 
REMARK    2  A    between atoms: N_14  and  C_17 
REMARK    3  A    between atoms: C_17  and  C_19 
REMARK       I    between atoms: C_19  and  N_21 
ROOT
ATOM      1  N   UNK d   1      91.041  97.564 -44.241  0.00  0.00    -0.362 N 
ATOM      2  C   UNK d   1      91.932  98.027 -45.266  0.00  0.00     0.154 C 
ATOM      3  C   UNK d   1      92.160  99.509 -44.954  0.00  0.00     0.293 C 
ATOM      4  N   UNK d   1      91.092 100.032 -44.095  0.00  0.00     0.103 N 
ATOM      5  C   UNK d   1      89.797  99.538 -44.570  0.00  0.00     0.293 C 
ATOM      6  C   UNK d   1      89.683  98.047 -44.313  0.00  0.00     0.154 C 
ENDROOT
BRANCH   1   7
ATOM      7  C   UNK d   1      91.475  96.717 -43.215  0.00  0.00     0.144 A 
ATOM      8  N   UNK d   1      91.815  97.204 -41.998  0.00  0.00    -0.223 NA
ATOM      9  C   UNK d   1      92.261  96.432 -41.015  0.00  0.00     0.237 A 
ATOM     10  N   UNK d   1      92.387  95.118 -41.224  0.00  0.00    -0.222 NA
ATOM     11  C   UNK d   1      92.075  94.542 -42.398  0.00  0.00     0.164 A 
ATOM     12  N   UNK d   1      92.107  93.268 -42.835  0.00  0.00    -0.255 N 
ATOM     13  C   UNK d   1      91.606  95.350 -43.429  0.00  0.00     0.095 A 
ATOM     14  N   UNK d   1      91.681  93.269 -44.070  0.00  0.00    -0.163 NA
ATOM     15  C   UNK d   1      92.551  92.158 -42.005  0.00  0.00     0.182 C 
ATOM     16  C   UNK d   1      91.360  94.507 -44.488  0.00  0.00     0.141 A 
ATOM     17 Br   UNK d   1      90.679  95.043 -46.174  0.00  0.00    -0.026 Br
ENDBRANCH   1   7
BRANCH   4  18
ATOM     18  C   UNK d   1      91.112 101.478 -44.251  0.00  0.00     0.296 C 
ATOM     19  C   UNK d   1      91.183 101.763 -45.776  0.00  0.00     0.052 C 
BRANCH  18  20
ATOM     20  C   UNK d   1      92.302 102.067 -43.611  0.00  0.00     0.186 C 
ATOM     21  O   UNK d   1      92.981 102.847 -44.401  0.00  0.00    -0.175 OA
ATOM     22  N   UNK d   1      92.775 101.889 -42.301  0.00  0.00    -0.361 N 
ATOM     23  C   UNK d   1      92.236 101.065 -41.261  0.00  0.00     0.124 C 
ATOM     24  C   UNK d   1      93.999 102.633 -41.926  0.00  0.00     0.124 C 
ATOM     25  C   UNK d   1      92.157 101.740 -39.908  0.00  0.00     0.020 C 
ATOM     26  C   UNK d   1      93.272 102.686 -39.623  0.00  0.00     0.003 C 
ATOM     27  C   UNK d   1      93.600 103.565 -40.812  0.00  0.00     0.020 C 
ENDBRANCH  18  20
ENDBRANCH   4  18
TORSDOF 3
ENDMDL
