/Users/jonathanwahrer/Desktop/Msc/3_Semester/Drug_Design_Praktikum/waehrer_HTS_screening/HTS_experiment/out/docking_results/vina_output/4agl/0729_docked.pdbqt
 OpenBabel03202223403D

 27 30  0  0  1  0  0  0  0  0999 V2000
   91.0410   97.5640  -44.2410 N   0  0  0  0  0  0  0  0  0  0  0  0
   91.9320   98.0270  -45.2660 C   0  0  0  0  0  2  0  0  0  0  0  0
   92.1600   99.5090  -44.9540 C   0  0  0  0  0  2  0  0  0  0  0  0
   91.0920  100.0320  -44.0950 N   0  0  0  0  0  0  0  0  0  0  0  0
   89.7970   99.5380  -44.5700 C   0  0  0  0  0  2  0  0  0  0  0  0
   89.6830   98.0470  -44.3130 C   0  0  0  0  0  2  0  0  0  0  0  0
   91.4750   96.7170  -43.2150 C   0  0  0  0  0  0  0  0  0  0  0  0
   91.8150   97.2040  -41.9980 N   0  0  0  0  0  0  0  0  0  0  0  0
   92.2610   96.4320  -41.0150 C   0  0  0  0  0  3  0  0  0  0  0  0
   92.3870   95.1180  -41.2240 N   0  0  0  0  0  0  0  0  0  0  0  0
   92.0750   94.5420  -42.3980 C   0  0  0  0  0  0  0  0  0  0  0  0
   92.1070   93.2680  -42.8350 N   0  0  0  0  0  0  0  0  0  0  0  0
   91.6060   95.3500  -43.4290 C   0  0  0  0  0  0  0  0  0  0  0  0
   91.6810   93.2690  -44.0700 N   0  0  0  0  0  0  0  0  0  0  0  0
   92.5510   92.1580  -42.0050 C   0  0  0  0  0  1  0  0  0  0  0  0
   91.3600   94.5070  -44.4880 C   0  0  0  0  0  0  0  0  0  0  0  0
   90.6790   95.0430  -46.1740 Br  0  0  0  0  0  0  0  0  0  0  0  0
   91.1120  101.4780  -44.2510 C   0  0  2  0  0  3  0  0  0  0  0  0
   91.1830  101.7630  -45.7760 C   0  0  0  0  0  1  0  0  0  0  0  0
   92.3020  102.0670  -43.6110 C   0  0  0  0  0  0  0  0  0  0  0  0
   92.9810  102.8470  -44.4010 O   0  0  0  0  0  0  0  0  0  0  0  0
   92.7750  101.8890  -42.3010 N   0  0  0  0  0  0  0  0  0  0  0  0
   92.2360  101.0650  -41.2610 C   0  0  0  0  0  2  0  0  0  0  0  0
   93.9990  102.6330  -41.9260 C   0  0  0  0  0  2  0  0  0  0  0  0
   92.1570  101.7400  -39.9080 C   0  0  0  0  0  2  0  0  0  0  0  0
   93.2720  102.6860  -39.6230 C   0  0  0  0  0  2  0  0  0  0  0  0
   93.6000  103.5650  -40.8120 C   0  0  0  0  0  2  0  0  0  0  0  0
  1  7  1  0  0  0  0
  2  3  1  0  0  0  0
  2  1  1  0  0  0  0
  3  4  1  0  0  0  0
  5  6  1  0  0  0  0
  5  4  1  0  0  0  0
  6  1  1  0  0  0  0
  7  8  1  0  0  0  0
  8  9  2  0  0  0  0
 10  9  1  0  0  0  0
 11 10  2  0  0  0  0
 12 11  1  0  0  0  0
 12 15  1  0  0  0  0
 13  7  2  0  0  0  0
 13 11  1  0  0  0  0
 14 12  1  0  0  0  0
 16 14  2  0  0  0  0
 16 13  1  0  0  0  0
 17 16  1  0  0  0  0
 18 19  1  6  0  0  0
 18  4  1  0  0  0  0
 18 20  1  0  0  0  0
 20 22  1  0  0  0  0
 21 20  2  0  0  0  0
 22 24  1  0  0  0  0
 22 23  1  0  0  0  0
 23 25  1  0  0  0  0
 24 27  1  0  0  0  0
 25 26  1  0  0  0  0
 27 26  1  0  0  0  0
M  END
>  <Pose>
1

>  <Score>
-6.051

$$$$
