MODEL 1
REMARK VINA RESULT:    -6.517      0.000      0.000
REMARK INTER + INTRA:          -7.229
REMARK INTER:                  -6.898
REMARK INTRA:                  -0.331
REMARK UNBOUND:                -0.331
REMARK  1 active torsions:
REMARK  status: ('A' for Active; 'I' for Inactive)
REMARK    1  A    between atoms: N_8  and  C_11 
ROOT
ATOM      1  C   UNK d   1      91.424  95.769 -44.559  0.00  0.00     0.148 A 
ATOM      2  C   UNK d   1      91.380  94.818 -45.464  0.00  0.00     0.080 A 
ATOM      3  C   UNK d   1      91.537  93.400 -45.105  0.00  0.00     0.043 A 
ATOM      4  C   UNK d   1      91.496  92.433 -46.005  0.00  0.00     0.043 C 
ATOM      5  N   UNK d   1      91.736  93.142 -43.724  0.00  0.00    -0.189 N 
ATOM      6  C   UNK d   1      91.781  94.194 -42.750  0.00  0.00     0.730 A 
ATOM      7  N   UNK d   1      91.624  95.471 -43.191  0.00  0.00    -0.044 N 
ATOM      8  N   UNK d   1      91.706  96.242 -42.101  0.00  0.00    -0.143 NA
ATOM      9  C   UNK d   1      91.906  95.502 -41.001  0.00  0.00     0.275 A 
ATOM     10  N   UNK d   1      91.951  94.226 -41.417  0.00  0.00    -0.054 NA
ATOM     11  H   UNK d   1      91.855  92.157 -43.405  0.00  0.00     0.184 HD
ENDROOT
BRANCH   1  12
ATOM     12  N   UNK d   1      91.267  97.110 -44.958  0.00  0.00    -0.357 N 
ATOM     13  C   UNK d   1      92.457  97.873 -45.245  0.00  0.00     0.203 C 
ATOM     14  C   UNK d   1      92.144  98.988 -46.188  0.00  0.00     0.124 A 
ATOM     15  N   UNK d   1      90.940  99.556 -46.192  0.00  0.00    -0.325 N 
ATOM     16  N   UNK d   1      92.886  99.617 -47.136  0.00  0.00    -0.243 NA
ATOM     17  C   UNK d   1      90.906 100.524 -47.115  0.00  0.00     0.101 A 
ATOM     18  C   UNK d   1      89.892  99.121 -45.291  0.00  0.00     0.151 C 
ATOM     19 Br   UNK d   1      89.444 101.677 -47.572  0.00  0.00    -0.029 Br
ATOM     20  C   UNK d   1      92.142 100.571 -47.725  0.00  0.00     0.156 A 
ATOM     21  C   UNK d   1      89.927  97.640 -45.053  0.00  0.00     0.145 C 
ENDBRANCH   1  12
TORSDOF 1
ENDMDL
