MODEL 1
REMARK VINA RESULT:    -5.781      0.000      0.000
REMARK INTER + INTRA:          -8.461
REMARK INTER:                  -7.133
REMARK INTRA:                  -1.328
REMARK UNBOUND:                -1.328
REMARK  4 active torsions:
REMARK  status: ('A' for Active; 'I' for Inactive)
REMARK    1  A    between atoms: C_4  and  C_7 
REMARK       I    between atoms: C_7  and  N_9 
REMARK    2  A    between atoms: N_9  and  C_10 
REMARK    3  A    between atoms: C_10  and  C_11 
REMARK    4  A    between atoms: C_11  and  C_12 
REMARK       I    between atoms: C_12  and  N_14 
ROOT
ATOM      1  C   UNK d   1      87.491  98.262 -45.995  0.00  0.00     0.221 C 
ATOM      2  O   UNK d   1      86.664  97.304 -45.832  0.00  0.00    -0.273 OA
ATOM      3  N   UNK d   1      87.857  99.088 -44.898  0.00  0.00    -0.352 N 
ATOM      4  C   UNK d   1      87.291  98.839 -43.602  0.00  0.00     0.129 C 
ATOM      5  C   UNK d   1      88.211  99.155 -42.462  0.00  0.00     0.068 C 
ATOM      6  C   UNK d   1      89.265 100.166 -42.804  0.00  0.00     0.204 C 
ATOM      7  N   UNK d   1      89.649 100.913 -41.644  0.00  0.00     0.099 N 
ATOM      8  C   UNK d   1      90.617 101.927 -41.889  0.00  0.00     0.277 C 
ATOM      9  C   UNK d   1      91.752 101.529 -42.774  0.00  0.00     0.091 C 
ATOM     10  C   UNK d   1      91.658 100.125 -43.248  0.00  0.00     0.062 A 
ATOM     11  N   UNK d   1      92.583  99.282 -43.709  0.00  0.00    -0.246 NA
ATOM     12  C   UNK d   1      92.004  98.112 -44.014  0.00  0.00     0.207 A 
ATOM     13  N   UNK d   1      90.693  98.196 -43.750  0.00  0.00    -0.350 N 
ATOM     14  C   UNK d   1      90.474  99.430 -43.279  0.00  0.00     0.074 A 
ATOM     15  C   UNK d   1      88.793 101.048 -43.949  0.00  0.00     0.068 C 
ATOM     16  C   UNK d   1      88.809 100.160 -45.175  0.00  0.00     0.129 C 
ATOM     17  H   UNK d   1      88.792 101.355 -41.246  0.00  0.00     0.317 HD
ATOM     18  H   UNK d   1      89.960  97.429 -43.887  0.00  0.00     0.166 HD
ENDROOT
BRANCH   1  19
ATOM     19  C   UNK d   1      88.023  98.448 -47.354  0.00  0.00     0.122 C 
BRANCH  19  20
ATOM     20  C   UNK d   1      88.862  97.299 -47.821  0.00  0.00     0.132 C 
BRANCH  20  21
ATOM     21  N   UNK d   1      89.604  96.671 -46.773  0.00  0.00    -0.355 N 
ATOM     22  C   UNK d   1      89.978  95.301 -46.816  0.00  0.00     0.275 C 
ATOM     23  O   UNK d   1      89.631  94.627 -47.831  0.00  0.00    -0.265 OA
ATOM     24  H   UNK d   1      89.887  97.226 -45.943  0.00  0.00     0.162 HD
BRANCH  22  25
ATOM     25  C   UNK d   1      90.727  94.647 -45.773  0.00  0.00     0.144 A 
ATOM     26  O   UNK d   1      90.857  95.040 -44.550  0.00  0.00    -0.298 OA
ATOM     27  C   UNK d   1      91.596  94.238 -43.845  0.00  0.00     0.122 A 
ATOM     28 Br   UNK d   1      92.094  94.369 -41.990  0.00  0.00    -0.023 Br
ATOM     29  C   UNK d   1      91.994  93.217 -44.678  0.00  0.00     0.048 A 
ATOM     30  C   UNK d   1      91.450  93.457 -45.922  0.00  0.00     0.046 A 
ENDBRANCH  22  25
ENDBRANCH  20  21
ENDBRANCH  19  20
ENDBRANCH   1  19
TORSDOF 4
ENDMDL
