/Users/jonathanwahrer/Desktop/Msc/3_Semester/Drug_Design_Praktikum/waehrer_HTS_screening/HTS_experiment/out/docking_results/vina_output/4agl/0743_docked.pdbqt
 OpenBabel03202223403D

 30 33  0  0  1  0  0  0  0  0999 V2000
   87.4910   98.2620  -45.9950 C   0  0  0  0  0  0  0  0  0  0  0  0
   86.6640   97.3040  -45.8320 O   0  0  0  0  0  0  0  0  0  0  0  0
   87.8570   99.0880  -44.8980 N   0  0  0  0  0  0  0  0  0  0  0  0
   87.2910   98.8390  -43.6020 C   0  0  0  0  0  2  0  0  0  0  0  0
   88.2110   99.1550  -42.4620 C   0  0  0  0  0  2  0  0  0  0  0  0
   89.2650  100.1660  -42.8040 C   0  0  1  0  0  0  0  0  0  0  0  0
   89.6490  100.9130  -41.6440 N   0  0  0  0  0  0  0  0  0  0  0  0
   90.6170  101.9270  -41.8890 C   0  0  0  0  0  2  0  0  0  0  0  0
   91.7520  101.5290  -42.7740 C   0  0  0  0  0  2  0  0  0  0  0  0
   91.6580  100.1250  -43.2480 C   0  0  0  0  0  0  0  0  0  0  0  0
   92.5830   99.2820  -43.7090 N   0  0  0  0  0  0  0  0  0  0  0  0
   92.0040   98.1120  -44.0140 C   0  0  0  0  0  3  0  0  0  0  0  0
   90.6930   98.1960  -43.7500 N   0  0  0  0  0  0  0  0  0  0  0  0
   90.4740   99.4300  -43.2790 C   0  0  0  0  0  0  0  0  0  0  0  0
   88.7930  101.0480  -43.9490 C   0  0  0  0  0  2  0  0  0  0  0  0
   88.8090  100.1600  -45.1750 C   0  0  0  0  0  2  0  0  0  0  0  0
   88.7920  101.3550  -41.2460 H   0  0  0  0  0  0  0  0  0  0  0  0
   89.9600   97.4290  -43.8870 H   0  0  0  0  0  0  0  0  0  0  0  0
   88.0230   98.4480  -47.3540 C   0  0  0  0  0  2  0  0  0  0  0  0
   88.8620   97.2990  -47.8210 C   0  0  0  0  0  2  0  0  0  0  0  0
   89.6040   96.6710  -46.7730 N   0  0  0  0  0  0  0  0  0  0  0  0
   89.9780   95.3010  -46.8160 C   0  0  0  0  0  0  0  0  0  0  0  0
   89.6310   94.6270  -47.8310 O   0  0  0  0  0  0  0  0  0  0  0  0
   89.8870   97.2260  -45.9430 H   0  0  0  0  0  0  0  0  0  0  0  0
   90.7270   94.6470  -45.7730 C   0  0  0  0  0  0  0  0  0  0  0  0
   90.8570   95.0400  -44.5500 O   0  0  0  0  0  0  0  0  0  0  0  0
   91.5960   94.2380  -43.8450 C   0  0  0  0  0  0  0  0  0  0  0  0
   92.0940   94.3690  -41.9900 Br  0  0  0  0  0  0  0  0  0  0  0  0
   91.9940   93.2170  -44.6780 C   0  0  0  0  0  3  0  0  0  0  0  0
   91.4500   93.4570  -45.9220 C   0  0  0  0  0  3  0  0  0  0  0  0
  1  2  2  0  0  0  0
  1  3  1  0  0  0  0
  3  4  1  0  0  0  0
  4  5  1  0  0  0  0
  6 15  1  6  0  0  0
  6  5  1  0  0  0  0
  6  7  1  0  0  0  0
  7 17  1  0  0  0  0
  8  7  1  0  0  0  0
  9  8  1  0  0  0  0
 10  9  1  0  0  0  0
 11 10  1  0  0  0  0
 12 13  1  0  0  0  0
 12 11  2  0  0  0  0
 13 14  1  0  0  0  0
 14 10  2  0  0  0  0
 14  6  1  0  0  0  0
 16  3  1  0  0  0  0
 16 15  1  0  0  0  0
 18 13  1  0  0  0  0
 19  1  1  0  0  0  0
 20 19  1  0  0  0  0
 20 21  1  0  0  0  0
 21 24  1  0  0  0  0
 22 21  1  0  0  0  0
 22 25  1  0  0  0  0
 23 22  2  0  0  0  0
 25 26  1  0  0  0  0
 26 27  1  0  0  0  0
 27 28  1  0  0  0  0
 29 27  2  0  0  0  0
 30 25  2  0  0  0  0
 30 29  1  0  0  0  0
M  END
>  <Pose>
1

>  <Score>
-5.781

$$$$
