/Users/jonathanwahrer/Desktop/Msc/3_Semester/Drug_Design_Praktikum/waehrer_HTS_screening/HTS_experiment/out/docking_results/vina_output/4agl/0746_docked.pdbqt
 OpenBabel03202223413D

 30 33  0  0  1  0  0  0  0  0999 V2000
   89.8220  100.0660  -42.9660 C   0  0  0  0  0  0  0  0  0  0  0  0
   89.2030  100.7480  -42.0760 O   0  0  0  0  0  0  0  0  0  0  0  0
   89.2590  100.0350  -44.2460 N   0  0  0  0  0  0  0  0  0  0  0  0
   89.8530   99.3070  -45.3490 C   0  0  0  0  0  2  0  0  0  0  0  0
   88.8800   98.2540  -45.7830 C   0  0  0  0  0  2  0  0  0  0  0  0
   87.5210   98.8170  -46.0530 C   0  0  1  0  0  0  0  0  0  0  0  0
   87.1460   98.4780  -47.4150 N   0  0  0  0  0  0  0  0  0  0  0  0
   87.0080   97.0350  -47.4930 C   0  0  0  0  0  2  0  0  0  0  0  0
   85.6140   96.7100  -46.9430 C   0  0  0  0  0  2  0  0  0  0  0  0
   85.5840   97.2720  -45.5710 C   0  0  0  0  0  0  0  0  0  0  0  0
   84.7670   96.9750  -44.5410 N   0  0  0  0  0  0  0  0  0  0  0  0
   85.1320   97.7480  -43.5070 C   0  0  0  0  0  3  0  0  0  0  0  0
   86.1660   98.5140  -43.9020 N   0  0  0  0  0  0  0  0  0  0  0  0
   86.4730   98.2430  -45.1810 C   0  0  0  0  0  0  0  0  0  0  0  0
   87.5600  100.3400  -45.9240 C   0  0  0  0  0  2  0  0  0  0  0  0
   88.0320  100.7420  -44.5640 C   0  0  0  0  0  2  0  0  0  0  0  0
   87.9120   98.7340  -48.0980 H   0  0  0  0  0  0  0  0  0  0  0  0
   83.9790   96.2810  -44.4970 H   0  0  0  0  0  0  0  0  0  0  0  0
   91.0560   99.3980  -42.5200 C   0  0  2  0  0  3  0  0  0  0  0  0
   92.3210  100.0070  -43.0060 C   0  0  0  0  0  1  0  0  0  0  0  0
   91.0620   97.9850  -42.8420 N   0  0  0  0  0  0  0  0  0  0  0  0
   91.8260   97.0350  -42.1410 C   0  0  0  0  0  0  0  0  0  0  0  0
   92.5440   97.4030  -41.1880 O   0  0  0  0  0  0  0  0  0  0  0  0
   90.4670   97.6680  -43.6340 H   0  0  0  0  0  0  0  0  0  0  0  0
   91.7880   95.6300  -42.5140 C   0  0  0  0  0  0  0  0  0  0  0  0
   91.7470   95.1740  -43.7670 O   0  0  0  0  0  0  0  0  0  0  0  0
   91.7200   93.8670  -43.7790 C   0  0  0  0  0  0  0  0  0  0  0  0
   91.6580   92.7600  -45.3530 Br  0  0  0  0  0  0  0  0  0  0  0  0
   91.7440   93.3990  -42.4750 C   0  0  0  0  0  3  0  0  0  0  0  0
   91.7860   94.5250  -41.6920 C   0  0  0  0  0  3  0  0  0  0  0  0
  1 19  1  0  0  0  0
  1  2  2  0  0  0  0
  3  1  1  0  0  0  0
  4  3  1  0  0  0  0
  5  4  1  0  0  0  0
  6 15  1  1  0  0  0
  6  5  1  0  0  0  0
  6 14  1  0  0  0  0
  7  6  1  0  0  0  0
  8  7  1  0  0  0  0
  8  9  1  0  0  0  0
  9 10  1  0  0  0  0
 10 14  2  0  0  0  0
 10 11  1  0  0  0  0
 11 18  1  0  0  0  0
 11 12  1  0  0  0  0
 13 12  2  0  0  0  0
 14 13  1  0  0  0  0
 15 16  1  0  0  0  0
 16  3  1  0  0  0  0
 17  7  1  0  0  0  0
 19 20  1  6  0  0  0
 21 19  1  0  0  0  0
 21 22  1  0  0  0  0
 22 23  2  0  0  0  0
 24 21  1  0  0  0  0
 25 22  1  0  0  0  0
 25 30  2  0  0  0  0
 26 25  1  0  0  0  0
 27 26  1  0  0  0  0
 27 29  2  0  0  0  0
 28 27  1  0  0  0  0
 29 30  1  0  0  0  0
M  END
>  <Pose>
1

>  <Score>
-6.632

$$$$
