MODEL 1
REMARK VINA RESULT:    -6.299      0.000      0.000
REMARK INTER + INTRA:          -8.085
REMARK INTER:                  -7.404
REMARK INTRA:                  -0.682
REMARK UNBOUND:                -0.682
REMARK  3 active torsions:
REMARK  status: ('A' for Active; 'I' for Inactive)
REMARK    1  A    between atoms: C_4  and  C_7 
REMARK       I    between atoms: C_7  and  N_9 
REMARK    2  A    between atoms: N_12  and  C_15 
REMARK    3  A    between atoms: C_19  and  N_21 
ROOT
ATOM      1  C   UNK d   1      87.979  99.103 -43.654  0.00  0.00     0.277 C 
ATOM      2  O   UNK d   1      88.133  99.811 -42.647  0.00  0.00    -0.265 OA
ATOM      3  N   UNK d   1      89.092  98.518 -44.313  0.00  0.00    -0.343 N 
ATOM      4  C   UNK d   1      88.902  97.685 -45.498  0.00  0.00     0.146 C 
ATOM      5  C   UNK d   1      90.245  97.131 -45.967  0.00  0.00     0.144 C 
ATOM      6  N   UNK d   1      90.896  96.547 -44.811  0.00  0.00    -0.363 N 
ATOM      7  C   UNK d   1      91.135  97.377 -43.662  0.00  0.00     0.144 C 
ATOM      8  C   UNK d   1      90.454  98.708 -43.857  0.00  0.00     0.146 C 
ENDROOT
BRANCH   6   9
ATOM      9  C   UNK d   1      91.300  95.172 -44.796  0.00  0.00     0.131 A 
ATOM     10  N   UNK d   1      91.814  94.601 -43.697  0.00  0.00    -0.216 NA
ATOM     11  C   UNK d   1      92.183  93.316 -43.713  0.00  0.00     0.126 A 
ATOM     12  N   UNK d   1      92.056  92.555 -44.818  0.00  0.00    -0.216 NA
ATOM     13  C   UNK d   1      92.750  92.693 -42.491  0.00  0.00     0.093 C 
ATOM     14  C   UNK d   1      91.548  93.066 -45.954  0.00  0.00     0.131 A 
ATOM     15  C   UNK d   1      91.173  94.392 -45.916  0.00  0.00     0.100 A 
BRANCH  14  16
ATOM     16  N   UNK d   1      91.394  92.307 -47.140  0.00  0.00    -0.362 N 
ATOM     17  C   UNK d   1      90.194  92.435 -47.941  0.00  0.00     0.154 C 
ATOM     18  C   UNK d   1      90.463  91.755 -49.267  0.00  0.00     0.291 C 
ATOM     19  N   UNK d   1      90.734  90.364 -49.027  0.00  0.00     0.087 N 
ATOM     20  C   UNK d   1      91.673  90.103 -47.982  0.00  0.00     0.291 C 
ATOM     21  C   UNK d   1      89.498  89.632 -48.918  0.00  0.00     0.310 C 
ATOM     22  C   UNK d   1      92.401  91.378 -47.616  0.00  0.00     0.154 C 
ENDBRANCH  14  16
ENDBRANCH   6   9
BRANCH   1  23
ATOM     23  C   UNK d   1      86.615  98.861 -44.179  0.00  0.00     0.144 A 
ATOM     24  O   UNK d   1      86.019  99.518 -45.143  0.00  0.00    -0.298 OA
ATOM     25  C   UNK d   1      84.813  99.067 -45.379  0.00  0.00     0.122 A 
ATOM     26 Br   UNK d   1      83.605  99.739 -46.698  0.00  0.00    -0.023 Br
ATOM     27  C   UNK d   1      84.582  98.027 -44.504  0.00  0.00     0.048 A 
ATOM     28  C   UNK d   1      85.723  97.906 -43.753  0.00  0.00     0.046 A 
ENDBRANCH   1  23
TORSDOF 3
ENDMDL
