/Users/jonathanwahrer/Desktop/Msc/3_Semester/Drug_Design_Praktikum/waehrer_HTS_screening/HTS_experiment/out/docking_results/vina_output/4agl/0769_docked.pdbqt
 OpenBabel03202223423D

 26 29  0  0  0  0  0  0  0  0999 V2000
   93.4580  102.3290  -42.0120 C   0  0  0  0  0  0  0  0  0  0  0  0
   94.1290  103.0440  -42.8960 O   0  0  0  0  0  0  0  0  0  0  0  0
   92.5270  101.4480  -42.5400 N   0  0  0  0  0  0  0  0  0  0  0  0
   92.3620  101.3770  -44.0140 C   0  0  0  0  0  2  0  0  0  0  0  0
   92.5710   99.9480  -44.4570 C   0  0  0  0  0  2  0  0  0  0  0  0
   91.6600   99.1060  -43.7880 N   0  0  0  0  0  0  0  0  0  0  0  0
   90.8300   99.8210  -42.8800 C   0  0  0  0  0  2  0  0  0  0  0  0
   91.6800  100.5710  -41.8260 C   0  0  0  0  0  2  0  0  0  0  0  0
   93.8560  102.6320  -40.6510 C   0  0  0  0  0  0  0  0  0  0  0  0
   92.9710  102.9420  -39.6530 C   0  0  0  0  0  3  0  0  0  0  0  0
   93.4520  103.2180  -38.3700 C   0  0  0  0  0  0  0  0  0  0  0  0
   92.2890  103.6510  -36.9520 Br  0  0  0  0  0  0  0  0  0  0  0  0
   94.8060  103.1690  -38.1460 C   0  0  0  0  0  0  0  0  0  0  0  0
   95.6090  102.8740  -39.1060 O   0  0  0  0  0  0  0  0  0  0  0  0
   95.2890  103.4080  -37.0080 O   0  0  0  0  0  0  0  0  0  0  0  0
   95.2120  102.6110  -40.3100 C   0  0  0  0  0  3  0  0  0  0  0  0
   90.9200   98.1980  -44.6060 C   0  0  0  0  0  2  0  0  0  0  0  0
   91.1980   96.7680  -44.3830 C   0  0  0  0  0  0  0  0  0  0  0  0
   91.4700   96.2110  -43.1770 C   0  0  0  0  0  3  0  0  0  0  0  0
   91.7200   94.8650  -43.0690 C   0  0  0  0  0  0  0  0  0  0  0  0
   91.6940   94.0810  -44.1900 C   0  0  0  0  0  0  0  0  0  0  0  0
   92.0250   94.0160  -41.9940 O   0  0  0  0  0  0  0  0  0  0  0  0
   91.4200   94.6240  -45.4250 C   0  0  0  0  0  3  0  0  0  0  0  0
   91.9730   92.7690  -43.8440 O   0  0  0  0  0  0  0  0  0  0  0  0
   91.1760   95.9560  -45.5020 C   0  0  0  0  0  3  0  0  0  0  0  0
   92.5380   92.8160  -42.5410 C   0  0  0  0  0  2  0  0  0  0  0  0
  1  9  1  0  0  0  0
  2  1  2  0  0  0  0
  3  1  1  0  0  0  0
  3  8  1  0  0  0  0
  4  3  1  0  0  0  0
  5  4  1  0  0  0  0
  5  6  1  0  0  0  0
  6  7  1  0  0  0  0
  7  8  1  0  0  0  0
  9 16  2  0  0  0  0
  9 10  1  0  0  0  0
 10 11  2  0  0  0  0
 11 13  1  0  0  0  0
 11 12  1  0  0  0  0
 13 15  2  0  0  0  0
 14 13  1  0  0  0  0
 16 14  1  0  0  0  0
 17 18  1  0  0  0  0
 17  6  1  0  0  0  0
 18 19  1  0  0  0  0
 19 20  2  0  0  0  0
 20 22  1  0  0  0  0
 21 24  1  0  0  0  0
 21 20  1  0  0  0  0
 23 21  2  0  0  0  0
 24 26  1  0  0  0  0
 25 23  1  0  0  0  0
 25 18  2  0  0  0  0
 26 22  1  0  0  0  0
M  END
>  <Pose>
1

>  <Score>
-6.442

$$$$
