MODEL 1
REMARK VINA RESULT:    -6.442      0.000      0.000
REMARK INTER + INTRA:          -7.965
REMARK INTER:                  -7.572
REMARK INTRA:                  -0.393
REMARK UNBOUND:                -0.393
REMARK  3 active torsions:
REMARK  status: ('A' for Active; 'I' for Inactive)
REMARK    1  A    between atoms: C_4  and  C_9 
REMARK       I    between atoms: C_9  and  N_11 
REMARK    2  A    between atoms: N_14  and  C_17 
REMARK    3  A    between atoms: C_17  and  C_18 
ROOT
ATOM      1  C   UNK d   1      93.458 102.329 -42.012  0.00  0.00     0.189 C 
ATOM      2  O   UNK d   1      94.129 103.044 -42.896  0.00  0.00    -0.171 OA
ATOM      3  N   UNK d   1      92.527 101.448 -42.540  0.00  0.00    -0.355 N 
ATOM      4  C   UNK d   1      92.362 101.377 -44.014  0.00  0.00     0.155 C 
ATOM      5  C   UNK d   1      92.571  99.948 -44.457  0.00  0.00     0.292 C 
ATOM      6  N   UNK d   1      91.660  99.106 -43.788  0.00  0.00     0.095 N 
ATOM      7  C   UNK d   1      90.830  99.821 -42.880  0.00  0.00     0.292 C 
ATOM      8  C   UNK d   1      91.680 100.571 -41.826  0.00  0.00     0.155 C 
ENDROOT
BRANCH   1   9
ATOM      9  C   UNK d   1      93.856 102.632 -40.651  0.00  0.00     0.042 A 
ATOM     10  C   UNK d   1      92.971 102.942 -39.653  0.00  0.00     0.043 A 
ATOM     11  C   UNK d   1      93.452 103.218 -38.370  0.00  0.00     0.087 A 
ATOM     12 Br   UNK d   1      92.289 103.651 -36.952  0.00  0.00    -0.045 Br
ATOM     13  C   UNK d   1      94.806 103.169 -38.146  0.00  0.00     0.305 A 
ATOM     14  O   UNK d   1      95.609 102.874 -39.106  0.00  0.00    -0.286 OA
ATOM     15  O   UNK d   1      95.289 103.408 -37.008  0.00  0.00    -0.258 OA
ATOM     16  C   UNK d   1      95.212 102.611 -40.310  0.00  0.00     0.162 A 
ENDBRANCH   1   9
BRANCH   6  17
ATOM     17  C   UNK d   1      90.920  98.198 -44.606  0.00  0.00     0.311 C 
BRANCH  17  18
ATOM     18  C   UNK d   1      91.198  96.768 -44.383  0.00  0.00    -0.027 A 
ATOM     19  C   UNK d   1      91.470  96.211 -43.177  0.00  0.00     0.048 A 
ATOM     20  C   UNK d   1      91.720  94.865 -43.069  0.00  0.00     0.105 A 
ATOM     21  C   UNK d   1      91.694  94.081 -44.190  0.00  0.00     0.105 A 
ATOM     22  O   UNK d   1      92.025  94.016 -41.994  0.00  0.00    -0.323 OA
ATOM     23  C   UNK d   1      91.420  94.624 -45.425  0.00  0.00     0.040 A 
ATOM     24  O   UNK d   1      91.973  92.769 -43.844  0.00  0.00    -0.323 OA
ATOM     25  C   UNK d   1      91.176  95.956 -45.502  0.00  0.00     0.012 A 
ATOM     26  C   UNK d   1      92.538  92.816 -42.541  0.00  0.00     0.352 C 
ENDBRANCH  17  18
ENDBRANCH   6  17
TORSDOF 3
ENDMDL
