MODEL 1
REMARK VINA RESULT:    -6.669      0.000      0.000
REMARK INTER + INTRA:          -8.941
REMARK INTER:                  -9.009
REMARK INTRA:                   0.067
REMARK UNBOUND:                 0.067
REMARK  7 active torsions:
REMARK  status: ('A' for Active; 'I' for Inactive)
REMARK    1  A    between atoms: N_4  and  C_10 
REMARK    2  A    between atoms: C_11  and  O_33 
REMARK       I    between atoms: N_18  and  C_21 
REMARK    3  A    between atoms: C_21  and  C_23 
REMARK    4  A    between atoms: C_25  and  O_29 
REMARK    5  A    between atoms: O_29  and  C_30 
REMARK    6  A    between atoms: C_30  and  C_31 
REMARK    7  A    between atoms: C_31  and  N_32 
ROOT
ATOM      1  C   UNK d   1      86.098 100.363 -44.194  0.00  0.00     0.152 C 
ATOM      2  C   UNK d   1      87.075 101.400 -43.623  0.00  0.00     0.080 C 
ATOM      3  C   UNK d   1      88.449 101.098 -44.112  0.00  0.00     0.077 C 
ATOM      4  C   UNK d   1      88.863  99.743 -43.583  0.00  0.00     0.067 C 
ATOM      5  O   UNK d   1      87.785  98.975 -43.183  0.00  0.00    -0.378 OA
ATOM      6  C   UNK d   1      86.717  99.011 -44.069  0.00  0.00     0.197 C 
ATOM      7  C   UNK d   1      89.720  99.098 -44.611  0.00  0.00     0.058 C 
ATOM      8  C   UNK d   1      90.180  97.735 -44.071  0.00  0.00     0.128 C 
ATOM      9  N   UNK d   1      91.052  97.977 -42.970  0.00  0.00    -0.359 N 
ATOM     10  C   UNK d   1      91.102  99.409 -42.518  0.00  0.00     0.128 C 
ATOM     11  C   UNK d   1      89.730  99.975 -42.364  0.00  0.00     0.058 C 
ATOM     12  C   UNK d   1      91.821  97.039 -42.309  0.00  0.00     0.187 C 
ATOM     13  O   UNK d   1      92.567  97.511 -41.332  0.00  0.00    -0.171 OA
ATOM     14  C   UNK d   1      86.616 102.793 -43.911  0.00  0.00     0.048 C 
ENDROOT
BRANCH   2  15
ATOM     15  O   UNK d   1      87.066 101.224 -42.237  0.00  0.00    -0.388 OA
ATOM     16  H   UNK d   1      87.282 102.055 -41.743  0.00  0.00     0.210 HD
ENDBRANCH   2  15
BRANCH   1  17
ATOM     17  N   UNK d   1      85.627 100.714 -45.495  0.00  0.00    -0.298 N 
ATOM     18  C   UNK d   1      86.367 100.635 -46.616  0.00  0.00     0.121 A 
ATOM     19  C   UNK d   1      85.886 100.981 -47.853  0.00  0.00     0.094 A 
ATOM     20 Br   UNK d   1      87.046 100.819 -49.353  0.00  0.00    -0.044 Br
ATOM     21  C   UNK d   1      84.594 101.429 -47.977  0.00  0.00     0.268 A 
ATOM     22  N   UNK d   1      83.855 101.508 -46.857  0.00  0.00    -0.274 N 
ATOM     23  O   UNK d   1      84.162 101.744 -49.113  0.00  0.00    -0.267 OA
ATOM     24  C   UNK d   1      84.350 101.167 -45.678  0.00  0.00     0.329 A 
ATOM     25  H   UNK d   1      82.877 101.850 -46.967  0.00  0.00     0.173 HD
ATOM     26  O   UNK d   1      83.591 101.269 -44.671  0.00  0.00    -0.246 OA
ENDBRANCH   1  17
BRANCH  12  27
ATOM     27  C   UNK d   1      91.948  95.638 -42.501  0.00  0.00     0.020 A 
ATOM     28  C   UNK d   1      91.652  95.066 -43.751  0.00  0.00     0.052 A 
ATOM     29  C   UNK d   1      91.751  93.748 -44.063  0.00  0.00     0.069 A 
ATOM     30  C   UNK d   1      92.192  92.890 -43.034  0.00  0.00     0.037 A 
ATOM     31  C   UNK d   1      92.483  93.416 -41.823  0.00  0.00     0.004 A 
ATOM     32  C   UNK d   1      92.369  94.786 -41.531  0.00  0.00     0.016 A 
BRANCH  29  33
ATOM     33  O   UNK d   1      91.451  93.230 -45.288  0.00  0.00    -0.349 OA
BRANCH  33  34
ATOM     34  C   UNK d   1      91.746  92.036 -45.874  0.00  0.00     0.205 C 
BRANCH  34  35
ATOM     35  C   UNK d   1      91.173  91.901 -47.244  0.00  0.00     0.293 C 
BRANCH  35  36
ATOM     36  N   UNK d   1      90.905  90.490 -47.526  0.00  0.00     0.080 N 
ATOM     37  H   UNK d   1      91.595  89.867 -47.082  0.00  0.00     0.312 HD
ATOM     38  H   UNK d   1      90.726  90.309 -48.519  0.00  0.00     0.312 HD
ENDBRANCH  35  36
ENDBRANCH  34  35
ENDBRANCH  33  34
ENDBRANCH  29  33
ENDBRANCH  12  27
TORSDOF 7
ENDMDL
