/Users/jonathanwahrer/Desktop/Msc/3_Semester/Drug_Design_Praktikum/waehrer_HTS_screening/HTS_experiment/out/docking_results/vina_output/4agl/0783_docked.pdbqt
 OpenBabel03202223433D

 39 42  0  0  1  0  0  0  0  0999 V2000
   92.3730  102.5330  -42.0960 C   0  0  1  0  0  3  0  0  0  0  0  0
   92.4710  101.1600  -42.6310 C   0  0  2  0  0  0  0  0  0  0  0  0
   91.4410  100.8390  -43.7210 C   0  0  0  0  0  2  0  0  0  0  0  0
   90.0440  101.1310  -43.2330 C   0  0  2  0  0  0  0  0  0  0  0  0
   90.0430  102.0310  -42.1850 O   0  0  0  0  0  0  0  0  0  0  0  0
   90.9640  103.0300  -42.2660 C   0  0  0  0  0  2  0  0  0  0  0  0
   89.4160   99.8070  -42.8360 C   0  0  0  0  0  2  0  0  0  0  0  0
   88.5890   99.2560  -43.9660 C   0  0  0  0  0  2  0  0  0  0  0  0
   89.2820   99.4950  -45.2060 N   0  0  0  0  0  0  0  0  0  0  0  0
   89.3730  100.8870  -45.6210 C   0  0  0  0  0  2  0  0  0  0  0  0
   89.2670  101.7380  -44.3770 C   0  0  0  0  0  2  0  0  0  0  0  0
   89.8080   98.4400  -45.9560 C   0  0  0  0  0  0  0  0  0  0  0  0
   90.4070   98.7810  -47.0400 O   0  0  0  0  0  0  0  0  0  0  0  0
   92.4840  100.0670  -41.6120 C   0  0  0  0  0  1  0  0  0  0  0  0
   93.7140  101.0670  -43.3090 O   0  0  0  0  0  0  0  0  0  0  0  0
   94.0220  100.1330  -43.3760 H   0  0  0  0  0  0  0  0  0  0  0  0
   92.8220  102.6800  -40.7260 N   0  0  0  0  0  0  0  0  0  0  0  0
   91.9320  102.9000  -39.7630 C   0  0  0  0  0  3  0  0  0  0  0  0
   92.3270  103.0520  -38.4540 C   0  0  0  0  0  0  0  0  0  0  0  0
   91.0240  103.3690  -37.0790 Br  0  0  0  0  0  0  0  0  0  0  0  0
   93.6710  102.9710  -38.1550 C   0  0  0  0  0  0  0  0  0  0  0  0
   94.5240  102.7460  -39.1710 N   0  0  0  0  0  0  0  0  0  0  0  0
   94.0850  103.1030  -36.9660 O   0  0  0  0  0  0  0  0  0  0  0  0
   94.1190  102.6020  -40.4430 C   0  0  0  0  0  0  0  0  0  0  0  0
   95.5630  102.6830  -38.9460 H   0  0  0  0  0  0  0  0  0  0  0  0
   95.0030  102.3920  -41.3380 O   0  0  0  0  0  0  0  0  0  0  0  0
   89.7720   97.0060  -45.6890 C   0  0  1  0  0  3  0  0  0  0  0  0
   88.9080   96.2950  -46.6330 N   0  0  0  0  0  0  0  0  0  0  0  0
   89.2750   96.3700  -47.6060 H   0  0  0  0  0  0  0  0  0  0  0  0
   87.9680   96.7620  -46.6370 H   0  0  0  0  0  0  0  0  0  0  0  0
   91.1110   96.3050  -45.7450 C   0  0  0  0  0  2  0  0  0  0  0  0
   91.3560   95.7690  -44.3540 C   0  0  0  0  0  0  0  0  0  0  0  0
   91.4860   94.4200  -44.1480 C   0  0  0  0  0  3  0  0  0  0  0  0
   91.7110   93.9690  -42.8500 C   0  0  0  0  0  3  0  0  0  0  0  0
   91.8030   94.8370  -41.7860 C   0  0  0  0  0  0  0  0  0  0  0  0
   91.6670   96.1880  -42.0350 C   0  0  0  0  0  3  0  0  0  0  0  0
   91.4420   96.6660  -43.3100 C   0  0  0  0  0  3  0  0  0  0  0  0
   92.0280   94.3320  -40.5200 O   0  0  0  0  0  0  0  0  0  0  0  0
   92.4540   94.8640  -39.7610 H   0  0  0  0  0  0  0  0  0  0  0  0
  1  6  1  1  0  0  0
  1 17  1  0  0  0  0
  2  1  1  0  0  0  0
  2 14  1  1  0  0  0
  3  4  1  0  0  0  0
  3  2  1  0  0  0  0
  4 11  1  6  0  0  0
  4  7  1  0  0  0  0
  4  5  1  0  0  0  0
  6  5  1  0  0  0  0
  8  7  1  0  0  0  0
  9  8  1  0  0  0  0
 10  9  1  0  0  0  0
 10 11  1  0  0  0  0
 12 27  1  0  0  0  0
 12  9  1  0  0  0  0
 13 12  2  0  0  0  0
 15  2  1  0  0  0  0
 16 15  1  0  0  0  0
 17 24  1  0  0  0  0
 17 18  1  0  0  0  0
 18 19  2  0  0  0  0
 19 21  1  0  0  0  0
 19 20  1  0  0  0  0
 21 23  2  0  0  0  0
 22 25  1  0  0  0  0
 22 21  1  0  0  0  0
 24 22  1  0  0  0  0
 26 24  2  0  0  0  0
 27 31  1  6  0  0  0
 28 27  1  0  0  0  0
 29 28  1  0  0  0  0
 30 28  1  0  0  0  0
 31 32  1  0  0  0  0
 32 33  2  0  0  0  0
 32 37  1  0  0  0  0
 33 34  1  0  0  0  0
 34 35  2  0  0  0  0
 35 38  1  0  0  0  0
 36 35  1  0  0  0  0
 37 36  2  0  0  0  0
 38 39  1  0  0  0  0
M  END
>  <Pose>
1

>  <Score>
-6.913

$$$$
