MODEL 1
REMARK VINA RESULT:    -6.913      0.000      0.000
REMARK INTER + INTRA:         -10.001
REMARK INTER:                  -9.136
REMARK INTRA:                  -0.865
REMARK UNBOUND:                -0.865
REMARK  7 active torsions:
REMARK  status: ('A' for Active; 'I' for Inactive)
REMARK    1  A    between atoms: N_4  and  C_10 
REMARK    2  A    between atoms: C_11  and  O_33 
REMARK       I    between atoms: N_18  and  C_21 
REMARK    3  A    between atoms: C_21  and  C_23 
REMARK    4  A    between atoms: C_23  and  N_24 
REMARK    5  A    between atoms: C_23  and  C_25 
REMARK    6  A    between atoms: C_25  and  C_26 
REMARK    7  A    between atoms: C_29  and  O_32 
ROOT
ATOM      1  C   UNK d   1      92.373 102.533 -42.096  0.00  0.00     0.152 C 
ATOM      2  C   UNK d   1      92.471 101.160 -42.631  0.00  0.00     0.080 C 
ATOM      3  C   UNK d   1      91.441 100.839 -43.721  0.00  0.00     0.077 C 
ATOM      4  C   UNK d   1      90.044 101.131 -43.233  0.00  0.00     0.067 C 
ATOM      5  O   UNK d   1      90.043 102.031 -42.185  0.00  0.00    -0.378 OA
ATOM      6  C   UNK d   1      90.964 103.030 -42.266  0.00  0.00     0.197 C 
ATOM      7  C   UNK d   1      89.416  99.807 -42.836  0.00  0.00     0.058 C 
ATOM      8  C   UNK d   1      88.589  99.256 -43.966  0.00  0.00     0.129 C 
ATOM      9  N   UNK d   1      89.282  99.495 -45.206  0.00  0.00    -0.350 N 
ATOM     10  C   UNK d   1      89.373 100.887 -45.621  0.00  0.00     0.129 C 
ATOM     11  C   UNK d   1      89.267 101.738 -44.377  0.00  0.00     0.058 C 
ATOM     12  C   UNK d   1      89.808  98.440 -45.956  0.00  0.00     0.253 C 
ATOM     13  O   UNK d   1      90.407  98.781 -47.040  0.00  0.00    -0.271 OA
ATOM     14  C   UNK d   1      92.484 100.067 -41.612  0.00  0.00     0.048 C 
ENDROOT
BRANCH   2  15
ATOM     15  O   UNK d   1      93.714 101.067 -43.309  0.00  0.00    -0.388 OA
ATOM     16  H   UNK d   1      94.022 100.133 -43.376  0.00  0.00     0.210 HD
ENDBRANCH   2  15
BRANCH   1  17
ATOM     17  N   UNK d   1      92.822 102.680 -40.726  0.00  0.00    -0.298 N 
ATOM     18  C   UNK d   1      91.932 102.900 -39.763  0.00  0.00     0.121 A 
ATOM     19  C   UNK d   1      92.327 103.052 -38.454  0.00  0.00     0.094 A 
ATOM     20 Br   UNK d   1      91.024 103.369 -37.079  0.00  0.00    -0.044 Br
ATOM     21  C   UNK d   1      93.671 102.971 -38.155  0.00  0.00     0.268 A 
ATOM     22  N   UNK d   1      94.524 102.746 -39.171  0.00  0.00    -0.274 N 
ATOM     23  O   UNK d   1      94.085 103.103 -36.966  0.00  0.00    -0.267 OA
ATOM     24  C   UNK d   1      94.119 102.602 -40.443  0.00  0.00     0.329 A 
ATOM     25  H   UNK d   1      95.563 102.683 -38.946  0.00  0.00     0.173 HD
ATOM     26  O   UNK d   1      95.003 102.392 -41.338  0.00  0.00    -0.246 OA
ENDBRANCH   1  17
BRANCH  12  27
ATOM     27  C   UNK d   1      89.772  97.006 -45.689  0.00  0.00     0.313 C 
BRANCH  27  28
ATOM     28  N   UNK d   1      88.908  96.295 -46.633  0.00  0.00     0.092 N 
ATOM     29  H   UNK d   1      89.275  96.370 -47.606  0.00  0.00     0.313 HD
ATOM     30  H   UNK d   1      87.968  96.762 -46.637  0.00  0.00     0.313 HD
ENDBRANCH  27  28
BRANCH  27  31
ATOM     31  C   UNK d   1      91.111  96.305 -45.745  0.00  0.00     0.083 C 
BRANCH  31  32
ATOM     32  C   UNK d   1      91.356  95.769 -44.354  0.00  0.00    -0.056 A 
ATOM     33  C   UNK d   1      91.486  94.420 -44.148  0.00  0.00     0.010 A 
ATOM     34  C   UNK d   1      91.711  93.969 -42.850  0.00  0.00     0.037 A 
ATOM     35  C   UNK d   1      91.803  94.837 -41.786  0.00  0.00     0.065 A 
ATOM     36  C   UNK d   1      91.667  96.188 -42.035  0.00  0.00     0.037 A 
ATOM     37  C   UNK d   1      91.442  96.666 -43.310  0.00  0.00     0.010 A 
BRANCH  35  38
ATOM     38  O   UNK d   1      92.028  94.332 -40.520  0.00  0.00    -0.361 OA
ATOM     39  H   UNK d   1      92.454  94.864 -39.761  0.00  0.00     0.217 HD
ENDBRANCH  35  38
ENDBRANCH  31  32
ENDBRANCH  27  31
ENDBRANCH  12  27
TORSDOF 7
ENDMDL
