MODEL 1
REMARK VINA RESULT:    -6.205      0.000      0.000
REMARK INTER + INTRA:          -9.599
REMARK INTER:                  -8.200
REMARK INTRA:                  -1.399
REMARK UNBOUND:                -1.399
REMARK  6 active torsions:
REMARK  status: ('A' for Active; 'I' for Inactive)
REMARK    1  A    between atoms: N_4  and  C_10 
REMARK    2  A    between atoms: C_11  and  O_34 
REMARK       I    between atoms: N_18  and  C_21 
REMARK    3  A    between atoms: C_21  and  C_23 
REMARK    4  A    between atoms: C_23  and  N_24 
REMARK    5  A    between atoms: C_23  and  C_28 
REMARK       I    between atoms: N_24  and  C_25 
REMARK    6  A    between atoms: C_28  and  C_29 
ROOT
ATOM      1  C   UNK d   1      90.775  97.736 -43.914  0.00  0.00     0.152 C 
ATOM      2  C   UNK d   1      91.932  98.724 -44.136  0.00  0.00     0.080 C 
ATOM      3  C   UNK d   1      91.296 100.099 -43.891  0.00  0.00     0.077 C 
ATOM      4  C   UNK d   1      90.054 100.264 -44.723  0.00  0.00     0.067 C 
ATOM      5  O   UNK d   1      89.954  99.211 -45.599  0.00  0.00    -0.378 OA
ATOM      6  C   UNK d   1      89.805  97.962 -45.000  0.00  0.00     0.197 C 
ATOM      7  C   UNK d   1      90.271 101.515 -45.564  0.00  0.00     0.058 C 
ATOM      8  C   UNK d   1      89.880 102.736 -44.769  0.00  0.00     0.129 C 
ATOM      9  N   UNK d   1      89.922 102.443 -43.327  0.00  0.00    -0.350 N 
ATOM     10  C   UNK d   1      88.929 101.520 -42.861  0.00  0.00     0.129 C 
ATOM     11  C   UNK d   1      88.801 100.453 -43.945  0.00  0.00     0.058 C 
ATOM     12  C   UNK d   1      90.882 102.993 -42.479  0.00  0.00     0.243 C 
ATOM     13  O   UNK d   1      91.819 103.753 -42.941  0.00  0.00    -0.271 OA
ATOM     14  C   UNK d   1      92.495  98.602 -45.516  0.00  0.00     0.048 C 
ENDROOT
BRANCH   2  15
ATOM     15  O   UNK d   1      92.951  98.542 -43.226  0.00  0.00    -0.388 OA
ATOM     16  H   UNK d   1      93.753  99.037 -43.534  0.00  0.00     0.210 HD
ENDBRANCH   2  15
BRANCH   1  17
ATOM     17  N   UNK d   1      91.216  96.432 -43.627  0.00  0.00    -0.298 N 
ATOM     18  C   UNK d   1      91.313  95.432 -44.507  0.00  0.00     0.121 A 
ATOM     19  C   UNK d   1      91.762  94.163 -44.141  0.00  0.00     0.094 A 
ATOM     20 Br   UNK d   1      91.861  92.816 -45.469  0.00  0.00    -0.044 Br
ATOM     21  C   UNK d   1      92.121  93.916 -42.835  0.00  0.00     0.268 A 
ATOM     22  N   UNK d   1      92.018  94.932 -41.960  0.00  0.00    -0.274 N 
ATOM     23  O   UNK d   1      92.534  92.766 -42.474  0.00  0.00    -0.267 OA
ATOM     24  C   UNK d   1      91.582  96.145 -42.342  0.00  0.00     0.329 A 
ATOM     25  H   UNK d   1      92.280  94.794 -40.948  0.00  0.00     0.173 HD
ATOM     26  O   UNK d   1      91.508  97.055 -41.472  0.00  0.00    -0.246 OA
ENDBRANCH   1  17
BRANCH  12  27
ATOM     27  C   UNK d   1      90.906 102.761 -41.043  0.00  0.00     0.182 C 
BRANCH  27  28
ATOM     28  N   UNK d   1      92.259 102.613 -40.565  0.00  0.00    -0.348 N 
ATOM     29  C   UNK d   1      93.012 101.453 -40.430  0.00  0.00     0.214 C 
ATOM     30  O   UNK d   1      92.622 100.298 -40.700  0.00  0.00    -0.274 OA
ATOM     31  C   UNK d   1      94.440 101.512 -39.919  0.00  0.00     0.117 C 
ATOM     32  H   UNK d   1      92.726 103.528 -40.278  0.00  0.00     0.163 HD
ENDBRANCH  27  28
BRANCH  27  33
ATOM     33  C   UNK d   1      90.224 103.927 -40.260  0.00  0.00     0.095 C 
BRANCH  33  34
ATOM     34  C   UNK d   1      90.840 104.064 -38.928  0.00  0.00     0.053 A 
ATOM     35  N   UNK d   1      91.029 103.157 -37.984  0.00  0.00    -0.247 NA
ATOM     36  C   UNK d   1      91.639 103.694 -36.891  0.00  0.00     0.207 A 
ATOM     37  N   UNK d   1      91.836 104.995 -37.174  0.00  0.00    -0.359 N 
ATOM     38  C   UNK d   1      91.355 105.241 -38.411  0.00  0.00     0.116 A 
ATOM     39  H   UNK d   1      92.291 105.665 -36.508  0.00  0.00     0.166 HD
ENDBRANCH  33  34
ENDBRANCH  27  33
ENDBRANCH  12  27
TORSDOF 6
ENDMDL
