MODEL 1
REMARK VINA RESULT:    -5.666      0.000      0.000
REMARK INTER + INTRA:          -6.206
REMARK INTER:                  -5.997
REMARK INTRA:                  -0.208
REMARK UNBOUND:                -0.208
REMARK  1 active torsions:
REMARK  status: ('A' for Active; 'I' for Inactive)
REMARK    1  A    between atoms: C_6  and  C_11 
REMARK       I    between atoms: C_11  and  N_13 
ROOT
ATOM      1  C   UNK d   1      90.729  99.047 -44.713  0.00  0.00     0.274 C 
ATOM      2  O   UNK d   1      91.721  99.825 -44.737  0.00  0.00    -0.266 OA
ATOM      3  N   UNK d   1      89.435  99.618 -44.606  0.00  0.00    -0.343 N 
ATOM      4  C   UNK d   1      89.283 101.025 -44.535  0.00  0.00     0.161 C 
ATOM      5  C   UNK d   1      88.060 101.463 -43.818  0.00  0.00     0.241 C 
ATOM      6  N   UNK d   1      87.209 100.416 -43.331  0.00  0.00     0.096 N 
ATOM      7  C   UNK d   1      86.982  99.401 -44.343  0.00  0.00     0.292 C 
ATOM      8  C   UNK d   1      88.316  98.717 -44.573  0.00  0.00     0.156 C 
ATOM      9  C   UNK d   1      86.028 101.108 -42.911  0.00  0.00     0.273 C 
ATOM     10  C   UNK d   1      85.828 102.210 -43.921  0.00  0.00     0.032 C 
ATOM     11  C   UNK d   1      87.121 102.263 -44.704  0.00  0.00     0.039 C 
ENDROOT
BRANCH   1  12
ATOM     12  C   UNK d   1      90.953  97.597 -44.798  0.00  0.00     0.148 A 
ATOM     13  N   UNK d   1      90.830  96.766 -45.843  0.00  0.00    -0.161 NA
ATOM     14  N   UNK d   1      91.123  95.518 -45.514  0.00  0.00    -0.225 N 
ATOM     15  C   UNK d   1      91.148  94.346 -46.200  0.00  0.00     0.141 A 
ATOM     16  C   UNK d   1      91.458  95.470 -44.212  0.00  0.00     0.152 A 
ATOM     17  C   UNK d   1      91.499  93.154 -45.605  0.00  0.00     0.046 A 
ATOM     18 Br   UNK d   1      91.528  91.507 -46.594  0.00  0.00    -0.048 Br
ATOM     19  C   UNK d   1      91.837  93.130 -44.271  0.00  0.00     0.139 A 
ATOM     20  N   UNK d   1      91.805  94.299 -43.614  0.00  0.00    -0.240 NA
ATOM     21  C   UNK d   1      91.355  96.767 -43.752  0.00  0.00     0.091 A 
ENDBRANCH   1  12
TORSDOF 1
ENDMDL
