MODEL 1
REMARK VINA RESULT:    -5.799      0.000      0.000
REMARK INTER + INTRA:          -7.220
REMARK INTER:                  -6.477
REMARK INTRA:                  -0.744
REMARK UNBOUND:                -0.744
REMARK  2 active torsions:
REMARK  status: ('A' for Active; 'I' for Inactive)
REMARK    1  A    between atoms: C_7  and  C_11 
REMARK       I    between atoms: C_11  and  N_13 
REMARK       I    between atoms: N_16  and  C_19 
REMARK    2  A    between atoms: C_19  and  C_21 
ROOT
ATOM      1  C   UNK d   1      88.944 100.526 -44.405  0.00  0.00     0.259 C 
ATOM      2  O   UNK d   1      89.008 101.602 -45.065  0.00  0.00    -0.267 OA
ATOM      3  N   UNK d   1      90.053 100.069 -43.646  0.00  0.00    -0.345 N 
ATOM      4  C   UNK d   1      89.892  98.807 -42.907  0.00  0.00     0.146 C 
ATOM      5  C   UNK d   1      91.318  98.271 -42.780  0.00  0.00     0.145 C 
ATOM      6  N   UNK d   1      91.962  98.574 -44.024  0.00  0.00    -0.354 N 
ATOM      7  C   UNK d   1      92.495  99.967 -44.060  0.00  0.00     0.145 C 
ATOM      8  C   UNK d   1      91.305 100.809 -43.590  0.00  0.00     0.146 C 
ATOM      9  C   UNK d   1      92.095  97.774 -45.146  0.00  0.00     0.211 C 
ATOM     10  O   UNK d   1      92.767  98.265 -46.145  0.00  0.00    -0.169 OA
ENDROOT
BRANCH   1  11
ATOM     11  C   UNK d   1      87.711  99.780 -44.446  0.00  0.00     0.099 A 
ATOM     12  C   UNK d   1      86.623  99.852 -43.608  0.00  0.00     0.160 A 
ATOM     13  N   UNK d   1      85.690  98.975 -44.015  0.00  0.00    -0.178 NA
ATOM     14  N   UNK d   1      86.157  98.344 -45.094  0.00  0.00    -0.225 N 
ATOM     15  C   UNK d   1      85.629  97.399 -45.861  0.00  0.00     0.141 A 
ATOM     16  C   UNK d   1      87.385  98.808 -45.386  0.00  0.00     0.167 A 
ATOM     17  C   UNK d   1      86.308  96.899 -46.928  0.00  0.00     0.046 A 
ATOM     18 Br   UNK d   1      85.543  95.543 -48.024  0.00  0.00    -0.048 Br
ATOM     19  C   UNK d   1      87.557  97.374 -47.221  0.00  0.00     0.139 A 
ATOM     20  N   UNK d   1      88.068  98.325 -46.435  0.00  0.00    -0.239 NA
ENDBRANCH   1  11
BRANCH   9  21
ATOM     21  C   UNK d   1      91.589  96.435 -45.399  0.00  0.00     0.128 A 
ATOM     22  O   UNK d   1      90.663  96.134 -46.320  0.00  0.00    -0.318 OA
ATOM     23  C   UNK d   1      90.390  94.874 -46.338  0.00  0.00     0.142 A 
ATOM     24  C   UNK d   1      91.147  94.230 -45.392  0.00  0.00     0.027 A 
ATOM     25  C   UNK d   1      91.900  95.235 -44.807  0.00  0.00     0.043 A 
ENDBRANCH   9  21
TORSDOF 2
ENDMDL
