/Users/jonathanwahrer/Desktop/Msc/3_Semester/Drug_Design_Praktikum/waehrer_HTS_screening/HTS_experiment/out/docking_results/vina_output/4agl/0797_docked.pdbqt
 OpenBabel03202223443D

 28 31  0  0  0  0  0  0  0  0999 V2000
   91.9150   99.6080  -42.4990 O   0  0  0  0  0  0  0  0  0  0  0  0
   91.8320   98.5410  -41.5910 C   0  0  0  0  0  2  0  0  0  0  0  0
   91.8260   97.2040  -42.2400 C   0  0  0  0  0  0  0  0  0  0  0  0
   91.4890   97.0480  -43.5430 N   0  0  0  0  0  0  0  0  0  0  0  0
   91.4790   95.8510  -44.1540 C   0  0  0  0  0  0  0  0  0  0  0  0
   91.8040   94.7140  -43.5130 N   0  0  0  0  0  0  0  0  0  0  0  0
   91.1270   95.7270  -45.5010 C   0  0  0  0  0  3  0  0  0  0  0  0
   91.7880   93.5190  -44.1440 C   0  0  0  0  0  3  0  0  0  0  0  0
   92.1460   94.8210  -42.2130 C   0  0  0  0  0  0  0  0  0  0  0  0
   91.4450   93.3660  -45.4690 C   0  0  0  0  0  0  0  0  0  0  0  0
   91.4390   91.6450  -46.3150 Br  0  0  0  0  0  0  0  0  0  0  0  0
   91.1070   94.5140  -46.1540 C   0  0  0  0  0  3  0  0  0  0  0  0
   92.1620   96.0510  -41.5630 C   0  0  0  0  0  3  0  0  0  0  0  0
   92.4470   93.7770  -41.6130 O   0  0  0  0  0  0  0  0  0  0  0  0
   91.0830  100.7080  -42.5210 C   0  0  0  0  0  0  0  0  0  0  0  0
   90.9190  101.3780  -41.4820 O   0  0  0  0  0  0  0  0  0  0  0  0
   90.4060  101.0610  -43.7900 C   0  0  0  0  0  2  0  0  0  0  0  0
   89.4210  100.0790  -44.1410 N   0  0  0  0  0  0  0  0  0  0  0  0
   89.4840   99.1900  -45.2350 C   0  0  0  0  0  0  0  0  0  0  0  0
   90.3780   99.0660  -46.1120 O   0  0  0  0  0  0  0  0  0  0  0  0
   88.2640   98.3550  -45.2210 C   0  0  0  0  0  0  0  0  0  0  0  0
   87.5090   98.7430  -44.1480 C   0  0  0  0  0  0  0  0  0  0  0  0
   87.8370   97.3420  -46.0630 C   0  0  0  0  0  3  0  0  0  0  0  0
   86.3110   98.1520  -43.8640 C   0  0  0  0  0  3  0  0  0  0  0  0
   88.2170   99.8230  -43.4570 C   0  0  0  0  0  0  0  0  0  0  0  0
   85.8650   97.1450  -44.6850 C   0  0  0  0  0  3  0  0  0  0  0  0
   86.6270   96.7520  -45.7680 C   0  0  0  0  0  3  0  0  0  0  0  0
   87.7870  100.4080  -42.4160 O   0  0  0  0  0  0  0  0  0  0  0  0
  1  2  1  0  0  0  0
  3  2  1  0  0  0  0
  3 13  2  0  0  0  0
  4  3  1  0  0  0  0
  5  4  2  0  0  0  0
  5  6  1  0  0  0  0
  6  9  1  0  0  0  0
  7  5  1  0  0  0  0
  8  6  1  0  0  0  0
  9 14  2  0  0  0  0
  9 13  1  0  0  0  0
 10  8  2  0  0  0  0
 11 10  1  0  0  0  0
 12  7  2  0  0  0  0
 12 10  1  0  0  0  0
 15  1  1  0  0  0  0
 15 16  2  0  0  0  0
 17 15  1  0  0  0  0
 18 17  1  0  0  0  0
 18 25  1  0  0  0  0
 19 21  1  0  0  0  0
 19 18  1  0  0  0  0
 20 19  2  0  0  0  0
 21 22  1  0  0  0  0
 22 24  2  0  0  0  0
 22 25  1  0  0  0  0
 23 27  1  0  0  0  0
 23 21  2  0  0  0  0
 25 28  2  0  0  0  0
 26 24  1  0  0  0  0
 27 26  2  0  0  0  0
M  END
>  <Pose>
1

>  <Score>
-6.609

$$$$
