/Users/jonathanwahrer/Desktop/Msc/3_Semester/Drug_Design_Praktikum/waehrer_HTS_screening/HTS_experiment/out/docking_results/vina_output/4agl/0800_docked.pdbqt
 OpenBabel03202223443D

 29 32  0  0  1  0  0  0  0  0999 V2000
   92.3320   90.6160  -48.0090 C   0  0  0  0  0  0  0  0  0  0  0  0
   93.4180   90.1630  -47.5650 O   0  0  0  0  0  0  0  0  0  0  0  0
   91.6690   91.5630  -47.2650 O   0  0  0  0  0  0  0  0  0  0  0  0
   91.7040   91.5920  -45.8500 C   0  0  0  0  0  2  0  0  0  0  0  0
   91.5400   92.9980  -45.4010 C   0  0  0  0  0  0  0  0  0  0  0  0
   91.8360   93.3750  -44.1450 N   0  0  0  0  0  0  0  0  0  0  0  0
   91.6910   94.6550  -43.7240 C   0  0  1  0  0  3  0  0  0  0  0  0
   91.2380   95.6100  -44.5610 N   0  0  0  0  0  0  0  0  0  0  0  0
   92.0080   94.9900  -42.4220 C   0  0  0  0  0  3  0  0  0  0  0  0
   91.0880   96.8850  -44.1640 C   0  0  0  0  0  3  0  0  0  0  0  0
   90.9280   95.2790  -45.8340 C   0  0  0  0  0  0  0  0  0  0  0  0
   91.4020   97.2260  -42.8660 C   0  0  0  0  0  0  0  0  0  0  0  0
   91.1860   99.0400  -42.3060 Br  0  0  0  0  0  0  0  0  0  0  0  0
   91.8710   96.2820  -41.9650 C   0  0  0  0  0  3  0  0  0  0  0  0
   91.0780   93.9590  -46.2690 C   0  0  0  0  0  2  0  0  0  0  0  0
   90.5110   96.1550  -46.6100 O   0  0  0  0  0  0  0  0  0  0  0  0
   91.8550   90.0850  -49.3130 C   0  0  0  0  0  2  0  0  0  0  0  0
   91.0210   88.9290  -49.1630 N   0  0  0  0  0  0  0  0  0  0  0  0
   91.4580   87.5870  -48.9540 C   0  0  0  0  0  0  0  0  0  0  0  0
   92.6660   87.2230  -48.8700 O   0  0  0  0  0  0  0  0  0  0  0  0
   90.3060   86.7570  -48.8610 N   0  0  0  0  0  0  0  0  0  0  0  0
   89.1390   87.5450  -49.1710 C   0  0  0  0  0  0  0  0  0  0  0  0
   90.3370   85.7550  -48.6090 H   0  0  0  0  0  0  0  0  0  0  0  0
   88.5320   87.1940  -50.5030 C   0  0  0  0  0  2  0  0  0  0  0  0
   88.0070   87.3430  -48.2220 C   0  0  0  0  0  2  0  0  0  0  0  0
   89.5920   88.9340  -49.2000 C   0  0  0  0  0  0  0  0  0  0  0  0
   87.1390   87.7320  -50.3970 C   0  0  0  0  0  2  0  0  0  0  0  0
   86.8580   88.0080  -48.9490 C   0  0  0  0  0  2  0  0  0  0  0  0
   88.9010   89.9790  -49.2490 O   0  0  0  0  0  0  0  0  0  0  0  0
  1  2  2  0  0  0  0
  1  3  1  0  0  0  0
  3  4  1  0  0  0  0
  4  5  1  0  0  0  0
  5  6  2  0  0  0  0
  6  7  1  0  0  0  0
  7  9  1  1  0  0  0
  8 10  1  0  0  0  0
  8  7  1  0  0  0  0
  9 14  2  0  0  0  0
 10 12  2  0  0  0  0
 11  8  1  0  0  0  0
 12 13  1  0  0  0  0
 12 14  1  0  0  0  0
 15 11  1  0  0  0  0
 15  5  1  0  0  0  0
 16 11  2  0  0  0  0
 17 18  1  0  0  0  0
 17  1  1  0  0  0  0
 18 19  1  0  0  0  0
 19 20  2  0  0  0  0
 19 21  1  0  0  0  0
 21 23  1  0  0  0  0
 22 21  1  0  0  0  0
 22 25  1  0  0  0  0
 24 27  1  0  0  0  0
 24 22  1  0  0  0  0
 26 22  1  0  0  0  0
 26 18  1  0  0  0  0
 27 28  1  0  0  0  0
 28 25  1  0  0  0  0
 29 26  2  0  0  0  0
M  END
>  <Pose>
1

>  <Score>
-7.680

$$$$
