/Users/jonathanwahrer/Desktop/Msc/3_Semester/Drug_Design_Praktikum/waehrer_HTS_screening/HTS_experiment/out/docking_results/vina_output/4agl/0803_docked.pdbqt
 OpenBabel03202223453D

 31 34  0  0  0  0  0  0  0  0999 V2000
   91.5310  102.0630  -43.9220 Br  0  0  0  0  0  0  0  0  0  0  0  0
   91.5890  100.2480  -43.3610 C   0  0  0  0  0  0  0  0  0  0  0  0
   91.4430   99.2040  -44.2060 C   0  0  0  0  0  2  0  0  0  0  0  0
   91.5690   97.9270  -43.8330 N   0  0  0  0  0  0  0  0  0  0  0  0
   91.8550   97.6640  -42.5580 C   0  0  0  0  0  0  0  0  0  0  0  0
   91.9810   96.3690  -42.1540 N   0  0  0  0  0  0  0  0  0  0  0  0
   91.8300   95.3370  -42.9720 C   0  0  0  0  0  0  0  0  0  0  0  0
   91.5350   95.5810  -44.2940 C   0  0  0  0  0  0  0  0  0  0  0  0
   91.3590   94.5480  -45.1930 C   0  0  0  0  0  3  0  0  0  0  0  0
   91.4700   93.2090  -44.8180 C   0  0  0  0  0  3  0  0  0  0  0  0
   91.7660   92.9760  -43.4920 C   0  0  0  0  0  3  0  0  0  0  0  0
   91.9430   94.0090  -42.5870 C   0  0  0  0  0  3  0  0  0  0  0  0
   91.4120   96.9090  -44.6870 C   0  0  0  0  0  0  0  0  0  0  0  0
   91.1430   97.1450  -45.8850 O   0  0  0  0  0  0  0  0  0  0  0  0
   92.0060   98.6930  -41.6920 N   0  0  0  0  0  0  0  0  0  0  0  0
   91.8950   99.9820  -41.9850 C   0  0  0  0  0  0  0  0  0  0  0  0
   92.2330   98.3490  -40.7030 H   0  0  0  0  0  0  0  0  0  0  0  0
   91.9270  101.0560  -41.1540 N   0  0  0  0  0  0  0  0  0  0  0  0
   93.0680  100.6120  -40.5460 H   0  0  0  0  0  0  0  0  0  0  0  0
   91.9600  102.1150  -40.3350 C   0  0  0  0  0  0  0  0  0  0  0  0
   93.1260  102.3900  -39.6080 C   0  0  0  0  0  0  0  0  0  0  0  0
   93.1190  103.3010  -38.6030 C   0  0  0  0  0  3  0  0  0  0  0  0
   91.9670  103.9760  -38.2830 C   0  0  0  0  0  3  0  0  0  0  0  0
   90.7900  103.7580  -38.9630 C   0  0  0  0  0  3  0  0  0  0  0  0
   90.8220  102.8270  -39.9760 C   0  0  0  0  0  3  0  0  0  0  0  0
   94.4270  101.8250  -39.9910 C   0  0  0  0  0  0  0  0  0  0  0  0
   94.7800  100.7500  -39.4430 O   0  0  0  0  0  0  0  0  0  0  0  0
   95.2950  102.3720  -40.8910 O   0  0  0  0  0  0  0  0  0  0  0  0
   94.8870  102.8460  -42.1600 C   0  0  0  0  0  2  0  0  0  0  0  0
   94.9340  104.3760  -42.1930 C   0  0  0  0  0  2  0  0  0  0  0  0
   93.5200  104.9020  -42.2480 C   0  0  0  0  0  1  0  0  0  0  0  0
  1  2  1  0  0  0  0
  2 16  2  0  0  0  0
  3  4  1  0  0  0  0
  3  2  1  0  0  0  0
  4  5  1  0  0  0  0
  5  6  2  0  0  0  0
  5 15  1  0  0  0  0
  7 12  1  0  0  0  0
  7  6  1  0  0  0  0
  8  7  2  0  0  0  0
  9 10  2  0  0  0  0
  9  8  1  0  0  0  0
 10 11  1  0  0  0  0
 11 12  2  0  0  0  0
 13  8  1  0  0  0  0
 13  4  1  0  0  0  0
 14 13  2  0  0  0  0
 15 17  1  0  0  0  0
 16 15  1  0  0  0  0
 16 18  1  0  0  0  0
 18 19  1  0  0  0  0
 18 20  1  0  0  0  0
 20 25  2  0  0  0  0
 20 21  1  0  0  0  0
 21 22  2  0  0  0  0
 22 23  1  0  0  0  0
 24 23  2  0  0  0  0
 25 24  1  0  0  0  0
 26 21  1  0  0  0  0
 26 27  2  0  0  0  0
 28 26  1  0  0  0  0
 29 28  1  0  0  0  0
 30 29  1  0  0  0  0
 31 30  1  0  0  0  0
M  END
>  <Pose>
1

>  <Score>
-6.653

$$$$
