MODEL 1
REMARK VINA RESULT:    -6.653      0.000      0.000
REMARK INTER + INTRA:         -10.302
REMARK INTER:                  -8.987
REMARK INTRA:                  -1.315
REMARK UNBOUND:                -1.315
REMARK  6 active torsions:
REMARK  status: ('A' for Active; 'I' for Inactive)
REMARK    1  A    between atoms: C_16  and  N_17 
REMARK    2  A    between atoms: N_17  and  C_18 
REMARK    3  A    between atoms: C_19  and  C_24 
REMARK    4  A    between atoms: C_24  and  O_26 
REMARK    5  A    between atoms: O_26  and  C_27 
REMARK    6  A    between atoms: C_27  and  C_28 
ROOT
ATOM      1 Br   UNK d   1      91.531 102.063 -43.922  0.00  0.00    -0.046 Br
ATOM      2  C   UNK d   1      91.589 100.248 -43.361  0.00  0.00     0.072 A 
ATOM      3  C   UNK d   1      91.443  99.204 -44.206  0.00  0.00     0.141 A 
ATOM      4  N   UNK d   1      91.569  97.927 -43.833  0.00  0.00    -0.118 N 
ATOM      5  C   UNK d   1      91.855  97.664 -42.558  0.00  0.00     0.716 A 
ATOM      6  N   UNK d   1      91.981  96.369 -42.154  0.00  0.00    -0.063 NA
ATOM      7  C   UNK d   1      91.830  95.337 -42.972  0.00  0.00     0.091 A 
ATOM      8  C   UNK d   1      91.535  95.581 -44.294  0.00  0.00     0.062 A 
ATOM      9  C   UNK d   1      91.359  94.548 -45.193  0.00  0.00     0.019 A 
ATOM     10  C   UNK d   1      91.470  93.209 -44.818  0.00  0.00     0.001 A 
ATOM     11  C   UNK d   1      91.766  92.976 -43.492  0.00  0.00     0.002 A 
ATOM     12  C   UNK d   1      91.943  94.009 -42.587  0.00  0.00     0.033 A 
ATOM     13  C   UNK d   1      91.412  96.909 -44.687  0.00  0.00     0.278 A 
ATOM     14  O   UNK d   1      91.143  97.145 -45.885  0.00  0.00    -0.266 OA
ATOM     15  N   UNK d   1      92.006  98.693 -41.692  0.00  0.00    -0.173 N 
ATOM     16  C   UNK d   1      91.895  99.982 -41.985  0.00  0.00     0.140 A 
ATOM     17  H   UNK d   1      92.233  98.349 -40.703  0.00  0.00     0.186 HD
ENDROOT
BRANCH  16  18
ATOM     18  N   UNK d   1      91.927 101.056 -41.154  0.00  0.00    -0.340 N 
ATOM     19  H   UNK d   1      93.068 100.612 -40.546  0.00  0.00     0.167 HD
BRANCH  18  20
ATOM     20  C   UNK d   1      91.960 102.115 -40.335  0.00  0.00     0.050 A 
ATOM     21  C   UNK d   1      93.126 102.390 -39.608  0.00  0.00     0.066 A 
ATOM     22  C   UNK d   1      93.119 103.301 -38.603  0.00  0.00     0.020 A 
ATOM     23  C   UNK d   1      91.967 103.976 -38.283  0.00  0.00     0.001 A 
ATOM     24  C   UNK d   1      90.790 103.758 -38.963  0.00  0.00     0.002 A 
ATOM     25  C   UNK d   1      90.822 102.827 -39.976  0.00  0.00     0.030 A 
BRANCH  21  26
ATOM     26  C   UNK d   1      94.427 101.825 -39.991  0.00  0.00     0.295 C 
ATOM     27  O   UNK d   1      94.780 100.750 -39.443  0.00  0.00    -0.259 OA
BRANCH  26  28
ATOM     28  O   UNK d   1      95.295 102.372 -40.891  0.00  0.00    -0.317 OA
BRANCH  28  29
ATOM     29  C   UNK d   1      94.887 102.846 -42.160  0.00  0.00     0.178 C 
BRANCH  29  30
ATOM     30  C   UNK d   1      94.934 104.376 -42.193  0.00  0.00     0.022 C 
ATOM     31  C   UNK d   1      93.520 104.902 -42.248  0.00  0.00     0.007 C 
ENDBRANCH  29  30
ENDBRANCH  28  29
ENDBRANCH  26  28
ENDBRANCH  21  26
ENDBRANCH  18  20
ENDBRANCH  16  18
TORSDOF 6
ENDMDL
