MODEL 1
REMARK VINA RESULT:    -6.100      0.000      0.000
REMARK INTER + INTRA:          -7.418
REMARK INTER:                  -7.704
REMARK INTRA:                   0.286
REMARK UNBOUND:                 0.286
REMARK  5 active torsions:
REMARK  status: ('A' for Active; 'I' for Inactive)
REMARK    1  A    between atoms: C_5  and  C_8 
REMARK    2  A    between atoms: C_8  and  O_27 
REMARK    3  A    between atoms: N_9  and  C_18 
REMARK    4  A    between atoms: C_21  and  O_24 
REMARK    5  A    between atoms: O_24  and  C_25 
ROOT
ATOM      1  C   UNK d   1      90.370  99.269 -45.779  0.00  0.00     0.283 C 
ATOM      2  N   UNK d   1      91.416  99.055 -44.782  0.00  0.00     0.042 N 
ATOM      3  C   UNK d   1      91.767 100.256 -44.214  0.00  0.00     0.210 C 
ATOM      4  C   UNK d   1      92.839 100.582 -43.535  0.00  0.00     0.030 C 
ATOM      5  C   UNK d   1      93.315 101.833 -42.876  0.00  0.00     0.031 C 
ATOM      6  C   UNK d   1      92.474 103.036 -43.166  0.00  0.00     0.005 C 
ATOM      7  C   UNK d   1      91.034 102.820 -42.763  0.00  0.00     0.020 C 
ATOM      8  C   UNK d   1      90.222 102.381 -43.966  0.00  0.00     0.124 C 
ATOM      9  N   UNK d   1      90.762 101.221 -44.600  0.00  0.00    -0.356 N 
ATOM     10  C   UNK d   1      90.305 100.822 -45.938  0.00  0.00     0.200 C 
ATOM     11  H   UNK d   1      92.289  98.894 -45.497  0.00  0.00     0.299 HD
ENDROOT
BRANCH   2  12
ATOM     12  C   UNK d   1      91.386  97.855 -44.122  0.00  0.00     0.146 A 
ATOM     13  C   UNK d   1      91.444  97.688 -42.771  0.00  0.00     0.041 A 
ATOM     14  C   UNK d   1      91.585  96.431 -42.161  0.00  0.00     0.039 A 
ATOM     15  C   UNK d   1      91.672  95.291 -42.916  0.00  0.00     0.068 A 
ATOM     16  C   UNK d   1      91.611  95.452 -44.293  0.00  0.00     0.039 A 
ATOM     17  C   UNK d   1      91.474  96.687 -44.887  0.00  0.00     0.041 A 
BRANCH  15  18
ATOM     18  O   UNK d   1      91.822  94.043 -42.333  0.00  0.00    -0.352 OA
BRANCH  18  19
ATOM     19  C   UNK d   1      92.819  93.109 -42.662  0.00  0.00     0.171 C 
ATOM     20  C   UNK d   1      93.778  93.086 -41.457  0.00  0.00     0.034 C 
ENDBRANCH  18  19
ENDBRANCH  15  18
ENDBRANCH   2  12
BRANCH   1  21
ATOM     21  C   UNK d   1      89.029  98.951 -45.213  0.00  0.00     0.007 A 
ATOM     22  C   UNK d   1      88.564  99.512 -44.046  0.00  0.00     0.013 A 
ATOM     23  C   UNK d   1      87.313  99.195 -43.562  0.00  0.00     0.020 A 
ATOM     24  C   UNK d   1      86.505  98.306 -44.246  0.00  0.00     0.011 A 
ATOM     25 Br   UNK d   1      84.794  97.880 -43.554  0.00  0.00    -0.051 Br
ATOM     26  C   UNK d   1      86.954  97.739 -45.412  0.00  0.00     0.020 A 
ATOM     27  C   UNK d   1      88.230  98.076 -45.885  0.00  0.00     0.013 A 
ENDBRANCH   1  21
BRANCH   1  28
ATOM     28  O   UNK d   1      90.661  98.755 -46.983  0.00  0.00    -0.359 OA
ATOM     29  H   UNK d   1      90.228  97.948 -47.297  0.00  0.00     0.213 HD
ENDBRANCH   1  28
TORSDOF 5
ENDMDL
