MODEL 1
REMARK VINA RESULT:    -6.148      0.000      0.000
REMARK INTER + INTRA:          -8.083
REMARK INTER:                  -7.406
REMARK INTRA:                  -0.677
REMARK UNBOUND:                -0.677
REMARK  4 active torsions:
REMARK  status: ('A' for Active; 'I' for Inactive)
REMARK    1  A    between atoms: C_5  and  C_8 
REMARK    2  A    between atoms: C_8  and  O_26 
REMARK    3  A    between atoms: N_16  and  C_18 
REMARK    4  A    between atoms: C_19  and  O_24 
ROOT
ATOM      1  C   UNK d   1      91.980  98.837 -44.090  0.00  0.00     0.189 C 
ATOM      2  N   UNK d   1      91.600  97.531 -43.569  0.00  0.00    -0.324 N 
ATOM      3  C   UNK d   1      91.668  97.202 -42.149  0.00  0.00     0.128 C 
ATOM      4  C   UNK d   1      91.533  95.748 -41.878  0.00  0.00     0.020 C 
ATOM      5  C   UNK d   1      92.466  94.882 -42.684  0.00  0.00     0.005 C 
ATOM      6  C   UNK d   1      91.664  94.402 -43.878  0.00  0.00     0.031 C 
ATOM      7  C   UNK d   1      91.234  95.419 -44.793  0.00  0.00     0.030 C 
ATOM      8  C   UNK d   1      91.206  96.765 -44.663  0.00  0.00     0.208 C 
ATOM      9  N   UNK d   1      90.720  97.579 -45.704  0.00  0.00     0.011 N 
ATOM     10  C   UNK d   1      91.111  98.897 -45.297  0.00  0.00     0.316 C 
ATOM     11  H   UNK d   1      91.140  97.380 -46.642  0.00  0.00     0.295 HD
ENDROOT
BRANCH   1  12
ATOM     12  C   UNK d   1      91.698  99.894 -43.098  0.00  0.00    -0.001 A 
ATOM     13  C   UNK d   1      90.379 100.060 -42.665  0.00  0.00     0.013 A 
ATOM     14  C   UNK d   1      90.136 101.091 -41.756  0.00  0.00     0.020 A 
ATOM     15  C   UNK d   1      91.161 101.898 -41.318  0.00  0.00     0.011 A 
ATOM     16 Br   UNK d   1      90.784 103.299 -40.070  0.00  0.00    -0.051 Br
ATOM     17  C   UNK d   1      92.456 101.702 -41.768  0.00  0.00     0.020 A 
ATOM     18  C   UNK d   1      92.718 100.685 -42.670  0.00  0.00     0.013 A 
ENDBRANCH   1  12
BRANCH   1  19
ATOM     19  O   UNK d   1      93.323  98.794 -44.364  0.00  0.00    -0.365 OA
ATOM     20  H   UNK d   1      93.629  99.488 -44.985  0.00  0.00     0.213 HD
ENDBRANCH   1  19
BRANCH   9  21
ATOM     21  C   UNK d   1      89.302  97.409 -45.712  0.00  0.00     0.175 A 
ATOM     22  C   UNK d   1      88.679  96.699 -46.724  0.00  0.00     0.103 A 
ATOM     23  C   UNK d   1      87.291  96.657 -46.681  0.00  0.00     0.039 A 
ATOM     24  C   UNK d   1      86.525  97.271 -45.708  0.00  0.00     0.003 A 
ATOM     25  C   UNK d   1      87.205  97.983 -44.697  0.00  0.00     0.002 A 
ATOM     26  C   UNK d   1      88.552  98.014 -44.749  0.00  0.00     0.041 A 
BRANCH  22  27
ATOM     27  O   UNK d   1      89.422  96.088 -47.687  0.00  0.00    -0.354 OA
ATOM     28  C   UNK d   1      88.860  95.152 -48.568  0.00  0.00     0.210 C 
ENDBRANCH  22  27
ENDBRANCH   9  21
TORSDOF 4
ENDMDL
