/Users/jonathanwahrer/Desktop/Msc/3_Semester/Drug_Design_Praktikum/waehrer_HTS_screening/HTS_experiment/out/docking_results/vina_output/4agl/0834_docked.pdbqt
 OpenBabel03202223463D

 28 31  0  0  1  0  0  0  0  0999 V2000
   91.2230   98.5920  -43.0690 C   0  0  2  0  0  0  0  0  0  0  0  0
   89.9760   99.2820  -43.1560 N   0  0  0  0  0  0  0  0  0  0  0  0
   88.6990   98.8570  -42.6730 C   0  0  0  0  0  3  0  0  0  0  0  0
   87.5410   99.0100  -43.5810 C   0  0  0  0  0  3  0  0  0  0  0  0
   87.7910   99.6370  -44.9040 C   0  0  0  0  0  2  0  0  0  0  0  0
   88.0410  101.1420  -44.7920 C   0  0  0  0  0  2  0  0  0  0  0  0
   89.5010  101.3110  -44.5160 C   0  0  0  0  0  3  0  0  0  0  0  0
   90.3130  100.5270  -43.8270 C   0  0  0  0  0  0  0  0  0  0  0  0
   91.7010  100.7810  -43.6430 N   0  0  0  0  0  4  0  0  0  0  0  0
   92.2320   99.4630  -43.8260 C   0  0  0  0  0  2  0  0  0  0  0  0
   92.0070  101.4470  -44.3950 H   0  0  0  0  0  0  0  0  0  0  0  0
   91.3230   97.2770  -43.6970 C   0  0  0  0  0  0  0  0  0  0  0  0
   91.1750   96.9610  -45.0070 C   0  0  0  0  0  3  0  0  0  0  0  0
   91.3000   95.6590  -45.4740 C   0  0  0  0  0  3  0  0  0  0  0  0
   91.5850   94.6320  -44.5990 C   0  0  0  0  0  0  0  0  0  0  0  0
   91.7680   92.8310  -45.2160 Br  0  0  0  0  0  0  0  0  0  0  0  0
   91.7370   94.9490  -43.2700 C   0  0  0  0  0  3  0  0  0  0  0  0
   91.6160   96.2300  -42.7980 C   0  0  0  0  0  3  0  0  0  0  0  0
   91.6450   98.4150  -41.7370 O   0  0  0  0  0  0  0  0  0  0  0  0
   91.0050   97.7650  -41.3500 H   0  0  0  0  0  0  0  0  0  0  0  0
   91.9060  101.2980  -42.3540 C   0  0  0  0  0  0  0  0  0  0  0  0
   93.2030  101.4020  -41.8180 C   0  0  0  0  0  3  0  0  0  0  0  0
   93.4370  101.8970  -40.5630 C   0  0  0  0  0  3  0  0  0  0  0  0
   92.3960  102.3210  -39.7650 C   0  0  0  0  0  0  0  0  0  0  0  0
   91.1230  102.2300  -40.2650 C   0  0  0  0  0  3  0  0  0  0  0  0
   90.8880  101.7290  -41.5290 C   0  0  0  0  0  3  0  0  0  0  0  0
   92.6460  102.8290  -38.4760 O   0  0  0  0  0  0  0  0  0  0  0  0
   93.9520  102.8350  -37.9650 C   0  0  0  0  0  1  0  0  0  0  0  0
  1 19  1  1  0  0  0
  2  1  1  0  0  0  0
  2  3  1  0  0  0  0
  4  3  2  0  0  0  0
  5  6  1  0  0  0  0
  5  4  1  0  0  0  0
  6  7  1  0  0  0  0
  7  8  2  0  0  0  0
  8  9  1  0  0  0  0
  8  2  1  0  0  0  0
  9 21  1  0  0  0  0
 10  9  1  0  0  0  0
 10  1  1  0  0  0  0
 11  9  1  0  0  0  0
 12  1  1  0  0  0  0
 12 18  1  0  0  0  0
 13 12  2  0  0  0  0
 14 13  1  0  0  0  0
 14 15  2  0  0  0  0
 15 17  1  0  0  0  0
 16 15  1  0  0  0  0
 17 18  2  0  0  0  0
 19 20  1  0  0  0  0
 21 22  2  0  0  0  0
 21 26  1  0  0  0  0
 22 23  1  0  0  0  0
 23 24  2  0  0  0  0
 24 27  1  0  0  0  0
 25 24  1  0  0  0  0
 26 25  2  0  0  0  0
 27 28  1  0  0  0  0
M  END
>  <Pose>
1

>  <Score>
-6.213

$$$$
