MODEL 1
REMARK VINA RESULT:    -6.213      0.000      0.000
REMARK INTER + INTRA:          -8.069
REMARK INTER:                  -7.484
REMARK INTRA:                  -0.585
REMARK UNBOUND:                -0.585
REMARK  4 active torsions:
REMARK  status: ('A' for Active; 'I' for Inactive)
REMARK    1  A    between atoms: C_5  and  C_8 
REMARK    2  A    between atoms: C_8  and  O_26 
REMARK    3  A    between atoms: N_16  and  C_18 
REMARK    4  A    between atoms: C_21  and  O_24 
ROOT
ATOM      1  C   UNK d   1      91.223  98.592 -43.069  0.00  0.00     0.189 C 
ATOM      2  N   UNK d   1      89.976  99.282 -43.156  0.00  0.00    -0.324 N 
ATOM      3  C   UNK d   1      88.699  98.857 -42.673  0.00  0.00     0.128 C 
ATOM      4  C   UNK d   1      87.541  99.010 -43.581  0.00  0.00     0.020 C 
ATOM      5  C   UNK d   1      87.791  99.637 -44.904  0.00  0.00     0.005 C 
ATOM      6  C   UNK d   1      88.041 101.142 -44.792  0.00  0.00     0.031 C 
ATOM      7  C   UNK d   1      89.501 101.311 -44.516  0.00  0.00     0.030 C 
ATOM      8  C   UNK d   1      90.313 100.527 -43.827  0.00  0.00     0.208 C 
ATOM      9  N   UNK d   1      91.701 100.781 -43.643  0.00  0.00     0.009 N 
ATOM     10  C   UNK d   1      92.232  99.463 -43.826  0.00  0.00     0.316 C 
ATOM     11  H   UNK d   1      92.007 101.447 -44.395  0.00  0.00     0.295 HD
ENDROOT
BRANCH   1  12
ATOM     12  C   UNK d   1      91.323  97.277 -43.697  0.00  0.00    -0.001 A 
ATOM     13  C   UNK d   1      91.175  96.961 -45.007  0.00  0.00     0.013 A 
ATOM     14  C   UNK d   1      91.300  95.659 -45.474  0.00  0.00     0.020 A 
ATOM     15  C   UNK d   1      91.585  94.632 -44.599  0.00  0.00     0.011 A 
ATOM     16 Br   UNK d   1      91.768  92.831 -45.216  0.00  0.00    -0.051 Br
ATOM     17  C   UNK d   1      91.737  94.949 -43.270  0.00  0.00     0.020 A 
ATOM     18  C   UNK d   1      91.616  96.230 -42.798  0.00  0.00     0.013 A 
ENDBRANCH   1  12
BRANCH   1  19
ATOM     19  O   UNK d   1      91.645  98.415 -41.737  0.00  0.00    -0.365 OA
ATOM     20  H   UNK d   1      91.005  97.765 -41.350  0.00  0.00     0.213 HD
ENDBRANCH   1  19
BRANCH   9  21
ATOM     21  C   UNK d   1      91.906 101.298 -42.354  0.00  0.00     0.142 A 
ATOM     22  C   UNK d   1      93.203 101.402 -41.818  0.00  0.00     0.040 A 
ATOM     23  C   UNK d   1      93.437 101.897 -40.563  0.00  0.00     0.039 A 
ATOM     24  C   UNK d   1      92.396 102.321 -39.765  0.00  0.00     0.068 A 
ATOM     25  C   UNK d   1      91.123 102.230 -40.265  0.00  0.00     0.039 A 
ATOM     26  C   UNK d   1      90.888 101.729 -41.529  0.00  0.00     0.040 A 
BRANCH  24  27
ATOM     27  O   UNK d   1      92.646 102.829 -38.476  0.00  0.00    -0.356 OA
ATOM     28  C   UNK d   1      93.952 102.835 -37.965  0.00  0.00     0.210 C 
ENDBRANCH  24  27
ENDBRANCH   9  21
TORSDOF 4
ENDMDL
