MODEL 1
REMARK VINA RESULT:    -5.992      0.000      0.000
REMARK INTER + INTRA:          -7.070
REMARK INTER:                  -7.218
REMARK INTRA:                   0.148
REMARK UNBOUND:                 0.148
REMARK  4 active torsions:
REMARK  status: ('A' for Active; 'I' for Inactive)
REMARK    1  A    between atoms: C_5  and  C_8 
REMARK    2  A    between atoms: C_8  and  O_25 
REMARK    3  A    between atoms: N_15  and  C_17 
REMARK    4  A    between atoms: C_18  and  O_23 
ROOT
ATOM      1  C   UNK d   1      91.252  98.816 -43.095  0.00  0.00     0.189 C 
ATOM      2  N   UNK d   1      89.986  99.423 -43.443  0.00  0.00    -0.324 N 
ATOM      3  C   UNK d   1      88.637  98.991 -43.743  0.00  0.00     0.128 C 
ATOM      4  C   UNK d   1      87.597  99.968 -43.235  0.00  0.00     0.024 C 
ATOM      5  C   UNK d   1      87.864 101.299 -43.854  0.00  0.00     0.032 C 
ATOM      6  C   UNK d   1      89.274 101.707 -43.682  0.00  0.00     0.030 C 
ATOM      7  C   UNK d   1      90.256 100.822 -43.491  0.00  0.00     0.208 C 
ATOM      8  N   UNK d   1      91.635 101.080 -43.340  0.00  0.00     0.011 N 
ATOM      9  C   UNK d   1      92.239  99.778 -43.691  0.00  0.00     0.316 C 
ATOM     10  H   UNK d   1      91.995 101.712 -44.128  0.00  0.00     0.295 HD
ENDROOT
BRANCH   1  11
ATOM     11  C   UNK d   1      91.410  97.443 -43.636  0.00  0.00    -0.001 A 
ATOM     12  C   UNK d   1      91.521  96.374 -42.773  0.00  0.00     0.013 A 
ATOM     13  C   UNK d   1      91.662  95.060 -43.219  0.00  0.00     0.020 A 
ATOM     14  C   UNK d   1      91.692  94.820 -44.575  0.00  0.00     0.011 A 
ATOM     15 Br   UNK d   1      91.895  93.017 -45.204  0.00  0.00    -0.051 Br
ATOM     16  C   UNK d   1      91.584  95.880 -45.449  0.00  0.00     0.020 A 
ATOM     17  C   UNK d   1      91.444  97.177 -44.991  0.00  0.00     0.013 A 
ENDBRANCH   1  11
BRANCH   1  18
ATOM     18  O   UNK d   1      91.469  98.772 -41.722  0.00  0.00    -0.365 OA
ATOM     19  H   UNK d   1      92.143  98.069 -41.564  0.00  0.00     0.213 HD
ENDBRANCH   1  18
BRANCH   8  20
ATOM     20  C   UNK d   1      92.067 101.515 -42.092  0.00  0.00     0.175 A 
ATOM     21  C   UNK d   1      93.325 102.010 -41.853  0.00  0.00     0.103 A 
ATOM     22  C   UNK d   1      93.699 102.412 -40.568  0.00  0.00     0.039 A 
ATOM     23  C   UNK d   1      92.821 102.321 -39.519  0.00  0.00     0.003 A 
ATOM     24  C   UNK d   1      91.556 101.827 -39.750  0.00  0.00     0.002 A 
ATOM     25  C   UNK d   1      91.194 101.435 -41.014  0.00  0.00     0.041 A 
BRANCH  21  26
ATOM     26  O   UNK d   1      94.271 102.138 -42.850  0.00  0.00    -0.354 OA
ATOM     27  C   UNK d   1      95.104 103.248 -42.917  0.00  0.00     0.210 C 
ENDBRANCH  21  26
ENDBRANCH   8  20
TORSDOF 4
ENDMDL
