MODEL 1
REMARK VINA RESULT:    -6.580      0.000      0.000
REMARK INTER + INTRA:          -8.721
REMARK INTER:                  -7.926
REMARK INTRA:                  -0.795
REMARK UNBOUND:                -0.795
REMARK  4 active torsions:
REMARK  status: ('A' for Active; 'I' for Inactive)
REMARK    1  A    between atoms: C_5  and  C_8 
REMARK    2  A    between atoms: C_8  and  O_25 
REMARK    3  A    between atoms: N_15  and  C_17 
REMARK    4  A    between atoms: C_20  and  O_23 
ROOT
ATOM      1  C   UNK d   1      90.470 100.169 -43.901  0.00  0.00     0.189 C 
ATOM      2  N   UNK d   1      89.343  99.276 -43.799  0.00  0.00    -0.324 N 
ATOM      3  C   UNK d   1      88.136  99.208 -42.986  0.00  0.00     0.128 C 
ATOM      4  C   UNK d   1      86.978  98.562 -43.642  0.00  0.00     0.024 C 
ATOM      5  C   UNK d   1      87.174  98.178 -45.087  0.00  0.00     0.032 C 
ATOM      6  C   UNK d   1      88.530  97.727 -45.386  0.00  0.00     0.030 C 
ATOM      7  C   UNK d   1      89.566  98.258 -44.763  0.00  0.00     0.208 C 
ATOM      8  N   UNK d   1      90.969  98.027 -44.841  0.00  0.00     0.009 N 
ATOM      9  C   UNK d   1      91.558  99.265 -44.432  0.00  0.00     0.316 C 
ATOM     10  H   UNK d   1      91.186  97.831 -45.855  0.00  0.00     0.295 HD
ENDROOT
BRANCH   1  11
ATOM     11  C   UNK d   1      90.838 100.840 -42.656  0.00  0.00    -0.001 A 
ATOM     12  C   UNK d   1      90.130 101.941 -42.223  0.00  0.00     0.013 A 
ATOM     13  C   UNK d   1      90.433 102.613 -41.057  0.00  0.00     0.020 A 
ATOM     14  C   UNK d   1      91.480 102.206 -40.253  0.00  0.00     0.011 A 
ATOM     15 Br   UNK d   1      91.920 103.121 -38.637  0.00  0.00    -0.051 Br
ATOM     16  C   UNK d   1      92.198 101.106 -40.671  0.00  0.00     0.020 A 
ATOM     17  C   UNK d   1      91.888 100.437 -41.841  0.00  0.00     0.013 A 
ENDBRANCH   1  11
BRANCH   1  18
ATOM     18  O   UNK d   1      90.129 101.155 -44.849  0.00  0.00    -0.365 OA
ATOM     19  H   UNK d   1      89.156 101.299 -44.750  0.00  0.00     0.213 HD
ENDBRANCH   1  18
BRANCH   8  20
ATOM     20  C   UNK d   1      91.291  96.923 -44.063  0.00  0.00     0.142 A 
ATOM     21  C   UNK d   1      91.433  95.679 -44.633  0.00  0.00     0.040 A 
ATOM     22  C   UNK d   1      91.758  94.563 -43.845  0.00  0.00     0.039 A 
ATOM     23  C   UNK d   1      91.944  94.669 -42.495  0.00  0.00     0.068 A 
ATOM     24  C   UNK d   1      91.798  95.943 -41.915  0.00  0.00     0.039 A 
ATOM     25  C   UNK d   1      91.478  97.019 -42.716  0.00  0.00     0.040 A 
BRANCH  23  26
ATOM     26  O   UNK d   1      92.267  93.606 -41.653  0.00  0.00    -0.356 OA
ATOM     27  C   UNK d   1      93.473  92.915 -41.622  0.00  0.00     0.210 C 
ENDBRANCH  23  26
ENDBRANCH   8  20
TORSDOF 4
ENDMDL
