MODEL 1
REMARK VINA RESULT:    -6.934      0.000      0.000
REMARK INTER + INTRA:         -10.412
REMARK INTER:                  -9.366
REMARK INTRA:                  -1.046
REMARK UNBOUND:                -1.046
REMARK  6 active torsions:
REMARK  status: ('A' for Active; 'I' for Inactive)
REMARK    1  A    between atoms: C_5  and  N_8 
REMARK    2  A    between atoms: N_8  and  C_9 
REMARK    3  A    between atoms: C_9  and  C_10 
REMARK    4  A    between atoms: N_13  and  C_15 
REMARK    5  A    between atoms: C_16  and  C_18 
REMARK    6  A    between atoms: C_21  and  O_24 
ROOT
ATOM      1  C   UNK d   1      91.484  94.393 -45.289  0.00  0.00     0.145 A 
ATOM      2  N   UNK d   1      91.489  94.686 -43.978  0.00  0.00    -0.321 N 
ATOM      3  C   UNK d   1      91.540  96.025 -43.851  0.00  0.00     0.104 A 
ATOM      4  N   UNK d   1      91.568  96.574 -45.110  0.00  0.00    -0.250 N 
ATOM      5  N   UNK d   1      91.533  95.555 -45.952  0.00  0.00    -0.155 NA
ATOM      6  C   UNK d   1      91.563  96.911 -42.683  0.00  0.00     0.078 C 
ATOM      7  C   UNK d   1      92.279  96.359 -41.480  0.00  0.00     0.008 C 
ATOM      8  C   UNK d   1      91.670  95.105 -40.942  0.00  0.00     0.002 C 
ATOM      9  C   UNK d   1      92.246  93.956 -41.736  0.00  0.00     0.020 C 
ATOM     10  C   UNK d   1      91.439  93.670 -42.978  0.00  0.00     0.132 C 
ENDROOT
BRANCH   4  11
ATOM     11  C   UNK d   1      91.576  97.932 -45.484  0.00  0.00     0.221 C 
ATOM     12  C   UNK d   1      90.330  98.653 -45.483  0.00  0.00     0.114 C 
ATOM     13  O   UNK d   1      90.470  99.914 -45.894  0.00  0.00    -0.194 OA
BRANCH  12  14
ATOM     14  C   UNK d   1      88.976  98.322 -45.141  0.00  0.00    -0.002 A 
ATOM     15  C   UNK d   1      88.358  98.908 -44.014  0.00  0.00     0.017 A 
ATOM     16  C   UNK d   1      87.071  98.624 -43.640  0.00  0.00     0.037 A 
ATOM     17  C   UNK d   1      86.308  97.738 -44.358  0.00  0.00     0.068 A 
ATOM     18  C   UNK d   1      86.869  97.147 -45.457  0.00  0.00     0.037 A 
ATOM     19  C   UNK d   1      88.192  97.448 -45.831  0.00  0.00     0.017 A 
BRANCH  17  20
ATOM     20  O   UNK d   1      84.999  97.450 -43.976  0.00  0.00    -0.356 OA
ATOM     21  C   UNK d   1      84.024  98.450 -43.811  0.00  0.00     0.210 C 
ENDBRANCH  17  20
ENDBRANCH  12  14
ENDBRANCH   4  11
BRANCH   1  22
ATOM     22  C   UNK d   1      91.438  93.062 -45.974  0.00  0.00     0.200 C 
BRANCH  22  23
ATOM     23  N   UNK d   1      91.015  93.161 -47.356  0.00  0.00    -0.383 N 
ATOM     24  H   UNK d   1      90.936  94.088 -47.829  0.00  0.00     0.160 HD
BRANCH  23  25
ATOM     25  C   UNK d   1      90.682  92.014 -48.148  0.00  0.00     0.028 A 
ATOM     26  C   UNK d   1      91.142  90.764 -47.795  0.00  0.00     0.030 A 
ATOM     27  C   UNK d   1      90.818  89.671 -48.552  0.00  0.00     0.021 A 
ATOM     28  C   UNK d   1      90.022  89.814 -49.684  0.00  0.00     0.011 A 
ATOM     29 Br   UNK d   1      89.570  88.296 -50.734  0.00  0.00    -0.051 Br
ATOM     30  C   UNK d   1      89.549  91.060 -50.055  0.00  0.00     0.021 A 
ATOM     31  C   UNK d   1      89.894  92.138 -49.273  0.00  0.00     0.030 A 
ENDBRANCH  23  25
ENDBRANCH  22  23
ENDBRANCH   1  22
TORSDOF 6
ENDMDL
