/Users/jonathanwahrer/Desktop/Msc/3_Semester/Drug_Design_Praktikum/waehrer_HTS_screening/HTS_experiment/out/docking_results/vina_output/4agl/0850_docked.pdbqt
 OpenBabel03202223473D

 29 32  0  0  1  0  0  0  0  0999 V2000
   90.3070   99.9560  -42.1190 N   0  0  0  0  0  4  0  0  0  0  0  0
   91.5240   99.5090  -42.7300 C   0  0  1  0  0  0  0  0  0  0  0  0
   91.2970  100.0030  -44.1580 C   0  0  0  0  0  2  0  0  0  0  0  0
   89.8670   99.7350  -44.3750 N   0  0  0  0  0  0  0  0  0  0  0  0
   89.3270   99.6700  -45.6870 C   0  0  0  0  0  2  0  0  0  0  0  0
   87.8690   99.3290  -45.7560 C   0  0  0  0  0  2  0  0  0  0  0  0
   87.6000   98.1140  -44.9110 C   0  0  0  0  0  2  0  0  0  0  0  0
   87.0230   98.6610  -43.5970 C   0  0  0  0  0  2  0  0  0  0  0  0
   88.1430   99.0980  -42.7390 C   0  0  0  0  0  3  0  0  0  0  0  0
   89.3250   99.5700  -43.0650 C   0  0  0  0  0  0  0  0  0  0  0  0
   90.2170   99.4320  -41.1940 H   0  0  0  0  0  0  0  0  0  0  0  0
   92.6950   99.8920  -42.1580 O   0  0  0  0  0  0  0  0  0  0  0  0
   93.1620   99.1690  -41.7000 H   0  0  0  0  0  0  0  0  0  0  0  0
   91.5770   98.0220  -42.8400 C   0  0  0  0  0  0  0  0  0  0  0  0
   91.4680   97.3170  -44.0010 C   0  0  0  0  0  3  0  0  0  0  0  0
   91.5340   95.9090  -44.0360 C   0  0  0  0  0  3  0  0  0  0  0  0
   91.7150   95.1830  -42.8830 C   0  0  0  0  0  0  0  0  0  0  0  0
   91.8260   95.8830  -41.7070 C   0  0  0  0  0  3  0  0  0  0  0  0
   91.7590   97.2580  -41.6760 C   0  0  0  0  0  3  0  0  0  0  0  0
   91.7870   93.7800  -42.9080 O   0  0  0  0  0  0  0  0  0  0  0  0
   93.0170   93.1070  -43.0300 C   0  0  0  0  0  2  0  0  0  0  0  0
   93.6320   92.7900  -41.7040 C   0  0  0  0  0  1  0  0  0  0  0  0
   90.2010  101.2910  -41.7910 C   0  0  0  0  0  0  0  0  0  0  0  0
   90.8690  101.7740  -40.6680 C   0  0  0  0  0  3  0  0  0  0  0  0
   90.8250  103.1100  -40.2980 C   0  0  0  0  0  3  0  0  0  0  0  0
   90.1070  104.0220  -41.0380 C   0  0  0  0  0  0  0  0  0  0  0  0
   90.0490  105.8760  -40.5550 Br  0  0  0  0  0  0  0  0  0  0  0  0
   89.4420  103.5810  -42.1400 C   0  0  0  0  0  3  0  0  0  0  0  0
   89.5050  102.2340  -42.4880 C   0  0  0  0  0  3  0  0  0  0  0  0
  1 23  1  0  0  0  0
  1 11  1  0  0  0  0
  2 12  1  1  0  0  0
  2  1  1  0  0  0  0
  3  2  1  0  0  0  0
  4  3  1  0  0  0  0
  4 10  1  0  0  0  0
  5  4  1  0  0  0  0
  6  5  1  0  0  0  0
  6  7  1  0  0  0  0
  7  8  1  0  0  0  0
  8  9  1  0  0  0  0
 10  9  2  0  0  0  0
 10  1  1  0  0  0  0
 12 13  1  0  0  0  0
 14  2  1  0  0  0  0
 14 19  1  0  0  0  0
 15 14  2  0  0  0  0
 16 15  1  0  0  0  0
 16 17  2  0  0  0  0
 17 18  1  0  0  0  0
 18 19  2  0  0  0  0
 20 17  1  0  0  0  0
 21 20  1  0  0  0  0
 21 22  1  0  0  0  0
 23 24  1  0  0  0  0
 24 25  2  0  0  0  0
 26 27  1  0  0  0  0
 26 25  1  0  0  0  0
 28 26  2  0  0  0  0
 29 28  1  0  0  0  0
 29 23  2  0  0  0  0
M  END
>  <Pose>
1

>  <Score>
-6.609

$$$$
