MODEL 1
REMARK VINA RESULT:    -6.609      0.000      0.000
REMARK INTER + INTRA:          -8.160
REMARK INTER:                  -8.347
REMARK INTRA:                   0.187
REMARK UNBOUND:                 0.187
REMARK  5 active torsions:
REMARK  status: ('A' for Active; 'I' for Inactive)
REMARK    1  A    between atoms: C_5  and  N_8 
REMARK    2  A    between atoms: C_9  and  O_18 
REMARK    3  A    between atoms: C_9  and  C_19 
REMARK    4  A    between atoms: C_22  and  O_25 
REMARK    5  A    between atoms: O_25  and  C_26 
ROOT
ATOM      1  N   UNK d   1      90.307  99.956 -42.119  0.00  0.00     0.042 N 
ATOM      2  C   UNK d   1      91.524  99.509 -42.730  0.00  0.00     0.283 C 
ATOM      3  C   UNK d   1      91.297 100.003 -44.158  0.00  0.00     0.200 C 
ATOM      4  N   UNK d   1      89.867  99.735 -44.375  0.00  0.00    -0.356 N 
ATOM      5  C   UNK d   1      89.327  99.670 -45.687  0.00  0.00     0.124 C 
ATOM      6  C   UNK d   1      87.869  99.329 -45.756  0.00  0.00     0.020 C 
ATOM      7  C   UNK d   1      87.600  98.114 -44.911  0.00  0.00     0.005 C 
ATOM      8  C   UNK d   1      87.023  98.661 -43.597  0.00  0.00     0.031 C 
ATOM      9  C   UNK d   1      88.143  99.098 -42.739  0.00  0.00     0.030 C 
ATOM     10  C   UNK d   1      89.325  99.570 -43.065  0.00  0.00     0.210 C 
ATOM     11  H   UNK d   1      90.217  99.432 -41.194  0.00  0.00     0.299 HD
ENDROOT
BRANCH   2  12
ATOM     12  O   UNK d   1      92.695  99.892 -42.158  0.00  0.00    -0.359 OA
ATOM     13  H   UNK d   1      93.162  99.169 -41.700  0.00  0.00     0.213 HD
ENDBRANCH   2  12
BRANCH   2  14
ATOM     14  C   UNK d   1      91.577  98.022 -42.840  0.00  0.00     0.007 A 
ATOM     15  C   UNK d   1      91.468  97.317 -44.001  0.00  0.00     0.015 A 
ATOM     16  C   UNK d   1      91.534  95.909 -44.036  0.00  0.00     0.037 A 
ATOM     17  C   UNK d   1      91.715  95.183 -42.883  0.00  0.00     0.068 A 
ATOM     18  C   UNK d   1      91.826  95.883 -41.707  0.00  0.00     0.037 A 
ATOM     19  C   UNK d   1      91.759  97.258 -41.676  0.00  0.00     0.015 A 
BRANCH  17  20
ATOM     20  O   UNK d   1      91.787  93.780 -42.908  0.00  0.00    -0.352 OA
BRANCH  20  21
ATOM     21  C   UNK d   1      93.017  93.107 -43.030  0.00  0.00     0.171 C 
ATOM     22  C   UNK d   1      93.632  92.790 -41.704  0.00  0.00     0.034 C 
ENDBRANCH  20  21
ENDBRANCH  17  20
ENDBRANCH   2  14
BRANCH   1  23
ATOM     23  C   UNK d   1      90.201 101.291 -41.791  0.00  0.00     0.146 A 
ATOM     24  C   UNK d   1      90.869 101.774 -40.668  0.00  0.00     0.039 A 
ATOM     25  C   UNK d   1      90.825 103.110 -40.298  0.00  0.00     0.021 A 
ATOM     26  C   UNK d   1      90.107 104.022 -41.038  0.00  0.00     0.011 A 
ATOM     27 Br   UNK d   1      90.049 105.876 -40.555  0.00  0.00    -0.051 Br
ATOM     28  C   UNK d   1      89.442 103.581 -42.140  0.00  0.00     0.021 A 
ATOM     29  C   UNK d   1      89.505 102.234 -42.488  0.00  0.00     0.039 A 
ENDBRANCH   1  23
TORSDOF 5
ENDMDL
