/Users/jonathanwahrer/Desktop/Msc/3_Semester/Drug_Design_Praktikum/waehrer_HTS_screening/HTS_experiment/out/docking_results/vina_output/4agl/0860_docked.pdbqt
 OpenBabel03202223473D

 29 32  0  0  1  0  0  0  0  0999 V2000
   91.8700   93.1560  -44.2530 Br  0  0  0  0  0  0  0  0  0  0  0  0
   91.6740   95.0040  -43.7880 C   0  0  0  0  0  0  0  0  0  0  0  0
   91.3880   95.9630  -44.7400 C   0  0  0  0  0  3  0  0  0  0  0  0
   91.2490   97.2900  -44.4010 C   0  0  0  0  0  0  0  0  0  0  0  0
   91.4100   97.6130  -43.0690 C   0  0  0  0  0  0  0  0  0  0  0  0
   91.6960   96.6590  -42.1140 C   0  0  0  0  0  3  0  0  0  0  0  0
   91.8340   95.3310  -42.4570 C   0  0  0  0  0  0  0  0  0  0  0  0
   92.1430   94.3090  -41.4170 C   0  0  0  0  0  1  0  0  0  0  0  0
   91.2640   98.9620  -42.7510 O   0  0  0  0  0  0  0  0  0  0  0  0
   91.2820   99.9890  -43.6850 C   0  0  0  0  0  2  0  0  0  0  0  0
   90.7300   99.6490  -45.0280 C   0  0  2  0  0  0  0  0  0  0  0  0
   90.9460   98.2450  -45.4710 C   0  0  2  0  0  3  0  0  0  0  0  0
   91.4520  100.5050  -45.9750 N   0  0  0  0  0  4  0  0  0  0  0  0
   92.6200   99.8940  -46.5100 C   0  0  0  0  0  2  0  0  0  0  0  0
   93.0280  100.7390  -47.7260 C   0  0  0  0  0  2  0  0  0  0  0  0
   93.3660  101.9880  -47.2340 O   0  0  0  0  0  0  0  0  0  0  0  0
   92.3150  102.6280  -46.5880 C   0  0  0  0  0  2  0  0  0  0  0  0
   91.7930  101.7790  -45.4200 C   0  0  0  0  0  2  0  0  0  0  0  0
   90.7820  100.6720  -46.7600 H   0  0  0  0  0  0  0  0  0  0  0  0
   89.2630  100.0050  -45.1650 C   0  0  0  0  0  2  0  0  0  0  0  0
   88.5700  100.0930  -43.9160 N   0  0  0  0  0  4  0  0  0  0  0  0
   87.6670  101.2270  -43.8540 C   0  0  0  0  0  2  0  0  0  0  0  0
   86.3200  100.8450  -43.2600 C   0  0  0  0  0  2  0  0  0  0  0  0
   85.6450   99.9180  -44.0360 O   0  0  0  0  0  0  0  0  0  0  0  0
   86.5260   99.0290  -44.6440 C   0  0  0  0  0  2  0  0  0  0  0  0
   87.7240   98.9030  -43.7250 C   0  0  0  0  0  2  0  0  0  0  0  0
   89.1690  100.1390  -43.0780 H   0  0  0  0  0  0  0  0  0  0  0  0
   89.8050   97.7490  -46.1480 O   0  0  0  0  0  0  0  0  0  0  0  0
   89.6040   96.8220  -45.9040 H   0  0  0  0  0  0  0  0  0  0  0  0
  1  2  1  0  0  0  0
  2  7  1  0  0  0  0
  3  4  1  0  0  0  0
  3  2  2  0  0  0  0
  4  5  2  0  0  0  0
  5  9  1  0  0  0  0
  5  6  1  0  0  0  0
  7  6  2  0  0  0  0
  7  8  1  0  0  0  0
 10  9  1  0  0  0  0
 11 20  1  6  0  0  0
 11 10  1  0  0  0  0
 12 28  1  1  0  0  0
 12 11  1  0  0  0  0
 12  4  1  0  0  0  0
 13 18  1  0  0  0  0
 13 11  1  0  0  0  0
 14 13  1  0  0  0  0
 15 16  1  0  0  0  0
 15 14  1  0  0  0  0
 16 17  1  0  0  0  0
 17 18  1  0  0  0  0
 19 13  1  0  0  0  0
 20 21  1  0  0  0  0
 21 22  1  0  0  0  0
 21 26  1  0  0  0  0
 21 27  1  0  0  0  0
 22 23  1  0  0  0  0
 24 23  1  0  0  0  0
 25 24  1  0  0  0  0
 25 26  1  0  0  0  0
 28 29  1  0  0  0  0
M  END
>  <Pose>
1

>  <Score>
-5.805

$$$$
