MODEL 1
REMARK VINA RESULT:    -5.805      0.000      0.000
REMARK INTER + INTRA:          -8.283
REMARK INTER:                  -6.993
REMARK INTRA:                  -1.290
REMARK UNBOUND:                -1.290
REMARK  4 active torsions:
REMARK  status: ('A' for Active; 'I' for Inactive)
REMARK    1  A    between atoms: C_11  and  N_14 
REMARK    2  A    between atoms: C_11  and  C_20 
REMARK    3  A    between atoms: C_12  and  O_13 
REMARK    4  A    between atoms: C_20  and  N_21 
ROOT
ATOM      1 Br   UNK d   1      91.870  93.156 -44.253  0.00  0.00    -0.051 Br
ATOM      2  C   UNK d   1      91.674  95.004 -43.788  0.00  0.00     0.017 A 
ATOM      3  C   UNK d   1      91.388  95.963 -44.740  0.00  0.00     0.032 A 
ATOM      4  C   UNK d   1      91.249  97.290 -44.401  0.00  0.00     0.008 A 
ATOM      5  C   UNK d   1      91.410  97.613 -43.069  0.00  0.00     0.078 A 
ATOM      6  C   UNK d   1      91.696  96.659 -42.114  0.00  0.00     0.045 A 
ATOM      7  C   UNK d   1      91.834  95.331 -42.457  0.00  0.00    -0.042 A 
ATOM      8  C   UNK d   1      92.143  94.309 -41.417  0.00  0.00     0.049 C 
ATOM      9  O   UNK d   1      91.264  98.962 -42.751  0.00  0.00    -0.348 OA
ATOM     10  C   UNK d   1      91.282  99.989 -43.685  0.00  0.00     0.219 C 
ATOM     11  C   UNK d   1      90.730  99.649 -45.028  0.00  0.00     0.202 C 
ATOM     12  C   UNK d   1      90.946  98.245 -45.471  0.00  0.00     0.194 C 
ENDROOT
BRANCH  11  13
ATOM     13  N   UNK d   1      91.452 100.505 -45.975  0.00  0.00    -0.052 N 
ATOM     14  C   UNK d   1      92.620  99.894 -46.510  0.00  0.00     0.262 C 
ATOM     15  C   UNK d   1      93.028 100.739 -47.726  0.00  0.00     0.195 C 
ATOM     16  O   UNK d   1      93.366 101.988 -47.234  0.00  0.00    -0.388 OA
ATOM     17  C   UNK d   1      92.315 102.628 -46.588  0.00  0.00     0.195 C 
ATOM     18  C   UNK d   1      91.793 101.779 -45.420  0.00  0.00     0.262 C 
ATOM     19  H   UNK d   1      90.782 100.672 -46.760  0.00  0.00     0.281 HD
ENDBRANCH  11  13
BRANCH  11  20
ATOM     20  C   UNK d   1      89.263 100.005 -45.165  0.00  0.00     0.279 C 
BRANCH  20  21
ATOM     21  N   UNK d   1      88.570 100.093 -43.916  0.00  0.00    -0.065 N 
ATOM     22  C   UNK d   1      87.667 101.227 -43.854  0.00  0.00     0.261 C 
ATOM     23  C   UNK d   1      86.320 100.845 -43.260  0.00  0.00     0.195 C 
ATOM     24  O   UNK d   1      85.645  99.918 -44.036  0.00  0.00    -0.388 OA
ATOM     25  C   UNK d   1      86.526  99.029 -44.644  0.00  0.00     0.195 C 
ATOM     26  C   UNK d   1      87.724  98.903 -43.725  0.00  0.00     0.261 C 
ATOM     27  H   UNK d   1      89.169 100.139 -43.078  0.00  0.00     0.280 HD
ENDBRANCH  20  21
ENDBRANCH  11  20
BRANCH  12  28
ATOM     28  O   UNK d   1      89.805  97.749 -46.148  0.00  0.00    -0.388 OA
ATOM     29  H   UNK d   1      89.604  96.822 -45.904  0.00  0.00     0.210 HD
ENDBRANCH  12  28
TORSDOF 4
ENDMDL
