/Users/jonathanwahrer/Desktop/Msc/3_Semester/Drug_Design_Praktikum/waehrer_HTS_screening/HTS_experiment/out/docking_results/vina_output/4agl/0862_docked.pdbqt
 OpenBabel03202223473D

 30 33  0  0  0  0  0  0  0  0999 V2000
   92.2230  101.9870  -40.8160 Br  0  0  0  0  0  0  0  0  0  0  0  0
   92.3140  101.6170  -42.6640 C   0  0  0  0  0  0  0  0  0  0  0  0
   92.1470  100.3150  -43.0680 C   0  0  0  0  0  0  0  0  0  0  0  0
   92.1930   99.9180  -44.4160 C   0  0  0  0  0  0  0  0  0  0  0  0
   92.4210  100.8950  -45.3930 C   0  0  0  0  0  3  0  0  0  0  0  0
   92.5880  102.1960  -44.9730 C   0  0  0  0  0  0  0  0  0  0  0  0
   92.5380  102.5650  -43.6410 C   0  0  0  0  0  0  0  0  0  0  0  0
   92.7250  103.9940  -43.2140 C   0  0  0  0  0  1  0  0  0  0  0  0
   92.8970  103.5250  -46.3040 Br  0  0  0  0  0  0  0  0  0  0  0  0
   92.0160   98.5260  -44.7830 C   0  0  0  0  0  0  0  0  0  0  0  0
   92.6380   98.1350  -45.8020 O   0  0  0  0  0  0  0  0  0  0  0  0
   91.1300   97.7100  -43.9310 C   0  0  0  0  0  0  0  0  0  0  0  0
   91.8410   97.9290  -42.5200 C   0  0  0  0  0  2  0  0  0  0  0  0
   91.9170   99.2700  -42.1930 O   0  0  0  0  0  0  0  0  0  0  0  0
   91.1390   96.2770  -44.1500 C   0  0  0  0  0  2  0  0  0  0  0  0
   91.3990   95.5760  -45.3170 N   0  0  0  0  0  4  0  0  0  0  0  0
   90.3930   94.9350  -46.0700 C   0  0  0  0  0  2  0  0  0  0  0  0
   90.8900   93.7310  -46.8580 C   0  0  0  0  0  2  0  0  0  0  0  0
   91.3380   92.6230  -45.9590 C   0  0  0  0  0  2  0  0  0  0  0  0
   91.9430   93.2300  -44.7310 C   0  0  0  0  0  2  0  0  0  0  0  0
   92.4700   94.5890  -45.0570 C   0  0  0  0  0  2  0  0  0  0  0  0
   91.9330   96.2100  -46.0470 H   0  0  0  0  0  0  0  0  0  0  0  0
   89.7910   98.3370  -43.8460 C   0  0  0  0  0  2  0  0  0  0  0  0
   88.7290   97.8840  -44.6420 N   0  0  0  0  0  4  0  0  0  0  0  0
   87.4770   98.4020  -44.0750 C   0  0  0  0  0  2  0  0  0  0  0  0
   86.2590   97.7360  -44.6810 C   0  0  0  0  0  2  0  0  0  0  0  0
   86.2520   98.1560  -46.1590 C   0  0  0  0  0  2  0  0  0  0  0  0
   87.5440   97.5980  -46.7110 C   0  0  0  0  0  2  0  0  0  0  0  0
   88.7000   98.3420  -46.0210 C   0  0  0  0  0  2  0  0  0  0  0  0
   88.5590   96.8590  -44.7060 H   0  0  0  0  0  0  0  0  0  0  0  0
  2  1  1  0  0  0  0
  3  2  1  0  0  0  0
  3 14  1  0  0  0  0
  4  3  2  0  0  0  0
  5  6  2  0  0  0  0
  5  4  1  0  0  0  0
  6  7  1  0  0  0  0
  7  8  1  0  0  0  0
  7  2  2  0  0  0  0
  9  6  1  0  0  0  0
 10  4  1  0  0  0  0
 10 12  1  0  0  0  0
 11 10  2  0  0  0  0
 12 23  1  0  0  0  0
 12 13  1  0  0  0  0
 13 14  1  0  0  0  0
 15 12  1  0  0  0  0
 16 21  1  0  0  0  0
 16 15  1  0  0  0  0
 17 16  1  0  0  0  0
 18 17  1  0  0  0  0
 18 19  1  0  0  0  0
 19 20  1  0  0  0  0
 21 20  1  0  0  0  0
 22 16  1  0  0  0  0
 24 25  1  0  0  0  0
 24 23  1  0  0  0  0
 26 25  1  0  0  0  0
 27 26  1  0  0  0  0
 28 27  1  0  0  0  0
 28 29  1  0  0  0  0
 29 24  1  0  0  0  0
 30 24  1  0  0  0  0
M  END
>  <Pose>
1

>  <Score>
-6.040

$$$$
