MODEL 1
REMARK VINA RESULT:    -6.892      0.000      0.000
REMARK INTER + INTRA:          -9.599
REMARK INTER:                  -8.907
REMARK INTRA:                  -0.693
REMARK UNBOUND:                -0.693
REMARK  5 active torsions:
REMARK  status: ('A' for Active; 'I' for Inactive)
REMARK    1  A    between atoms: C_5  and  C_8 
REMARK    2  A    between atoms: N_9  and  N_10 
REMARK    3  A    between atoms: N_10  and  C_11 
REMARK    4  A    between atoms: C_13  and  N_23 
REMARK    5  A    between atoms: C_15  and  N_17 
ROOT
ATOM      1  C   UNK d   1      91.621  90.122 -49.200  0.00  0.00     0.774 A 
ATOM      2  N   UNK d   1      90.955  88.955 -49.337  0.00  0.00     0.133 NA
ATOM      3  C   UNK d   1      90.011  88.756 -50.290  0.00  0.00     0.756 A 
ATOM      4  N   UNK d   1      89.761  89.783 -51.104  0.00  0.00     0.131 NA
ATOM      5  C   UNK d   1      90.384  90.972 -51.027  0.00  0.00     0.756 A 
ATOM      6  N   UNK d   1      91.310  91.107 -50.061  0.00  0.00     0.133 NA
ENDROOT
BRANCH   1   7
ATOM      7  N   UNK d   1      92.594  90.261 -48.184  0.00  0.00    -0.105 N 
ATOM      8  H   UNK d   1      93.355  89.565 -48.114  0.00  0.00     0.208 HD
BRANCH   7   9
ATOM      9  N   UNK d   1      92.534  91.316 -47.284  0.00  0.00    -0.172 NA
ATOM     10  C   UNK d   1      91.437  91.829 -46.855  0.00  0.00     0.150 C 
BRANCH  10  11
ATOM     11  C   UNK d   1      91.453  92.937 -45.909  0.00  0.00    -0.016 A 
ATOM     12  C   UNK d   1      91.941  92.799 -44.620  0.00  0.00     0.035 A 
ATOM     13  C   UNK d   1      91.954  93.851 -43.728  0.00  0.00     0.050 A 
ATOM     14  C   UNK d   1      91.474  95.092 -44.091  0.00  0.00     0.133 A 
ATOM     15 Br   UNK d   1      92.635  93.632 -41.957  0.00  0.00    -0.048 Br
ATOM     16  F   UNK d   1      91.478  96.144 -43.226  0.00  0.00    -0.205 F 
ATOM     17  C   UNK d   1      90.986  95.242 -45.368  0.00  0.00     0.044 A 
ATOM     18  C   UNK d   1      90.975  94.181 -46.263  0.00  0.00     0.016 A 
ENDBRANCH  10  11
ENDBRANCH   7   9
ENDBRANCH   1   7
BRANCH   3  19
ATOM     19  N   UNK d   1      89.339  87.505 -50.389  0.00  0.00    -0.209 N 
ATOM     20  C   UNK d   1      88.879  86.928 -51.631  0.00  0.00     0.167 C 
ATOM     21  C   UNK d   1      87.397  86.651 -51.380  0.00  0.00     0.188 C 
ATOM     22  O   UNK d   1      87.283  85.674 -50.462  0.00  0.00    -0.388 OA
ATOM     23  C   UNK d   1      88.016  85.710 -49.342  0.00  0.00     0.188 C 
ATOM     24  C   UNK d   1      89.078  86.726 -49.201  0.00  0.00     0.167 C 
ENDBRANCH   3  19
BRANCH   5  25
ATOM     25  N   UNK d   1      90.065  92.022 -51.930  0.00  0.00    -0.209 N 
ATOM     26  C   UNK d   1      88.729  92.586 -51.906  0.00  0.00     0.167 C 
ATOM     27  C   UNK d   1      88.612  93.649 -52.975  0.00  0.00     0.188 C 
ATOM     28  O   UNK d   1      89.627  94.563 -52.976  0.00  0.00    -0.388 OA
ATOM     29  C   UNK d   1      90.893  94.080 -52.777  0.00  0.00     0.188 C 
ATOM     30  C   UNK d   1      90.990  92.567 -52.879  0.00  0.00     0.167 C 
ENDBRANCH   5  25
TORSDOF 5
ENDMDL
