/Users/jonathanwahrer/Desktop/Msc/3_Semester/Drug_Design_Praktikum/waehrer_HTS_screening/HTS_experiment/out/docking_results/vina_output/4agl/0865_docked.pdbqt
 OpenBabel03202223483D

 30 33  0  0  0  0  0  0  0  0999 V2000
   91.6210   90.1220  -49.2000 C   0  0  0  0  0  0  0  0  0  0  0  0
   90.9550   88.9550  -49.3370 N   0  0  0  0  0  4  0  0  0  0  0  0
   90.0110   88.7560  -50.2900 C   0  0  0  0  0  0  0  0  0  0  0  0
   89.7610   89.7830  -51.1040 N   0  0  0  0  0  0  0  0  0  0  0  0
   90.3840   90.9720  -51.0270 C   0  0  0  0  0  0  0  0  0  0  0  0
   91.3100   91.1070  -50.0610 N   0  0  0  0  0  2  0  0  0  0  0  0
   92.5940   90.2610  -48.1840 N   0  0  0  0  0  0  0  0  0  0  0  0
   93.3550   89.5650  -48.1140 H   0  0  0  0  0  0  0  0  0  0  0  0
   92.5340   91.3160  -47.2840 N   0  0  0  0  0  0  0  0  0  0  0  0
   91.4370   91.8290  -46.8550 C   0  0  0  0  0  3  0  0  0  0  0  0
   91.4530   92.9370  -45.9090 C   0  0  0  0  0  0  0  0  0  0  0  0
   91.9410   92.7990  -44.6200 C   0  0  0  0  0  3  0  0  0  0  0  0
   91.9540   93.8510  -43.7280 C   0  0  0  0  0  0  0  0  0  0  0  0
   91.4740   95.0920  -44.0910 C   0  0  0  0  0  0  0  0  0  0  0  0
   92.6350   93.6320  -41.9570 Br  0  0  0  0  0  0  0  0  0  0  0  0
   91.4780   96.1440  -43.2260 F   0  0  0  0  0  0  0  0  0  0  0  0
   90.9860   95.2420  -45.3680 C   0  0  0  0  0  3  0  0  0  0  0  0
   90.9750   94.1810  -46.2630 C   0  0  0  0  0  3  0  0  0  0  0  0
   89.3390   87.5050  -50.3890 N   0  0  0  0  0  0  0  0  0  0  0  0
   88.8790   86.9280  -51.6310 C   0  0  0  0  0  2  0  0  0  0  0  0
   87.3970   86.6510  -51.3800 C   0  0  0  0  0  2  0  0  0  0  0  0
   87.2830   85.6740  -50.4620 O   0  0  0  0  0  0  0  0  0  0  0  0
   88.0160   85.7100  -49.3420 C   0  0  0  0  0  2  0  0  0  0  0  0
   89.0780   86.7260  -49.2010 C   0  0  0  0  0  2  0  0  0  0  0  0
   90.0650   92.0220  -51.9300 N   0  0  0  0  0  0  0  0  0  0  0  0
   88.7290   92.5860  -51.9060 C   0  0  0  0  0  2  0  0  0  0  0  0
   88.6120   93.6490  -52.9750 C   0  0  0  0  0  2  0  0  0  0  0  0
   89.6270   94.5630  -52.9760 O   0  0  0  0  0  0  0  0  0  0  0  0
   90.8930   94.0800  -52.7770 C   0  0  0  0  0  2  0  0  0  0  0  0
   90.9900   92.5670  -52.8790 C   0  0  0  0  0  2  0  0  0  0  0  0
  1  7  1  0  0  0  0
  2  1  2  0  0  0  0
  3  2  2  0  0  0  0
  4  5  2  0  0  0  0
  4  3  1  0  0  0  0
  5  6  1  0  0  0  0
  6  1  1  0  0  0  0
  7  8  1  0  0  0  0
  7  9  1  0  0  0  0
  9 10  2  0  0  0  0
 10 11  1  0  0  0  0
 11 12  1  0  0  0  0
 12 13  2  0  0  0  0
 13 15  1  0  0  0  0
 14 13  1  0  0  0  0
 14 16  1  0  0  0  0
 17 14  2  0  0  0  0
 18 11  2  0  0  0  0
 18 17  1  0  0  0  0
 19  3  1  0  0  0  0
 19 24  1  0  0  0  0
 20 21  1  0  0  0  0
 20 19  1  0  0  0  0
 21 22  1  0  0  0  0
 22 23  1  0  0  0  0
 23 24  1  0  0  0  0
 25 26  1  0  0  0  0
 25  5  1  0  0  0  0
 27 26  1  0  0  0  0
 28 27  1  0  0  0  0
 28 29  1  0  0  0  0
 30 29  1  0  0  0  0
 30 25  1  0  0  0  0
M  END
>  <Pose>
1

>  <Score>
-6.892

$$$$
