MODEL 1
REMARK VINA RESULT:    -7.003      0.000      0.000
REMARK INTER + INTRA:          -9.760
REMARK INTER:                  -8.641
REMARK INTRA:                  -1.119
REMARK UNBOUND:                -1.119
REMARK  4 active torsions:
REMARK  status: ('A' for Active; 'I' for Inactive)
REMARK    1  A    between atoms: C_3  and  N_9 
REMARK       I    between atoms: N_9  and  C_10 
REMARK    2  A    between atoms: C_10  and  C_12 
REMARK    3  A    between atoms: C_12  and  N_13 
REMARK    4  A    between atoms: N_20  and  C_23 
ROOT
ATOM      1  N   UNK d   1      91.534  99.722 -45.540  0.00  0.00    -0.261 N 
ATOM      2  N   UNK d   1      92.136 100.260 -46.586  0.00  0.00    -0.239 N 
ATOM      3  N   UNK d   1      92.796 101.308 -46.124  0.00  0.00    -0.279 N 
ATOM      4  C   UNK d   1      92.621 101.446 -44.794  0.00  0.00     0.152 A 
ATOM      5  C   UNK d   1      91.816 100.432 -44.434  0.00  0.00     0.155 A 
ATOM      6  C   UNK d   1      91.648 100.587 -43.078  0.00  0.00     0.286 A 
ATOM      7  O   UNK d   1      90.950  99.829 -42.352  0.00  0.00    -0.265 OA
ATOM      8  N   UNK d   1      92.320 101.658 -42.609  0.00  0.00    -0.241 N 
ATOM      9  C   UNK d   1      92.931 102.199 -43.676  0.00  0.00     0.286 A 
ATOM     10  O   UNK d   1      93.663 103.223 -43.651  0.00  0.00    -0.265 OA
ATOM     11  H   UNK d   1      92.106  99.930 -47.593  0.00  0.00     0.208 HD
ATOM     12  H   UNK d   1      93.373 101.932 -46.747  0.00  0.00     0.189 HD
ENDROOT
BRANCH   1  13
ATOM     13  C   UNK d   1      90.705  98.539 -45.621  0.00  0.00     0.254 C 
BRANCH  13  14
ATOM     14  C   UNK d   1      91.493  97.349 -45.112  0.00  0.00     0.242 C 
ATOM     15  N   UNK d   1      90.947  96.546 -44.115  0.00  0.00    -0.323 N 
ATOM     16  H   UNK d   1      89.969  96.835 -43.766  0.00  0.00     0.169 HD
ATOM     17  O   UNK d   1      92.601  97.158 -45.624  0.00  0.00    -0.271 OA
BRANCH  15  18
ATOM     18  C   UNK d   1      91.567  95.419 -43.554  0.00  0.00     0.073 A 
ATOM     19  C   UNK d   1      91.863  95.433 -42.181  0.00  0.00     0.145 A 
ATOM     20  F   UNK d   1      91.527  96.547 -41.475  0.00  0.00    -0.204 F 
ATOM     21  C   UNK d   1      92.469  94.352 -41.594  0.00  0.00     0.086 A 
ATOM     22  C   UNK d   1      92.798  93.236 -42.335  0.00  0.00     0.119 A 
ATOM     23  C   UNK d   1      92.524  93.183 -43.682  0.00  0.00     0.044 A 
ATOM     24  F   UNK d   1      93.395  92.190 -41.717  0.00  0.00    -0.206 F 
ATOM     25  C   UNK d   1      91.900  94.308 -44.263  0.00  0.00     0.036 A 
ENDBRANCH  15  18
ENDBRANCH  13  14
ENDBRANCH   1  13
BRANCH   8  26
ATOM     26  C   UNK d   1      92.351 102.094 -41.238  0.00  0.00     0.046 A 
ATOM     27  C   UNK d   1      91.292 102.798 -40.699  0.00  0.00     0.031 A 
ATOM     28  C   UNK d   1      91.278 103.236 -39.391  0.00  0.00     0.021 A 
ATOM     29  C   UNK d   1      92.383 102.943 -38.616  0.00  0.00     0.011 A 
ATOM     30  C   UNK d   1      93.473 102.240 -39.103  0.00  0.00     0.021 A 
ATOM     31 Br   UNK d   1      92.341 103.562 -36.798  0.00  0.00    -0.051 Br
ATOM     32  C   UNK d   1      93.423 101.831 -40.420  0.00  0.00     0.031 A 
ENDBRANCH   8  26
TORSDOF 4
ENDMDL
