MODEL 1
REMARK VINA RESULT:    -6.045      0.000      0.000
REMARK INTER + INTRA:          -8.204
REMARK INTER:                  -7.811
REMARK INTRA:                  -0.393
REMARK UNBOUND:                -0.393
REMARK  5 active torsions:
REMARK  status: ('A' for Active; 'I' for Inactive)
REMARK    1  A    between atoms: C_3  and  C_8 
REMARK    2  A    between atoms: N_9  and  C_24 
REMARK    3  A    between atoms: C_15  and  C_17 
REMARK    4  A    between atoms: C_24  and  C_25 
REMARK    5  A    between atoms: C_25  and  N_26 
ROOT
ATOM      1  C   UNK d   1      90.088  98.446 -44.714  0.00  0.00     0.164 C 
ATOM      2  N   UNK d   1      90.337  99.037 -46.019  0.00  0.00    -0.330 N 
ATOM      3  C   UNK d   1      91.770  99.205 -45.989  0.00  0.00     0.295 C 
ATOM      4  O   UNK d   1      92.587  99.160 -46.947  0.00  0.00    -0.264 OA
ATOM      5  C   UNK d   1      92.190  99.454 -44.581  0.00  0.00     0.250 C 
ATOM      6  O   UNK d   1      93.290  99.654 -44.068  0.00  0.00    -0.282 OA
ATOM      7  C   UNK d   1      90.885  99.409 -43.859  0.00  0.00     0.062 C 
ATOM      8  C   UNK d   1      90.567 100.053 -42.763  0.00  0.00     0.130 C 
ATOM      9  O   UNK d   1      89.281  99.879 -42.212  0.00  0.00    -0.190 OA
ENDROOT
BRANCH   2  10
ATOM     10  C   UNK d   1      89.531  99.400 -47.104  0.00  0.00     0.155 C 
BRANCH  10  11
ATOM     11  C   UNK d   1      88.057  99.511 -46.947  0.00  0.00     0.255 C 
BRANCH  11  12
ATOM     12  N   UNK d   1      87.508  98.663 -45.927  0.00  0.00    -0.066 N 
ATOM     13  C   UNK d   1      86.712  97.629 -46.556  0.00  0.00     0.261 C 
ATOM     14  C   UNK d   1      86.207  96.637 -45.524  0.00  0.00     0.195 C 
ATOM     15  O   UNK d   1      85.440  97.308 -44.591  0.00  0.00    -0.388 OA
ATOM     16  C   UNK d   1      86.173  98.334 -44.002  0.00  0.00     0.195 C 
ATOM     17  C   UNK d   1      86.553  99.381 -45.058  0.00  0.00     0.261 C 
ATOM     18  H   UNK d   1      88.210  98.296 -45.253  0.00  0.00     0.280 HD
ENDBRANCH  11  12
ENDBRANCH  10  11
ENDBRANCH   2  10
BRANCH   1  19
ATOM     19  C   UNK d   1      90.652  97.099 -44.530  0.00  0.00     0.008 A 
ATOM     20  C   UNK d   1      90.540  96.101 -45.476  0.00  0.00     0.125 A 
ATOM     21  F   UNK d   1      89.933  96.300 -46.636  0.00  0.00    -0.205 F 
ATOM     22  C   UNK d   1      91.064  94.825 -45.251  0.00  0.00     0.043 A 
ATOM     23  C   UNK d   1      91.705  94.521 -44.095  0.00  0.00     0.003 A 
ATOM     24  C   UNK d   1      91.836  95.482 -43.135  0.00  0.00     0.001 A 
ATOM     25  C   UNK d   1      91.307  96.740 -43.378  0.00  0.00     0.012 A 
ENDBRANCH   1  19
BRANCH   8  26
ATOM     26  C   UNK d   1      91.502 100.947 -42.097  0.00  0.00     0.001 A 
ATOM     27  C   UNK d   1      92.222 100.478 -41.020  0.00  0.00     0.015 A 
ATOM     28  C   UNK d   1      93.108 101.283 -40.323  0.00  0.00     0.020 A 
ATOM     29  C   UNK d   1      93.289 102.595 -40.705  0.00  0.00     0.011 A 
ATOM     30  C   UNK d   1      92.587 103.079 -41.766  0.00  0.00     0.020 A 
ATOM     31 Br   UNK d   1      94.516 103.738 -39.753  0.00  0.00    -0.051 Br
ATOM     32  C   UNK d   1      91.690 102.253 -42.465  0.00  0.00     0.015 A 
ENDBRANCH   8  26
TORSDOF 5
ENDMDL
