MODEL 1
REMARK VINA RESULT:    -6.615      0.000      0.000
REMARK INTER + INTRA:          -9.362
REMARK INTER:                  -8.162
REMARK INTRA:                  -1.200
REMARK UNBOUND:                -1.200
REMARK  4 active torsions:
REMARK  status: ('A' for Active; 'I' for Inactive)
REMARK    1  A    between atoms: C_3  and  N_8 
REMARK       I    between atoms: N_8  and  C_9 
REMARK    2  A    between atoms: C_9  and  C_11 
REMARK    3  A    between atoms: C_11  and  N_12 
REMARK    4  A    between atoms: N_19  and  C_22 
ROOT
ATOM      1  N   UNK d   1      91.600  99.753 -45.750  0.00  0.00    -0.261 N 
ATOM      2  N   UNK d   1      92.350 100.312 -46.675  0.00  0.00    -0.239 N 
ATOM      3  N   UNK d   1      92.953 101.388 -46.190  0.00  0.00    -0.279 N 
ATOM      4  C   UNK d   1      92.578 101.533 -44.900  0.00  0.00     0.152 A 
ATOM      5  C   UNK d   1      91.757 100.534 -44.647  0.00  0.00     0.155 A 
ATOM      6  C   UNK d   1      91.370 100.681 -43.324  0.00  0.00     0.286 A 
ATOM      7  O   UNK d   1      90.588  99.908 -42.731  0.00  0.00    -0.265 OA
ATOM      8  N   UNK d   1      91.951 101.760 -42.771  0.00  0.00    -0.241 N 
ATOM      9  C   UNK d   1      92.703 102.292 -43.751  0.00  0.00     0.286 A 
ATOM     10  O   UNK d   1      93.413 103.317 -43.653  0.00  0.00    -0.265 OA
ATOM     11  H   UNK d   1      92.439  99.933 -47.653  0.00  0.00     0.208 HD
ATOM     12  H   UNK d   1      93.607 102.019 -46.713  0.00  0.00     0.189 HD
ENDROOT
BRANCH   1  13
ATOM     13  C   UNK d   1      90.771  98.566 -45.847  0.00  0.00     0.254 C 
BRANCH  13  14
ATOM     14  C   UNK d   1      91.502  97.399 -45.279  0.00  0.00     0.242 C 
ATOM     15  N   UNK d   1      90.927  96.590 -44.304  0.00  0.00    -0.323 N 
ATOM     16  H   UNK d   1      89.935  96.866 -43.999  0.00  0.00     0.169 HD
ATOM     17  O   UNK d   1      92.643  97.197 -45.726  0.00  0.00    -0.271 OA
BRANCH  15  18
ATOM     18  C   UNK d   1      91.491  95.447 -43.668  0.00  0.00     0.073 A 
ATOM     19  C   UNK d   1      91.792  95.500 -42.298  0.00  0.00     0.143 A 
ATOM     20  F   UNK d   1      91.527  96.656 -41.623  0.00  0.00    -0.204 F 
ATOM     21  C   UNK d   1      92.337  94.435 -41.626  0.00  0.00     0.044 A 
ATOM     22  C   UNK d   1      92.616  93.256 -42.276  0.00  0.00     0.003 A 
ATOM     23  C   UNK d   1      92.326  93.200 -43.608  0.00  0.00     0.002 A 
ATOM     24  C   UNK d   1      91.775  94.265 -44.302  0.00  0.00     0.033 A 
ENDBRANCH  15  18
ENDBRANCH  13  14
ENDBRANCH   1  13
BRANCH   8  25
ATOM     25  C   UNK d   1      91.789 102.223 -41.430  0.00  0.00     0.046 A 
ATOM     26  C   UNK d   1      92.695 101.887 -40.443  0.00  0.00     0.031 A 
ATOM     27  C   UNK d   1      92.554 102.327 -39.142  0.00  0.00     0.021 A 
ATOM     28  C   UNK d   1      91.492 103.125 -38.772  0.00  0.00     0.011 A 
ATOM     29  C   UNK d   1      90.574 103.473 -39.741  0.00  0.00     0.021 A 
ATOM     30 Br   UNK d   1      91.271 103.749 -36.978  0.00  0.00    -0.051 Br
ATOM     31  C   UNK d   1      90.733 103.023 -41.037  0.00  0.00     0.031 A 
ENDBRANCH   8  25
TORSDOF 4
ENDMDL
