/Users/jonathanwahrer/Desktop/Msc/3_Semester/Drug_Design_Praktikum/waehrer_HTS_screening/HTS_experiment/out/docking_results/vina_output/4agl/0874_docked.pdbqt
 OpenBabel03202223483D

 31 34  0  0  0  0  0  0  0  0999 V2000
   91.6000   99.7530  -45.7500 N   0  0  0  0  0  0  0  0  0  0  0  0
   92.3500  100.3120  -46.6750 N   0  0  0  0  0  0  0  0  0  0  0  0
   92.9530  101.3880  -46.1900 N   0  0  0  0  0  0  0  0  0  0  0  0
   92.5780  101.5330  -44.9000 C   0  0  0  0  0  0  0  0  0  0  0  0
   91.7570  100.5340  -44.6470 C   0  0  0  0  0  0  0  0  0  0  0  0
   91.3700  100.6810  -43.3240 C   0  0  0  0  0  0  0  0  0  0  0  0
   90.5880   99.9080  -42.7310 O   0  0  0  0  0  0  0  0  0  0  0  0
   91.9510  101.7600  -42.7710 N   0  0  0  0  0  0  0  0  0  0  0  0
   92.7030  102.2920  -43.7510 C   0  0  0  0  0  0  0  0  0  0  0  0
   93.4130  103.3170  -43.6530 O   0  0  0  0  0  0  0  0  0  0  0  0
   92.4390   99.9330  -47.6530 H   0  0  0  0  0  0  0  0  0  0  0  0
   93.6070  102.0190  -46.7130 H   0  0  0  0  0  0  0  0  0  0  0  0
   90.7710   98.5660  -45.8470 C   0  0  0  0  0  2  0  0  0  0  0  0
   91.5020   97.3990  -45.2790 C   0  0  0  0  0  0  0  0  0  0  0  0
   90.9270   96.5900  -44.3040 N   0  0  0  0  0  0  0  0  0  0  0  0
   89.9350   96.8660  -43.9990 H   0  0  0  0  0  0  0  0  0  0  0  0
   92.6430   97.1970  -45.7260 O   0  0  0  0  0  0  0  0  0  0  0  0
   91.4910   95.4470  -43.6680 C   0  0  0  0  0  0  0  0  0  0  0  0
   91.7920   95.5000  -42.2980 C   0  0  0  0  0  0  0  0  0  0  0  0
   91.5270   96.6560  -41.6230 F   0  0  0  0  0  0  0  0  0  0  0  0
   92.3370   94.4350  -41.6260 C   0  0  0  0  0  3  0  0  0  0  0  0
   92.6160   93.2560  -42.2760 C   0  0  0  0  0  3  0  0  0  0  0  0
   92.3260   93.2000  -43.6080 C   0  0  0  0  0  3  0  0  0  0  0  0
   91.7750   94.2650  -44.3020 C   0  0  0  0  0  3  0  0  0  0  0  0
   91.7890  102.2230  -41.4300 C   0  0  0  0  0  0  0  0  0  0  0  0
   92.6950  101.8870  -40.4430 C   0  0  0  0  0  3  0  0  0  0  0  0
   92.5540  102.3270  -39.1420 C   0  0  0  0  0  3  0  0  0  0  0  0
   91.4920  103.1250  -38.7720 C   0  0  0  0  0  0  0  0  0  0  0  0
   90.5740  103.4730  -39.7410 C   0  0  0  0  0  3  0  0  0  0  0  0
   91.2710  103.7490  -36.9780 Br  0  0  0  0  0  0  0  0  0  0  0  0
   90.7330  103.0230  -41.0370 C   0  0  0  0  0  3  0  0  0  0  0  0
  1  5  1  0  0  0  0
  2  3  1  0  0  0  0
  2  1  1  0  0  0  0
  3  4  1  0  0  0  0
  4  5  2  0  0  0  0
  4  9  1  0  0  0  0
  5  6  1  0  0  0  0
  6  8  1  0  0  0  0
  6  7  2  0  0  0  0
  8 25  1  0  0  0  0
  9 10  2  0  0  0  0
  9  8  1  0  0  0  0
 11  2  1  0  0  0  0
 12  3  1  0  0  0  0
 13  1  1  0  0  0  0
 13 14  1  0  0  0  0
 14 15  1  0  0  0  0
 15 16  1  0  0  0  0
 15 18  1  0  0  0  0
 17 14  2  0  0  0  0
 18 19  1  0  0  0  0
 19 21  2  0  0  0  0
 19 20  1  0  0  0  0
 22 21  1  0  0  0  0
 23 22  2  0  0  0  0
 24 18  2  0  0  0  0
 24 23  1  0  0  0  0
 25 31  2  0  0  0  0
 25 26  1  0  0  0  0
 26 27  2  0  0  0  0
 27 28  1  0  0  0  0
 28 30  1  0  0  0  0
 29 28  2  0  0  0  0
 31 29  1  0  0  0  0
M  END
>  <Pose>
1

>  <Score>
-6.615

$$$$
