MODEL 1
REMARK VINA RESULT:    -7.688      0.000      0.000
REMARK INTER + INTRA:          -9.916
REMARK INTER:                  -9.485
REMARK INTRA:                  -0.430
REMARK UNBOUND:                -0.430
REMARK  4 active torsions:
REMARK  status: ('A' for Active; 'I' for Inactive)
REMARK    1  A    between atoms: C_5  and  N_8 
REMARK    2  A    between atoms: N_15  and  C_16 
REMARK    3  A    between atoms: C_16  and  C_17 
REMARK       I    between atoms: C_17  and  N_19 
REMARK    4  A    between atoms: N_19  and  C_20 
ROOT
ATOM      1  N   UNK d   1      91.396  96.684 -43.533  0.00  0.00    -0.241 N 
ATOM      2  C   UNK d   1      91.304  96.031 -44.703  0.00  0.00     0.286 A 
ATOM      3  O   UNK d   1      91.083  96.642 -45.783  0.00  0.00    -0.265 OA
ATOM      4  C   UNK d   1      91.476  94.667 -44.555  0.00  0.00     0.155 A 
ATOM      5  C   UNK d   1      91.679  94.490 -43.252  0.00  0.00     0.152 A 
ATOM      6  N   UNK d   1      91.848  93.178 -43.061  0.00  0.00    -0.279 N 
ATOM      7  N   UNK d   1      91.749  92.570 -44.229  0.00  0.00    -0.239 N 
ATOM      8  N   UNK d   1      91.517  93.466 -45.183  0.00  0.00    -0.261 N 
ATOM      9  C   UNK d   1      91.634  95.712 -42.616  0.00  0.00     0.286 A 
ATOM     10  O   UNK d   1      91.778  95.975 -41.388  0.00  0.00    -0.265 OA
ATOM     11  H   UNK d   1      92.030  92.741 -42.116  0.00  0.00     0.189 HD
ATOM     12  H   UNK d   1      91.835  91.558 -44.397  0.00  0.00     0.208 HD
ENDROOT
BRANCH   8  13
ATOM     13  C   UNK d   1      91.343  93.267 -46.593  0.00  0.00     0.254 C 
BRANCH  13  14
ATOM     14  C   UNK d   1      91.176  91.873 -47.020  0.00  0.00     0.242 C 
ATOM     15  O   UNK d   1      91.462  90.986 -46.201  0.00  0.00    -0.271 OA
ATOM     16  N   UNK d   1      90.711  91.572 -48.303  0.00  0.00    -0.326 N 
ATOM     17  H   UNK d   1      90.479  92.399 -48.964  0.00  0.00     0.169 HD
BRANCH  16  18
ATOM     18  C   UNK d   1      90.486  90.308 -48.898  0.00  0.00     0.034 A 
ATOM     19  C   UNK d   1      89.239  89.911 -49.318  0.00  0.00     0.031 A 
ATOM     20  C   UNK d   1      88.978  88.671 -49.909  0.00  0.00     0.021 A 
ATOM     21  C   UNK d   1      90.050  87.828 -50.062  0.00  0.00     0.011 A 
ATOM     22  C   UNK d   1      91.306  88.200 -49.651  0.00  0.00     0.021 A 
ATOM     23 Br   UNK d   1      89.764  86.101 -50.870  0.00  0.00    -0.051 Br
ATOM     24  C   UNK d   1      91.535  89.423 -49.074  0.00  0.00     0.031 A 
ENDBRANCH  16  18
ENDBRANCH  13  14
ENDBRANCH   8  13
BRANCH   1  25
ATOM     25  C   UNK d   1      91.269  98.083 -43.282  0.00  0.00     0.046 A 
ATOM     26  C   UNK d   1      92.316  98.975 -43.328  0.00  0.00     0.033 A 
ATOM     27  C   UNK d   1      92.135 100.336 -43.066  0.00  0.00     0.044 A 
ATOM     28  C   UNK d   1      90.896 100.818 -42.753  0.00  0.00     0.116 A 
ATOM     29  F   UNK d   1      90.730 102.150 -42.497  0.00  0.00    -0.206 F 
ATOM     30  C   UNK d   1      89.836  99.943 -42.701  0.00  0.00     0.044 A 
ATOM     31  C   UNK d   1      90.026  98.605 -42.961  0.00  0.00     0.033 A 
ENDBRANCH   1  25
TORSDOF 4
ENDMDL
