/Users/jonathanwahrer/Desktop/Msc/3_Semester/Drug_Design_Praktikum/waehrer_HTS_screening/HTS_experiment/out/docking_results/vina_output/4agl/0886_docked.pdbqt
 OpenBabel03202223493D

 31 34  0  0  0  0  0  0  0  0999 V2000
   91.3960   96.6840  -43.5330 N   0  0  0  0  0  0  0  0  0  0  0  0
   91.3040   96.0310  -44.7030 C   0  0  0  0  0  0  0  0  0  0  0  0
   91.0830   96.6420  -45.7830 O   0  0  0  0  0  0  0  0  0  0  0  0
   91.4760   94.6670  -44.5550 C   0  0  0  0  0  0  0  0  0  0  0  0
   91.6790   94.4900  -43.2520 C   0  0  0  0  0  0  0  0  0  0  0  0
   91.8480   93.1780  -43.0610 N   0  0  0  0  0  0  0  0  0  0  0  0
   91.7490   92.5700  -44.2290 N   0  0  0  0  0  0  0  0  0  0  0  0
   91.5170   93.4660  -45.1830 N   0  0  0  0  0  0  0  0  0  0  0  0
   91.6340   95.7120  -42.6160 C   0  0  0  0  0  0  0  0  0  0  0  0
   91.7780   95.9750  -41.3880 O   0  0  0  0  0  0  0  0  0  0  0  0
   92.0300   92.7410  -42.1160 H   0  0  0  0  0  0  0  0  0  0  0  0
   91.8350   91.5580  -44.3970 H   0  0  0  0  0  0  0  0  0  0  0  0
   91.3430   93.2670  -46.5930 C   0  0  0  0  0  2  0  0  0  0  0  0
   91.1760   91.8730  -47.0200 C   0  0  0  0  0  0  0  0  0  0  0  0
   91.4620   90.9860  -46.2010 O   0  0  0  0  0  0  0  0  0  0  0  0
   90.7110   91.5720  -48.3030 N   0  0  0  0  0  0  0  0  0  0  0  0
   90.4790   92.3990  -48.9640 H   0  0  0  0  0  0  0  0  0  0  0  0
   90.4860   90.3080  -48.8980 C   0  0  0  0  0  0  0  0  0  0  0  0
   89.2390   89.9110  -49.3180 C   0  0  0  0  0  3  0  0  0  0  0  0
   88.9780   88.6710  -49.9090 C   0  0  0  0  0  3  0  0  0  0  0  0
   90.0500   87.8280  -50.0620 C   0  0  0  0  0  0  0  0  0  0  0  0
   91.3060   88.2000  -49.6510 C   0  0  0  0  0  3  0  0  0  0  0  0
   89.7640   86.1010  -50.8700 Br  0  0  0  0  0  0  0  0  0  0  0  0
   91.5350   89.4230  -49.0740 C   0  0  0  0  0  3  0  0  0  0  0  0
   91.2690   98.0830  -43.2820 C   0  0  0  0  0  0  0  0  0  0  0  0
   92.3160   98.9750  -43.3280 C   0  0  0  0  0  3  0  0  0  0  0  0
   92.1350  100.3360  -43.0660 C   0  0  0  0  0  3  0  0  0  0  0  0
   90.8960  100.8180  -42.7530 C   0  0  0  0  0  0  0  0  0  0  0  0
   90.7300  102.1500  -42.4970 F   0  0  0  0  0  0  0  0  0  0  0  0
   89.8360   99.9430  -42.7010 C   0  0  0  0  0  3  0  0  0  0  0  0
   90.0260   98.6050  -42.9610 C   0  0  0  0  0  3  0  0  0  0  0  0
  1 25  1  0  0  0  0
  1  9  1  0  0  0  0
  2  4  1  0  0  0  0
  2  1  1  0  0  0  0
  3  2  2  0  0  0  0
  4  5  2  0  0  0  0
  5  6  1  0  0  0  0
  5  9  1  0  0  0  0
  6 11  1  0  0  0  0
  7  6  1  0  0  0  0
  8  4  1  0  0  0  0
  8  7  1  0  0  0  0
  9 10  2  0  0  0  0
 12  7  1  0  0  0  0
 13  8  1  0  0  0  0
 14 13  1  0  0  0  0
 14 15  2  0  0  0  0
 16 14  1  0  0  0  0
 17 16  1  0  0  0  0
 18 16  1  0  0  0  0
 19 18  2  0  0  0  0
 20 19  1  0  0  0  0
 21 20  2  0  0  0  0
 21 22  1  0  0  0  0
 22 24  2  0  0  0  0
 23 21  1  0  0  0  0
 24 18  1  0  0  0  0
 25 31  1  0  0  0  0
 26 25  2  0  0  0  0
 26 27  1  0  0  0  0
 27 28  2  0  0  0  0
 28 30  1  0  0  0  0
 28 29  1  0  0  0  0
 31 30  2  0  0  0  0
M  END
>  <Pose>
1

>  <Score>
-7.688

$$$$
