MODEL 1
REMARK VINA RESULT:    -5.636      0.000      0.000
REMARK INTER + INTRA:          -6.145
REMARK INTER:                  -5.966
REMARK INTRA:                  -0.179
REMARK UNBOUND:                -0.179
REMARK  1 active torsions:
REMARK  status: ('A' for Active; 'I' for Inactive)
REMARK    1  A    between atoms: C_4  and  C_9 
ROOT
ATOM      1  C   UNK d   1      91.970  98.919 -43.587  0.00  0.00     0.222 C 
ATOM      2  N   UNK d   1      91.439  97.800 -44.333  0.00  0.00    -0.358 N 
ATOM      3  C   UNK d   1      90.052  97.782 -44.687  0.00  0.00     0.088 A 
ATOM      4  S   UNK d   1      89.159  97.004 -45.961  0.00  0.00    -0.074 SA
ATOM      5  C   UNK d   1      87.596  97.552 -45.578  0.00  0.00     0.018 A 
ATOM      6  C   UNK d   1      87.805  98.318 -44.484  0.00  0.00    -0.023 A 
ATOM      7  C   UNK d   1      89.060  98.441 -44.021  0.00  0.00     0.073 A 
ATOM      8  C   UNK d   1      89.601  99.199 -42.857  0.00  0.00     0.256 C 
ATOM      9  O   UNK d   1      88.846  99.869 -42.113  0.00  0.00    -0.267 OA
ATOM     10  N   UNK d   1      90.981  99.183 -42.556  0.00  0.00    -0.331 N 
ATOM     11  C   UNK d   1      86.544  98.953 -43.910  0.00  0.00     0.068 C 
ATOM     12  C   UNK d   1      85.369  98.147 -44.357  0.00  0.00     0.239 C 
ATOM     13  N   UNK d   1      85.348  98.259 -45.824  0.00  0.00    -0.070 N 
ATOM     14  C   UNK d   1      86.312  97.272 -46.260  0.00  0.00     0.281 C 
ATOM     15  C   UNK d   1      84.026  98.013 -46.350  0.00  0.00     0.270 C 
ATOM     16  H   UNK d   1      92.020  96.986 -44.633  0.00  0.00     0.162 HD
ATOM     17  H   UNK d   1      91.321  99.362 -41.577  0.00  0.00     0.165 HD
ATOM     18  H   UNK d   1      85.717  99.196 -46.093  0.00  0.00     0.279 HD
ENDROOT
BRANCH   1  19
ATOM     19  C   UNK d   1      92.049 100.060 -44.536  0.00  0.00     0.023 A 
ATOM     20  C   UNK d   1      92.495  99.954 -45.832  0.00  0.00     0.134 A 
ATOM     21  C   UNK d   1      92.562 101.061 -46.680  0.00  0.00     0.044 A 
ATOM     22  O   UNK d   1      92.886  98.725 -46.314  0.00  0.00    -0.190 OA
ATOM     23  I   UNK d   1      93.253 100.831 -48.653  0.00  0.00    -0.042 I 
ATOM     24  C   UNK d   1      92.185 102.297 -46.255  0.00  0.00     0.040 A 
ATOM     25  C   UNK d   1      91.736 102.425 -44.961  0.00  0.00     0.013 A 
ATOM     26  C   UNK d   1      91.668 101.344 -44.121  0.00  0.00     0.033 A 
ATOM     27 Br   UNK d   1      91.208 104.153 -44.361  0.00  0.00    -0.051 Br
ENDBRANCH   1  19
TORSDOF 1
ENDMDL
