/Users/jonathanwahrer/Desktop/Msc/3_Semester/Drug_Design_Praktikum/waehrer_HTS_screening/HTS_experiment/out/docking_results/vina_output/4agl/0895_docked.pdbqt
 OpenBabel03202223493D

 28 31  0  0  1  0  0  0  0  0999 V2000
   90.5400   97.4320  -45.4870 C   0  0  2  0  0  3  0  0  0  0  0  0
   89.9130   98.0740  -44.3320 N   0  0  0  0  0  0  0  0  0  0  0  0
   88.7100   98.8690  -44.4830 C   0  0  0  0  0  0  0  0  0  0  0  0
   87.9090   99.9820  -43.4470 S   0  0  0  0  0  0  0  0  0  0  0  0
   86.6140  100.4030  -44.4570 C   0  0  0  0  0  0  0  0  0  0  0  0
   86.8360   99.6620  -45.5870 C   0  0  0  0  0  0  0  0  0  0  0  0
   87.9270   98.8670  -45.5930 C   0  0  0  0  0  0  0  0  0  0  0  0
   88.3870   97.9690  -46.6910 C   0  0  0  0  0  0  0  0  0  0  0  0
   87.7470   97.8740  -47.7820 O   0  0  0  0  0  0  0  0  0  0  0  0
   89.5600   97.2090  -46.5140 N   0  0  0  0  0  0  0  0  0  0  0  0
   85.7610   99.9000  -46.6410 C   0  0  0  0  0  2  0  0  0  0  0  0
   84.4020   99.7520  -46.0090 C   0  0  0  0  0  2  0  0  0  0  0  0
   84.2750  100.3970  -44.7450 N   0  0  0  0  0  4  0  0  0  0  0  0
   85.3930  101.2890  -44.4550 C   0  0  0  0  0  2  0  0  0  0  0  0
   84.3390   99.3490  -43.7140 C   0  0  0  0  0  1  0  0  0  0  0  0
   90.3040   97.9830  -43.3770 H   0  0  0  0  0  0  0  0  0  0  0  0
   89.7510   96.4120  -47.1760 H   0  0  0  0  0  0  0  0  0  0  0  0
   83.3680  100.9180  -44.6230 H   0  0  0  0  0  0  0  0  0  0  0  0
   90.9960   96.0970  -45.0110 C   0  0  0  0  0  0  0  0  0  0  0  0
   91.3950   95.9750  -43.6870 C   0  0  0  0  0  3  0  0  0  0  0  0
   91.8290   94.8050  -43.1400 C   0  0  0  0  0  0  0  0  0  0  0  0
   91.8700   93.6830  -43.9670 C   0  0  0  0  0  0  0  0  0  0  0  0
   91.4790   93.7760  -45.2870 C   0  0  0  0  0  0  0  0  0  0  0  0
   92.3060   92.4780  -43.4500 O   0  0  0  0  0  1  0  0  0  0  0  0
   91.5490   92.0660  -46.5200 I   0  0  0  0  0  0  0  0  0  0  0  0
   91.0430   94.9850  -45.8060 C   0  0  0  0  0  3  0  0  0  0  0  0
   92.2340   94.6520  -41.8210 O   0  0  0  0  0  0  0  0  0  0  0  0
   92.1620   95.7720  -40.9580 C   0  0  0  0  0  1  0  0  0  0  0  0
  1 19  1  1  0  0  0
  1  2  1  0  0  0  0
  2 16  1  0  0  0  0
  3  2  1  0  0  0  0
  3  4  1  0  0  0  0
  5 14  1  0  0  0  0
  5  4  1  0  0  0  0
  6  5  2  0  0  0  0
  7  6  1  0  0  0  0
  7  3  2  0  0  0  0
  8 10  1  0  0  0  0
  8  7  1  0  0  0  0
  9  8  2  0  0  0  0
 10  1  1  0  0  0  0
 11 12  1  0  0  0  0
 11  6  1  0  0  0  0
 12 13  1  0  0  0  0
 13 18  1  0  0  0  0
 13 14  1  0  0  0  0
 13 15  1  0  0  0  0
 17 10  1  0  0  0  0
 19 20  1  0  0  0  0
 20 21  2  0  0  0  0
 21 27  1  0  0  0  0
 22 24  1  0  0  0  0
 22 21  1  0  0  0  0
 23 22  2  0  0  0  0
 25 23  1  0  0  0  0
 26 23  1  0  0  0  0
 26 19  2  0  0  0  0
 27 28  1  0  0  0  0
M  END
>  <Pose>
1

>  <Score>
-6.129

$$$$
