MODEL 1
REMARK VINA RESULT:    -6.129      0.000      0.000
REMARK INTER + INTRA:          -7.268
REMARK INTER:                  -6.846
REMARK INTRA:                  -0.422
REMARK UNBOUND:                -0.422
REMARK  2 active torsions:
REMARK  status: ('A' for Active; 'I' for Inactive)
REMARK    1  A    between atoms: C_4  and  O_23 
REMARK    2  A    between atoms: C_6  and  C_8 
ROOT
ATOM      1  C   UNK d   1      90.540  97.432 -45.487  0.00  0.00     0.219 C 
ATOM      2  N   UNK d   1      89.913  98.074 -44.332  0.00  0.00    -0.358 N 
ATOM      3  C   UNK d   1      88.710  98.869 -44.483  0.00  0.00     0.088 A 
ATOM      4  S   UNK d   1      87.909  99.982 -43.447  0.00  0.00    -0.074 SA
ATOM      5  C   UNK d   1      86.614 100.403 -44.457  0.00  0.00     0.018 A 
ATOM      6  C   UNK d   1      86.836  99.662 -45.587  0.00  0.00    -0.023 A 
ATOM      7  C   UNK d   1      87.927  98.867 -45.593  0.00  0.00     0.073 A 
ATOM      8  C   UNK d   1      88.387  97.969 -46.691  0.00  0.00     0.256 C 
ATOM      9  O   UNK d   1      87.747  97.874 -47.782  0.00  0.00    -0.267 OA
ATOM     10  N   UNK d   1      89.560  97.209 -46.514  0.00  0.00    -0.332 N 
ATOM     11  C   UNK d   1      85.761  99.900 -46.641  0.00  0.00     0.068 C 
ATOM     12  C   UNK d   1      84.402  99.752 -46.009  0.00  0.00     0.239 C 
ATOM     13  N   UNK d   1      84.275 100.397 -44.745  0.00  0.00    -0.070 N 
ATOM     14  C   UNK d   1      85.393 101.289 -44.455  0.00  0.00     0.281 C 
ATOM     15  C   UNK d   1      84.339  99.349 -43.714  0.00  0.00     0.270 C 
ATOM     16  H   UNK d   1      90.304  97.983 -43.377  0.00  0.00     0.162 HD
ATOM     17  H   UNK d   1      89.751  96.412 -47.176  0.00  0.00     0.165 HD
ATOM     18  H   UNK d   1      83.368 100.918 -44.623  0.00  0.00     0.279 HD
ENDROOT
BRANCH   1  19
ATOM     19  C   UNK d   1      90.996  96.097 -45.011  0.00  0.00    -0.012 A 
ATOM     20  C   UNK d   1      91.395  95.975 -43.687  0.00  0.00     0.050 A 
ATOM     21  C   UNK d   1      91.829  94.805 -43.140  0.00  0.00     0.106 A 
ATOM     22  C   UNK d   1      91.870  93.683 -43.967  0.00  0.00     0.157 A 
ATOM     23  C   UNK d   1      91.479  93.776 -45.287  0.00  0.00     0.046 A 
ATOM     24  O   UNK d   1      92.306  92.478 -43.450  0.00  0.00    -0.188 OA
ATOM     25  I   UNK d   1      91.549  92.066 -46.520  0.00  0.00    -0.041 I 
ATOM     26  C   UNK d   1      91.043  94.985 -45.806  0.00  0.00     0.032 A 
BRANCH  21  27
ATOM     27  O   UNK d   1      92.234  94.652 -41.821  0.00  0.00    -0.353 OA
ATOM     28  C   UNK d   1      92.162  95.772 -40.958  0.00  0.00     0.210 C 
ENDBRANCH  21  27
ENDBRANCH   1  19
TORSDOF 2
ENDMDL
