MODEL 1
REMARK VINA RESULT:    -6.832      0.000      0.000
REMARK INTER + INTRA:          -9.776
REMARK INTER:                  -9.229
REMARK INTRA:                  -0.547
REMARK UNBOUND:                -0.547
REMARK  6 active torsions:
REMARK  status: ('A' for Active; 'I' for Inactive)
REMARK    1  A    between atoms: C_3  and  N_8 
REMARK    2  A    between atoms: N_8  and  C_9 
REMARK    3  A    between atoms: C_20  and  C_21 
REMARK    4  A    between atoms: C_21  and  C_22 
REMARK    5  A    between atoms: C_22  and  O_24 
REMARK    6  A    between atoms: O_24  and  C_25 
ROOT
ATOM      1  C   UNK d   1      91.902  98.731 -42.587  0.00  0.00     0.179 A 
ATOM      2  N   UNK d   1      91.502  98.881 -43.844  0.00  0.00    -0.202 NA
ATOM      3  C   UNK d   1      91.168  97.887 -44.686  0.00  0.00     0.230 A 
ATOM      4  N   UNK d   1      90.751  97.747 -45.950  0.00  0.00    -0.081 NA
ATOM      5  O   UNK d   1      90.582  96.488 -46.235  0.00  0.00    -0.103 OA
ATOM      6  N   UNK d   1      90.875  95.763 -45.194  0.00  0.00    -0.082 NA
ATOM      7  C   UNK d   1      91.247  96.579 -44.196  0.00  0.00     0.217 A 
ATOM      8  N   UNK d   1      91.639  96.371 -42.952  0.00  0.00    -0.256 N 
ATOM      9  C   UNK d   1      91.961  97.392 -42.154  0.00  0.00     0.206 A 
ATOM     10  N   UNK d   1      92.306  96.865 -40.990  0.00  0.00    -0.126 NA
ATOM     11  N   UNK d   1      92.201  95.526 -41.058  0.00  0.00    -0.133 NA
ATOM     12  C   UNK d   1      91.782  95.190 -42.287  0.00  0.00     0.145 A 
ENDROOT
BRANCH   1  13
ATOM     13  N   UNK d   1      92.255  99.765 -41.696  0.00  0.00    -0.337 N 
ATOM     14  H   UNK d   1      93.152  99.628 -41.108  0.00  0.00     0.167 HD
BRANCH  13  15
ATOM     15  C   UNK d   1      91.582 100.981 -41.462  0.00  0.00     0.050 A 
ATOM     16  C   UNK d   1      92.234 101.985 -40.711  0.00  0.00     0.033 A 
ATOM     17  I   UNK d   1      94.186 101.636 -39.984  0.00  0.00    -0.042 I 
ATOM     18  C   UNK d   1      91.607 103.179 -40.458  0.00  0.00     0.020 A 
ATOM     19  C   UNK d   1      90.320 103.405 -40.942  0.00  0.00     0.001 A 
ATOM     20  C   UNK d   1      89.714 102.416 -41.664  0.00  0.00     0.002 A 
ATOM     21  C   UNK d   1      90.322 101.189 -41.944  0.00  0.00     0.031 A 
ENDBRANCH  13  15
ENDBRANCH   1  13
BRANCH  12  22
ATOM     22  C   UNK d   1      91.509  93.843 -42.855  0.00  0.00     0.192 C 
BRANCH  22  23
ATOM     23  C   UNK d   1      92.718  93.185 -43.406  0.00  0.00     0.266 C 
ATOM     24  O   UNK d   1      93.747  92.973 -42.731  0.00  0.00    -0.265 OA
BRANCH  23  25
ATOM     25  O   UNK d   1      92.711  92.793 -44.715  0.00  0.00    -0.322 OA
BRANCH  25  26
ATOM     26  C   UNK d   1      91.583  92.483 -45.453  0.00  0.00     0.174 C 
ATOM     27  C   UNK d   1      91.769  91.532 -46.572  0.00  0.00     0.034 C 
ENDBRANCH  25  26
ENDBRANCH  23  25
ENDBRANCH  22  23
ENDBRANCH  12  22
TORSDOF 6
ENDMDL
