MODEL 1
REMARK VINA RESULT:    -6.260      0.000      0.000
REMARK INTER + INTRA:          -7.162
REMARK INTER:                  -6.992
REMARK INTRA:                  -0.170
REMARK UNBOUND:                -0.170
REMARK  2 active torsions:
REMARK  status: ('A' for Active; 'I' for Inactive)
REMARK    1  A    between atoms: C_3  and  N_8 
REMARK    2  A    between atoms: N_15  and  C_16 
ROOT
ATOM      1  N   UNK d   1      89.581  99.950 -43.873  0.00  0.00    -0.240 N 
ATOM      2  C   UNK d   1      89.932  98.653 -43.826  0.00  0.00     0.286 A 
ATOM      3  O   UNK d   1      89.401  97.727 -44.509  0.00  0.00    -0.265 OA
ATOM      4  C   UNK d   1      90.959  98.441 -42.928  0.00  0.00     0.160 A 
ATOM      5  C   UNK d   1      91.237  99.631 -42.421  0.00  0.00     0.152 A 
ATOM      6  N   UNK d   1      92.245  99.408 -41.545  0.00  0.00    -0.278 N 
ATOM      7  N   UNK d   1      92.565  98.127 -41.523  0.00  0.00    -0.234 N 
ATOM      8  N   UNK d   1      91.782  97.511 -42.370  0.00  0.00    -0.234 N 
ATOM      9  C   UNK d   1      90.394 100.568 -42.997  0.00  0.00     0.286 A 
ATOM     10  O   UNK d   1      90.406 101.812 -42.723  0.00  0.00    -0.265 OA
ATOM     11  H   UNK d   1      92.717 100.129 -40.960  0.00  0.00     0.189 HD
ATOM     12  H   UNK d   1      93.303  97.686 -40.938  0.00  0.00     0.209 HD
ENDROOT
BRANCH   1  13
ATOM     13  C   UNK d   1      88.572 100.575 -44.667  0.00  0.00     0.062 A 
ATOM     14  C   UNK d   1      88.838 101.042 -45.938  0.00  0.00     0.034 A 
ATOM     15  I   UNK d   1      90.809 100.796 -46.670  0.00  0.00    -0.042 I 
ATOM     16  C   UNK d   1      87.879 101.649 -46.723  0.00  0.00     0.020 A 
ATOM     17  C   UNK d   1      86.591 101.815 -46.258  0.00  0.00     0.001 A 
ATOM     18  C   UNK d   1      86.312 101.353 -44.989  0.00  0.00     0.002 A 
ATOM     19  C   UNK d   1      87.281 100.744 -44.209  0.00  0.00     0.031 A 
ENDBRANCH   1  13
BRANCH   8  20
ATOM     20  C   UNK d   1      91.749  96.127 -42.694  0.00  0.00     0.058 A 
ATOM     21  C   UNK d   1      91.679  95.681 -43.995  0.00  0.00     0.031 A 
ATOM     22  C   UNK d   1      91.648  94.325 -44.278  0.00  0.00     0.002 A 
ATOM     23  C   UNK d   1      91.685  93.372 -43.281  0.00  0.00     0.000 A 
ATOM     24  C   UNK d   1      91.755  93.817 -41.978  0.00  0.00     0.002 A 
ATOM     25  C   UNK d   1      91.786  95.159 -41.688  0.00  0.00     0.031 A 
ENDBRANCH   8  20
TORSDOF 2
ENDMDL
