/Users/jonathanwahrer/Desktop/Msc/3_Semester/Drug_Design_Praktikum/waehrer_HTS_screening/HTS_experiment/out/docking_results/vina_output/4agl/0910_docked.pdbqt
 OpenBabel03202223503D

 26 29  0  0  0  0  0  0  0  0999 V2000
   89.2030   98.8060  -43.6100 C   0  0  0  0  0  0  0  0  0  0  0  0
   88.1840   98.4690  -44.5310 C   0  0  0  0  0  0  0  0  0  0  0  0
   88.1470   97.5710  -45.5100 N   0  0  0  0  0  0  0  0  0  0  0  0
   86.9850   97.6410  -46.0840 O   0  0  0  0  0  0  0  0  0  0  0  0
   86.2620   98.5440  -45.5250 N   0  0  0  0  0  0  0  0  0  0  0  0
   86.9810   99.0940  -44.5380 C   0  0  0  0  0  0  0  0  0  0  0  0
   86.7240  100.0930  -43.6250 C   0  0  0  0  0  0  0  0  0  0  0  0
   87.6900  100.4450  -42.7190 C   0  0  0  0  0  3  0  0  0  0  0  0
   88.9200   99.8160  -42.7010 C   0  0  0  0  0  3  0  0  0  0  0  0
   90.3350   98.0210  -43.6820 N   0  0  0  0  0  0  0  0  0  0  0  0
   91.4280   97.2630  -43.7510 C   0  0  0  0  0  0  0  0  0  0  0  0
   92.5320   97.6310  -44.3270 O   0  0  0  0  0  0  0  0  0  0  0  0
   90.8930   98.9310  -44.5270 H   0  0  0  0  0  0  0  0  0  0  0  0
   91.5780   95.8890  -43.1980 C   0  0  0  0  0  0  0  0  0  0  0  0
   91.4580   94.7260  -43.9270 C   0  0  0  0  0  0  0  0  0  0  0  0
   90.9690   94.5720  -45.9920 I   0  0  0  0  0  0  0  0  0  0  0  0
   91.7170   93.6790  -43.0770 C   0  0  0  0  0  3  0  0  0  0  0  0
   91.9800   94.2200  -41.8900 N   0  0  0  0  0  0  0  0  0  0  0  0
   91.9020   95.5440  -41.9490 N   0  0  0  0  0  0  0  0  0  0  0  0
   92.1910   96.4200  -40.7990 C   0  0  0  0  0  1  0  0  0  0  0  0
   85.4690  100.7200  -43.6690 N   0  0  0  0  0  0  0  0  0  0  0  0
   85.1970  101.8860  -44.5100 C   0  0  0  0  0  2  0  0  0  0  0  0
   84.8520  102.9900  -43.5310 C   0  0  0  0  0  2  0  0  0  0  0  0
   84.8560  102.5820  -42.2070 O   0  0  0  0  0  0  0  0  0  0  0  0
   84.0770  101.4790  -41.9280 C   0  0  0  0  0  2  0  0  0  0  0  0
   84.2840  100.3540  -42.9270 C   0  0  0  0  0  2  0  0  0  0  0  0
  1  9  2  0  0  0  0
  2  1  1  0  0  0  0
  3  2  2  0  0  0  0
  4  5  1  0  0  0  0
  4  3  1  0  0  0  0
  5  6  2  0  0  0  0
  6  2  1  0  0  0  0
  6  7  1  0  0  0  0
  7  8  2  0  0  0  0
  8  9  1  0  0  0  0
 10  1  1  0  0  0  0
 11 10  1  0  0  0  0
 11 14  1  0  0  0  0
 12 11  2  0  0  0  0
 13 10  1  0  0  0  0
 14 19  1  0  0  0  0
 15 14  2  0  0  0  0
 15 17  1  0  0  0  0
 16 15  1  0  0  0  0
 17 18  2  0  0  0  0
 19 18  1  0  0  0  0
 19 20  1  0  0  0  0
 21  7  1  0  0  0  0
 21 26  1  0  0  0  0
 22 21  1  0  0  0  0
 22 23  1  0  0  0  0
 23 24  1  0  0  0  0
 24 25  1  0  0  0  0
 26 25  1  0  0  0  0
M  END
>  <Pose>
1

>  <Score>
-5.546

$$$$
