/Users/jonathanwahrer/Desktop/Msc/3_Semester/Drug_Design_Praktikum/waehrer_HTS_screening/HTS_experiment/out/docking_results/vina_output/4agl/0920_docked.pdbqt
 OpenBabel03202223503D

 24 27  0  0  1  0  0  0  0  0999 V2000
   91.7300   98.8190  -42.9840 N   0  0  0  0  0  0  0  0  0  0  0  0
   91.7480   97.5420  -42.7570 C   0  0  1  0  0  3  0  0  0  0  0  0
   91.9080   96.3680  -41.4020 S   0  0  0  0  0  0  0  0  0  0  0  0
   91.7650   94.9450  -42.4580 C   0  0  0  0  0  3  0  0  0  0  0  0
   91.6100   95.3520  -43.6990 C   0  0  0  0  0  0  0  0  0  0  0  0
   91.5950   96.7540  -43.8990 N   0  0  0  0  0  0  0  0  0  0  0  0
   91.4520   97.6990  -45.0360 C   0  0  0  0  0  3  0  0  0  0  0  0
   91.6060   99.0370  -44.3990 C   0  0  0  0  0  3  0  0  0  0  0  0
   91.8580   99.8310  -42.0050 C   0  0  0  0  0  2  0  0  0  0  0  0
   90.8730  100.8700  -41.8530 C   0  0  2  0  0  3  0  0  0  0  0  0
   91.3110  101.8820  -41.1520 O   0  0  0  0  0  1  0  0  0  0  0  0
   89.5190  101.0200  -42.3100 C   0  0  0  0  0  0  0  0  0  0  0  0
   88.6580   99.9710  -42.4200 C   0  0  0  0  0  3  0  0  0  0  0  0
   87.3790  100.1460  -42.8750 C   0  0  0  0  0  3  0  0  0  0  0  0
   86.8800  101.3790  -43.2500 C   0  0  0  0  0  0  0  0  0  0  0  0
   84.9450  101.6970  -43.9490 I   0  0  0  0  0  0  0  0  0  0  0  0
   87.7680  102.4490  -43.1340 C   0  0  0  0  0  3  0  0  0  0  0  0
   89.0330  102.2720  -42.6830 C   0  0  0  0  0  3  0  0  0  0  0  0
   91.4750   94.3120  -44.7620 C   0  0  0  0  0  0  0  0  0  0  0  0
   91.9580   93.0390  -44.6060 C   0  0  0  0  0  3  0  0  0  0  0  0
   91.8200   92.0590  -45.6080 C   0  0  0  0  0  3  0  0  0  0  0  0
   91.1850   92.3630  -46.7900 C   0  0  0  0  0  3  0  0  0  0  0  0
   90.7000   93.6360  -46.9510 C   0  0  0  0  0  3  0  0  0  0  0  0
   90.8400   94.5960  -45.9570 C   0  0  0  0  0  3  0  0  0  0  0  0
  1  2  1  0  0  0  0
  1  9  1  0  0  0  0
  2  3  1  1  0  0  0
  4  3  1  0  0  0  0
  5  4  2  0  0  0  0
  6  5  1  0  0  0  0
  6  2  1  0  0  0  0
  7  8  2  0  0  0  0
  7  6  1  0  0  0  0
  8  1  1  0  0  0  0
  9 10  1  0  0  0  0
 10 11  1  1  0  0  0
 12 10  1  0  0  0  0
 13 12  1  0  0  0  0
 14 13  2  0  0  0  0
 15 17  2  0  0  0  0
 15 14  1  0  0  0  0
 16 15  1  0  0  0  0
 17 18  1  0  0  0  0
 18 12  2  0  0  0  0
 19 20  1  0  0  0  0
 19  5  1  0  0  0  0
 21 20  2  0  0  0  0
 22 21  1  0  0  0  0
 23 22  2  0  0  0  0
 23 24  1  0  0  0  0
 24 19  2  0  0  0  0
M  END
>  <Pose>
1

>  <Score>
-6.259

$$$$
