MODEL 1
REMARK VINA RESULT:    -6.259      0.000      0.000
REMARK INTER + INTRA:          -7.577
REMARK INTER:                  -7.356
REMARK INTRA:                  -0.220
REMARK UNBOUND:                -0.220
REMARK  3 active torsions:
REMARK  status: ('A' for Active; 'I' for Inactive)
REMARK    1  A    between atoms: C_5  and  C_8 
REMARK    2  A    between atoms: C_10  and  N_11 
REMARK    3  A    between atoms: C_15  and  C_19 
ROOT
ATOM      1  N   UNK d   1      91.730  98.819 -42.984  0.00  0.00    -0.353 N 
ATOM      2  C   UNK d   1      91.748  97.542 -42.757  0.00  0.00     0.149 A 
ATOM      3  S   UNK d   1      91.908  96.368 -41.402  0.00  0.00    -0.063 SA
ATOM      4  C   UNK d   1      91.765  94.945 -42.458  0.00  0.00     0.083 A 
ATOM      5  C   UNK d   1      91.610  95.352 -43.699  0.00  0.00     0.053 A 
ATOM      6  N   UNK d   1      91.595  96.754 -43.899  0.00  0.00    -0.325 N 
ATOM      7  C   UNK d   1      91.452  97.699 -45.036  0.00  0.00     0.151 A 
ATOM      8  C   UNK d   1      91.606  99.037 -44.399  0.00  0.00     0.145 A 
ENDROOT
BRANCH   1   9
ATOM      9  C   UNK d   1      91.858  99.831 -42.005  0.00  0.00     0.193 C 
ATOM     10  C   UNK d   1      90.873 100.870 -41.853  0.00  0.00     0.112 C 
ATOM     11  O   UNK d   1      91.311 101.882 -41.152  0.00  0.00    -0.194 OA
BRANCH  10  12
ATOM     12  C   UNK d   1      89.519 101.020 -42.310  0.00  0.00    -0.002 A 
ATOM     13  C   UNK d   1      88.658  99.971 -42.420  0.00  0.00     0.015 A 
ATOM     14  C   UNK d   1      87.379 100.146 -42.875  0.00  0.00     0.019 A 
ATOM     15  C   UNK d   1      86.880 101.379 -43.250  0.00  0.00     0.006 A 
ATOM     16  I   UNK d   1      84.945 101.697 -43.949  0.00  0.00    -0.045 I 
ATOM     17  C   UNK d   1      87.768 102.449 -43.134  0.00  0.00     0.019 A 
ATOM     18  C   UNK d   1      89.033 102.272 -42.683  0.00  0.00     0.015 A 
ENDBRANCH  10  12
ENDBRANCH   1   9
BRANCH   5  19
ATOM     19  C   UNK d   1      91.475  94.312 -44.762  0.00  0.00    -0.009 A 
ATOM     20  C   UNK d   1      91.958  93.039 -44.606  0.00  0.00     0.014 A 
ATOM     21  C   UNK d   1      91.820  92.059 -45.608  0.00  0.00     0.001 A 
ATOM     22  C   UNK d   1      91.185  92.363 -46.790  0.00  0.00     0.000 A 
ATOM     23  C   UNK d   1      90.700  93.636 -46.951  0.00  0.00     0.001 A 
ATOM     24  C   UNK d   1      90.840  94.596 -45.957  0.00  0.00     0.014 A 
ENDBRANCH   5  19
TORSDOF 3
ENDMDL
