/Users/jonathanwahrer/Desktop/Msc/3_Semester/Drug_Design_Praktikum/waehrer_HTS_screening/HTS_experiment/out/docking_results/vina_output/4agl/0935_docked.pdbqt
 OpenBabel03202223503D

 34 38  0  0  1  0  0  0  0  0999 V2000
   91.7450   96.2570  -43.9400 N   0  0  0  0  0  0  0  0  0  0  0  0
   91.9450   97.4740  -44.4750 C   0  0  0  0  0  0  0  0  0  0  0  0
   92.0660   98.6100  -43.7040 C   0  0  2  0  0  3  0  0  0  0  0  0
   91.9710   98.4260  -42.3380 C   0  0  0  0  0  0  0  0  0  0  0  0
   92.0610   99.3680  -41.4940 O   0  0  0  0  0  0  0  0  0  0  0  0
   91.7670   97.1920  -41.7810 N   0  0  0  0  0  0  0  0  0  0  0  0
   91.6580   96.1350  -42.6050 C   0  0  0  0  0  0  0  0  0  0  0  0
   91.4710   94.9820  -42.1400 O   0  0  0  0  0  0  0  0  0  0  0  0
   92.0370   97.6140  -45.8350 O   0  0  0  0  0  0  0  0  0  0  0  0
   91.6960   97.0590  -40.7560 H   0  0  0  0  0  0  0  0  0  0  0  0
   92.2670   99.9570  -44.2070 C   0  0  1  0  0  3  0  0  0  0  0  0
   91.8020  100.2430  -45.5260 N   0  0  0  0  0  4  0  0  0  0  0  0
   90.3770  100.1510  -45.6930 C   0  0  0  0  0  2  0  0  0  0  0  0
   92.1190  101.6800  -45.7420 C   0  0  0  0  0  1  0  0  0  0  0  0
   92.3210   99.8060  -46.3050 H   0  0  0  0  0  0  0  0  0  0  0  0
   89.6280  100.0070  -44.3850 C   0  0  0  0  0  2  0  0  0  0  0  0
   90.2070  100.9890  -43.3950 C   0  0  0  0  0  0  0  0  0  0  0  0
   91.5770  100.9680  -43.3280 C   0  0  0  0  0  0  0  0  0  0  0  0
   89.4650  101.8490  -42.6530 C   0  0  0  0  0  3  0  0  0  0  0  0
   92.2480  101.8300  -42.4940 C   0  0  0  0  0  0  0  0  0  0  0  0
   91.4830  102.7070  -41.7380 C   0  0  0  0  0  0  0  0  0  0  0  0
   90.1050  102.7410  -41.7940 C   0  0  0  0  0  0  0  0  0  0  0  0
   91.8360  103.6980  -40.8090 O   0  0  0  0  0  0  0  0  0  0  0  0
   89.6540  103.7210  -40.9230 O   0  0  0  0  0  0  0  0  0  0  0  0
   90.7190  104.0720  -40.0250 C   0  0  0  0  0  2  0  0  0  0  0  0
   93.6120  101.8030  -42.4350 O   0  0  0  0  0  0  0  0  0  0  0  0
   94.4890  102.8420  -42.7330 C   0  0  0  0  0  1  0  0  0  0  0  0
   91.6210   95.1010  -44.7540 C   0  0  0  0  0  0  0  0  0  0  0  0
   92.3320   93.9380  -44.5070 C   0  0  0  0  0  3  0  0  0  0  0  0
   92.2160   92.8250  -45.2880 C   0  0  0  0  0  3  0  0  0  0  0  0
   91.3590   92.8220  -46.3840 C   0  0  0  0  0  0  0  0  0  0  0  0
   91.1890   91.1030  -47.5770 I   0  0  0  0  0  0  0  0  0  0  0  0
   90.6510   93.9740  -46.6310 C   0  0  0  0  0  3  0  0  0  0  0  0
   90.7630   95.1040  -45.8480 C   0  0  0  0  0  3  0  0  0  0  0  0
  1  7  1  0  0  0  0
  2  1  1  0  0  0  0
  3  2  1  6  0  0  0
  3  4  1  0  0  0  0
  4  6  1  0  0  0  0
  4  5  2  0  0  0  0
  6 10  1  0  0  0  0
  7  8  2  0  0  0  0
  7  6  1  0  0  0  0
  9  2  2  0  0  0  0
 11  3  1  0  0  0  0
 11 18  1  1  0  0  0
 12 11  1  0  0  0  0
 13 12  1  0  0  0  0
 13 16  1  0  0  0  0
 14 12  1  0  0  0  0
 15 12  1  0  0  0  0
 16 17  1  0  0  0  0
 17 18  2  0  0  0  0
 17 19  1  0  0  0  0
 18 20  1  0  0  0  0
 19 22  2  0  0  0  0
 20 26  1  0  0  0  0
 20 21  2  0  0  0  0
 21 23  1  0  0  0  0
 22 21  1  0  0  0  0
 22 24  1  0  0  0  0
 23 25  1  0  0  0  0
 24 25  1  0  0  0  0
 27 26  1  0  0  0  0
 28 29  1  0  0  0  0
 28  1  1  0  0  0  0
 30 29  2  0  0  0  0
 31 30  1  0  0  0  0
 32 31  1  0  0  0  0
 33 31  2  0  0  0  0
 33 34  1  0  0  0  0
 34 28  2  0  0  0  0
M  END
>  <Pose>
1

>  <Score>
-7.058

$$$$
