MODEL 1
REMARK VINA RESULT:    -7.058      0.000      0.000
REMARK INTER + INTRA:          -5.382
REMARK INTER:                  -8.296
REMARK INTRA:                   2.914
REMARK UNBOUND:                 2.914
REMARK  3 active torsions:
REMARK  status: ('A' for Active; 'I' for Inactive)
REMARK    1  A    between atoms: C_5  and  N_8 
REMARK    2  A    between atoms: C_10  and  C_16 
REMARK    3  A    between atoms: C_22  and  O_29 
ROOT
ATOM      1  N   UNK d   1      91.745  96.257 -43.940  0.00  0.00    -0.241 N 
ATOM      2  C   UNK d   1      91.945  97.474 -44.475  0.00  0.00     0.204 A 
ATOM      3  C   UNK d   1      92.066  98.610 -43.704  0.00  0.00     0.100 A 
ATOM      4  C   UNK d   1      91.971  98.426 -42.338  0.00  0.00     0.262 A 
ATOM      5  O   UNK d   1      92.061  99.368 -41.494  0.00  0.00    -0.267 OA
ATOM      6  N   UNK d   1      91.767  97.192 -41.781  0.00  0.00    -0.274 N 
ATOM      7  C   UNK d   1      91.658  96.135 -42.605  0.00  0.00     0.336 A 
ATOM      8  O   UNK d   1      91.471  94.982 -42.140  0.00  0.00    -0.246 OA
ATOM      9  O   UNK d   1      92.037  97.614 -45.835  0.00  0.00    -0.171 OA
ATOM     10  H   UNK d   1      91.696  97.059 -40.756  0.00  0.00     0.173 HD
ENDROOT
BRANCH   3  11
ATOM     11  C   UNK d   1      92.267  99.957 -44.207  0.00  0.00     0.267 C 
ATOM     12  N   UNK d   1      91.802 100.243 -45.526  0.00  0.00    -0.062 N 
ATOM     13  C   UNK d   1      90.377 100.151 -45.693  0.00  0.00     0.240 C 
ATOM     14  C   UNK d   1      92.119 101.680 -45.742  0.00  0.00     0.270 C 
ATOM     15  H   UNK d   1      92.321  99.806 -46.305  0.00  0.00     0.280 HD
ATOM     16  C   UNK d   1      89.628 100.007 -44.385  0.00  0.00     0.067 C 
ATOM     17  C   UNK d   1      90.207 100.989 -43.395  0.00  0.00    -0.042 A 
ATOM     18  C   UNK d   1      91.577 100.968 -43.328  0.00  0.00     0.020 A 
ATOM     19  C   UNK d   1      89.465 101.849 -42.653  0.00  0.00     0.047 A 
ATOM     20  C   UNK d   1      92.248 101.830 -42.494  0.00  0.00     0.113 A 
ATOM     21  C   UNK d   1      91.483 102.707 -41.738  0.00  0.00     0.139 A 
ATOM     22  C   UNK d   1      90.105 102.741 -41.794  0.00  0.00     0.108 A 
ATOM     23  O   UNK d   1      91.836 103.698 -40.809  0.00  0.00    -0.320 OA
ATOM     24  O   UNK d   1      89.654 103.721 -40.923  0.00  0.00    -0.323 OA
ATOM     25  C   UNK d   1      90.719 104.072 -40.025  0.00  0.00     0.352 C 
BRANCH  20  26
ATOM     26  O   UNK d   1      93.612 101.803 -42.435  0.00  0.00    -0.352 OA
ATOM     27  C   UNK d   1      94.489 102.842 -42.733  0.00  0.00     0.210 C 
ENDBRANCH  20  26
ENDBRANCH   3  11
BRANCH   1  28
ATOM     28  C   UNK d   1      91.621  95.101 -44.754  0.00  0.00     0.046 A 
ATOM     29  C   UNK d   1      92.332  93.938 -44.507  0.00  0.00     0.031 A 
ATOM     30  C   UNK d   1      92.216  92.825 -45.288  0.00  0.00     0.020 A 
ATOM     31  C   UNK d   1      91.359  92.822 -46.384  0.00  0.00     0.006 A 
ATOM     32  I   UNK d   1      91.189  91.103 -47.577  0.00  0.00    -0.045 I 
ATOM     33  C   UNK d   1      90.651  93.974 -46.631  0.00  0.00     0.020 A 
ATOM     34  C   UNK d   1      90.763  95.104 -45.848  0.00  0.00     0.031 A 
ENDBRANCH   1  28
TORSDOF 3
ENDMDL
