MODEL 1
REMARK VINA RESULT:    -6.080      0.000      0.000
REMARK INTER + INTRA:          -7.683
REMARK INTER:                  -7.146
REMARK INTRA:                  -0.537
REMARK UNBOUND:                -0.537
REMARK  3 active torsions:
REMARK  status: ('A' for Active; 'I' for Inactive)
REMARK    1  A    between atoms: C_6  and  C_7 
REMARK       I    between atoms: C_7  and  N_9 
REMARK    2  A    between atoms: N_9  and  C_10 
REMARK    3  A    between atoms: C_16  and  N_19 
ROOT
ATOM      1  C   UNK d   1      91.458  97.621 -44.161  0.00  0.00     0.069 A 
ATOM      2  C   UNK d   1      91.962  98.551 -45.076  0.00  0.00     0.146 A 
ATOM      3  N   UNK d   1      92.639  98.391 -46.226  0.00  0.00    -0.101 NA
ATOM      4  O   UNK d   1      92.890  99.567 -46.723  0.00  0.00    -0.106 OA
ATOM      5  N   UNK d   1      92.409 100.493 -45.953  0.00  0.00    -0.101 NA
ATOM      6  C   UNK d   1      91.813  99.901 -44.899  0.00  0.00     0.146 A 
ATOM      7  C   UNK d   1      91.149 100.379 -43.790  0.00  0.00     0.064 A 
ATOM      8  C   UNK d   1      90.659  99.458 -42.899  0.00  0.00     0.034 A 
ATOM      9  C   UNK d   1      90.806  98.075 -43.070  0.00  0.00     0.034 A 
ENDROOT
BRANCH   1  10
ATOM     10  N   UNK d   1      91.670  96.252 -44.446  0.00  0.00    -0.319 N 
ATOM     11  C   UNK d   1      90.920  95.444 -45.289  0.00  0.00     0.278 C 
ATOM     12  O   UNK d   1      89.909  95.931 -45.904  0.00  0.00    -0.265 OA
ATOM     13  H   UNK d   1      92.486  95.761 -43.961  0.00  0.00     0.169 HD
BRANCH  11  14
ATOM     14  C   UNK d   1      91.191  94.019 -45.552  0.00  0.00     0.162 A 
ATOM     15  C   UNK d   1      91.716  93.036 -44.786  0.00  0.00     0.059 A 
ATOM     16  I   UNK d   1      92.449  93.157 -42.839  0.00  0.00    -0.040 I 
ATOM     17  C   UNK d   1      91.709  91.868 -45.549  0.00  0.00     0.132 A 
ATOM     18  N   UNK d   1      91.190  92.150 -46.745  0.00  0.00    -0.283 N 
ATOM     19  N   UNK d   1      90.884  93.418 -46.751  0.00  0.00    -0.166 NA
ATOM     20  C   UNK d   1      91.013  91.178 -47.833  0.00  0.00     0.179 C 
ENDBRANCH  11  14
ENDBRANCH   1  10
BRANCH   7  21
ATOM     21  N   UNK d   1      91.006 101.779 -43.624  0.00  0.00    -0.375 N 
ATOM     22  C   UNK d   1      91.978 102.536 -42.861  0.00  0.00     0.149 C 
ATOM     23  C   UNK d   1      91.625 103.981 -42.923  0.00  0.00     0.187 C 
ATOM     24  O   UNK d   1      91.369 104.449 -44.197  0.00  0.00    -0.388 OA
ATOM     25  C   UNK d   1      90.387 103.792 -44.868  0.00  0.00     0.187 C 
ATOM     26  C   UNK d   1      89.906 102.531 -44.195  0.00  0.00     0.149 C 
ENDBRANCH   7  21
TORSDOF 3
ENDMDL
