/Users/jonathanwahrer/Desktop/Msc/3_Semester/Drug_Design_Praktikum/waehrer_HTS_screening/HTS_experiment/out/docking_results/vina_output/4agl/0950_docked.pdbqt
 OpenBabel03202223513D

 26 29  0  0  0  0  0  0  0  0999 V2000
   91.4580   97.6210  -44.1610 C   0  0  0  0  0  0  0  0  0  0  0  0
   91.9620   98.5510  -45.0760 C   0  0  0  0  0  0  0  0  0  0  0  0
   92.6390   98.3910  -46.2260 N   0  0  0  0  0  0  0  0  0  0  0  0
   92.8900   99.5670  -46.7230 O   0  0  0  0  0  0  0  0  0  0  0  0
   92.4090  100.4930  -45.9530 N   0  0  0  0  0  0  0  0  0  0  0  0
   91.8130   99.9010  -44.8990 C   0  0  0  0  0  0  0  0  0  0  0  0
   91.1490  100.3790  -43.7900 C   0  0  0  0  0  0  0  0  0  0  0  0
   90.6590   99.4580  -42.8990 C   0  0  0  0  0  3  0  0  0  0  0  0
   90.8060   98.0750  -43.0700 C   0  0  0  0  0  3  0  0  0  0  0  0
   91.6700   96.2520  -44.4460 N   0  0  0  0  0  0  0  0  0  0  0  0
   90.9200   95.4440  -45.2890 C   0  0  0  0  0  0  0  0  0  0  0  0
   89.9090   95.9310  -45.9040 O   0  0  0  0  0  0  0  0  0  0  0  0
   92.4860   95.7610  -43.9610 H   0  0  0  0  0  0  0  0  0  0  0  0
   91.1910   94.0190  -45.5520 C   0  0  0  0  0  0  0  0  0  0  0  0
   91.7160   93.0360  -44.7860 C   0  0  0  0  0  0  0  0  0  0  0  0
   92.4490   93.1570  -42.8390 I   0  0  0  0  0  0  0  0  0  0  0  0
   91.7090   91.8680  -45.5490 C   0  0  0  0  0  3  0  0  0  0  0  0
   91.1900   92.1500  -46.7450 N   0  0  0  0  0  0  0  0  0  0  0  0
   90.8840   93.4180  -46.7510 N   0  0  0  0  0  0  0  0  0  0  0  0
   91.0130   91.1780  -47.8330 C   0  0  0  0  0  1  0  0  0  0  0  0
   91.0060  101.7790  -43.6240 N   0  0  0  0  0  0  0  0  0  0  0  0
   91.9780  102.5360  -42.8610 C   0  0  0  0  0  2  0  0  0  0  0  0
   91.6250  103.9810  -42.9230 C   0  0  0  0  0  2  0  0  0  0  0  0
   91.3690  104.4490  -44.1970 O   0  0  0  0  0  0  0  0  0  0  0  0
   90.3870  103.7920  -44.8680 C   0  0  0  0  0  2  0  0  0  0  0  0
   89.9060  102.5310  -44.1950 C   0  0  0  0  0  2  0  0  0  0  0  0
  1  9  2  0  0  0  0
  2  6  1  0  0  0  0
  2  1  1  0  0  0  0
  3  2  2  0  0  0  0
  4  3  1  0  0  0  0
  4  5  1  0  0  0  0
  5  6  2  0  0  0  0
  6  7  1  0  0  0  0
  7 21  1  0  0  0  0
  7  8  2  0  0  0  0
  9  8  1  0  0  0  0
 10  1  1  0  0  0  0
 10 13  1  0  0  0  0
 11 10  1  0  0  0  0
 12 11  2  0  0  0  0
 14 11  1  0  0  0  0
 14 15  1  0  0  0  0
 15 16  1  0  0  0  0
 17 15  2  0  0  0  0
 18 17  1  0  0  0  0
 19 18  1  0  0  0  0
 19 14  2  0  0  0  0
 20 18  1  0  0  0  0
 21 22  1  0  0  0  0
 23 22  1  0  0  0  0
 24 23  1  0  0  0  0
 25 24  1  0  0  0  0
 25 26  1  0  0  0  0
 26 21  1  0  0  0  0
M  END
>  <Pose>
1

>  <Score>
-6.080

$$$$
