MODEL 1
REMARK VINA RESULT:    -5.847      0.000      0.000
REMARK INTER + INTRA:          -8.321
REMARK INTER:                  -7.557
REMARK INTRA:                  -0.764
REMARK UNBOUND:                -0.764
REMARK  6 active torsions:
REMARK  status: ('A' for Active; 'I' for Inactive)
REMARK    1  A    between atoms: N_5  and  C_7 
REMARK    2  A    between atoms: C_9  and  C_13 
REMARK    3  A    between atoms: C_10  and  O_12 
REMARK    4  A    between atoms: C_13  and  O_14 
REMARK    5  A    between atoms: C_18  and  N_19 
REMARK       I    between atoms: N_19  and  C_20 
REMARK    6  A    between atoms: C_20  and  C_22 
ROOT
ATOM      1  I   UNK d   1      92.028  96.183 -41.603  0.00  0.00    -0.042 I 
ATOM      2  C   UNK d   1      91.909  98.226 -42.110  0.00  0.00     0.040 A 
ATOM      3  C   UNK d   1      91.384  98.745 -43.256  0.00  0.00     0.074 A 
ATOM      4  C   UNK d   1      91.538 100.125 -43.117  0.00  0.00     0.148 A 
ATOM      5  N   UNK d   1      92.118 100.443 -41.959  0.00  0.00    -0.312 N 
ATOM      6  C   UNK d   1      92.349  99.287 -41.337  0.00  0.00     0.114 A 
ATOM      7  N   UNK d   1      91.098 100.904 -44.119  0.00  0.00    -0.223 NA
ATOM      8  C   UNK d   1      90.534 100.373 -45.215  0.00  0.00     0.237 A 
ATOM      9  N   UNK d   1      90.389  99.051 -45.345  0.00  0.00    -0.223 NA
ATOM     10  C   UNK d   1      90.808  98.183 -44.372  0.00  0.00     0.147 A 
ENDROOT
BRANCH   5  11
ATOM     11  C   UNK d   1      92.448 101.739 -41.446  0.00  0.00     0.232 C 
ATOM     12  O   UNK d   1      93.805 101.917 -41.207  0.00  0.00    -0.356 OA
ATOM     13  C   UNK d   1      93.840 103.169 -40.600  0.00  0.00     0.176 C 
ATOM     14  C   UNK d   1      92.654 103.239 -39.666  0.00  0.00     0.153 C 
ATOM     15  C   UNK d   1      91.878 101.972 -40.044  0.00  0.00     0.088 C 
BRANCH  13  16
ATOM     16  C   UNK d   1      95.090 103.287 -39.717  0.00  0.00     0.198 C 
BRANCH  16  17
ATOM     17  O   UNK d   1      96.023 102.325 -40.128  0.00  0.00    -0.398 OA
ATOM     18  H   UNK d   1      96.553 101.983 -39.340  0.00  0.00     0.209 HD
ENDBRANCH  16  17
ENDBRANCH  13  16
BRANCH  14  19
ATOM     19  O   UNK d   1      91.817 104.313 -39.972  0.00  0.00    -0.393 OA
ATOM     20  H   UNK d   1      92.101 105.055 -39.353  0.00  0.00     0.210 HD
ENDBRANCH  14  19
ENDBRANCH   5  11
BRANCH  10  21
ATOM     21  N   UNK d   1      90.628  96.784 -44.565  0.00  0.00    -0.306 N 
ATOM     22  C   UNK d   1      91.605  96.067 -45.313  0.00  0.00     0.257 C 
ATOM     23  O   UNK d   1      92.581  96.721 -45.762  0.00  0.00    -0.267 OA
ATOM     24  H   UNK d   1      89.844  96.229 -44.210  0.00  0.00     0.170 HD
BRANCH  22  25
ATOM     25  C   UNK d   1      91.547  94.657 -45.582  0.00  0.00     0.032 A 
ATOM     26  C   UNK d   1      92.119  93.748 -44.736  0.00  0.00     0.017 A 
ATOM     27  C   UNK d   1      92.068  92.374 -44.982  0.00  0.00     0.001 A 
ATOM     28  C   UNK d   1      91.431  91.916 -46.097  0.00  0.00     0.000 A 
ATOM     29  C   UNK d   1      90.848  92.804 -46.964  0.00  0.00     0.001 A 
ATOM     30  C   UNK d   1      90.911  94.177 -46.698  0.00  0.00     0.017 A 
ENDBRANCH  22  25
ENDBRANCH  10  21
TORSDOF 6
ENDMDL
