/Users/jonathanwahrer/Desktop/Msc/3_Semester/Drug_Design_Praktikum/waehrer_HTS_screening/HTS_experiment/out/docking_results/vina_output/4agl/0956_docked.pdbqt
 OpenBabel03202223513D

 30 33  0  0  1  0  0  0  0  0999 V2000
   92.0280   96.1830  -41.6030 I   0  0  0  0  0  0  0  0  0  0  0  0
   91.9090   98.2260  -42.1100 C   0  0  0  0  0  0  0  0  0  0  0  0
   91.3840   98.7450  -43.2560 C   0  0  0  0  0  0  0  0  0  0  0  0
   91.5380  100.1250  -43.1170 C   0  0  0  0  0  0  0  0  0  0  0  0
   92.1180  100.4430  -41.9590 N   0  0  0  0  0  0  0  0  0  0  0  0
   92.3490   99.2870  -41.3370 C   0  0  0  0  0  3  0  0  0  0  0  0
   91.0980  100.9040  -44.1190 N   0  0  0  0  0  0  0  0  0  0  0  0
   90.5340  100.3730  -45.2150 C   0  0  0  0  0  3  0  0  0  0  0  0
   90.3890   99.0510  -45.3450 N   0  0  0  0  0  0  0  0  0  0  0  0
   90.8080   98.1830  -44.3720 C   0  0  0  0  0  0  0  0  0  0  0  0
   92.4480  101.7390  -41.4460 C   0  0  2  0  0  3  0  0  0  0  0  0
   93.8050  101.9170  -41.2070 O   0  0  0  0  0  0  0  0  0  0  0  0
   93.8400  103.1690  -40.6000 C   0  0  1  0  0  3  0  0  0  0  0  0
   92.6540  103.2390  -39.6660 C   0  0  2  0  0  3  0  0  0  0  0  0
   91.8780  101.9720  -40.0440 C   0  0  0  0  0  2  0  0  0  0  0  0
   95.0900  103.2870  -39.7170 C   0  0  0  0  0  2  0  0  0  0  0  0
   96.0230  102.3250  -40.1280 O   0  0  0  0  0  0  0  0  0  0  0  0
   96.5530  101.9830  -39.3400 H   0  0  0  0  0  0  0  0  0  0  0  0
   91.8170  104.3130  -39.9720 O   0  0  0  0  0  0  0  0  0  0  0  0
   92.1010  105.0550  -39.3530 H   0  0  0  0  0  0  0  0  0  0  0  0
   90.6280   96.7840  -44.5650 N   0  0  0  0  0  0  0  0  0  0  0  0
   91.6050   96.0670  -45.3130 C   0  0  0  0  0  0  0  0  0  0  0  0
   92.5810   96.7210  -45.7620 O   0  0  0  0  0  0  0  0  0  0  0  0
   89.8440   96.2290  -44.2100 H   0  0  0  0  0  0  0  0  0  0  0  0
   91.5470   94.6570  -45.5820 C   0  0  0  0  0  0  0  0  0  0  0  0
   92.1190   93.7480  -44.7360 C   0  0  0  0  0  3  0  0  0  0  0  0
   92.0680   92.3740  -44.9820 C   0  0  0  0  0  3  0  0  0  0  0  0
   91.4310   91.9160  -46.0970 C   0  0  0  0  0  3  0  0  0  0  0  0
   90.8480   92.8040  -46.9640 C   0  0  0  0  0  3  0  0  0  0  0  0
   90.9110   94.1770  -46.6980 C   0  0  0  0  0  3  0  0  0  0  0  0
  2  1  1  0  0  0  0
  2  6  2  0  0  0  0
  3  4  1  0  0  0  0
  3  2  1  0  0  0  0
  4  5  1  0  0  0  0
  5  6  1  0  0  0  0
  7  4  2  0  0  0  0
  8  7  1  0  0  0  0
  9  8  2  0  0  0  0
  9 10  1  0  0  0  0
 10  3  2  0  0  0  0
 11  5  1  1  0  0  0
 11 12  1  0  0  0  0
 11 15  1  0  0  0  0
 12 13  1  0  0  0  0
 13 16  1  1  0  0  0
 13 14  1  0  0  0  0
 14 19  1  6  0  0  0
 15 14  1  0  0  0  0
 17 16  1  0  0  0  0
 17 18  1  0  0  0  0
 19 20  1  0  0  0  0
 21 10  1  0  0  0  0
 21 24  1  0  0  0  0
 22 21  1  0  0  0  0
 23 22  2  0  0  0  0
 25 22  1  0  0  0  0
 25 26  1  0  0  0  0
 27 26  2  0  0  0  0
 28 27  1  0  0  0  0
 29 30  1  0  0  0  0
 29 28  2  0  0  0  0
 30 25  2  0  0  0  0
M  END
>  <Pose>
1

>  <Score>
-5.847

$$$$
