/Users/jonathanwahrer/Desktop/Msc/3_Semester/Drug_Design_Praktikum/waehrer_HTS_screening/HTS_experiment/out/docking_results/vina_output/4agl/0961_docked.pdbqt
 OpenBabel03202223513D

 29 33  0  0  1  0  0  0  0  0999 V2000
   89.4540   99.7640  -43.9880 C   0  0  1  0  0  3  0  0  0  0  0  0
   88.5960  100.1770  -44.8900 N   0  0  0  0  0  0  0  0  0  0  0  0
   88.2630  101.5010  -44.9590 C   0  0  0  0  0  3  0  0  0  0  0  0
   88.7750  102.4550  -44.1350 C   0  0  0  0  0  3  0  0  0  0  0  0
   89.6820  102.0600  -43.1760 C   0  0  0  0  0  0  0  0  0  0  0  0
   90.3920  102.7150  -42.1930 N   0  0  0  0  0  0  0  0  0  0  0  0
   91.1370  101.8440  -41.5350 C   0  0  0  0  0  0  0  0  0  0  0  0
   90.8930  100.6340  -42.1090 N   0  0  0  0  0  0  0  0  0  0  0  0
   90.0110  100.7370  -43.1100 C   0  0  0  0  0  0  0  0  0  0  0  0
   90.2640  104.1360  -42.0370 C   0  0  0  0  0  1  0  0  0  0  0  0
   88.0350   99.2990  -45.8740 C   0  0  0  0  0  1  0  0  0  0  0  0
   89.8370   98.3910  -43.7140 C   0  0  0  0  0  3  0  0  0  0  0  0
   90.8190   97.6690  -44.1230 C   0  0  0  0  0  3  0  0  0  0  0  0
   91.2070   96.3050  -43.8440 C   0  0  0  0  0  0  0  0  0  0  0  0
   91.1080   95.2440  -44.6810 C   0  0  0  0  0  0  0  0  0  0  0  0
   90.2540   95.4230  -46.3750 Br  0  0  0  0  0  0  0  0  0  0  0  0
   91.5810   93.9560  -44.3240 C   0  0  0  0  0  3  0  0  0  0  0  0
   92.1620   93.7400  -43.1040 C   0  0  0  0  0  0  0  0  0  0  0  0
   92.2750   94.8000  -42.2310 C   0  0  0  0  0  0  0  0  0  0  0  0
   92.7160   92.6290  -42.4600 O   0  0  0  0  0  0  0  0  0  0  0  0
   91.8120   96.0460  -42.5880 C   0  0  0  0  0  3  0  0  0  0  0  0
   92.8960   94.3130  -41.0690 O   0  0  0  0  0  0  0  0  0  0  0  0
   93.5910   93.1450  -41.4570 C   0  0  0  0  0  2  0  0  0  0  0  0
   92.0710  102.0690  -40.4250 C   0  0  0  0  0  0  0  0  0  0  0  0
   91.7540  102.6490  -39.2410 C   0  0  0  0  0  3  0  0  0  0  0  0
   92.7440  102.8390  -38.2590 C   0  0  0  0  0  3  0  0  0  0  0  0
   94.0400  102.4370  -38.4920 C   0  0  0  0  0  3  0  0  0  0  0  0
   94.3900  101.8400  -39.6960 C   0  0  0  0  0  3  0  0  0  0  0  0
   93.4060  101.6760  -40.6140 C   0  0  0  0  0  3  0  0  0  0  0  0
  1 12  1  1  0  0  0
  1  9  1  0  0  0  0
  2  1  1  0  0  0  0
  3  2  1  0  0  0  0
  3  4  2  0  0  0  0
  4  5  1  0  0  0  0
  5  9  2  0  0  0  0
  5  6  1  0  0  0  0
  6 10  1  0  0  0  0
  6  7  1  0  0  0  0
  7 24  1  0  0  0  0
  8  7  2  0  0  0  0
  9  8  1  0  0  0  0
 11  2  1  0  0  0  0
 13 14  1  0  0  0  0
 13 12  2  0  0  0  0
 14 21  1  0  0  0  0
 15 17  1  0  0  0  0
 15 14  2  0  0  0  0
 16 15  1  0  0  0  0
 17 18  2  0  0  0  0
 18 20  1  0  0  0  0
 18 19  1  0  0  0  0
 19 22  1  0  0  0  0
 20 23  1  0  0  0  0
 21 19  2  0  0  0  0
 23 22  1  0  0  0  0
 24 25  1  0  0  0  0
 25 26  2  0  0  0  0
 27 26  1  0  0  0  0
 28 27  2  0  0  0  0
 29 24  2  0  0  0  0
 29 28  1  0  0  0  0
M  END
>  <Pose>
1

>  <Score>
-6.586

$$$$
