MODEL 1
REMARK VINA RESULT:    -6.586      0.000      0.000
REMARK INTER + INTRA:          -8.416
REMARK INTER:                  -7.741
REMARK INTRA:                  -0.676
REMARK UNBOUND:                -0.676
REMARK  3 active torsions:
REMARK  status: ('A' for Active; 'I' for Inactive)
REMARK    1  A    between atoms: C_7  and  C_8 
REMARK    2  A    between atoms: C_9  and  C_10 
REMARK    3  A    between atoms: C_16  and  C_19 
ROOT
ATOM      1  C   UNK d   1      89.454  99.764 -43.988  0.00  0.00     0.065 A 
ATOM      2  N   UNK d   1      88.596 100.177 -44.890  0.00  0.00    -0.359 N 
ATOM      3  C   UNK d   1      88.263 101.501 -44.959  0.00  0.00     0.093 A 
ATOM      4  C   UNK d   1      88.775 102.455 -44.135  0.00  0.00     0.049 A 
ATOM      5  C   UNK d   1      89.682 102.060 -43.176  0.00  0.00     0.068 A 
ATOM      6  N   UNK d   1      90.392 102.715 -42.193  0.00  0.00    -0.333 N 
ATOM      7  C   UNK d   1      91.137 101.844 -41.535  0.00  0.00     0.141 A 
ATOM      8  N   UNK d   1      90.893 100.634 -42.109  0.00  0.00    -0.226 NA
ATOM      9  C   UNK d   1      90.011 100.737 -43.110  0.00  0.00     0.113 A 
ATOM     10  C   UNK d   1      90.264 104.136 -42.037  0.00  0.00     0.158 C 
ATOM     11  C   UNK d   1      88.035  99.299 -45.874  0.00  0.00     0.156 C 
ENDROOT
BRANCH   1  12
ATOM     12  C   UNK d   1      89.837  98.391 -43.714  0.00  0.00     0.033 C 
ATOM     13  C   UNK d   1      90.819  97.669 -44.123  0.00  0.00     0.015 C 
BRANCH  13  14
ATOM     14  C   UNK d   1      91.207  96.305 -43.844  0.00  0.00    -0.016 A 
ATOM     15  C   UNK d   1      91.108  95.244 -44.681  0.00  0.00     0.024 A 
ATOM     16 Br   UNK d   1      90.254  95.423 -46.375  0.00  0.00    -0.050 Br
ATOM     17  C   UNK d   1      91.581  93.956 -44.324  0.00  0.00     0.059 A 
ATOM     18  C   UNK d   1      92.162  93.740 -43.104  0.00  0.00     0.106 A 
ATOM     19  C   UNK d   1      92.275  94.800 -42.231  0.00  0.00     0.105 A 
ATOM     20  O   UNK d   1      92.716  92.629 -42.460  0.00  0.00    -0.323 OA
ATOM     21  C   UNK d   1      91.812  96.046 -42.588  0.00  0.00     0.052 A 
ATOM     22  O   UNK d   1      92.896  94.313 -41.069  0.00  0.00    -0.323 OA
ATOM     23  C   UNK d   1      93.591  93.145 -41.457  0.00  0.00     0.352 C 
ENDBRANCH  13  14
ENDBRANCH   1  12
BRANCH   7  24
ATOM     24  C   UNK d   1      92.071 102.069 -40.425  0.00  0.00     0.010 A 
ATOM     25  C   UNK d   1      91.754 102.649 -39.241  0.00  0.00     0.015 A 
ATOM     26  C   UNK d   1      92.744 102.839 -38.259  0.00  0.00     0.001 A 
ATOM     27  C   UNK d   1      94.040 102.437 -38.492  0.00  0.00     0.000 A 
ATOM     28  C   UNK d   1      94.390 101.840 -39.696  0.00  0.00     0.001 A 
ATOM     29  C   UNK d   1      93.406 101.676 -40.614  0.00  0.00     0.015 A 
ENDBRANCH   7  24
TORSDOF 3
ENDMDL
