MODEL 1
REMARK VINA RESULT:    -5.947      0.000      0.000
REMARK INTER + INTRA:          -7.697
REMARK INTER:                  -6.642
REMARK INTRA:                  -1.056
REMARK UNBOUND:                -1.056
REMARK  2 active torsions:
REMARK  status: ('A' for Active; 'I' for Inactive)
REMARK    1  A    between atoms: C_10  and  C_21 
REMARK    2  A    between atoms: C_26  and  C_27 
ROOT
ATOM      1 Br   UNK d   1      91.456  92.522 -46.240  0.00  0.00    -0.045 Br
ATOM      2  C   UNK d   1      91.083  94.255 -45.553  0.00  0.00     0.083 A 
ATOM      3  C   UNK d   1      90.305  95.193 -46.225  0.00  0.00     0.107 A 
ATOM      4  C   UNK d   1      90.064  96.444 -45.681  0.00  0.00     0.013 A 
ATOM      5  C   UNK d   1      90.598  96.779 -44.454  0.00  0.00     0.037 A 
ATOM      6  C   UNK d   1      91.363  95.863 -43.786  0.00  0.00     0.049 A 
ATOM      7  C   UNK d   1      91.598  94.626 -44.331  0.00  0.00     0.144 A 
ATOM      8  O   UNK d   1      92.394  93.737 -43.585  0.00  0.00    -0.189 OA
ATOM      9 Br   UNK d   1      92.073  96.392 -42.083  0.00  0.00    -0.048 Br
ATOM     10  C   UNK d   1      89.298  97.391 -46.326  0.00  0.00     0.003 A 
ATOM     11  C   UNK d   1      88.767  97.048 -47.552  0.00  0.00     0.013 A 
ATOM     12  C   UNK d   1      89.075  95.702 -48.052  0.00  0.00     0.108 A 
ATOM     13  C   UNK d   1      88.532  95.371 -49.294  0.00  0.00     0.097 A 
ATOM     14  C   UNK d   1      87.758  96.274 -49.985  0.00  0.00     0.209 A 
ATOM     15  O   UNK d   1      87.290  95.931 -51.100  0.00  0.00    -0.285 OA
ATOM     16  C   UNK d   1      87.485  97.543 -49.484  0.00  0.00     0.063 A 
ATOM     17  C   UNK d   1      87.984  97.933 -48.275  0.00  0.00     0.038 A 
ATOM     18 Br   UNK d   1      86.400  98.735 -50.511  0.00  0.00    -0.047 Br
ATOM     19 Br   UNK d   1      88.895  93.625 -50.011  0.00  0.00    -0.044 Br
ATOM     20  O   UNK d   1      89.814  94.846 -47.387  0.00  0.00    -0.306 OA
ENDROOT
BRANCH  10  21
ATOM     21  C   UNK d   1      89.051  98.715 -45.753  0.00  0.00     0.016 A 
ATOM     22  C   UNK d   1      87.935  98.947 -44.971  0.00  0.00     0.046 A 
ATOM     23  C   UNK d   1      87.677 100.186 -44.425  0.00  0.00     0.026 A 
ATOM     24 Cl   UNK d   1      86.814  97.615 -44.667  0.00  0.00    -0.083 Cl
ATOM     25  C   UNK d   1      88.564 101.213 -44.672  0.00  0.00     0.026 A 
ATOM     26  C   UNK d   1      89.676 101.028 -45.436  0.00  0.00     0.052 A 
ATOM     27  C   UNK d   1      89.917  99.784 -45.974  0.00  0.00     0.075 A 
ATOM     28 Cl   UNK d   1      90.753 102.391 -45.699  0.00  0.00    -0.083 Cl
BRANCH  27  29
ATOM     29  C   UNK d   1      91.090  99.580 -46.790  0.00  0.00     0.212 C 
ATOM     30  O   UNK d   1      92.200  99.234 -46.301  0.00  0.00    -0.644 OA
ATOM     31  O   UNK d   1      91.029  99.764 -48.170  0.00  0.00    -0.644 OA
ENDBRANCH  27  29
ENDBRANCH  10  21
TORSDOF 2
ENDMDL
