MODEL 1
REMARK VINA RESULT:    -6.539      0.000      0.000
REMARK INTER + INTRA:          -6.539
REMARK INTER:                  -6.539
REMARK INTRA:                   0.000
REMARK UNBOUND:                 0.000
REMARK  0 active torsions:
REMARK  status: ('A' for Active; 'I' for Inactive)
ROOT
ATOM      1 Br   UNK d   1      92.191  96.601 -40.801  0.00  0.00    -0.045 Br
ATOM      2  C   UNK d   1      91.895  96.805 -42.674  0.00  0.00     0.083 A 
ATOM      3  C   UNK d   1      91.924  98.071 -43.288  0.00  0.00     0.106 A 
ATOM      4  C   UNK d   1      91.717  98.259 -44.623  0.00  0.00     0.023 A 
ATOM      5  C   UNK d   1      91.466  97.127 -45.402  0.00  0.00     0.036 A 
ATOM      6  C   UNK d   1      91.438  95.901 -44.807  0.00  0.00     0.049 A 
ATOM      7  C   UNK d   1      91.647  95.704 -43.457  0.00  0.00     0.144 A 
ATOM      8  O   UNK d   1      91.603  94.410 -42.912  0.00  0.00    -0.189 OA
ATOM      9 Br   UNK d   1      91.096  94.350 -45.864  0.00  0.00    -0.048 Br
ATOM     10  C   UNK d   1      91.754  99.582 -45.230  0.00  0.00     0.159 A 
ATOM     11  O   UNK d   1      92.839  99.575 -46.156  0.00  0.00    -0.291 OA
ATOM     12  C   UNK d   1      92.423  99.811 -47.438  0.00  0.00     0.295 A 
ATOM     13  O   UNK d   1      93.162  99.860 -48.447  0.00  0.00    -0.259 OA
ATOM     14  C   UNK d   1      90.985  99.985 -47.364  0.00  0.00     0.049 A 
ATOM     15  C   UNK d   1      90.549  99.855 -46.065  0.00  0.00     0.003 A 
ATOM     16  C   UNK d   1      89.223  99.991 -45.818  0.00  0.00     0.012 A 
ATOM     17  C   UNK d   1      88.351 100.250 -46.855  0.00  0.00     0.001 A 
ATOM     18  C   UNK d   1      88.783 100.380 -48.158  0.00  0.00     0.001 A 
ATOM     19  C   UNK d   1      90.121 100.246 -48.423  0.00  0.00     0.018 A 
ATOM     20  C   UNK d   1      92.027 100.658 -44.282  0.00  0.00     0.023 A 
ATOM     21  C   UNK d   1      92.227 100.406 -42.953  0.00  0.00     0.106 A 
ATOM     22  C   UNK d   1      92.490 101.458 -42.052  0.00  0.00     0.083 A 
ATOM     23  C   UNK d   1      92.544 102.745 -42.534  0.00  0.00     0.144 A 
ATOM     24  C   UNK d   1      92.343 103.008 -43.881  0.00  0.00     0.049 A 
ATOM     25  C   UNK d   1      92.088 101.984 -44.749  0.00  0.00     0.036 A 
ATOM     26 Br   UNK d   1      92.414 104.786 -44.563  0.00  0.00    -0.048 Br
ATOM     27  O   UNK d   1      92.804 103.770 -41.637  0.00  0.00    -0.189 OA
ATOM     28 Br   UNK d   1      92.763 101.066 -40.200  0.00  0.00    -0.045 Br
ATOM     29  O   UNK d   1      92.184  99.128 -42.413  0.00  0.00    -0.306 OA
ENDROOT
TORSDOF 0
ENDMDL
