MODEL 1
REMARK VINA RESULT:    -5.921      0.000      0.000
REMARK INTER + INTRA:          -5.921
REMARK INTER:                  -5.921
REMARK INTRA:                   0.000
REMARK UNBOUND:                 0.000
REMARK  0 active torsions:
REMARK  status: ('A' for Active; 'I' for Inactive)
ROOT
ATOM      1  I   UNK d   1      90.253 104.165 -43.452  0.00  0.00    -0.038 I 
ATOM      2  C   UNK d   1      89.386 102.879 -44.885  0.00  0.00     0.078 A 
ATOM      3  C   UNK d   1      89.660 101.520 -44.767  0.00  0.00     0.105 A 
ATOM      4  C   UNK d   1      89.117 100.670 -45.674  0.00  0.00     0.023 A 
ATOM      5  C   UNK d   1      88.306 101.184 -46.689  0.00  0.00     0.035 A 
ATOM      6  C   UNK d   1      88.029 102.528 -46.813  0.00  0.00     0.045 A 
ATOM      7  C   UNK d   1      88.585 103.387 -45.887  0.00  0.00     0.143 A 
ATOM      8  O   UNK d   1      88.320 104.744 -45.994  0.00  0.00    -0.189 OA
ATOM      9  I   UNK d   1      86.793 103.259 -48.372  0.00  0.00    -0.042 I 
ATOM     10  C   UNK d   1      89.338  99.236 -45.643  0.00  0.00     0.161 A 
ATOM     11  O   UNK d   1      89.952  98.775 -46.856  0.00  0.00    -0.291 OA
ATOM     12  C   UNK d   1      89.198  97.823 -47.489  0.00  0.00     0.297 A 
ATOM     13  O   UNK d   1      89.422  97.200 -48.566  0.00  0.00    -0.259 OA
ATOM     14  C   UNK d   1      88.014  97.628 -46.664  0.00  0.00     0.074 A 
ATOM     15  C   UNK d   1      88.093  98.453 -45.584  0.00  0.00     0.028 A 
ATOM     16  C   UNK d   1      87.077  98.463 -44.628  0.00  0.00     0.068 A 
ATOM     17  C   UNK d   1      85.975  97.643 -44.753  0.00  0.00     0.080 A 
ATOM     18  C   UNK d   1      85.897  96.801 -45.858  0.00  0.00     0.080 A 
ATOM     19  C   UNK d   1      86.895  96.788 -46.800  0.00  0.00     0.074 A 
ATOM     20 Cl   UNK d   1      86.783  95.739 -48.162  0.00  0.00    -0.081 Cl
ATOM     21 Cl   UNK d   1      84.532  95.740 -46.074  0.00  0.00    -0.081 Cl
ATOM     22 Cl   UNK d   1      84.721  97.681 -43.536  0.00  0.00    -0.081 Cl
ATOM     23 Cl   UNK d   1      87.241  99.537 -43.279  0.00  0.00    -0.082 Cl
ATOM     24  C   UNK d   1      90.217  98.830 -44.513  0.00  0.00     0.023 A 
ATOM     25  C   UNK d   1      90.742  99.706 -43.627  0.00  0.00     0.105 A 
ATOM     26  C   UNK d   1      91.551  99.192 -42.615  0.00  0.00     0.078 A 
ATOM     27  C   UNK d   1      91.828  97.849 -42.490  0.00  0.00     0.143 A 
ATOM     28  C   UNK d   1      91.275  96.984 -43.413  0.00  0.00     0.045 A 
ATOM     29  C   UNK d   1      90.475  97.456 -44.422  0.00  0.00     0.035 A 
ATOM     30  I   UNK d   1      91.680  94.924 -43.248  0.00  0.00    -0.042 I 
ATOM     31  O   UNK d   1      92.623  97.342 -41.495  0.00  0.00    -0.189 OA
ATOM     32  I   UNK d   1      92.371 100.541 -41.233  0.00  0.00    -0.038 I 
ATOM     33  O   UNK d   1      90.486 101.062 -43.721  0.00  0.00    -0.307 OA
ENDROOT
TORSDOF 0
ENDMDL
