/Users/jonathanwahrer/Desktop/Msc/3_Semester/Drug_Design_Praktikum/waehrer_HTS_screening/HTS_experiment/out/docking_results/vina_output/4agl/0979_docked.pdbqt
 OpenBabel03202223513D

 29 33  0  0  1  0  0  0  0  0999 V2000
   91.2960  104.1570  -43.8480 I   0  0  0  0  0  0  0  0  0  0  0  0
   90.3360  102.7260  -45.0810 C   0  0  0  0  0  0  0  0  0  0  0  0
   90.4710  101.3820  -44.6930 C   0  0  0  0  0  0  0  0  0  0  0  0
   89.8640  100.4450  -45.4670 C   0  0  0  0  0  0  0  0  0  0  0  0
   89.1420  100.8540  -46.6030 C   0  0  0  0  0  3  0  0  0  0  0  0
   89.0110  102.1650  -46.9790 C   0  0  0  0  0  0  0  0  0  0  0  0
   89.6260  103.1150  -46.1930 C   0  0  0  0  0  0  0  0  0  0  0  0
   89.5150  104.4520  -46.5460 O   0  0  0  0  0  1  0  0  0  0  0  0
   87.9060  102.7110  -48.7040 I   0  0  0  0  0  0  0  0  0  0  0  0
   89.9460   99.0150  -45.1460 C   0  0  2  0  0  0  0  0  0  0  0  0
   90.4040   98.2540  -46.2470 O   0  0  0  0  0  0  0  0  0  0  0  0
   89.4870   97.3220  -46.6560 C   0  0  0  0  0  0  0  0  0  0  0  0
   89.5730   96.4890  -47.5970 O   0  0  0  0  0  0  0  0  0  0  0  0
   88.3280   97.4500  -45.7840 C   0  0  0  0  0  0  0  0  0  0  0  0
   88.5880   98.4420  -44.8940 C   0  0  0  0  0  0  0  0  0  0  0  0
   87.6090   98.7520  -43.9420 C   0  0  0  0  0  3  0  0  0  0  0  0
   86.4200   98.0610  -43.9210 C   0  0  0  0  0  3  0  0  0  0  0  0
   86.1540   97.0540  -44.8240 C   0  0  0  0  0  3  0  0  0  0  0  0
   87.1070   96.7410  -45.7630 C   0  0  0  0  0  3  0  0  0  0  0  0
   90.7330   98.7360  -43.9320 C   0  0  0  0  0  0  0  0  0  0  0  0
   91.3130   99.7150  -43.2020 C   0  0  0  0  0  0  0  0  0  0  0  0
   92.0440   99.3770  -42.0670 C   0  0  0  0  0  0  0  0  0  0  0  0
   92.1770   98.0710  -41.6860 C   0  0  0  0  0  0  0  0  0  0  0  0
   91.6000   97.0500  -42.4050 C   0  0  0  0  0  0  0  0  0  0  0  0
   90.8880   97.4070  -43.5170 C   0  0  0  0  0  3  0  0  0  0  0  0
   91.8100   95.0320  -41.8100 I   0  0  0  0  0  0  0  0  0  0  0  0
   92.9110   97.7620  -40.5480 O   0  0  0  0  0  1  0  0  0  0  0  0
   92.9520  100.9230  -40.9260 I   0  0  0  0  0  0  0  0  0  0  0  0
   91.2090  101.0720  -43.5480 O   0  0  0  0  0  0  0  0  0  0  0  0
  2  3  1  0  0  0  0
  2  1  1  0  0  0  0
  3 29  1  0  0  0  0
  4 10  1  0  0  0  0
  4  3  2  0  0  0  0
  5  4  1  0  0  0  0
  6  5  2  0  0  0  0
  6  7  1  0  0  0  0
  7  2  2  0  0  0  0
  8  7  1  0  0  0  0
  9  6  1  0  0  0  0
 10 11  1  6  0  0  0
 10 15  1  0  0  0  0
 10 20  1  0  0  0  0
 12 11  1  0  0  0  0
 12 14  1  0  0  0  0
 13 12  2  0  0  0  0
 14 19  2  0  0  0  0
 14 15  1  0  0  0  0
 15 16  2  0  0  0  0
 16 17  1  0  0  0  0
 18 17  2  0  0  0  0
 19 18  1  0  0  0  0
 20 25  2  0  0  0  0
 20 21  1  0  0  0  0
 21 22  2  0  0  0  0
 22 23  1  0  0  0  0
 22 28  1  0  0  0  0
 23 27  1  0  0  0  0
 24 26  1  0  0  0  0
 24 23  2  0  0  0  0
 25 24  1  0  0  0  0
 29 21  1  0  0  0  0
M  END
>  <Pose>
1

>  <Score>
-6.183

$$$$
