MODEL 1
REMARK VINA RESULT:    -6.183      0.000      0.000
REMARK INTER + INTRA:          -6.183
REMARK INTER:                  -6.183
REMARK INTRA:                   0.000
REMARK UNBOUND:                 0.000
REMARK  0 active torsions:
REMARK  status: ('A' for Active; 'I' for Inactive)
ROOT
ATOM      1  I   UNK d   1      91.296 104.157 -43.848  0.00  0.00    -0.038 I 
ATOM      2  C   UNK d   1      90.336 102.726 -45.081  0.00  0.00     0.078 A 
ATOM      3  C   UNK d   1      90.471 101.382 -44.693  0.00  0.00     0.105 A 
ATOM      4  C   UNK d   1      89.864 100.445 -45.467  0.00  0.00     0.023 A 
ATOM      5  C   UNK d   1      89.142 100.854 -46.603  0.00  0.00     0.035 A 
ATOM      6  C   UNK d   1      89.011 102.165 -46.979  0.00  0.00     0.045 A 
ATOM      7  C   UNK d   1      89.626 103.115 -46.193  0.00  0.00     0.143 A 
ATOM      8  O   UNK d   1      89.515 104.452 -46.546  0.00  0.00    -0.189 OA
ATOM      9  I   UNK d   1      87.906 102.711 -48.704  0.00  0.00    -0.042 I 
ATOM     10  C   UNK d   1      89.946  99.015 -45.146  0.00  0.00     0.159 A 
ATOM     11  O   UNK d   1      90.404  98.254 -46.247  0.00  0.00    -0.291 OA
ATOM     12  C   UNK d   1      89.487  97.322 -46.656  0.00  0.00     0.295 A 
ATOM     13  O   UNK d   1      89.573  96.489 -47.597  0.00  0.00    -0.259 OA
ATOM     14  C   UNK d   1      88.328  97.450 -45.784  0.00  0.00     0.049 A 
ATOM     15  C   UNK d   1      88.588  98.442 -44.894  0.00  0.00     0.003 A 
ATOM     16  C   UNK d   1      87.609  98.752 -43.942  0.00  0.00     0.012 A 
ATOM     17  C   UNK d   1      86.420  98.061 -43.921  0.00  0.00     0.001 A 
ATOM     18  C   UNK d   1      86.154  97.054 -44.824  0.00  0.00     0.001 A 
ATOM     19  C   UNK d   1      87.107  96.741 -45.763  0.00  0.00     0.018 A 
ATOM     20  C   UNK d   1      90.733  98.736 -43.932  0.00  0.00     0.023 A 
ATOM     21  C   UNK d   1      91.313  99.715 -43.202  0.00  0.00     0.105 A 
ATOM     22  C   UNK d   1      92.044  99.377 -42.067  0.00  0.00     0.078 A 
ATOM     23  C   UNK d   1      92.177  98.071 -41.686  0.00  0.00     0.143 A 
ATOM     24  C   UNK d   1      91.600  97.050 -42.405  0.00  0.00     0.045 A 
ATOM     25  C   UNK d   1      90.888  97.407 -43.517  0.00  0.00     0.035 A 
ATOM     26  I   UNK d   1      91.810  95.032 -41.810  0.00  0.00    -0.042 I 
ATOM     27  O   UNK d   1      92.911  97.762 -40.548  0.00  0.00    -0.189 OA
ATOM     28  I   UNK d   1      92.952 100.923 -40.926  0.00  0.00    -0.038 I 
ATOM     29  O   UNK d   1      91.209 101.072 -43.548  0.00  0.00    -0.307 OA
ENDROOT
TORSDOF 0
ENDMDL
