MODEL 1
REMARK VINA RESULT:    -6.229      0.000      0.000
REMARK INTER + INTRA:          -7.718
REMARK INTER:                  -6.958
REMARK INTRA:                  -0.760
REMARK UNBOUND:                -0.760
REMARK  2 active torsions:
REMARK  status: ('A' for Active; 'I' for Inactive)
REMARK    1  A    between atoms: C_9  and  C_19 
REMARK    2  A    between atoms: C_20  and  C_25 
ROOT
ATOM      1  I   UNK d   1      88.547  94.081 -49.952  0.00  0.00    -0.038 I 
ATOM      2  C   UNK d   1      88.522  95.824 -48.767  0.00  0.00     0.077 A 
ATOM      3  C   UNK d   1      89.215  95.923 -47.577  0.00  0.00     0.106 A 
ATOM      4  C   UNK d   1      89.201  97.060 -46.799  0.00  0.00     0.011 A 
ATOM      5  C   UNK d   1      88.454  98.133 -47.249  0.00  0.00     0.018 A 
ATOM      6  C   UNK d   1      87.754  98.042 -48.443  0.00  0.00     0.042 A 
ATOM      7  C   UNK d   1      87.773  96.891 -49.221  0.00  0.00     0.126 A 
ATOM      8  O   UNK d   1      87.052  96.855 -50.412  0.00  0.00    -0.191 OA
ATOM      9  C   UNK d   1      89.888  97.179 -45.607  0.00  0.00     0.001 A 
ATOM     10  C   UNK d   1      90.618  96.060 -45.217  0.00  0.00     0.011 A 
ATOM     11  C   UNK d   1      90.607  94.874 -46.069  0.00  0.00     0.107 A 
ATOM     12  C   UNK d   1      91.350  93.799 -45.628  0.00  0.00     0.091 A 
ATOM     13  C   UNK d   1      92.071  93.815 -44.454  0.00  0.00     0.191 A 
ATOM     14  O   UNK d   1      92.747  92.816 -44.066  0.00  0.00    -0.287 OA
ATOM     15  C   UNK d   1      92.081  94.936 -43.647  0.00  0.00     0.057 A 
ATOM     16  C   UNK d   1      91.347  96.031 -44.060  0.00  0.00     0.019 A 
ATOM     17  I   UNK d   1      91.397  92.046 -46.788  0.00  0.00    -0.037 I 
ATOM     18  O   UNK d   1      89.912  94.889 -47.180  0.00  0.00    -0.306 OA
ENDROOT
BRANCH   9  19
ATOM     19  C   UNK d   1      89.875  98.381 -44.781  0.00  0.00    -0.007 A 
ATOM     20  C   UNK d   1      90.823  99.368 -45.033  0.00  0.00     0.051 A 
ATOM     21  C   UNK d   1      90.850 100.514 -44.284  0.00  0.00     0.019 A 
ATOM     22  C   UNK d   1      89.931 100.688 -43.272  0.00  0.00     0.001 A 
ATOM     23  C   UNK d   1      88.982  99.727 -43.003  0.00  0.00     0.001 A 
ATOM     24  C   UNK d   1      88.973  98.582 -43.769  0.00  0.00     0.013 A 
BRANCH  20  25
ATOM     25  C   UNK d   1      91.802  99.194 -46.102  0.00  0.00     0.210 C 
ATOM     26  O   UNK d   1      92.875  98.570 -45.947  0.00  0.00    -0.644 OA
ATOM     27  O   UNK d   1      91.573  99.731 -47.361  0.00  0.00    -0.644 OA
ENDBRANCH  20  25
ENDBRANCH   9  19
TORSDOF 2
ENDMDL
