MODEL 1
REMARK VINA RESULT:    -6.350      0.000      0.000
REMARK INTER + INTRA:          -7.453
REMARK INTER:                  -7.279
REMARK INTRA:                  -0.174
REMARK UNBOUND:                -0.174
REMARK  4 active torsions:
REMARK  status: ('A' for Active; 'I' for Inactive)
REMARK    1  A    between atoms: C_7  and  N_10 
REMARK    2  A    between atoms: C_8  and  O_9 
REMARK    3  A    between atoms: C_13  and  N_21 
REMARK    4  A    between atoms: C_15  and  O_20 
ROOT
ATOM      1  N   UNK d   1      91.078  97.007 -44.222  0.00  0.00    -0.277 N 
ATOM      2  C   UNK d   1      91.469  95.788 -43.830  0.00  0.00     0.186 A 
ATOM      3  N   UNK d   1      92.020  95.342 -42.668  0.00  0.00    -0.042 NA
ATOM      4  C   UNK d   1      92.348  94.070 -42.458  0.00  0.00     0.724 A 
ATOM      5  N   UNK d   1      92.125  93.179 -43.441  0.00  0.00    -0.036 NA
ATOM      6  C   UNK d   1      91.581  93.554 -44.617  0.00  0.00     0.214 A 
ATOM      7  C   UNK d   1      91.240  94.872 -44.838  0.00  0.00     0.159 A 
ATOM      8  N   UNK d   1      90.701  95.566 -45.851  0.00  0.00    -0.216 NA
ATOM      9  C   UNK d   1      90.604  96.862 -45.473  0.00  0.00     0.182 A 
ATOM     10 Br   UNK d   1      89.904  98.296 -46.533  0.00  0.00    -0.008 Br
ENDROOT
BRANCH   1  11
ATOM     11  C   UNK d   1      91.187  98.180 -43.391  0.00  0.00     0.263 C 
ATOM     12  O   UNK d   1      89.947  98.776 -43.159  0.00  0.00    -0.353 OA
ATOM     13  C   UNK d   1      90.313  99.896 -42.454  0.00  0.00     0.180 C 
ATOM     14  C   UNK d   1      91.357 100.523 -43.387  0.00  0.00     0.198 C 
ATOM     15  C   UNK d   1      89.236 100.890 -42.232  0.00  0.00     0.216 C 
ATOM     16  O   UNK d   1      92.297 101.127 -42.556  0.00  0.00    -0.279 OA
ATOM     17  C   UNK d   1      91.919  99.315 -44.106  0.00  0.00     0.199 C 
ATOM     18  P   UNK d   1      91.416 101.846 -41.283  0.00  0.00     0.408 P 
ATOM     19  O   UNK d   1      91.650 101.113 -39.980  0.00  0.00    -0.624 OA
ATOM     20  O   UNK d   1      89.802 102.032 -41.655  0.00  0.00    -0.287 OA
ATOM     21  O   UNK d   1      92.097 103.403 -41.075  0.00  0.00    -0.624 OA
BRANCH  17  22
ATOM     22  O   UNK d   1      93.284  99.208 -44.008  0.00  0.00    -0.388 OA
ATOM     23  H   UNK d   1      93.553  99.142 -43.037  0.00  0.00     0.210 HD
ENDBRANCH  17  22
ENDBRANCH   1  11
BRANCH   4  24
ATOM     24  N   UNK d   1      92.924  93.651 -41.224  0.00  0.00    -0.231 N 
ATOM     25  H   UNK d   1      93.623  94.294 -40.794  0.00  0.00     0.174 HD
ATOM     26  H   UNK d   1      92.666  92.744 -40.760  0.00  0.00     0.174 HD
ENDBRANCH   4  24
BRANCH   6  27
ATOM     27  O   UNK d   1      91.348  92.635 -45.637  0.00  0.00    -0.343 OA
ATOM     28  H   UNK d   1      90.734  91.843 -45.397  0.00  0.00     0.219 HD
ENDBRANCH   6  27
TORSDOF 4
ENDMDL
