MODEL 1
REMARK VINA RESULT:    -8.072      0.000      0.000
REMARK INTER + INTRA:          -9.474
REMARK INTER:                  -9.252
REMARK INTRA:                  -0.222
REMARK UNBOUND:                -0.222
REMARK  3 active torsions:
REMARK  status: ('A' for Active; 'I' for Inactive)
REMARK    1  A    between atoms: C_7  and  N_10 
REMARK    2  A    between atoms: C_8  and  O_9 
REMARK    3  A    between atoms: C_21  and  C_23 
ROOT
ATOM      1  N   UNK d   1      92.145 101.808 -40.928  0.00  0.00    -0.279 N 
ATOM      2  C   UNK d   1      91.830 100.738 -41.702  0.00  0.00     0.162 A 
ATOM      3  C   UNK d   1      90.840 101.066 -42.604  0.00  0.00     0.173 A 
ATOM      4  N   UNK d   1      90.559 102.364 -42.363  0.00  0.00    -0.214 NA
ATOM      5  C   UNK d   1      91.344 102.799 -41.357  0.00  0.00     0.182 A 
ATOM      6 Br   UNK d   1      91.378 104.553 -40.595  0.00  0.00    -0.008 Br
ATOM      7  C   UNK d   1      90.378 100.109 -43.485  0.00  0.00     0.298 A 
ATOM      8  O   UNK d   1      89.481 100.396 -44.308  0.00  0.00    -0.264 OA
ATOM      9  N   UNK d   1      90.864  98.847 -43.498  0.00  0.00    -0.115 N 
ATOM     10  C   UNK d   1      91.829  98.549 -42.609  0.00  0.00     0.716 A 
ATOM     11  N   UNK d   1      92.135  97.257 -42.823  0.00  0.00    -0.062 NA
ATOM     12  C   UNK d   1      91.399  96.726 -43.816  0.00  0.00     0.102 A 
ATOM     13  C   UNK d   1      90.581  97.748 -44.250  0.00  0.00     0.152 A 
ATOM     14  N   UNK d   1      92.298  99.480 -41.731  0.00  0.00    -0.171 N 
ATOM     15  H   UNK d   1      93.048  99.243 -41.043  0.00  0.00     0.186 HD
ENDROOT
BRANCH   1  16
ATOM     16  C   UNK d   1      93.137 101.878 -39.859  0.00  0.00     0.263 C 
ATOM     17  O   UNK d   1      92.637 102.570 -38.758  0.00  0.00    -0.353 OA
ATOM     18  C   UNK d   1      93.696 103.090 -38.067  0.00  0.00     0.180 C 
ATOM     19  C   UNK d   1      94.692 103.490 -39.158  0.00  0.00     0.197 C 
ATOM     20  C   UNK d   1      93.371 104.354 -37.306  0.00  0.00     0.214 C 
ATOM     21  O   UNK d   1      95.957 103.315 -38.604  0.00  0.00    -0.292 OA
ATOM     22  C   UNK d   1      94.401 102.542 -40.282  0.00  0.00     0.199 C 
ATOM     23  P   UNK d   1      95.888 103.945 -37.028  0.00  0.00     0.422 P 
ATOM     24  S   UNK d   1      97.278 104.961 -36.798  0.00  0.00     0.009 SA
ATOM     25  O   UNK d   1      94.525 104.919 -36.812  0.00  0.00    -0.300 OA
ATOM     26  O   UNK d   1      95.826 102.716 -35.871  0.00  0.00    -0.240 OA
BRANCH  22  27
ATOM     27  O   UNK d   1      95.441 101.614 -40.422  0.00  0.00    -0.388 OA
ATOM     28  H   UNK d   1      96.312 101.998 -40.195  0.00  0.00     0.210 HD
ENDBRANCH  22  27
ENDBRANCH   1  16
BRANCH  12  29
ATOM     29  C   UNK d   1      91.449  95.352 -44.332  0.00  0.00    -0.005 A 
ATOM     30  C   UNK d   1      91.103  95.088 -45.638  0.00  0.00     0.014 A 
ATOM     31  C   UNK d   1      91.140  93.799 -46.154  0.00  0.00     0.001 A 
ATOM     32  C   UNK d   1      91.535  92.768 -45.333  0.00  0.00     0.000 A 
ATOM     33  C   UNK d   1      91.891  92.991 -44.012  0.00  0.00     0.001 A 
ATOM     34  C   UNK d   1      91.835  94.289 -43.553  0.00  0.00     0.014 A 
ENDBRANCH  12  29
TORSDOF 3
ENDMDL
