MODEL 1
REMARK VINA RESULT:    -6.220      0.000      0.000
REMARK INTER + INTRA:          -6.965
REMARK INTER:                  -6.947
REMARK INTRA:                  -0.019
REMARK UNBOUND:                -0.019
REMARK  3 active torsions:
REMARK  status: ('A' for Active; 'I' for Inactive)
REMARK    1  A    between atoms: C_7  and  N_10 
REMARK    2  A    between atoms: C_8  and  O_9 
REMARK    3  A    between atoms: C_15  and  N_20 
ROOT
ATOM      1  P   UNK d   1      91.862 102.351 -42.485  0.00  0.00     0.422 P 
ATOM      2  S   UNK d   1      92.275 102.926 -44.081  0.00  0.00     0.009 SA
ATOM      3  O   UNK d   1      92.551 100.810 -42.233  0.00  0.00    -0.292 OA
ATOM      4  C   UNK d   1      91.835  99.925 -43.001  0.00  0.00     0.197 C 
ATOM      5  C   UNK d   1      90.383  99.909 -42.505  0.00  0.00     0.180 C 
ATOM      6  O   UNK d   1      89.924  98.750 -43.129  0.00  0.00    -0.353 OA
ATOM      7  C   UNK d   1      90.873  97.789 -42.875  0.00  0.00     0.263 C 
ATOM      8  C   UNK d   1      92.209  98.477 -42.745  0.00  0.00     0.199 C 
ATOM      9  C   UNK d   1      89.647 101.139 -42.938  0.00  0.00     0.214 C 
ATOM     10  O   UNK d   1      90.207 102.231 -42.298  0.00  0.00    -0.300 OA
ATOM     11  O   UNK d   1      92.521 103.403 -41.369  0.00  0.00    -0.240 OA
ENDROOT
BRANCH   7  12
ATOM     12  N   UNK d   1      90.989  96.814 -43.943  0.00  0.00    -0.278 N 
ATOM     13  C   UNK d   1      91.382  95.528 -43.760  0.00  0.00     0.168 A 
ATOM     14  N   UNK d   1      91.748  94.839 -42.649  0.00  0.00    -0.221 NA
ATOM     15  C   UNK d   1      91.378  94.889 -44.982  0.00  0.00     0.151 A 
ATOM     16  C   UNK d   1      92.106  93.542 -42.720  0.00  0.00     0.237 A 
ATOM     17  N   UNK d   1      92.104  92.909 -43.919  0.00  0.00    -0.222 NA
ATOM     18  C   UNK d   1      91.749  93.558 -45.042  0.00  0.00     0.155 A 
ATOM     19  N   UNK d   1      90.983  95.786 -45.903  0.00  0.00    -0.216 NA
ATOM     20  C   UNK d   1      90.750  96.950 -45.258  0.00  0.00     0.182 A 
ATOM     21 Br   UNK d   1      90.161  98.606 -46.032  0.00  0.00    -0.008 Br
BRANCH  18  22
ATOM     22  N   UNK d   1      91.751  92.875 -46.300  0.00  0.00    -0.382 N 
ATOM     23  H   UNK d   1      91.293  93.346 -47.128  0.00  0.00     0.157 HD
ATOM     24  H   UNK d   1      92.184  91.939 -46.428  0.00  0.00     0.157 HD
ENDBRANCH  18  22
ENDBRANCH   7  12
BRANCH   8  25
ATOM     25  O   UNK d   1      92.582  98.395 -41.397  0.00  0.00    -0.388 OA
ATOM     26  H   UNK d   1      92.784  99.262 -41.001  0.00  0.00     0.210 HD
ENDBRANCH   8  25
TORSDOF 3
ENDMDL
