/Users/jonathanwahrer/Desktop/Msc/3_Semester/Drug_Design_Praktikum/waehrer_HTS_screening/HTS_experiment/out/docking_results/vina_output/4agl/0993_docked.pdbqt
 OpenBabel03202223523D

 26 29  0  0  1  0  0  0  0  0999 V2000
   91.8620  102.3510  -42.4850 P   0  0  2  0  0  0  0  0  0  0  0  0
   92.2750  102.9260  -44.0810 S   0  0  0  0  0  1  0  0  0  0  0  0
   92.5510  100.8100  -42.2330 O   0  0  0  0  0  0  0  0  0  0  0  0
   91.8350   99.9250  -43.0010 C   0  0  2  0  0  3  0  0  0  0  0  0
   90.3830   99.9090  -42.5050 C   0  0  2  0  0  3  0  0  0  0  0  0
   89.9240   98.7500  -43.1290 O   0  0  0  0  0  0  0  0  0  0  0  0
   90.8730   97.7890  -42.8750 C   0  0  2  0  0  3  0  0  0  0  0  0
   92.2090   98.4770  -42.7450 C   0  0  2  0  0  3  0  0  0  0  0  0
   89.6470  101.1390  -42.9380 C   0  0  0  0  0  2  0  0  0  0  0  0
   90.2070  102.2310  -42.2980 O   0  0  0  0  0  0  0  0  0  0  0  0
   92.5210  103.4030  -41.3690 O   0  0  0  0  0  0  0  0  0  0  0  0
   90.9890   96.8140  -43.9430 N   0  0  0  0  0  0  0  0  0  0  0  0
   91.3820   95.5280  -43.7600 C   0  0  0  0  0  0  0  0  0  0  0  0
   91.7480   94.8390  -42.6490 N   0  0  0  0  0  0  0  0  0  0  0  0
   91.3780   94.8890  -44.9820 C   0  0  0  0  0  0  0  0  0  0  0  0
   92.1060   93.5420  -42.7200 C   0  0  0  0  0  3  0  0  0  0  0  0
   92.1040   92.9090  -43.9190 N   0  0  0  0  0  0  0  0  0  0  0  0
   91.7490   93.5580  -45.0420 C   0  0  0  0  0  0  0  0  0  0  0  0
   90.9830   95.7860  -45.9030 N   0  0  0  0  0  0  0  0  0  0  0  0
   90.7500   96.9500  -45.2580 C   0  0  0  0  0  0  0  0  0  0  0  0
   90.1610   98.6060  -46.0320 Br  0  0  0  0  0  0  0  0  0  0  0  0
   91.7510   92.8750  -46.3000 N   0  0  0  0  0  0  0  0  0  0  0  0
   91.2930   93.3460  -47.1280 H   0  0  0  0  0  0  0  0  0  0  0  0
   92.1840   91.9390  -46.4280 H   0  0  0  0  0  0  0  0  0  0  0  0
   92.5820   98.3950  -41.3970 O   0  0  0  0  0  0  0  0  0  0  0  0
   92.7840   99.2620  -41.0010 H   0  0  0  0  0  0  0  0  0  0  0  0
  1  2  1  6  0  0  0
  1 10  1  0  0  0  0
  1  3  1  0  0  0  0
  1 11  2  0  0  0  0
  4  8  1  0  0  0  0
  4  5  1  0  0  0  0
  4  3  1  1  0  0  0
  5  9  1  6  0  0  0
  6  7  1  0  0  0  0
  6  5  1  0  0  0  0
  7 12  1  6  0  0  0
  7  8  1  0  0  0  0
  8 25  1  1  0  0  0
  9 10  1  0  0  0  0
 12 13  1  0  0  0  0
 13 14  1  0  0  0  0
 15 13  2  0  0  0  0
 16 14  2  0  0  0  0
 17 16  1  0  0  0  0
 18 15  1  0  0  0  0
 18 17  2  0  0  0  0
 19 20  2  0  0  0  0
 19 15  1  0  0  0  0
 20 12  1  0  0  0  0
 21 20  1  0  0  0  0
 22 18  1  0  0  0  0
 23 22  1  0  0  0  0
 24 22  1  0  0  0  0
 25 26  1  0  0  0  0
M  END
>  <Pose>
1

>  <Score>
-6.220

$$$$
