/Users/jonathanwahrer/Desktop/Msc/3_Semester/Drug_Design_Praktikum/waehrer_HTS_screening/HTS_experiment/out/docking_results/vina_output/4agl/0999_docked.pdbqt
 OpenBabel03202223533D

 35 39  0  0  1  0  0  0  0  0999 V2000
   89.6030   96.8990  -45.7060 N   0  0  0  0  0  0  0  0  0  0  0  0
   89.7640   95.8140  -46.6030 C   0  0  0  0  0  0  0  0  0  0  0  0
   89.2220   95.8930  -47.7380 O   0  0  0  0  0  0  0  0  0  0  0  0
   90.0650   96.8100  -44.7660 H   0  0  0  0  0  0  0  0  0  0  0  0
   88.8400   98.0340  -46.1110 C   0  0  1  0  0  3  0  0  0  0  0  0
   88.8330   99.2250  -45.2480 C   0  0  1  0  0  0  0  0  0  0  0  0
   88.7410   99.0860  -43.4640 S   0  0  0  0  0  0  0  0  0  0  0  0
   90.2050   99.3790  -45.6150 N   0  0  0  0  0  0  0  0  0  0  0  0
   89.7260  100.5740  -43.0580 C   0  0  0  0  0  2  0  0  0  0  0  0
   91.1180  100.3220  -43.6550 C   0  0  0  0  0  0  0  0  0  0  0  0
   91.3210   99.7800  -44.8150 C   0  0  0  0  0  0  0  0  0  0  0  0
   89.7650   98.9520  -46.8930 C   0  0  1  0  0  0  0  0  0  0  0  0
   89.9130   99.1050  -48.1110 O   0  0  0  0  0  1  0  0  0  0  0  0
   92.1360  100.7690  -42.7390 C   0  0  0  0  0  2  0  0  0  0  0  0
   92.2860  100.2720  -41.4880 O   0  0  0  0  0  0  0  0  0  0  0  0
   92.5800  101.0670  -40.3730 C   0  0  0  0  0  0  0  0  0  0  0  0
   93.7330  100.9880  -39.9100 O   0  0  0  0  0  0  0  0  0  0  0  0
   91.5040  101.9320  -39.8340 C   0  0  0  0  0  1  0  0  0  0  0  0
   92.6670   99.5360  -45.4100 C   0  0  0  0  0  0  0  0  0  0  0  0
   93.4950   98.7380  -45.0260 O   0  0  0  0  0  1  0  0  0  0  0  0
   93.0520  100.2910  -46.5340 O   0  0  0  0  0  0  0  0  0  0  0  0
   90.5360   94.6190  -46.2500 C   0  0  0  0  0  0  0  0  0  0  0  0
   90.6430   93.4910  -46.8800 O   0  0  0  0  0  0  0  0  0  0  0  0
   91.4180   92.6550  -46.2690 C   0  0  0  0  0  0  0  0  0  0  0  0
   91.8770   93.2860  -45.1070 C   0  0  0  0  0  3  0  0  0  0  0  0
   91.3070   94.5310  -45.1130 C   0  0  0  0  0  3  0  0  0  0  0  0
   91.7910   91.2520  -46.6810 C   0  0  0  0  0  2  0  0  0  0  0  0
   92.1280   91.2060  -48.0440 O   0  0  0  0  0  0  0  0  0  0  0  0
   91.3550   90.6970  -49.0470 C   0  0  0  0  0  0  0  0  0  0  0  0
   91.0710   91.3590  -50.2390 C   0  0  0  0  0  3  0  0  0  0  0  0
   90.2790   90.7500  -51.1860 C   0  0  0  0  0  3  0  0  0  0  0  0
   89.7350   89.4970  -51.0260 C   0  0  0  0  0  0  0  0  0  0  0  0
   90.0120   88.8310  -49.8440 C   0  0  0  0  0  3  0  0  0  0  0  0
   88.6440   88.7030  -52.3750 Br  0  0  0  0  0  0  0  0  0  0  0  0
   90.8110   89.4390  -48.8850 C   0  0  0  0  0  3  0  0  0  0  0  0
  1  4  1  0  0  0  0
  2 22  1  0  0  0  0
  2  1  1  0  0  0  0
  3  2  2  0  0  0  0
  5  1  1  1  0  0  0
  5  6  1  0  0  0  0
  6  7  1  1  0  0  0
  7  9  1  0  0  0  0
  8  6  1  0  0  0  0
  8 11  1  0  0  0  0
 10  9  1  0  0  0  0
 10 14  1  0  0  0  0
 11 10  2  0  0  0  0
 12 13  1  6  0  0  0
 12  5  1  0  0  0  0
 12  8  1  0  0  0  0
 12  6  1  0  0  0  0
 14 15  1  0  0  0  0
 15 16  1  0  0  0  0
 16 17  2  0  0  0  0
 16 18  1  0  0  0  0
 19 20  1  0  0  0  0
 19 11  1  0  0  0  0
 21 19  2  0  0  0  0
 22 26  2  0  0  0  0
 23 24  1  0  0  0  0
 23 22  1  0  0  0  0
 24 25  2  0  0  0  0
 26 25  1  0  0  0  0
 27 24  1  0  0  0  0
 28 27  1  0  0  0  0
 29 35  1  0  0  0  0
 29 28  1  0  0  0  0
 30 29  2  0  0  0  0
 31 32  2  0  0  0  0
 31 30  1  0  0  0  0
 32 33  1  0  0  0  0
 33 35  2  0  0  0  0
 34 32  1  0  0  0  0
M  END
>  <Pose>
1

>  <Score>
-6.717

$$$$
