/Users/jonathanwahrer/Desktop/Msc/3_Semester/Drug_Design_Praktikum/waehrer_HTS_screening/HTS_experiment/out/docking_results/vina_output/4agl/1001_docked.pdbqt
 OpenBabel03202223533D

 26 29  0  0  1  0  0  0  0  0999 V2000
   88.5960  100.0570  -45.9650 P   0  0  2  0  0  0  0  0  0  0  0  0
   87.4730  100.9250  -45.3930 O   0  0  0  0  0  1  0  0  0  0  0  0
   88.1490   98.4530  -45.7590 O   0  0  0  0  0  0  0  0  0  0  0  0
   89.1700   97.6990  -45.2430 C   0  0  2  0  0  3  0  0  0  0  0  0
   90.4730   98.2780  -45.8120 C   0  0  2  0  0  3  0  0  0  0  0  0
   91.3640   97.2470  -45.8500 O   0  0  0  0  0  0  0  0  0  0  0  0
   90.6980   96.0550  -45.9300 C   0  0  2  0  0  3  0  0  0  0  0  0
   89.2360   96.2950  -45.7820 C   0  0  2  0  0  3  0  0  0  0  0  0
   90.8470   99.4150  -44.9160 C   0  0  0  0  0  2  0  0  0  0  0  0
   90.0020  100.4690  -45.1660 O   0  0  0  0  0  0  0  0  0  0  0  0
   88.6710  100.4380  -47.6310 O   0  0  0  0  0  0  0  0  0  0  0  0
   91.2330   95.1780  -44.8980 N   0  0  0  0  0  0  0  0  0  0  0  0
   91.5580   95.5440  -43.6360 C   0  0  0  0  0  0  0  0  0  0  0  0
   91.4850   96.7360  -43.0180 N   0  0  0  0  0  0  0  0  0  0  0  0
   92.0290   94.4340  -42.9670 C   0  0  0  0  0  0  0  0  0  0  0  0
   91.8760   96.8400  -41.7380 C   0  0  0  0  0  3  0  0  0  0  0  0
   92.3350   95.7550  -41.0880 N   0  0  0  0  0  0  0  0  0  0  0  0
   92.4350   94.5360  -41.6390 C   0  0  0  0  0  0  0  0  0  0  0  0
   91.9920   93.4040  -43.8090 N   0  0  0  0  0  0  0  0  0  0  0  0
   91.5080   93.8660  -44.9760 C   0  0  0  0  0  0  0  0  0  0  0  0
   91.2190   92.8470  -46.5880 Br  0  0  0  0  0  0  0  0  0  0  0  0
   92.9180   93.3830  -40.9640 N   0  0  0  0  0  0  0  0  0  0  0  0
   92.4720   93.1320  -40.0320 H   0  0  0  0  0  0  0  0  0  0  0  0
   93.6640   92.7750  -41.3120 H   0  0  0  0  0  0  0  0  0  0  0  0
   88.5320   96.2010  -46.9660 O   0  0  0  0  0  0  0  0  0  0  0  0
   87.9250   96.9420  -47.1240 H   0  0  0  0  0  0  0  0  0  0  0  0
  1 11  2  6  0  0  0
  1  3  1  0  0  0  0
  1  2  1  0  0  0  0
  1 10  1  0  0  0  0
  4  3  1  6  0  0  0
  5  4  1  0  0  0  0
  5  9  1  1  0  0  0
  6  5  1  0  0  0  0
  7  6  1  0  0  0  0
  7  8  1  0  0  0  0
  7 12  1  1  0  0  0
  8 25  1  6  0  0  0
  8  4  1  0  0  0  0
 10  9  1  0  0  0  0
 12 13  1  0  0  0  0
 13 14  2  0  0  0  0
 13 15  1  0  0  0  0
 14 16  1  0  0  0  0
 15 18  2  0  0  0  0
 16 17  2  0  0  0  0
 18 17  1  0  0  0  0
 18 22  1  0  0  0  0
 19 15  1  0  0  0  0
 20 12  1  0  0  0  0
 20 19  2  0  0  0  0
 21 20  1  0  0  0  0
 22 23  1  0  0  0  0
 24 22  1  0  0  0  0
 26 25  1  0  0  0  0
M  END
>  <Pose>
1

>  <Score>
-5.656

$$$$
