MODEL 1
REMARK VINA RESULT:    -5.656      0.000      0.000
REMARK INTER + INTRA:          -6.232
REMARK INTER:                  -6.317
REMARK INTRA:                   0.085
REMARK UNBOUND:                 0.085
REMARK  3 active torsions:
REMARK  status: ('A' for Active; 'I' for Inactive)
REMARK    1  A    between atoms: C_7  and  N_10 
REMARK    2  A    between atoms: C_8  and  O_9 
REMARK    3  A    between atoms: C_15  and  N_20 
ROOT
ATOM      1  P   UNK d   1      88.596 100.057 -45.965  0.00  0.00     0.408 P 
ATOM      2  O   UNK d   1      87.473 100.925 -45.393  0.00  0.00    -0.624 OA
ATOM      3  O   UNK d   1      88.149  98.453 -45.759  0.00  0.00    -0.279 OA
ATOM      4  C   UNK d   1      89.170  97.699 -45.243  0.00  0.00     0.198 C 
ATOM      5  C   UNK d   1      90.473  98.278 -45.812  0.00  0.00     0.180 C 
ATOM      6  O   UNK d   1      91.364  97.247 -45.850  0.00  0.00    -0.353 OA
ATOM      7  C   UNK d   1      90.698  96.055 -45.930  0.00  0.00     0.263 C 
ATOM      8  C   UNK d   1      89.236  96.295 -45.782  0.00  0.00     0.199 C 
ATOM      9  C   UNK d   1      90.847  99.415 -44.916  0.00  0.00     0.216 C 
ATOM     10  O   UNK d   1      90.002 100.469 -45.166  0.00  0.00    -0.287 OA
ATOM     11  O   UNK d   1      88.671 100.438 -47.631  0.00  0.00    -0.624 OA
ENDROOT
BRANCH   7  12
ATOM     12  N   UNK d   1      91.233  95.178 -44.898  0.00  0.00    -0.278 N 
ATOM     13  C   UNK d   1      91.558  95.544 -43.636  0.00  0.00     0.168 A 
ATOM     14  N   UNK d   1      91.485  96.736 -43.018  0.00  0.00    -0.221 NA
ATOM     15  C   UNK d   1      92.029  94.434 -42.967  0.00  0.00     0.151 A 
ATOM     16  C   UNK d   1      91.876  96.840 -41.738  0.00  0.00     0.237 A 
ATOM     17  N   UNK d   1      92.335  95.755 -41.088  0.00  0.00    -0.222 NA
ATOM     18  C   UNK d   1      92.435  94.536 -41.639  0.00  0.00     0.155 A 
ATOM     19  N   UNK d   1      91.992  93.404 -43.809  0.00  0.00    -0.216 NA
ATOM     20  C   UNK d   1      91.508  93.866 -44.976  0.00  0.00     0.182 A 
ATOM     21 Br   UNK d   1      91.219  92.847 -46.588  0.00  0.00    -0.008 Br
BRANCH  18  22
ATOM     22  N   UNK d   1      92.918  93.383 -40.964  0.00  0.00    -0.382 N 
ATOM     23  H   UNK d   1      92.472  93.132 -40.032  0.00  0.00     0.157 HD
ATOM     24  H   UNK d   1      93.664  92.775 -41.312  0.00  0.00     0.157 HD
ENDBRANCH  18  22
ENDBRANCH   7  12
BRANCH   8  25
ATOM     25  O   UNK d   1      88.532  96.201 -46.966  0.00  0.00    -0.388 OA
ATOM     26  H   UNK d   1      87.925  96.942 -47.124  0.00  0.00     0.210 HD
ENDBRANCH   8  25
TORSDOF 3
ENDMDL
