MODEL 1
REMARK VINA RESULT:    -6.270      0.000      0.000
REMARK INTER + INTRA:          -9.175
REMARK INTER:                  -8.836
REMARK INTRA:                  -0.339
REMARK UNBOUND:                -0.339
REMARK  7 active torsions:
REMARK  status: ('A' for Active; 'I' for Inactive)
REMARK    1  A    between atoms: S_1  and  N_4 
REMARK    2  A    between atoms: S_1  and  C_14 
REMARK    3  A    between atoms: N_4  and  C_5 
REMARK    4  A    between atoms: C_5  and  C_6 
REMARK    5  A    between atoms: C_6  and  C_7 
REMARK    6  A    between atoms: C_7  and  N_8 
REMARK       I    between atoms: N_23  and  C_24 
REMARK    7  A    between atoms: C_24  and  C_26 
ROOT
ATOM      1  C   UNK d   1      91.679  99.659 -43.054  0.00  0.00     0.094 A 
ATOM      2  C   UNK d   1      91.685  98.344 -42.578  0.00  0.00     0.056 A 
ATOM      3  C   UNK d   1      91.723  97.282 -43.455  0.00  0.00     0.045 A 
ATOM      4  C   UNK d   1      91.757  97.455 -44.827  0.00  0.00    -0.028 A 
ATOM      5  C   UNK d   1      91.752  98.736 -45.302  0.00  0.00     0.030 A 
ATOM      6  C   UNK d   1      91.714  99.819 -44.418  0.00  0.00     0.034 A 
ATOM      7 Br   UNK d   1      91.696 101.613 -45.094  0.00  0.00    -0.049 Br
ATOM      8  C   UNK d   1      91.781  96.121 -45.490  0.00  0.00     0.061 C 
ATOM      9  C   UNK d   1      91.246  95.206 -44.368  0.00  0.00     0.137 C 
ATOM     10  N   UNK d   1      91.743  95.871 -43.174  0.00  0.00    -0.317 N 
ATOM     11  C   UNK d   1      92.185  95.318 -41.949  0.00  0.00     0.228 C 
ATOM     12  O   UNK d   1      92.612  96.018 -41.002  0.00  0.00    -0.273 OA
ENDROOT
BRANCH   1  13
ATOM     13  S   UNK d   1      91.636 100.983 -41.921  0.00  0.00     0.242 S 
ATOM     14  O   UNK d   1      92.478 100.644 -40.697  0.00  0.00    -0.206 OA
ATOM     15  O   UNK d   1      92.225 102.228 -42.493  0.00  0.00    -0.206 OA
BRANCH  13  16
ATOM     16  N   UNK d   1      90.036 101.228 -41.334  0.00  0.00    -0.215 NA
ATOM     17  H   UNK d   1      89.749 100.374 -40.818  0.00  0.00     0.139 HD
BRANCH  16  18
ATOM     18  C   UNK d   1      89.093 101.539 -42.390  0.00  0.00     0.106 C 
BRANCH  18  19
ATOM     19  C   UNK d   1      88.188 100.323 -42.523  0.00  0.00     0.035 C 
BRANCH  19  20
ATOM     20  C   UNK d   1      87.155 100.537 -43.598  0.00  0.00     0.118 C 
BRANCH  20  21
ATOM     21  N   UNK d   1      87.040  99.354 -44.365  0.00  0.00    -0.408 N 
ATOM     22  C   UNK d   1      88.149  98.469 -44.338  0.00  0.00     0.143 C 
ATOM     23  C   UNK d   1      88.074  97.568 -45.560  0.00  0.00     0.187 C 
ATOM     24  O   UNK d   1      86.784  97.133 -45.791  0.00  0.00    -0.388 OA
ATOM     25  C   UNK d   1      85.950  97.256 -44.686  0.00  0.00     0.187 C 
ATOM     26  C   UNK d   1      85.758  98.755 -44.438  0.00  0.00     0.143 C 
ENDBRANCH  20  21
ENDBRANCH  19  20
ENDBRANCH  18  19
ENDBRANCH  16  18
ENDBRANCH  13  16
ENDBRANCH   1  13
BRANCH  11  27
ATOM     27  C   UNK d   1      92.142  93.847 -41.776  0.00  0.00     0.078 A 
ATOM     28  C   UNK d   1      93.427  93.227 -41.404  0.00  0.00     0.015 A 
ATOM     29  C   UNK d   1      92.815  92.958 -42.757  0.00  0.00     0.015 A 
ENDBRANCH  11  27
TORSDOF 7
ENDMDL
