MODEL 1
REMARK VINA RESULT:    -5.982      0.000      0.000
REMARK INTER + INTRA:          -7.347
REMARK INTER:                  -7.731
REMARK INTRA:                   0.383
REMARK UNBOUND:                 0.383
REMARK  5 active torsions:
REMARK  status: ('A' for Active; 'I' for Inactive)
REMARK    1  A    between atoms: S_1  and  N_4 
REMARK    2  A    between atoms: S_1  and  C_20 
REMARK    3  A    between atoms: C_6  and  N_8 
REMARK    4  A    between atoms: C_11  and  C_13 
REMARK    5  A    between atoms: C_13  and  N_14 
ROOT
ATOM      1  N   UNK d   1      91.544  99.697 -42.395  0.00  0.00    -0.202 NA
ATOM      2  C   UNK d   1      90.498  98.842 -42.827  0.00  0.00     0.136 C 
ATOM      3  C   UNK d   1      91.098  98.734 -44.175  0.00  0.00     0.139 C 
ATOM      4  C   UNK d   1      92.260  99.464 -43.599  0.00  0.00     0.136 C 
ENDROOT
BRANCH   3   5
ATOM      5  N   UNK d   1      91.441  97.399 -44.625  0.00  0.00    -0.254 N 
ATOM      6  N   UNK d   1      92.114  97.049 -45.691  0.00  0.00    -0.066 NA
ATOM      7  N   UNK d   1      92.220  95.714 -45.757  0.00  0.00    -0.134 NA
ATOM      8  C   UNK d   1      91.592  95.181 -44.694  0.00  0.00     0.093 A 
ATOM      9  C   UNK d   1      91.102  96.268 -43.985  0.00  0.00     0.145 A 
BRANCH   8  10
ATOM     10  C   UNK d   1      91.447  93.728 -44.343  0.00  0.00     0.188 C 
BRANCH  10  11
ATOM     11  N   UNK d   1      92.408  93.427 -43.297  0.00  0.00    -0.346 N 
ATOM     12  C   UNK d   1      93.664  92.765 -43.483  0.00  0.00     0.126 C 
ATOM     13  C   UNK d   1      94.331  92.755 -42.137  0.00  0.00     0.029 C 
ATOM     14  C   UNK d   1      93.559  93.648 -41.220  0.00  0.00     0.104 C 
ATOM     15  C   UNK d   1      92.233  93.754 -41.922  0.00  0.00     0.220 C 
ATOM     16  O   UNK d   1      91.179  94.080 -41.347  0.00  0.00    -0.273 OA
ENDBRANCH  10  11
ENDBRANCH   8  10
ENDBRANCH   3   5
BRANCH   1  17
ATOM     17  S   UNK d   1      91.211 101.315 -42.049  0.00  0.00     0.250 S 
ATOM     18  O   UNK d   1      89.737 101.466 -41.801  0.00  0.00    -0.205 OA
ATOM     19  O   UNK d   1      91.544 102.224 -43.209  0.00  0.00    -0.205 OA
BRANCH  17  20
ATOM     20  C   UNK d   1      92.033 101.915 -40.611  0.00  0.00     0.116 A 
ATOM     21  S   UNK d   1      91.479 103.094 -39.497  0.00  0.00    -0.070 SA
ATOM     22  C   UNK d   1      92.811 103.109 -38.428  0.00  0.00     0.052 A 
ATOM     23  C   UNK d   1      93.655 102.183 -38.983  0.00  0.00     0.028 A 
ATOM     24 Br   UNK d   1      93.090 104.154 -36.833  0.00  0.00    -0.043 Br
ATOM     25  C   UNK d   1      93.250 101.575 -40.100  0.00  0.00     0.034 A 
ENDBRANCH  17  20
ENDBRANCH   1  17
TORSDOF 5
ENDMDL
