/Users/jonathanwahrer/Desktop/Msc/3_Semester/Drug_Design_Praktikum/waehrer_HTS_screening/HTS_experiment/out/docking_results/vina_output/4agl/1037_docked.pdbqt
 OpenBabel03202223553D

 31 34  0  0  0  0  0  0  0  0999 V2000
   88.7870  100.6360  -44.7000 N   0  0  0  0  0  0  0  0  0  0  0  0
   90.0900  100.8590  -45.2270 C   0  0  0  0  0  3  0  0  0  0  0  0
   91.0440   99.7570  -45.2280 C   0  0  0  0  0  3  0  0  0  0  0  0
   90.5460   98.4150  -44.9950 N   0  0  0  0  0  0  0  0  0  0  0  0
   89.2180   98.2020  -44.5060 C   0  0  0  0  0  2  0  0  0  0  0  0
   88.2750   99.3300  -44.9070 C   0  0  0  0  0  2  0  0  0  0  0  0
   91.3930   97.3440  -45.2870 C   0  0  0  0  0  0  0  0  0  0  0  0
   92.5310   97.7840  -45.8630 O   0  0  0  0  0  0  0  0  0  0  0  0
   88.4680  101.3110  -43.1790 S   0  0  0  0  0  0  0  0  0  0  0  0
   87.9950  100.2300  -42.2460 O   0  0  0  0  0  0  0  0  0  0  0  0
   87.3330  102.3160  -43.2710 O   0  0  0  0  0  0  0  0  0  0  0  0
   89.8600  102.0430  -42.4080 C   0  0  0  0  0  0  0  0  0  0  0  0
   90.9020  101.2420  -41.9430 C   0  0  0  0  0  3  0  0  0  0  0  0
   92.0160  101.7570  -41.3170 C   0  0  0  0  0  0  0  0  0  0  0  0
   92.1500  103.1130  -41.1200 C   0  0  0  0  0  0  0  0  0  0  0  0
   93.0730  100.9100  -40.8340 N   0  0  0  0  0  0  0  0  0  0  0  0
   91.1240  103.9110  -41.5760 C   0  0  0  0  0  3  0  0  0  0  0  0
   93.2840  103.6490  -40.4780 O   0  0  0  0  0  0  0  0  0  0  0  0
   89.9970  103.3990  -42.2090 C   0  0  0  0  0  3  0  0  0  0  0  0
   94.5250  102.9210  -40.5100 C   0  0  0  0  0  2  0  0  0  0  0  0
   94.1780  101.5140  -40.1850 C   0  0  0  0  0  0  0  0  0  0  0  0
   94.8270  100.8360  -39.3560 O   0  0  0  0  0  0  0  0  0  0  0  0
   92.9640   99.8970  -40.9870 H   0  0  0  0  0  0  0  0  0  0  0  0
   91.3090   95.9240  -45.1070 C   0  0  0  0  0  2  0  0  0  0  0  0
   91.6090   95.2970  -43.8220 C   0  0  0  0  0  0  0  0  0  0  0  0
   91.8300   93.9460  -43.7190 C   0  0  0  0  0  0  0  0  0  0  0  0
   92.1220   93.3610  -42.4870 C   0  0  0  0  0  3  0  0  0  0  0  0
   91.7330   92.8260  -45.2720 Br  0  0  0  0  0  0  0  0  0  0  0  0
   92.1910   94.1420  -41.3720 C   0  0  0  0  0  3  0  0  0  0  0  0
   91.9690   95.5170  -41.4700 C   0  0  0  0  0  3  0  0  0  0  0  0
   91.6840   96.0840  -42.6720 C   0  0  0  0  0  3  0  0  0  0  0  0
  1  9  1  0  0  0  0
  2  1  1  0  0  0  0
  3  2  2  0  0  0  0
  3  4  1  0  0  0  0
  4  5  1  0  0  0  0
  6  1  1  0  0  0  0
  6  5  1  0  0  0  0
  7 24  1  0  0  0  0
  7  4  1  0  0  0  0
  8  7  2  0  0  0  0
  9 12  1  0  0  0  0
  9 10  2  0  0  0  0
 11  9  2  0  0  0  0
 12 19  2  0  0  0  0
 12 13  1  0  0  0  0
 13 14  2  0  0  0  0
 14 15  1  0  0  0  0
 14 16  1  0  0  0  0
 15 18  1  0  0  0  0
 16 21  1  0  0  0  0
 17 15  2  0  0  0  0
 19 17  1  0  0  0  0
 20 18  1  0  0  0  0
 20 21  1  0  0  0  0
 21 22  2  0  0  0  0
 23 16  1  0  0  0  0
 24 25  1  0  0  0  0
 25 26  2  0  0  0  0
 25 31  1  0  0  0  0
 26 27  1  0  0  0  0
 27 29  2  0  0  0  0
 28 26  1  0  0  0  0
 30 29  1  0  0  0  0
 31 30  2  0  0  0  0
M  END
>  <Pose>
1

>  <Score>
-7.180

$$$$
