MODEL 1
REMARK VINA RESULT:    -6.203      0.000      0.000
REMARK INTER + INTRA:          -7.649
REMARK INTER:                  -7.654
REMARK INTRA:                   0.005
REMARK UNBOUND:                 0.005
REMARK  4 active torsions:
REMARK  status: ('A' for Active; 'I' for Inactive)
REMARK    1  A    between atoms: S_1  and  N_4 
REMARK    2  A    between atoms: S_1  and  C_19 
REMARK       I    between atoms: N_7  and  C_10 
REMARK    3  A    between atoms: C_12  and  N_13 
REMARK    4  A    between atoms: C_22  and  O_30 
ROOT
ATOM      1  S   UNK d   1      89.447  99.603 -46.841  0.00  0.00     0.247 S 
ATOM      2  O   UNK d   1      89.817 100.985 -47.220  0.00  0.00    -0.206 OA
ATOM      3  O   UNK d   1      89.960  98.730 -47.992  0.00  0.00    -0.206 OA
ENDROOT
BRANCH   1   4
ATOM      4  N   UNK d   1      87.749  99.323 -46.814  0.00  0.00    -0.203 NA
ATOM      5  C   UNK d   1      86.988 100.400 -46.281  0.00  0.00     0.127 C 
ATOM      6  C   UNK d   1      86.813 100.353 -44.769  0.00  0.00     0.140 C 
ATOM      7  N   UNK d   1      86.324  99.066 -44.402  0.00  0.00    -0.359 N 
ATOM      8  C   UNK d   1      87.266  97.972 -44.805  0.00  0.00     0.140 C 
ATOM      9  C   UNK d   1      85.168  98.671 -43.760  0.00  0.00     0.173 C 
ATOM     10  C   UNK d   1      87.390  98.049 -46.289  0.00  0.00     0.127 C 
ATOM     11  O   UNK d   1      85.046  97.369 -43.590  0.00  0.00    -0.175 OA
ATOM     12  C   UNK d   1      84.065  99.426 -43.240  0.00  0.00     0.237 C 
BRANCH  12  13
ATOM     13  N   UNK d   1      84.073 100.841 -43.330  0.00  0.00    -0.272 N 
ATOM     14  N   UNK d   1      83.685 101.596 -44.357  0.00  0.00    -0.183 NA
ATOM     15  C   UNK d   1      83.798 102.897 -44.063  0.00  0.00     0.159 A 
ATOM     16  C   UNK d   1      84.285 102.954 -42.780  0.00  0.00     0.047 A 
ATOM     17  C   UNK d   1      84.454 101.679 -42.330  0.00  0.00     0.133 A 
ATOM     18 Br   UNK d   1      84.665 104.556 -41.785  0.00  0.00    -0.048 Br
ENDBRANCH  12  13
ENDBRANCH   1   4
BRANCH   1  19
ATOM     19  C   UNK d   1      90.235  98.998 -45.418  0.00  0.00     0.118 A 
ATOM     20  C   UNK d   1      90.653  97.664 -45.308  0.00  0.00     0.131 A 
ATOM     21  C   UNK d   1      91.277  97.189 -44.172  0.00  0.00     0.140 A 
ATOM     22  O   UNK d   1      90.535  96.637 -46.240  0.00  0.00    -0.321 OA
ATOM     23  C   UNK d   1      91.516  98.015 -43.092  0.00  0.00     0.113 A 
ATOM     24  O   UNK d   1      91.557  95.856 -44.380  0.00  0.00    -0.320 OA
ATOM     25  C   UNK d   1      91.110  99.317 -43.192  0.00  0.00     0.004 A 
ATOM     26  C   UNK d   1      90.483  99.782 -44.343  0.00  0.00    -0.020 A 
ATOM     27  C   UNK d   1      91.297 100.325 -42.124  0.00  0.00     0.158 C 
ATOM     28  C   UNK d   1      90.093 101.201 -44.298  0.00  0.00     0.060 C 
ATOM     29  C   UNK d   1      91.244 102.062 -43.824  0.00  0.00     0.121 C 
ATOM     30  N   UNK d   1      91.906 101.468 -42.725  0.00  0.00    -0.412 N 
ATOM     31  C   UNK d   1      93.326 101.466 -42.755  0.00  0.00     0.143 C 
ATOM     32  C   UNK d   1      90.988  95.457 -45.595  0.00  0.00     0.352 C 
BRANCH  23  33
ATOM     33  O   UNK d   1      92.153  97.536 -41.928  0.00  0.00    -0.352 OA
ATOM     34  C   UNK d   1      91.826  96.220 -41.461  0.00  0.00     0.210 C 
ENDBRANCH  23  33
ENDBRANCH   1  19
TORSDOF 4
ENDMDL
