MODEL 1
REMARK VINA RESULT:    -6.818      0.000      0.000
REMARK INTER + INTRA:          -8.632
REMARK INTER:                  -8.413
REMARK INTRA:                  -0.220
REMARK UNBOUND:                -0.220
REMARK  4 active torsions:
REMARK  status: ('A' for Active; 'I' for Inactive)
REMARK    1  A    between atoms: S_1  and  N_4 
REMARK    2  A    between atoms: S_1  and  C_24 
REMARK       I    between atoms: N_7  and  C_10 
REMARK    3  A    between atoms: C_10  and  C_12 
REMARK    4  A    between atoms: C_12  and  N_13 
ROOT
ATOM      1  N   UNK d   1      91.132  98.797 -43.779  0.00  0.00    -0.304 N 
ATOM      2  C   UNK d   1      90.149  99.134 -42.862  0.00  0.00     0.155 C 
ATOM      3  C   UNK d   1      90.223 100.666 -42.618  0.00  0.00     0.146 C 
ATOM      4  N   UNK d   1      91.571 101.037 -42.286  0.00  0.00    -0.348 N 
ATOM      5  C   UNK d   1      92.591 100.726 -43.261  0.00  0.00     0.146 C 
ATOM      6  C   UNK d   1      91.941  99.857 -44.315  0.00  0.00     0.155 C 
ATOM      7  C   UNK d   1      91.932 101.674 -41.084  0.00  0.00     0.238 C 
ATOM      8  O   UNK d   1      91.044 101.942 -40.243  0.00  0.00    -0.272 OA
ENDROOT
BRANCH   7   9
ATOM      9  C   UNK d   1      93.325 102.027 -40.804  0.00  0.00     0.239 C 
BRANCH   9  10
ATOM     10  N   UNK d   1      93.394 103.167 -39.893  0.00  0.00    -0.259 N 
ATOM     11  C   UNK d   1      93.096 104.528 -40.125  0.00  0.00     0.326 C 
ATOM     12  O   UNK d   1      92.693 105.010 -41.234  0.00  0.00    -0.247 OA
ATOM     13  N   UNK d   1      93.328 105.229 -38.910  0.00  0.00    -0.324 N 
ATOM     14  C   UNK d   1      93.297 104.256 -37.849  0.00  0.00     0.116 C 
ATOM     15  H   UNK d   1      93.483 106.268 -38.883  0.00  0.00     0.165 HD
ATOM     16  C   UNK d   1      91.943 104.061 -37.248  0.00  0.00     0.041 C 
ATOM     17  C   UNK d   1      94.161 104.661 -36.678  0.00  0.00     0.041 C 
ATOM     18  C   UNK d   1      93.814 103.039 -38.519  0.00  0.00     0.256 C 
ATOM     19  C   UNK d   1      92.285 103.322 -35.949  0.00  0.00     0.003 C 
ATOM     20  C   UNK d   1      93.572 103.958 -35.500  0.00  0.00     0.003 C 
ATOM     21  O   UNK d   1      94.470 102.111 -37.996  0.00  0.00    -0.270 OA
ENDBRANCH   9  10
ENDBRANCH   7   9
BRANCH   1  22
ATOM     22  S   UNK d   1      91.224  97.329 -44.540  0.00  0.00     0.262 S 
ATOM     23  O   UNK d   1      89.877  97.058 -45.224  0.00  0.00    -0.200 OA
ATOM     24  O   UNK d   1      92.205  97.352 -45.717  0.00  0.00    -0.200 OA
BRANCH  22  25
ATOM     25  C   UNK d   1      91.541  95.920 -43.575  0.00  0.00     0.097 A 
ATOM     26  C   UNK d   1      91.547  94.622 -44.010  0.00  0.00     0.034 A 
ATOM     27  C   UNK d   1      91.764  93.551 -43.137  0.00  0.00     0.020 A 
ATOM     28 Br   UNK d   1      91.322  94.264 -45.860  0.00  0.00    -0.049 Br
ATOM     29  C   UNK d   1      91.981  93.744 -41.809  0.00  0.00     0.001 A 
ATOM     30  C   UNK d   1      91.984  95.030 -41.343  0.00  0.00     0.002 A 
ATOM     31  C   UNK d   1      91.770  96.086 -42.197  0.00  0.00     0.027 A 
ENDBRANCH  22  25
ENDBRANCH   1  22
TORSDOF 4
ENDMDL
