/Users/jonathanwahrer/Desktop/Msc/3_Semester/Drug_Design_Praktikum/waehrer_HTS_screening/HTS_experiment/out/docking_results/vina_output/4agl/1042_docked.pdbqt
 OpenBabel03202223563D

 31 34  0  0  0  0  0  0  0  0999 V2000
   91.1320   98.7970  -43.7790 N   0  0  0  0  0  0  0  0  0  0  0  0
   90.1490   99.1340  -42.8620 C   0  0  0  0  0  2  0  0  0  0  0  0
   90.2230  100.6660  -42.6180 C   0  0  0  0  0  2  0  0  0  0  0  0
   91.5710  101.0370  -42.2860 N   0  0  0  0  0  0  0  0  0  0  0  0
   92.5910  100.7260  -43.2610 C   0  0  0  0  0  2  0  0  0  0  0  0
   91.9410   99.8570  -44.3150 C   0  0  0  0  0  2  0  0  0  0  0  0
   91.9320  101.6740  -41.0840 C   0  0  0  0  0  0  0  0  0  0  0  0
   91.0440  101.9420  -40.2430 O   0  0  0  0  0  0  0  0  0  0  0  0
   93.3250  102.0270  -40.8040 C   0  0  0  0  0  2  0  0  0  0  0  0
   93.3940  103.1670  -39.8930 N   0  0  0  0  0  0  0  0  0  0  0  0
   93.0960  104.5280  -40.1250 C   0  0  0  0  0  0  0  0  0  0  0  0
   92.6930  105.0100  -41.2340 O   0  0  0  0  0  0  0  0  0  0  0  0
   93.3280  105.2290  -38.9100 N   0  0  0  0  0  0  0  0  0  0  0  0
   93.2970  104.2560  -37.8490 C   0  0  0  0  0  0  0  0  0  0  0  0
   93.4830  106.2680  -38.8830 H   0  0  0  0  0  0  0  0  0  0  0  0
   91.9430  104.0610  -37.2480 C   0  0  0  0  0  2  0  0  0  0  0  0
   94.1610  104.6610  -36.6780 C   0  0  0  0  0  2  0  0  0  0  0  0
   93.8140  103.0390  -38.5190 C   0  0  0  0  0  0  0  0  0  0  0  0
   92.2850  103.3220  -35.9490 C   0  0  0  0  0  2  0  0  0  0  0  0
   93.5720  103.9580  -35.5000 C   0  0  0  0  0  2  0  0  0  0  0  0
   94.4700  102.1110  -37.9960 O   0  0  0  0  0  0  0  0  0  0  0  0
   91.2240   97.3290  -44.5400 S   0  0  0  0  0  0  0  0  0  0  0  0
   89.8770   97.0580  -45.2240 O   0  0  0  0  0  0  0  0  0  0  0  0
   92.2050   97.3520  -45.7170 O   0  0  0  0  0  0  0  0  0  0  0  0
   91.5410   95.9200  -43.5750 C   0  0  0  0  0  0  0  0  0  0  0  0
   91.5470   94.6220  -44.0100 C   0  0  0  0  0  0  0  0  0  0  0  0
   91.7640   93.5510  -43.1370 C   0  0  0  0  0  3  0  0  0  0  0  0
   91.3220   94.2640  -45.8600 Br  0  0  0  0  0  0  0  0  0  0  0  0
   91.9810   93.7440  -41.8090 C   0  0  0  0  0  3  0  0  0  0  0  0
   91.9840   95.0300  -41.3430 C   0  0  0  0  0  3  0  0  0  0  0  0
   91.7700   96.0860  -42.1970 C   0  0  0  0  0  3  0  0  0  0  0  0
  1  2  1  0  0  0  0
  2  3  1  0  0  0  0
  3  4  1  0  0  0  0
  4  7  1  0  0  0  0
  5  4  1  0  0  0  0
  6  1  1  0  0  0  0
  6  5  1  0  0  0  0
  7  9  1  0  0  0  0
  7  8  2  0  0  0  0
  9 10  1  0  0  0  0
 10 18  1  0  0  0  0
 11 10  1  0  0  0  0
 11 13  1  0  0  0  0
 12 11  2  0  0  0  0
 13 15  1  0  0  0  0
 13 14  1  0  0  0  0
 14 16  1  0  0  0  0
 14 17  1  0  0  0  0
 16 19  1  0  0  0  0
 17 20  1  0  0  0  0
 18 21  2  0  0  0  0
 18 14  1  0  0  0  0
 19 20  1  0  0  0  0
 22  1  1  0  0  0  0
 22 25  1  0  0  0  0
 23 22  2  0  0  0  0
 24 22  2  0  0  0  0
 25 31  1  0  0  0  0
 26 25  2  0  0  0  0
 26 27  1  0  0  0  0
 27 29  2  0  0  0  0
 28 26  1  0  0  0  0
 29 30  1  0  0  0  0
 31 30  2  0  0  0  0
M  END
>  <Pose>
1

>  <Score>
-6.818

$$$$
