/Users/jonathanwahrer/Desktop/Msc/3_Semester/Drug_Design_Praktikum/waehrer_HTS_screening/HTS_experiment/out/docking_results/vina_output/4agl/1043_docked.pdbqt
 OpenBabel03202223563D

 31 34  0  0  0  0  0  0  0  0999 V2000
   89.9610   98.1340  -43.6680 N   0  0  0  0  0  0  0  0  0  0  0  0
   89.8650   99.2750  -42.7830 C   0  0  0  0  0  2  0  0  0  0  0  0
   89.2120  100.4470  -43.4730 C   0  0  0  0  0  2  0  0  0  0  0  0
   87.9450   99.9530  -44.0500 N   0  0  0  0  0  0  0  0  0  0  0  0
   88.0710   98.8400  -44.9400 C   0  0  0  0  0  2  0  0  0  0  0  0
   89.5700   98.4660  -44.9930 C   0  0  0  0  0  2  0  0  0  0  0  0
   86.7250  100.5580  -43.7170 C   0  0  0  0  0  0  0  0  0  0  0  0
   86.8260  101.5610  -42.8690 O   0  0  0  0  0  0  0  0  0  0  0  0
   85.3650  100.3040  -44.1200 C   0  0  0  0  0  2  0  0  0  0  0  0
   85.0660   99.2570  -45.0440 N   0  0  0  0  0  0  0  0  0  0  0  0
   84.9800   97.8350  -44.7710 C   0  0  0  0  0  0  0  0  0  0  0  0
   85.1540   97.3510  -43.6180 O   0  0  0  0  0  0  0  0  0  0  0  0
   84.6820   97.1760  -45.9910 N   0  0  0  0  0  0  0  0  0  0  0  0
   85.0080   98.0720  -47.0480 C   0  0  0  0  0  0  0  0  0  0  0  0
   84.2910   96.1950  -46.0250 H   0  0  0  0  0  0  0  0  0  0  0  0
   86.4000   97.8710  -47.5980 C   0  0  0  0  0  2  0  0  0  0  0  0
   84.1540   97.8570  -48.2860 C   0  0  0  0  0  2  0  0  0  0  0  0
   84.8090   99.3950  -46.4570 C   0  0  0  0  0  0  0  0  0  0  0  0
   86.3420   98.6920  -48.8720 C   0  0  0  0  0  2  0  0  0  0  0  0
   84.8990   98.6750  -49.3140 C   0  0  0  0  0  2  0  0  0  0  0  0
   84.4790  100.4640  -47.0300 O   0  0  0  0  0  0  0  0  0  0  0  0
   91.4550   97.3170  -43.5510 S   0  0  0  0  0  0  0  0  0  0  0  0
   91.7710   97.1790  -42.0720 O   0  0  0  0  0  0  0  0  0  0  0  0
   92.5460   98.1890  -44.1220 O   0  0  0  0  0  0  0  0  0  0  0  0
   91.4510   95.7580  -44.3400 C   0  0  0  0  0  0  0  0  0  0  0  0
   91.8130   94.6000  -43.6820 C   0  0  0  0  0  3  0  0  0  0  0  0
   91.8070   93.3640  -44.3190 C   0  0  0  0  0  3  0  0  0  0  0  0
   91.4350   93.2560  -45.6340 C   0  0  0  0  0  0  0  0  0  0  0  0
   91.0700   94.4050  -46.3030 C   0  0  0  0  0  3  0  0  0  0  0  0
   91.4230   91.5480  -46.5240 Br  0  0  0  0  0  0  0  0  0  0  0  0
   91.0790   95.6350  -45.6620 C   0  0  0  0  0  3  0  0  0  0  0  0
  1 22  1  0  0  0  0
  1  2  1  0  0  0  0
  3  2  1  0  0  0  0
  4  7  1  0  0  0  0
  4  3  1  0  0  0  0
  5  4  1  0  0  0  0
  6  5  1  0  0  0  0
  6  1  1  0  0  0  0
  7  8  2  0  0  0  0
  9  7  1  0  0  0  0
 10 11  1  0  0  0  0
 10  9  1  0  0  0  0
 11 12  2  0  0  0  0
 13 11  1  0  0  0  0
 14 18  1  0  0  0  0
 14 13  1  0  0  0  0
 15 13  1  0  0  0  0
 16 14  1  0  0  0  0
 17 14  1  0  0  0  0
 18 10  1  0  0  0  0
 19 16  1  0  0  0  0
 20 19  1  0  0  0  0
 20 17  1  0  0  0  0
 21 18  2  0  0  0  0
 22 23  2  0  0  0  0
 24 22  2  0  0  0  0
 25 26  1  0  0  0  0
 25 22  1  0  0  0  0
 27 26  2  0  0  0  0
 28 27  1  0  0  0  0
 29 31  1  0  0  0  0
 29 28  2  0  0  0  0
 30 28  1  0  0  0  0
 31 25  2  0  0  0  0
M  END
>  <Pose>
1

>  <Score>
-6.359

$$$$
