MODEL 1
REMARK VINA RESULT:    -6.361      0.000      0.000
REMARK INTER + INTRA:          -8.338
REMARK INTER:                  -7.476
REMARK INTRA:                  -0.861
REMARK UNBOUND:                -0.861
REMARK  3 active torsions:
REMARK  status: ('A' for Active; 'I' for Inactive)
REMARK    1  A    between atoms: S_1  and  N_4 
REMARK    2  A    between atoms: S_1  and  C_19 
REMARK       I    between atoms: N_7  and  C_10 
REMARK    3  A    between atoms: C_10  and  C_12 
ROOT
ATOM      1  N   UNK d   1      88.274 100.803 -43.473  0.00  0.00    -0.304 N 
ATOM      2  C   UNK d   1      89.124 101.090 -44.542  0.00  0.00     0.155 C 
ATOM      3  C   UNK d   1      90.457 100.432 -44.540  0.00  0.00     0.146 C 
ATOM      4  N   UNK d   1      90.512  99.193 -43.830  0.00  0.00    -0.345 N 
ATOM      5  C   UNK d   1      89.310  98.691 -43.201  0.00  0.00     0.146 C 
ATOM      6  C   UNK d   1      88.687  99.889 -42.488  0.00  0.00     0.155 C 
ATOM      7  C   UNK d   1      91.702  98.435 -43.715  0.00  0.00     0.255 C 
ATOM      8  O   UNK d   1      92.784  98.837 -44.252  0.00  0.00    -0.267 OA
ENDROOT
BRANCH   1   9
ATOM      9  S   UNK d   1      86.610 100.968 -43.724  0.00  0.00     0.261 S 
ATOM     10  O   UNK d   1      85.851 101.415 -42.536  0.00  0.00    -0.200 OA
ATOM     11  O   UNK d   1      86.410 102.026 -44.802  0.00  0.00    -0.200 OA
BRANCH   9  12
ATOM     12  C   UNK d   1      85.945  99.483 -44.394  0.00  0.00     0.082 A 
ATOM     13  C   UNK d   1      86.493  98.888 -45.512  0.00  0.00     0.057 A 
ATOM     14  C   UNK d   1      85.995  97.724 -46.060  0.00  0.00     0.070 A 
ATOM     15  C   UNK d   1      84.903  97.099 -45.494  0.00  0.00     0.096 A 
ATOM     16  N   UNK d   1      86.556  97.109 -47.213  0.00  0.00    -0.323 N 
ATOM     17  C   UNK d   1      84.350  97.693 -44.370  0.00  0.00     0.040 A 
ATOM     18  O   UNK d   1      84.377  95.922 -46.025  0.00  0.00    -0.340 OA
ATOM     19  C   UNK d   1      84.853  98.857 -43.827  0.00  0.00     0.028 A 
ATOM     20  C   UNK d   1      84.722  95.401 -47.294  0.00  0.00     0.278 C 
ATOM     21  C   UNK d   1      86.033  95.908 -47.770  0.00  0.00     0.246 C 
ATOM     22  O   UNK d   1      86.622  95.239 -48.656  0.00  0.00    -0.271 OA
ATOM     23  H   UNK d   1      87.381  97.569 -47.652  0.00  0.00     0.169 HD
ENDBRANCH   9  12
ENDBRANCH   1   9
BRANCH   7  24
ATOM     24  C   UNK d   1      91.776  97.171 -42.994  0.00  0.00     0.049 A 
ATOM     25  C   UNK d   1      91.518  95.957 -43.602  0.00  0.00     0.026 A 
ATOM     26  C   UNK d   1      91.585  94.757 -42.932  0.00  0.00     0.020 A 
ATOM     27 Br   UNK d   1      91.052  96.001 -45.454  0.00  0.00    -0.050 Br
ATOM     28  C   UNK d   1      91.928  94.781 -41.589  0.00  0.00     0.001 A 
ATOM     29  C   UNK d   1      92.197  95.959 -40.933  0.00  0.00     0.001 A 
ATOM     30  C   UNK d   1      92.115  97.133 -41.648  0.00  0.00     0.018 A 
ENDBRANCH   7  24
TORSDOF 3
ENDMDL
