/Users/jonathanwahrer/Desktop/Msc/3_Semester/Drug_Design_Praktikum/waehrer_HTS_screening/HTS_experiment/out/docking_results/vina_output/4agl/1073_docked.pdbqt
 OpenBabel03202223583D

 28 31  0  0  0  0  0  0  0  0999 V2000
   90.6060   99.4040  -45.2260 N   0  0  0  0  0  0  0  0  0  0  0  0
   90.5930  100.3080  -44.1480 C   0  0  0  0  0  2  0  0  0  0  0  0
   91.6500  100.0240  -43.1170 C   0  0  0  0  0  2  0  0  0  0  0  0
   92.1540   98.6980  -43.1440 N   0  0  0  0  0  0  0  0  0  0  0  0
   92.6750   98.3690  -44.4220 C   0  0  0  0  0  2  0  0  0  0  0  0
   91.8310   98.7890  -45.5680 C   0  0  0  0  0  2  0  0  0  0  0  0
   91.2720   97.7780  -42.5280 C   0  0  0  0  0  2  0  0  0  0  0  0
   91.6420   96.4040  -42.5600 N   0  0  0  0  0  0  0  0  0  0  0  0
   91.4400   95.6770  -43.6400 N   0  0  0  0  0  0  0  0  0  0  0  0
   91.7530   94.3770  -43.7510 C   0  0  0  0  0  0  0  0  0  0  0  0
   92.3240   93.7820  -42.6510 C   0  0  0  0  0  3  0  0  0  0  0  0
   92.5610   94.4880  -41.4910 C   0  0  0  0  0  3  0  0  0  0  0  0
   92.1990   95.8290  -41.4830 C   0  0  0  0  0  0  0  0  0  0  0  0
   92.4220   96.4820  -40.4040 O   0  0  0  0  0  0  0  0  0  0  0  0
   91.5200   93.6130  -44.9400 N   0  0  0  0  0  0  0  0  0  0  0  0
   90.9320   93.9980  -46.0770 C   0  0  0  0  0  3  0  0  0  0  0  0
   90.9260   92.9570  -46.9300 N   0  0  0  0  0  0  0  0  0  0  0  0
   91.5110   91.8980  -46.3420 C   0  0  0  0  0  3  0  0  0  0  0  0
   91.8810   92.3280  -45.0850 C   0  0  0  0  0  3  0  0  0  0  0  0
   89.4600   99.5580  -46.4190 S   0  0  0  0  0  0  0  0  0  0  0  0
   89.1850  100.9800  -46.7760 O   0  0  0  0  0  0  0  0  0  0  0  0
   89.8810   98.8250  -47.6510 O   0  0  0  0  0  0  0  0  0  0  0  0
   87.9310   98.8550  -45.8510 C   0  0  0  0  0  0  0  0  0  0  0  0
   86.6020   99.6250  -45.1120 S   0  0  0  0  0  0  0  0  0  0  0  0
   85.5900   98.2730  -44.8940 C   0  0  0  0  0  0  0  0  0  0  0  0
   86.3300   97.2380  -45.4110 C   0  0  0  0  0  3  0  0  0  0  0  0
   83.8410   98.1850  -44.1180 Br  0  0  0  0  0  0  0  0  0  0  0  0
   87.5400   97.5470  -45.9040 C   0  0  0  0  0  3  0  0  0  0  0  0
  1  2  1  0  0  0  0
  2  3  1  0  0  0  0
  4  3  1  0  0  0  0
  4  7  1  0  0  0  0
  5  4  1  0  0  0  0
  6  1  1  0  0  0  0
  6  5  1  0  0  0  0
  8  7  1  0  0  0  0
  8 13  1  0  0  0  0
  9  8  1  0  0  0  0
 10  9  2  0  0  0  0
 10 11  1  0  0  0  0
 11 12  2  0  0  0  0
 12 13  1  0  0  0  0
 13 14  2  0  0  0  0
 15 10  1  0  0  0  0
 16 15  1  0  0  0  0
 17 18  1  0  0  0  0
 17 16  2  0  0  0  0
 18 19  2  0  0  0  0
 19 15  1  0  0  0  0
 20 23  1  0  0  0  0
 20  1  1  0  0  0  0
 21 20  2  0  0  0  0
 22 20  2  0  0  0  0
 23 24  1  0  0  0  0
 24 25  1  0  0  0  0
 25 27  1  0  0  0  0
 26 25  2  0  0  0  0
 28 23  2  0  0  0  0
 28 26  1  0  0  0  0
M  END
>  <Pose>
1

>  <Score>
-6.674

$$$$
