MODEL 1
REMARK VINA RESULT:    -6.674      0.000      0.000
REMARK INTER + INTRA:          -9.388
REMARK INTER:                  -8.625
REMARK INTRA:                  -0.763
REMARK UNBOUND:                -0.763
REMARK  5 active torsions:
REMARK  status: ('A' for Active; 'I' for Inactive)
REMARK    1  A    between atoms: S_1  and  N_4 
REMARK    2  A    between atoms: S_1  and  C_23 
REMARK    3  A    between atoms: N_7  and  C_10 
REMARK    4  A    between atoms: C_10  and  N_11 
REMARK    5  A    between atoms: C_13  and  N_18 
ROOT
ATOM      1  N   UNK d   1      90.606  99.404 -45.226  0.00  0.00    -0.303 N 
ATOM      2  C   UNK d   1      90.593 100.308 -44.148  0.00  0.00     0.165 C 
ATOM      3  C   UNK d   1      91.650 100.024 -43.117  0.00  0.00     0.295 C 
ATOM      4  N   UNK d   1      92.154  98.698 -43.144  0.00  0.00     0.111 NA
ATOM      5  C   UNK d   1      92.675  98.369 -44.422  0.00  0.00     0.295 C 
ATOM      6  C   UNK d   1      91.831  98.789 -45.568  0.00  0.00     0.165 C 
ENDROOT
BRANCH   4   7
ATOM      7  C   UNK d   1      91.272  97.778 -42.528  0.00  0.00     0.426 C 
BRANCH   7   8
ATOM      8  N   UNK d   1      91.642  96.404 -42.560  0.00  0.00    -0.204 N 
ATOM      9  N   UNK d   1      91.440  95.677 -43.640  0.00  0.00    -0.149 NA
ATOM     10  C   UNK d   1      91.753  94.377 -43.751  0.00  0.00     0.155 A 
ATOM     11  C   UNK d   1      92.324  93.782 -42.651  0.00  0.00     0.058 A 
ATOM     12  C   UNK d   1      92.561  94.488 -41.491  0.00  0.00     0.080 A 
ATOM     13  C   UNK d   1      92.199  95.829 -41.483  0.00  0.00     0.265 A 
ATOM     14  O   UNK d   1      92.422  96.482 -40.404  0.00  0.00    -0.267 OA
BRANCH  10  15
ATOM     15  N   UNK d   1      91.520  93.613 -44.940  0.00  0.00    -0.298 N 
ATOM     16  C   UNK d   1      90.932  93.998 -46.077  0.00  0.00     0.215 A 
ATOM     17  N   UNK d   1      90.926  92.957 -46.930  0.00  0.00    -0.254 NA
ATOM     18  C   UNK d   1      91.511  91.898 -46.342  0.00  0.00     0.135 A 
ATOM     19  C   UNK d   1      91.881  92.328 -45.085  0.00  0.00     0.119 A 
ENDBRANCH  10  15
ENDBRANCH   7   8
ENDBRANCH   4   7
BRANCH   1  20
ATOM     20  S   UNK d   1      89.460  99.558 -46.419  0.00  0.00     0.267 S 
ATOM     21  O   UNK d   1      89.185 100.980 -46.776  0.00  0.00    -0.200 OA
ATOM     22  O   UNK d   1      89.881  98.825 -47.651  0.00  0.00    -0.200 OA
BRANCH  20  23
ATOM     23  C   UNK d   1      87.931  98.855 -45.851  0.00  0.00     0.121 A 
ATOM     24  S   UNK d   1      86.602  99.625 -45.112  0.00  0.00    -0.069 SA
ATOM     25  C   UNK d   1      85.590  98.273 -44.894  0.00  0.00     0.052 A 
ATOM     26  C   UNK d   1      86.330  97.238 -45.411  0.00  0.00     0.028 A 
ATOM     27 Br   UNK d   1      83.841  98.185 -44.118  0.00  0.00    -0.043 Br
ATOM     28  C   UNK d   1      87.540  97.547 -45.904  0.00  0.00     0.035 A 
ENDBRANCH  20  23
ENDBRANCH   1  20
TORSDOF 5
ENDMDL
