MODEL 1
REMARK VINA RESULT:    -6.471      0.000      0.000
REMARK INTER + INTRA:          -9.021
REMARK INTER:                  -7.985
REMARK INTRA:                  -1.037
REMARK UNBOUND:                -1.037
REMARK  4 active torsions:
REMARK  status: ('A' for Active; 'I' for Inactive)
REMARK    1  A    between atoms: S_1  and  N_4 
REMARK    2  A    between atoms: S_1  and  C_22 
REMARK    3  A    between atoms: N_7  and  C_10 
REMARK    4  A    between atoms: C_10  and  N_11 
ROOT
ATOM      1  N   UNK d   1      90.914  99.204 -44.344  0.00  0.00    -0.203 NA
ATOM      2  C   UNK d   1      92.028  99.587 -43.536  0.00  0.00     0.127 C 
ATOM      3  C   UNK d   1      91.436 100.361 -42.345  0.00  0.00     0.134 C 
ATOM      4  N   UNK d   1      90.269 101.043 -42.700  0.00  0.00    -0.393 N 
ATOM      5  C   UNK d   1      90.191 101.507 -44.059  0.00  0.00     0.134 C 
ATOM      6  C   UNK d   1      90.520 100.428 -45.066  0.00  0.00     0.127 C 
ENDROOT
BRANCH   4   7
ATOM      7  C   UNK d   1      89.040 100.750 -42.090  0.00  0.00     0.273 C 
BRANCH   7   8
ATOM      8  N   UNK d   1      87.995 100.198 -42.889  0.00  0.00    -0.223 N 
ATOM      9  N   UNK d   1      88.047  98.851 -43.332  0.00  0.00    -0.278 N 
ATOM     10  C   UNK d   1      86.851  98.645 -44.080  0.00  0.00     0.122 A 
ATOM     11  H   UNK d   1      88.806  98.153 -43.149  0.00  0.00     0.189 HD
ATOM     12  C   UNK d   1      86.550  97.488 -44.656  0.00  0.00     0.023 C 
ATOM     13  N   UNK d   1      86.060  99.822 -44.115  0.00  0.00    -0.283 N 
ATOM     14  C   UNK d   1      85.411  97.004 -45.469  0.00  0.00     0.031 C 
ATOM     15  C   UNK d   1      84.756  98.143 -46.212  0.00  0.00     0.006 C 
ATOM     16  C   UNK d   1      84.009  98.954 -45.168  0.00  0.00     0.021 C 
ATOM     17  C   UNK d   1      84.801 100.143 -44.715  0.00  0.00     0.135 C 
ATOM     18  C   UNK d   1      86.793 100.785 -43.364  0.00  0.00     0.346 A 
ATOM     19  O   UNK d   1      86.398 101.963 -43.177  0.00  0.00    -0.245 OA
ENDBRANCH   7   8
ENDBRANCH   4   7
BRANCH   1  20
ATOM     20  S   UNK d   1      91.286  98.031 -45.534  0.00  0.00     0.243 S 
ATOM     21  O   UNK d   1      92.548  98.367 -46.284  0.00  0.00    -0.206 OA
ATOM     22  O   UNK d   1      90.169  98.056 -46.552  0.00  0.00    -0.206 OA
BRANCH  20  23
ATOM     23  C   UNK d   1      91.408  96.428 -44.920  0.00  0.00     0.076 A 
ATOM     24  C   UNK d   1      91.585  96.078 -43.614  0.00  0.00     0.043 A 
ATOM     25  C   UNK d   1      91.671  94.750 -43.223  0.00  0.00     0.012 A 
ATOM     26  C   UNK d   1      91.581  93.735 -44.129  0.00  0.00     0.019 A 
ATOM     27 Br   UNK d   1      91.921  94.282 -41.376  0.00  0.00    -0.051 Br
ATOM     28  C   UNK d   1      91.400  94.060 -45.464  0.00  0.00     0.003 A 
ATOM     29  C   UNK d   1      91.318  95.377 -45.839  0.00  0.00     0.025 A 
ENDBRANCH  20  23
ENDBRANCH   1  20
TORSDOF 4
ENDMDL
