MODEL 1
REMARK VINA RESULT:    -6.753      0.000      0.000
REMARK INTER + INTRA:          -8.696
REMARK INTER:                  -8.332
REMARK INTRA:                  -0.363
REMARK UNBOUND:                -0.363
REMARK  4 active torsions:
REMARK  status: ('A' for Active; 'I' for Inactive)
REMARK    1  A    between atoms: S_1  and  N_4 
REMARK    2  A    between atoms: S_1  and  C_21 
REMARK    3  A    between atoms: N_7  and  C_10 
REMARK    4  A    between atoms: N_11  and  C_15 
ROOT
ATOM      1  N   UNK d   1      91.945  99.942 -43.740  0.00  0.00    -0.304 N 
ATOM      2  C   UNK d   1      92.913  99.504 -44.670  0.00  0.00     0.155 C 
ATOM      3  C   UNK d   1      92.891  98.059 -45.043  0.00  0.00     0.162 C 
ATOM      4  N   UNK d   1      91.859  97.289 -44.393  0.00  0.00    -0.209 N 
ATOM      5  C   UNK d   1      91.483  97.611 -43.054  0.00  0.00     0.162 C 
ATOM      6  C   UNK d   1      91.555  99.057 -42.708  0.00  0.00     0.155 C 
ENDROOT
BRANCH   4   7
ATOM      7  C   UNK d   1      91.267  96.217 -45.141  0.00  0.00     0.747 A 
ATOM      8  N   UNK d   1      91.379  94.908 -44.861  0.00  0.00    -0.041 N 
ATOM      9  N   UNK d   1      90.687  94.282 -45.821  0.00  0.00    -0.025 NA
ATOM     10  N   UNK d   1      90.175  95.166 -46.649  0.00  0.00    -0.007 NA
ATOM     11  N   UNK d   1      90.512  96.378 -46.261  0.00  0.00     0.065 NA
BRANCH   8  12
ATOM     12  C   UNK d   1      92.076  94.323 -43.770  0.00  0.00     0.078 A 
ATOM     13  C   UNK d   1      91.772  94.651 -42.469  0.00  0.00     0.032 A 
ATOM     14  C   UNK d   1      92.474  94.059 -41.420  0.00  0.00     0.002 A 
ATOM     15  C   UNK d   1      93.475  93.143 -41.655  0.00  0.00     0.000 A 
ATOM     16  C   UNK d   1      93.785  92.809 -42.980  0.00  0.00     0.002 A 
ATOM     17  C   UNK d   1      93.072  93.412 -44.017  0.00  0.00     0.032 A 
ENDBRANCH   8  12
ENDBRANCH   4   7
BRANCH   1  18
ATOM     18  S   UNK d   1      90.716 100.962 -44.325  0.00  0.00     0.260 S 
ATOM     19  O   UNK d   1      90.950 101.509 -45.677  0.00  0.00    -0.200 OA
ATOM     20  O   UNK d   1      90.624 102.161 -43.387  0.00  0.00    -0.200 OA
BRANCH  18  21
ATOM     21  C   UNK d   1      89.181 100.143 -44.251  0.00  0.00     0.079 A 
ATOM     22  C   UNK d   1      88.816  99.160 -45.136  0.00  0.00     0.026 A 
ATOM     23  C   UNK d   1      87.584  98.510 -45.064  0.00  0.00     0.020 A 
ATOM     24  C   UNK d   1      86.700  98.884 -44.047  0.00  0.00     0.011 A 
ATOM     25  C   UNK d   1      87.056  99.870 -43.154  0.00  0.00     0.020 A 
ATOM     26 Br   UNK d   1      84.994  98.032 -43.887  0.00  0.00    -0.051 Br
ATOM     27  C   UNK d   1      88.273 100.483 -43.258  0.00  0.00     0.026 A 
ENDBRANCH  18  21
ENDBRANCH   1  18
TORSDOF 4
ENDMDL
