/Users/jonathanwahrer/Desktop/Msc/3_Semester/Drug_Design_Praktikum/waehrer_HTS_screening/HTS_experiment/out/docking_results/vina_output/4agl/1089_docked.pdbqt
 OpenBabel03202223583D

 25 28  0  0  0  0  0  0  0  0999 V2000
   90.2270  100.0500  -44.8030 N   0  0  0  0  0  0  0  0  0  0  0  0
   91.6360  100.0040  -44.7430 C   0  0  0  0  0  2  0  0  0  0  0  0
   92.2280   98.8880  -43.9190 C   0  0  0  0  0  2  0  0  0  0  0  0
   91.2380   98.0990  -43.2550 N   0  0  0  0  0  0  0  0  0  0  0  0
   89.9430   98.6180  -42.8520 C   0  0  0  0  0  2  0  0  0  0  0  0
   89.6200   99.9130  -43.5370 C   0  0  0  0  0  2  0  0  0  0  0  0
   91.4990   96.7330  -42.9630 C   0  0  0  0  0  0  0  0  0  0  0  0
   91.7670   96.3600  -41.6760 N   0  0  0  0  0  0  0  0  0  0  0  0
   92.0060   95.0820  -41.3790 C   0  0  0  0  0  3  0  0  0  0  0  0
   91.9950   94.1240  -42.3050 N   0  0  0  0  0  0  0  0  0  0  0  0
   91.7350   94.4670  -43.5640 C   0  0  0  0  0  0  0  0  0  0  0  0
   91.6610   93.7390  -44.6820 N   0  0  0  0  0  0  0  0  0  0  0  0
   91.4760   95.7840  -43.9500 C   0  0  0  0  0  0  0  0  0  0  0  0
   91.3690   94.5710  -45.7200 C   0  0  0  0  0  3  0  0  0  0  0  0
   91.2560   95.8220  -45.2720 N   0  0  0  0  0  0  0  0  0  0  0  0
   91.0400   96.6490  -45.8580 H   0  0  0  0  0  0  0  0  0  0  0  0
   89.4430   99.4410  -46.1470 S   0  0  0  0  0  0  0  0  0  0  0  0
   90.3200   98.3610  -46.7720 O   0  0  0  0  0  0  0  0  0  0  0  0
   89.2070  100.4530  -47.2080 O   0  0  0  0  0  0  0  0  0  0  0  0
   87.9030   98.6450  -45.8110 C   0  0  0  0  0  0  0  0  0  0  0  0
   86.3600   99.3300  -45.5810 S   0  0  0  0  0  0  0  0  0  0  0  0
   85.4590   97.9100  -45.3170 C   0  0  0  0  0  0  0  0  0  0  0  0
   86.4070   96.9210  -45.4180 C   0  0  0  0  0  3  0  0  0  0  0  0
   83.5920   97.7140  -44.9650 Br  0  0  0  0  0  0  0  0  0  0  0  0
   87.6620   97.3060  -45.6730 C   0  0  0  0  0  3  0  0  0  0  0  0
  1  2  1  0  0  0  0
  1  6  1  0  0  0  0
  2  3  1  0  0  0  0
  3  4  1  0  0  0  0
  4  7  1  0  0  0  0
  4  5  1  0  0  0  0
  6  5  1  0  0  0  0
  7  8  1  0  0  0  0
  8  9  2  0  0  0  0
 10  9  1  0  0  0  0
 11 10  2  0  0  0  0
 12 11  1  0  0  0  0
 13 11  1  0  0  0  0
 13  7  2  0  0  0  0
 14 15  1  0  0  0  0
 14 12  2  0  0  0  0
 15 13  1  0  0  0  0
 16 15  1  0  0  0  0
 17 20  1  0  0  0  0
 17  1  1  0  0  0  0
 18 17  2  0  0  0  0
 19 17  2  0  0  0  0
 20 25  2  0  0  0  0
 20 21  1  0  0  0  0
 21 22  1  0  0  0  0
 22 24  1  0  0  0  0
 23 22  2  0  0  0  0
 25 23  1  0  0  0  0
M  END
>  <Pose>
1

>  <Score>
-6.053

$$$$
