MODEL 1
REMARK VINA RESULT:    -5.942      0.000      0.000
REMARK INTER + INTRA:          -8.750
REMARK INTER:                  -7.678
REMARK INTRA:                  -1.071
REMARK UNBOUND:                -1.071
REMARK  5 active torsions:
REMARK  status: ('A' for Active; 'I' for Inactive)
REMARK    1  A    between atoms: S_1  and  N_4 
REMARK    2  A    between atoms: S_1  and  C_26 
REMARK    3  A    between atoms: C_10  and  C_11 
REMARK    4  A    between atoms: C_11  and  C_12 
REMARK       I    between atoms: C_12  and  N_14 
REMARK    5  A    between atoms: N_17  and  C_20 
ROOT
ATOM      1  N   UNK d   1      85.861  99.871 -44.237  0.00  0.00    -0.191 NA
ATOM      2  C   UNK d   1      84.619  99.752 -43.551  0.00  0.00     0.128 C 
ATOM      3  C   UNK d   1      84.301 100.896 -42.614  0.00  0.00     0.138 C 
ATOM      4  N   UNK d   1      84.577 102.184 -43.255  0.00  0.00    -0.358 N 
ATOM      5  C   UNK d   1      85.863 102.224 -43.916  0.00  0.00     0.237 C 
ATOM      6  O   UNK d   1      86.254 103.208 -44.547  0.00  0.00    -0.272 OA
ATOM      7  C   UNK d   1      86.634 100.948 -43.737  0.00  0.00     0.175 C 
ATOM      8  H   UNK d   1      83.953 102.990 -43.256  0.00  0.00     0.162 HD
ENDROOT
BRANCH   7   9
ATOM      9  C   UNK d   1      88.037 101.057 -44.187  0.00  0.00     0.133 C 
BRANCH   9  10
ATOM     10  C   UNK d   1      88.903 100.225 -43.318  0.00  0.00     0.221 C 
ATOM     11  O   UNK d   1      89.132 100.668 -42.161  0.00  0.00    -0.273 OA
ATOM     12  N   UNK d   1      89.452  98.984 -43.764  0.00  0.00    -0.349 N 
ATOM     13  C   UNK d   1      89.183  98.490 -45.087  0.00  0.00     0.145 C 
ATOM     14  C   UNK d   1      90.285  98.228 -42.866  0.00  0.00     0.145 C 
ATOM     15  C   UNK d   1      90.280  97.649 -45.662  0.00  0.00     0.143 C 
ATOM     16  N   UNK d   1      91.028  96.895 -44.670  0.00  0.00    -0.378 N 
ATOM     17  C   UNK d   1      91.520  97.691 -43.556  0.00  0.00     0.143 C 
BRANCH  16  18
ATOM     18  C   UNK d   1      91.301  95.522 -44.729  0.00  0.00     0.030 A 
ATOM     19  C   UNK d   1      91.148  94.852 -45.922  0.00  0.00     0.029 A 
ATOM     20  C   UNK d   1      91.407  93.491 -45.973  0.00  0.00     0.002 A 
ATOM     21  C   UNK d   1      91.812  92.770 -44.877  0.00  0.00     0.000 A 
ATOM     22  C   UNK d   1      91.963  93.444 -43.688  0.00  0.00     0.002 A 
ATOM     23  C   UNK d   1      91.707  94.806 -43.629  0.00  0.00     0.029 A 
ENDBRANCH  16  18
ENDBRANCH   9  10
ENDBRANCH   7   9
BRANCH   1  24
ATOM     24  S   UNK d   1      85.603  99.853 -45.916  0.00  0.00     0.244 S 
ATOM     25  O   UNK d   1      86.732 100.419 -46.717  0.00  0.00    -0.206 OA
ATOM     26  O   UNK d   1      84.373 100.674 -46.281  0.00  0.00    -0.206 OA
BRANCH  24  27
ATOM     27  C   UNK d   1      85.277  98.232 -46.504  0.00  0.00     0.074 A 
ATOM     28  C   UNK d   1      84.007  97.668 -46.469  0.00  0.00     0.026 A 
ATOM     29  C   UNK d   1      83.730  96.407 -46.917  0.00  0.00     0.020 A 
ATOM     30  C   UNK d   1      84.730  95.627 -47.436  0.00  0.00     0.011 A 
ATOM     31  C   UNK d   1      86.023  96.162 -47.488  0.00  0.00     0.020 A 
ATOM     32 Br   UNK d   1      84.407  93.864 -48.077  0.00  0.00    -0.051 Br
ATOM     33  C   UNK d   1      86.265  97.433 -47.028  0.00  0.00     0.026 A 
ENDBRANCH  24  27
ENDBRANCH   1  24
TORSDOF 5
ENDMDL
