MODEL 1
REMARK VINA RESULT:    -7.339      0.000      0.000
REMARK INTER + INTRA:         -11.258
REMARK INTER:                 -10.342
REMARK INTRA:                  -0.916
REMARK UNBOUND:                -0.916
REMARK  7 active torsions:
REMARK  status: ('A' for Active; 'I' for Inactive)
REMARK    1  A    between atoms: S_1  and  N_4 
REMARK    2  A    between atoms: S_1  and  C_10 
REMARK    3  A    between atoms: C_13  and  C_16 
REMARK    4  A    between atoms: C_16  and  O_17 
REMARK    5  A    between atoms: O_17  and  C_18 
REMARK    6  A    between atoms: C_18  and  C_20 
REMARK    7  A    between atoms: C_20  and  N_21 
ROOT
ATOM      1  C   UNK d   1      91.444  91.605 -46.278  0.00  0.00     0.217 C 
ENDROOT
BRANCH   1   2
ATOM      2  C   UNK d   1      91.443  92.942 -45.635  0.00  0.00    -0.034 A 
ATOM      3  C   UNK d   1      91.882  93.196 -44.370  0.00  0.00     0.011 A 
ATOM      4  C   UNK d   1      91.846  94.480 -43.836  0.00  0.00     0.025 A 
ATOM      5  C   UNK d   1      91.370  95.539 -44.554  0.00  0.00     0.074 A 
ATOM      6  C   UNK d   1      90.925  95.286 -45.838  0.00  0.00     0.025 A 
ATOM      7  C   UNK d   1      90.960  94.010 -46.370  0.00  0.00     0.011 A 
BRANCH   5   8
ATOM      8  S   UNK d   1      91.309  97.174 -43.911  0.00  0.00     0.243 S 
ATOM      9  O   UNK d   1      91.647  97.203 -42.460  0.00  0.00    -0.206 OA
ATOM     10  O   UNK d   1      92.385  97.955 -44.638  0.00  0.00    -0.206 OA
BRANCH   8  11
ATOM     11  N   UNK d   1      89.817  97.942 -44.228  0.00  0.00    -0.202 NA
ATOM     12  C   UNK d   1      89.856  98.807 -45.378  0.00  0.00     0.134 C 
ATOM     13  C   UNK d   1      88.663  99.758 -45.249  0.00  0.00     0.183 C 
ATOM     14  O   UNK d   1      88.904 100.707 -44.280  0.00  0.00    -0.389 OA
ATOM     15  C   UNK d   1      89.833 100.192 -43.359  0.00  0.00     0.183 C 
ATOM     16  C   UNK d   1      89.427  98.751 -43.089  0.00  0.00     0.134 C 
ENDBRANCH   8  11
ENDBRANCH   5   8
ENDBRANCH   1   2
BRANCH   1  17
ATOM     17  O   UNK d   1      92.073  91.620 -47.540  0.00  0.00    -0.316 OA
BRANCH  17  18
ATOM     18  C   UNK d   1      92.512  90.508 -48.216  0.00  0.00     0.277 C 
ATOM     19  O   UNK d   1      93.427  89.818 -47.724  0.00  0.00    -0.263 OA
BRANCH  18  20
ATOM     20  C   UNK d   1      91.926  90.127 -49.498  0.00  0.00     0.246 C 
BRANCH  20  21
ATOM     21  N   UNK d   1      90.834  89.205 -49.381  0.00  0.00    -0.271 N 
ATOM     22  C   UNK d   1      89.460  89.614 -49.398  0.00  0.00     0.262 A 
ATOM     23  O   UNK d   1      89.044  90.802 -49.515  0.00  0.00    -0.267 OA
ATOM     24  C   UNK d   1      88.611  88.437 -49.260  0.00  0.00     0.049 A 
ATOM     25  C   UNK d   1      89.411  87.329 -49.158  0.00  0.00     0.048 A 
ATOM     26  C   UNK d   1      87.248  88.252 -49.215  0.00  0.00     0.037 A 
ATOM     27  C   UNK d   1      88.855  86.072 -49.016  0.00  0.00     0.019 A 
ATOM     28  C   UNK d   1      90.806  87.796 -49.233  0.00  0.00     0.262 A 
ATOM     29  C   UNK d   1      87.484  85.902 -48.974  0.00  0.00     0.020 A 
ATOM     30  C   UNK d   1      86.667  87.009 -49.075  0.00  0.00     0.011 A 
ATOM     31 Br   UNK d   1      84.770  86.826 -49.020  0.00  0.00    -0.051 Br
ATOM     32  O   UNK d   1      91.832  87.082 -49.178  0.00  0.00    -0.267 OA
ENDBRANCH  20  21
ENDBRANCH  18  20
ENDBRANCH  17  18
ENDBRANCH   1  17
TORSDOF 7
ENDMDL
