/Users/jonathanwahrer/Desktop/Msc/3_Semester/Drug_Design_Praktikum/waehrer_HTS_screening/HTS_experiment/out/docking_results/vina_output/4agl/1130_docked.pdbqt
 OpenBabel03212200013D

 29 32  0  0  0  0  0  0  0  0999 V2000
   90.3340   99.0990  -44.3630 C   0  0  0  0  0  0  0  0  0  0  0  0
   90.1170   98.6170  -45.5990 N   0  0  0  0  0  0  0  0  0  0  0  0
   90.3540   97.3640  -45.9520 N   0  0  0  0  0  2  0  0  0  0  0  0
   90.8430   96.4730  -45.0640 C   0  0  0  0  0  0  0  0  0  0  0  0
   91.0750   96.9450  -43.7880 C   0  0  0  0  0  0  0  0  0  0  0  0
   91.5530   95.8940  -43.0920 N   0  0  0  0  0  0  0  0  0  0  0  0
   91.6300   94.7970  -43.8640 C   0  0  0  0  0  0  0  0  0  0  0  0
   91.1870   95.1330  -45.1250 C   0  0  0  0  0  0  0  0  0  0  0  0
   91.1370   94.2230  -46.1690 C   0  0  0  0  0  3  0  0  0  0  0  0
   91.5590   92.9340  -45.8960 C   0  0  0  0  0  0  0  0  0  0  0  0
   92.0090   92.5710  -44.6430 C   0  0  0  0  0  3  0  0  0  0  0  0
   92.0490   93.4900  -43.6220 C   0  0  0  0  0  3  0  0  0  0  0  0
   91.4910   91.6780  -47.3370 Br  0  0  0  0  0  0  0  0  0  0  0  0
   91.9240   95.9740  -41.6930 C   0  0  0  0  0  1  0  0  0  0  0  0
   90.8220   98.2440  -43.4480 N   0  0  0  0  0  2  0  0  0  0  0  0
   89.9850  100.8220  -43.9550 S   0  0  0  0  0  0  0  0  0  0  0  0
   88.5090  100.8630  -42.9030 C   0  0  0  0  0  2  0  0  0  0  0  0
   87.4070  100.1490  -43.6090 C   0  0  0  0  0  0  0  0  0  0  0  0
   86.7730  100.7040  -44.5620 O   0  0  0  0  0  0  0  0  0  0  0  0
   87.0260   98.8390  -43.2490 N   0  0  0  0  0  0  0  0  0  0  0  0
   87.5360   98.3710  -42.4690 H   0  0  0  0  0  0  0  0  0  0  0  0
   85.9800   98.1620  -43.9200 C   0  0  0  0  0  0  0  0  0  0  0  0
   84.6730   98.1370  -43.6080 N   0  0  0  0  0  0  0  0  0  0  0  0
   84.0150   97.4030  -44.4620 O   0  0  0  0  0  0  0  0  0  0  0  0
   84.8630   96.9490  -45.3210 N   0  0  0  0  0  0  0  0  0  0  0  0
   86.1060   97.3720  -45.0580 C   0  0  0  0  0  0  0  0  0  0  0  0
   87.2710   97.0660  -45.7940 N   0  0  0  0  0  0  0  0  0  0  0  0
   87.5020   97.6250  -46.6360 H   0  0  0  0  0  0  0  0  0  0  0  0
   87.9180   96.2960  -45.5270 H   0  0  0  0  0  0  0  0  0  0  0  0
  1 16  1  0  0  0  0
  1 15  1  0  0  0  0
  2  1  2  0  0  0  0
  3  2  1  0  0  0  0
  3  4  1  0  0  0  0
  4  5  2  0  0  0  0
  5 15  1  0  0  0  0
  5  6  1  0  0  0  0
  6 14  1  0  0  0  0
  7 12  1  0  0  0  0
  7  6  1  0  0  0  0
  8  4  1  0  0  0  0
  8  7  2  0  0  0  0
  9 10  2  0  0  0  0
  9  8  1  0  0  0  0
 10 11  1  0  0  0  0
 11 12  2  0  0  0  0
 13 10  1  0  0  0  0
 16 17  1  0  0  0  0
 18 20  1  0  0  0  0
 18 17  1  0  0  0  0
 19 18  2  0  0  0  0
 20 21  1  0  0  0  0
 22 23  2  0  0  0  0
 22 20  1  0  0  0  0
 24 23  1  0  0  0  0
 25 26  2  0  0  0  0
 25 24  1  0  0  0  0
 26 22  1  0  0  0  0
 27 29  1  0  0  0  0
 27 26  1  0  0  0  0
 28 27  1  0  0  0  0
M  END
>  <Pose>
1

>  <Score>
-6.708

$$$$
