MODEL 1
REMARK VINA RESULT:    -6.381      0.000      0.000
REMARK INTER + INTRA:         -10.118
REMARK INTER:                  -9.179
REMARK INTRA:                  -0.939
REMARK UNBOUND:                -0.939
REMARK  10 active torsions:
REMARK  status: ('A' for Active; 'I' for Inactive)
REMARK    1  A    between atoms: S_1  and  C_2 
REMARK    2  A    between atoms: S_1  and  C_10 
REMARK    3  A    between atoms: C_2  and  C_3 
REMARK    4  A    between atoms: N_11  and  C_21 
REMARK    5  A    between atoms: C_14  and  N_20 
REMARK    6  A    between atoms: C_16  and  O_19 
REMARK    7  A    between atoms: C_23  and  C_28 
REMARK    8  A    between atoms: C_24  and  O_27 
REMARK    9  A    between atoms: C_25  and  O_26 
REMARK   10  A    between atoms: C_28  and  O_29 
ROOT
ATOM      1  C   UNK d   1      88.479  97.909 -45.120  0.00  0.00     0.173 A 
ATOM      2  N   UNK d   1      88.247  99.013 -44.409  0.00  0.00    -0.277 N 
ATOM      3  C   UNK d   1      86.907  99.057 -44.181  0.00  0.00     0.186 A 
ATOM      4  N   UNK d   1      86.028  99.898 -43.616  0.00  0.00    -0.042 NA
ATOM      5  C   UNK d   1      84.701  99.736 -43.579  0.00  0.00     0.724 A 
ATOM      6  N   UNK d   1      84.174  98.593 -44.166  0.00  0.00    -0.036 NA
ATOM      7  C   UNK d   1      84.956  97.716 -44.743  0.00  0.00     0.214 A 
ATOM      8  C   UNK d   1      86.323  97.907 -44.777  0.00  0.00     0.159 A 
ATOM      9  N   UNK d   1      87.332  97.250 -45.337  0.00  0.00    -0.216 NA
ENDROOT
BRANCH   2  10
ATOM     10  C   UNK d   1      89.145  99.996 -43.895  0.00  0.00     0.263 C 
ATOM     11  O   UNK d   1      90.326 100.148 -44.654  0.00  0.00    -0.353 OA
ATOM     12  C   UNK d   1      91.031 101.022 -43.794  0.00  0.00     0.179 C 
ATOM     13  C   UNK d   1      91.055 100.105 -42.543  0.00  0.00     0.182 C 
ATOM     14  C   UNK d   1      89.543  99.857 -42.462  0.00  0.00     0.198 C 
BRANCH  12  15
ATOM     15  C   UNK d   1      92.391 101.330 -44.292  0.00  0.00     0.198 C 
BRANCH  15  16
ATOM     16  O   UNK d   1      93.355 100.602 -43.584  0.00  0.00    -0.398 OA
ATOM     17  H   UNK d   1      93.216  99.632 -43.812  0.00  0.00     0.209 HD
ENDBRANCH  15  16
ENDBRANCH  12  15
BRANCH  13  18
ATOM     18  O   UNK d   1      91.556 100.738 -41.438  0.00  0.00    -0.390 OA
ATOM     19  H   UNK d   1      90.872 101.332 -41.046  0.00  0.00     0.210 HD
ENDBRANCH  13  18
BRANCH  14  20
ATOM     20  O   UNK d   1      89.005 100.905 -41.672  0.00  0.00    -0.388 OA
ATOM     21  H   UNK d   1      89.469 101.710 -41.994  0.00  0.00     0.210 HD
ENDBRANCH  14  20
ENDBRANCH   2  10
BRANCH   1  22
ATOM     22  S   UNK d   1      90.066  97.398 -45.793  0.00  0.00    -0.087 SA
BRANCH  22  23
ATOM     23  C   UNK d   1      91.155  96.750 -44.450  0.00  0.00     0.122 C 
BRANCH  23  24
ATOM     24  C   UNK d   1      91.314  95.286 -44.605  0.00  0.00    -0.031 A 
ATOM     25  C   UNK d   1      91.762  94.446 -43.615  0.00  0.00     0.018 A 
ATOM     26  C   UNK d   1      92.022  93.139 -43.839  0.00  0.00     0.019 A 
ATOM     27 Br   UNK d   1      91.865  95.207 -41.864  0.00  0.00    -0.051 Br
ATOM     28  C   UNK d   1      91.842  92.566 -45.093  0.00  0.00     0.001 A 
ATOM     29  C   UNK d   1      91.388  93.396 -46.128  0.00  0.00     0.001 A 
ATOM     30  C   UNK d   1      91.130  94.731 -45.886  0.00  0.00     0.009 A 
ENDBRANCH  23  24
ENDBRANCH  22  23
ENDBRANCH   1  22
BRANCH   5  31
ATOM     31  N   UNK d   1      83.771 100.672 -43.013  0.00  0.00    -0.231 N 
ATOM     32  H   UNK d   1      83.078 100.487 -42.291  0.00  0.00     0.174 HD
ATOM     33  H   UNK d   1      83.782 101.671 -43.421  0.00  0.00     0.174 HD
ENDBRANCH   5  31
BRANCH   7  34
ATOM     34  O   UNK d   1      84.489  96.566 -45.329  0.00  0.00    -0.343 OA
ATOM     35  H   UNK d   1      83.558  96.471 -45.719  0.00  0.00     0.219 HD
ENDBRANCH   7  34
TORSDOF 10
ENDMDL
