MODEL 1
REMARK VINA RESULT:    -6.565      0.000      0.000
REMARK INTER + INTRA:          -8.558
REMARK INTER:                  -7.716
REMARK INTRA:                  -0.842
REMARK UNBOUND:                -0.842
REMARK  3 active torsions:
REMARK  status: ('A' for Active; 'I' for Inactive)
REMARK    1  A    between atoms: C_6  and  C_17 
REMARK    2  A    between atoms: N_9  and  C_10 
REMARK    3  A    between atoms: C_23  and  O_30 
ROOT
ATOM      1  C   UNK d   1      89.842  99.098 -44.359  0.00  0.00     0.246 C 
ATOM      2  N   UNK d   1      89.303 100.223 -43.607  0.00  0.00    -0.065 N 
ATOM      3  C   UNK d   1      88.083  99.827 -42.925  0.00  0.00     0.240 C 
ATOM      4  C   UNK d   1      87.510  98.516 -43.396  0.00  0.00     0.067 C 
ATOM      5  C   UNK d   1      87.609  98.477 -44.899  0.00  0.00    -0.043 A 
ATOM      6  C   UNK d   1      88.883  98.819 -45.414  0.00  0.00     0.017 A 
ATOM      7  C   UNK d   1      89.074  98.839 -46.767  0.00  0.00     0.113 A 
ATOM      8  C   UNK d   1      87.991  98.513 -47.581  0.00  0.00     0.139 A 
ATOM      9  C   UNK d   1      86.764  98.183 -47.057  0.00  0.00     0.108 A 
ATOM     10  C   UNK d   1      86.554  98.160 -45.691  0.00  0.00     0.047 A 
ATOM     11  O   UNK d   1      85.903  97.913 -48.101  0.00  0.00    -0.323 OA
ATOM     12  C   UNK d   1      86.496  98.349 -49.299  0.00  0.00     0.352 C 
ATOM     13  O   UNK d   1      87.875  98.446 -48.943  0.00  0.00    -0.320 OA
ATOM     14  C   UNK d   1      89.030 101.384 -44.382  0.00  0.00     0.270 C 
ATOM     15  H   UNK d   1      90.007 100.458 -42.877  0.00  0.00     0.280 HD
ENDROOT
BRANCH   1  16
ATOM     16  C   UNK d   1      91.276  99.202 -44.597  0.00  0.00     0.208 C 
ATOM     17  C   UNK d   1      91.896  99.378 -43.194  0.00  0.00     0.261 C 
ATOM     18  N   UNK d   1      91.717  98.258 -42.343  0.00  0.00    -0.187 NA
ATOM     19  O   UNK d   1      92.488 100.410 -42.868  0.00  0.00    -0.270 OA
ATOM     20  C   UNK d   1      91.656  97.033 -42.723  0.00  0.00     0.190 C 
ATOM     21  S   UNK d   1      91.429  95.683 -41.576  0.00  0.00    -0.010 SA
ATOM     22  N   UNK d   1      91.777  96.826 -44.149  0.00  0.00    -0.259 N 
ATOM     23  C   UNK d   1      91.947  97.935 -45.018  0.00  0.00     0.246 C 
ATOM     24  O   UNK d   1      92.625  97.773 -46.035  0.00  0.00    -0.272 OA
BRANCH  22  25
ATOM     25  C   UNK d   1      91.731  95.535 -44.684  0.00  0.00     0.044 A 
ATOM     26  C   UNK d   1      90.846  95.305 -45.745  0.00  0.00     0.031 A 
ATOM     27  C   UNK d   1      90.745  94.059 -46.325  0.00  0.00     0.021 A 
ATOM     28  C   UNK d   1      91.536  93.019 -45.845  0.00  0.00     0.011 A 
ATOM     29  C   UNK d   1      92.418  93.259 -44.784  0.00  0.00     0.021 A 
ATOM     30 Br   UNK d   1      91.429  91.298 -46.611  0.00  0.00    -0.051 Br
ATOM     31  C   UNK d   1      92.505  94.509 -44.219  0.00  0.00     0.031 A 
ENDBRANCH  22  25
ENDBRANCH   1  16
BRANCH   7  32
ATOM     32  O   UNK d   1      90.299  99.175 -47.327  0.00  0.00    -0.352 OA
ATOM     33  C   UNK d   1      90.473 100.482 -47.862  0.00  0.00     0.210 C 
ENDBRANCH   7  32
TORSDOF 3
ENDMDL
