MODEL 1
REMARK VINA RESULT:    -6.251      0.000      0.000
REMARK INTER + INTRA:          -6.503
REMARK INTER:                  -6.616
REMARK INTRA:                   0.114
REMARK UNBOUND:                 0.114
REMARK  1 active torsions:
REMARK  status: ('A' for Active; 'I' for Inactive)
REMARK    1  A    between atoms: N_11  and  C_14 
ROOT
ATOM      1  S   UNK d   1      92.248 103.064 -40.749  0.00  0.00     0.148 S 
ATOM      2  O   UNK d   1      92.207 104.545 -40.989  0.00  0.00    -0.228 OA
ATOM      3  O   UNK d   1      92.157 102.733 -39.285  0.00  0.00    -0.228 OA
ATOM      4  C   UNK d   1      90.956 102.227 -41.642  0.00  0.00     0.175 C 
ATOM      5  C   UNK d   1      91.456 100.814 -41.868  0.00  0.00     0.195 C 
ATOM      6  N   UNK d   1      92.540 100.852 -42.829  0.00  0.00    -0.318 N 
ATOM      7  C   UNK d   1      93.492 101.942 -42.823  0.00  0.00     0.143 C 
ATOM      8  C   UNK d   1      93.781 102.369 -41.382  0.00  0.00     0.160 C 
ATOM      9  C   UNK d   1      92.374  99.683 -43.621  0.00  0.00     0.328 C 
ATOM     10  O   UNK d   1      93.240  99.189 -44.420  0.00  0.00    -0.246 OA
ATOM     11  N   UNK d   1      91.091  99.109 -43.409  0.00  0.00    -0.259 N 
ATOM     12  C   UNK d   1      90.438  99.942 -42.462  0.00  0.00     0.252 C 
ATOM     13  O   UNK d   1      89.206  99.947 -42.171  0.00  0.00    -0.270 OA
ENDROOT
BRANCH  11  14
ATOM     14  C   UNK d   1      90.530  97.915 -44.022  0.00  0.00     0.135 C 
ATOM     15  C   UNK d   1      90.813  97.878 -45.514  0.00  0.00     0.058 C 
ATOM     16  C   UNK d   1      90.093  96.637 -46.046  0.00  0.00     0.178 C 
ATOM     17  O   UNK d   1      90.760  95.523 -45.479  0.00  0.00    -0.349 OA
ATOM     18  C   UNK d   1      91.224  95.565 -44.169  0.00  0.00     0.094 A 
ATOM     19  C   UNK d   1      91.132  96.707 -43.426  0.00  0.00     0.000 A 
ATOM     20  C   UNK d   1      91.779  94.400 -43.663  0.00  0.00     0.044 A 
ATOM     21  C   UNK d   1      91.587  96.748 -42.138  0.00  0.00     0.012 A 
ATOM     22  C   UNK d   1      92.145  95.613 -41.599  0.00  0.00     0.002 A 
ATOM     23  C   UNK d   1      92.230  94.473 -42.357  0.00  0.00     0.022 A 
ATOM     24 Br   UNK d   1      91.904  92.813 -44.703  0.00  0.00    -0.048 Br
ENDBRANCH  11  14
TORSDOF 1
ENDMDL
