/Users/jonathanwahrer/Desktop/Msc/3_Semester/Drug_Design_Praktikum/waehrer_HTS_screening/HTS_experiment/out/docking_results/vina_output/4agl/1157_docked.pdbqt
 OpenBabel03212200023D

 24 27  0  0  1  0  0  0  0  0999 V2000
   90.3690   99.7380  -44.3870 C   0  0  2  0  0  3  0  0  0  0  0  0
   89.8450   98.3630  -44.0630 C   0  0  0  0  0  2  0  0  0  0  0  0
   91.0560   97.5600  -44.1390 N   0  0  0  0  0  0  0  0  0  0  0  0
   91.7070   97.9710  -45.3610 C   0  0  0  0  0  2  0  0  0  0  0  0
   91.3220   99.4300  -45.5230 C   0  0  0  0  0  2  0  0  0  0  0  0
   91.1630  100.2860  -43.2970 N   0  0  0  0  0  0  0  0  0  0  0  0
   90.5640  100.8660  -42.1560 C   0  0  0  0  0  0  0  0  0  0  0  0
   89.3210  100.9490  -42.0010 O   0  0  0  0  0  0  0  0  0  0  0  0
   92.2050  100.2580  -43.3420 H   0  0  0  0  0  0  0  0  0  0  0  0
   91.3880  101.4180  -41.0560 C   0  0  0  0  0  0  0  0  0  0  0  0
   93.0480  101.2010  -40.7290 S   0  0  0  0  0  0  0  0  0  0  0  0
   93.1790  102.1560  -39.3240 C   0  0  0  0  0  3  0  0  0  0  0  0
   91.9020  102.6250  -39.1480 C   0  0  0  0  0  0  0  0  0  0  0  0
   90.9840  102.2440  -40.0400 C   0  0  0  0  0  3  0  0  0  0  0  0
   91.5250  103.7880  -37.6420 Br  0  0  0  0  0  0  0  0  0  0  0  0
   91.4660   96.5800  -43.1720 C   0  0  0  0  0  0  0  0  0  0  0  0
   91.7450   96.9310  -41.9030 N   0  0  0  0  0  0  0  0  0  0  0  0
   92.1280   95.9910  -41.0200 C   0  0  0  0  0  3  0  0  0  0  0  0
   92.2460   94.6700  -41.3680 C   0  0  0  0  0  3  0  0  0  0  0  0
   91.9690   94.3030  -42.6310 N   0  0  0  0  0  0  0  0  0  0  0  0
   91.5880   95.2530  -43.5070 C   0  0  0  0  0  0  0  0  0  0  0  0
   91.9970   93.0980  -43.2490 C   0  0  0  0  0  3  0  0  0  0  0  0
   91.3860   94.5940  -44.6650 N   0  0  0  0  0  0  0  0  0  0  0  0
   91.6280   93.3020  -44.5250 N   0  0  0  0  0  0  0  0  0  0  0  0
  1  2  1  0  0  0  0
  1  6  1  1  0  0  0
  3  2  1  0  0  0  0
  3 16  1  0  0  0  0
  4  3  1  0  0  0  0
  5  4  1  0  0  0  0
  5  1  1  0  0  0  0
  6  7  1  0  0  0  0
  7  8  2  0  0  0  0
  7 10  1  0  0  0  0
  9  6  1  0  0  0  0
 10 11  1  0  0  0  0
 10 14  2  0  0  0  0
 11 12  1  0  0  0  0
 12 13  2  0  0  0  0
 13 15  1  0  0  0  0
 14 13  1  0  0  0  0
 16 17  2  0  0  0  0
 17 18  1  0  0  0  0
 19 18  2  0  0  0  0
 20 19  1  0  0  0  0
 21 16  1  0  0  0  0
 21 20  1  0  0  0  0
 22 20  1  0  0  0  0
 23 24  1  0  0  0  0
 23 21  2  0  0  0  0
 24 22  2  0  0  0  0
M  END
>  <Pose>
1

>  <Score>
-6.054

$$$$
