MODEL 1
REMARK VINA RESULT:    -6.738      0.000      0.000
REMARK INTER + INTRA:          -8.835
REMARK INTER:                  -8.708
REMARK INTRA:                  -0.127
REMARK UNBOUND:                -0.127
REMARK  5 active torsions:
REMARK  status: ('A' for Active; 'I' for Inactive)
REMARK    1  A    between atoms: C_4  and  C_6 
REMARK    2  A    between atoms: C_7  and  C_9 
REMARK    3  A    between atoms: C_11  and  C_14 
REMARK    4  A    between atoms: N_16  and  C_19 
REMARK    5  A    between atoms: C_19  and  C_20 
REMARK       I    between atoms: C_20  and  N_22 
ROOT
ATOM      1  C   UNK d   1      91.570  92.539 -45.737  0.00  0.00     0.178 A 
ATOM      2  N   UNK d   1      91.291  93.820 -46.041  0.00  0.00    -0.201 NA
ATOM      3  C   UNK d   1      91.587  94.618 -45.001  0.00  0.00     0.229 A 
ATOM      4  N   UNK d   1      92.055  93.792 -44.051  0.00  0.00    -0.102 NA
ATOM      5  O   UNK d   1      92.035  92.561 -44.511  0.00  0.00    -0.195 OA
ENDROOT
BRANCH   3   6
ATOM      6  C   UNK d   1      91.441  96.070 -44.897  0.00  0.00     0.221 A 
ATOM      7  N   UNK d   1      91.059  96.753 -43.805  0.00  0.00    -0.147 NA
ATOM      8  N   UNK d   1      91.035  98.064 -44.069  0.00  0.00    -0.253 N 
ATOM      9  C   UNK d   1      91.409  98.239 -45.356  0.00  0.00     0.231 A 
ATOM     10  N   UNK d   1      91.652  97.000 -45.844  0.00  0.00    -0.218 NA
BRANCH   8  11
ATOM     11  C   UNK d   1      90.673  99.123 -43.141  0.00  0.00     0.254 C 
BRANCH  11  12
ATOM     12  C   UNK d   1      91.818  99.371 -42.239  0.00  0.00     0.235 C 
ATOM     13  O   UNK d   1      92.211 100.547 -42.078  0.00  0.00    -0.272 OA
ATOM     14  N   UNK d   1      92.445  98.289 -41.577  0.00  0.00    -0.369 N 
ATOM     15  H   UNK d   1      92.720  98.346 -40.558  0.00  0.00     0.159 HD
ATOM     16  H   UNK d   1      92.675  97.376 -42.038  0.00  0.00     0.159 HD
ENDBRANCH  11  12
ENDBRANCH   8  11
ENDBRANCH   3   6
BRANCH   1  17
ATOM     17  C   UNK d   1      91.389  91.327 -46.613  0.00  0.00     0.074 A 
ATOM     18  C   UNK d   1      91.761  91.578 -48.081  0.00  0.00     0.032 A 
ATOM     19  C   UNK d   1      92.576  90.700 -47.238  0.00  0.00     0.023 A 
BRANCH  18  20
ATOM     20  C   UNK d   1      90.793  90.920 -49.047  0.00  0.00    -0.045 A 
ATOM     21  C   UNK d   1      90.826  89.590 -49.292  0.00  0.00     0.034 A 
ATOM     22  C   UNK d   1      89.901  89.105 -50.179  0.00  0.00     0.051 A 
ATOM     23  S   UNK d   1      89.029  90.488 -50.638  0.00  0.00    -0.094 SA
ATOM     24 Br   UNK d   1      89.679  87.272 -50.743  0.00  0.00    -0.043 Br
ATOM     25  C   UNK d   1      89.845  91.652 -49.704  0.00  0.00     0.058 A 
ENDBRANCH  18  20
ENDBRANCH   1  17
TORSDOF 5
ENDMDL
