MODEL 1
REMARK VINA RESULT:    -6.327      0.000      0.000
REMARK INTER + INTRA:          -9.674
REMARK INTER:                  -8.731
REMARK INTRA:                  -0.943
REMARK UNBOUND:                -0.943
REMARK  7 active torsions:
REMARK  status: ('A' for Active; 'I' for Inactive)
REMARK    1  A    between atoms: C_5  and  C_6 
REMARK    2  A    between atoms: C_6  and  C_8 
REMARK    3  A    between atoms: C_8  and  N_9 
REMARK    4  A    between atoms: N_16  and  C_19 
REMARK    5  A    between atoms: C_17  and  N_18 
REMARK    6  A    between atoms: C_19  and  C_20 
REMARK    7  A    between atoms: C_20  and  N_21 
ROOT
ATOM      1  N   UNK d   1      91.051  98.974 -44.170  0.00  0.00    -0.172 N 
ATOM      2  C   UNK d   1      89.861  99.449 -43.732  0.00  0.00     0.079 A 
ATOM      3  C   UNK d   1      90.039 100.664 -43.142  0.00  0.00     0.079 A 
ATOM      4  C   UNK d   1      88.961 101.353 -42.617  0.00  0.00     0.032 A 
ATOM      5  C   UNK d   1      87.706 100.794 -42.698  0.00  0.00     0.002 A 
ATOM      6  C   UNK d   1      87.500  99.573 -43.287  0.00  0.00     0.002 A 
ATOM      7  C   UNK d   1      88.594  98.913 -43.800  0.00  0.00     0.032 A 
ATOM      8  N   UNK d   1      91.345 100.936 -43.215  0.00  0.00    -0.178 N 
ATOM      9  C   UNK d   1      91.962  99.896 -43.846  0.00  0.00     0.703 A 
ENDROOT
BRANCH   1  10
ATOM     10  C   UNK d   1      91.226  97.711 -44.843  0.00  0.00     0.232 C 
BRANCH  10  11
ATOM     11  C   UNK d   1      91.411  96.593 -43.886  0.00  0.00     0.185 C 
ATOM     12  O   UNK d   1      91.483  96.804 -42.650  0.00  0.00    -0.290 OA
BRANCH  11  13
ATOM     13  C   UNK d   1      91.518  95.200 -44.333  0.00  0.00     0.053 A 
ATOM     14  S   UNK d   1      91.269  94.520 -45.884  0.00  0.00    -0.079 SA
ATOM     15  C   UNK d   1      91.578  92.887 -45.533  0.00  0.00     0.052 A 
ATOM     16  C   UNK d   1      91.872  92.915 -44.197  0.00  0.00     0.028 A 
ATOM     17 Br   UNK d   1      91.524  91.403 -46.730  0.00  0.00    -0.043 Br
ATOM     18  C   UNK d   1      91.842  94.099 -43.581  0.00  0.00     0.024 A 
ENDBRANCH  11  13
ENDBRANCH  10  11
ENDBRANCH   1  10
BRANCH   9  19
ATOM     19  N   UNK d   1      93.229  99.912 -44.030  0.00  0.00    -0.117 NA
ATOM     20  H   UNK d   1      93.849  99.146 -44.287  0.00  0.00     0.206 HD
ENDBRANCH   9  19
BRANCH   8  21
ATOM     21  C   UNK d   1      91.967 102.153 -42.712  0.00  0.00     0.175 C 
BRANCH  21  22
ATOM     22  C   UNK d   1      92.430 101.892 -41.270  0.00  0.00     0.255 C 
BRANCH  22  23
ATOM     23  N   UNK d   1      93.800 101.471 -41.213  0.00  0.00    -0.070 N 
ATOM     24  C   UNK d   1      94.747 102.488 -41.625  0.00  0.00     0.235 C 
ATOM     25  C   UNK d   1      94.531 103.786 -40.900  0.00  0.00     0.028 C 
ATOM     26  C   UNK d   1      94.390 103.623 -39.424  0.00  0.00     0.003 C 
ATOM     27  C   UNK d   1      93.861 102.313 -38.961  0.00  0.00     0.028 C 
ATOM     28  C   UNK d   1      94.122 101.145 -39.845  0.00  0.00     0.235 C 
ATOM     29  H   UNK d   1      93.959 100.660 -41.848  0.00  0.00     0.279 HD
ENDBRANCH  22  23
ENDBRANCH  21  22
ENDBRANCH   8  21
TORSDOF 7
ENDMDL
