MODEL 1
REMARK VINA RESULT:    -6.174      0.000      0.000
REMARK INTER + INTRA:         -10.132
REMARK INTER:                  -8.700
REMARK INTRA:                  -1.432
REMARK UNBOUND:                -1.432
REMARK  7 active torsions:
REMARK  status: ('A' for Active; 'I' for Inactive)
REMARK    1  A    between atoms: C_5  and  C_6 
REMARK    2  A    between atoms: C_6  and  C_7 
REMARK    3  A    between atoms: C_8  and  C_23 
REMARK    4  A    between atoms: N_9  and  C_14 
REMARK    5  A    between atoms: C_14  and  C_15 
REMARK    6  A    between atoms: C_15  and  C_16 
REMARK    7  A    between atoms: C_16  and  N_17 
ROOT
ATOM      1  C   UNK d   1      91.295  98.055 -44.889  0.00  0.00     0.063 C 
ATOM      2  C   UNK d   1      90.218  98.604 -45.779  0.00  0.00     0.161 C 
ATOM      3  N   UNK d   1      90.624  99.955 -46.010  0.00  0.00    -0.332 N 
ATOM      4  C   UNK d   1      92.077  99.892 -46.046  0.00  0.00     0.295 C 
ATOM      5  O   UNK d   1      92.786 100.768 -46.613  0.00  0.00    -0.264 OA
ATOM      6  C   UNK d   1      92.519  98.699 -45.347  0.00  0.00     0.250 C 
ATOM      7  O   UNK d   1      93.718  98.299 -45.172  0.00  0.00    -0.282 OA
ENDROOT
BRANCH   3   8
ATOM      8  C   UNK d   1      89.869 101.151 -46.241  0.00  0.00     0.129 C 
BRANCH   8   9
ATOM      9  C   UNK d   1      90.123 102.287 -45.305  0.00  0.00     0.048 C 
BRANCH   9  10
ATOM     10  C   UNK d   1      90.034 101.820 -43.845  0.00  0.00     0.236 C 
BRANCH  10  11
ATOM     11  N   UNK d   1      90.851 102.675 -43.051  0.00  0.00    -0.067 N 
ATOM     12  C   UNK d   1      90.872 102.409 -41.649  0.00  0.00     0.261 C 
ATOM     13  C   UNK d   1      91.699 101.202 -41.277  0.00  0.00     0.195 C 
ATOM     14  O   UNK d   1      92.171 100.643 -42.486  0.00  0.00    -0.388 OA
ATOM     15  C   UNK d   1      93.068 101.602 -42.997  0.00  0.00     0.195 C 
ATOM     16  C   UNK d   1      92.219 102.736 -43.534  0.00  0.00     0.261 C 
ATOM     17  H   UNK d   1      90.469 103.662 -43.167  0.00  0.00     0.280 HD
ENDBRANCH  10  11
ENDBRANCH   9  10
ENDBRANCH   8   9
ENDBRANCH   3   8
BRANCH   2  18
ATOM     18  C   UNK d   1      88.889  98.388 -45.222  0.00  0.00    -0.029 A 
ATOM     19  C   UNK d   1      88.006  97.564 -45.937  0.00  0.00     0.028 A 
ATOM     20  C   UNK d   1      86.739  97.266 -45.504  0.00  0.00     0.011 A 
ATOM     21  C   UNK d   1      86.289  97.787 -44.316  0.00  0.00     0.019 A 
ATOM     22 Br   UNK d   1      85.557  96.142 -46.498  0.00  0.00    -0.051 Br
ATOM     23  C   UNK d   1      87.134  98.604 -43.580  0.00  0.00     0.002 A 
ATOM     24  C   UNK d   1      88.401  98.882 -44.047  0.00  0.00     0.009 A 
ENDBRANCH   2  18
BRANCH   1  25
ATOM     25  C   UNK d   1      91.189  97.145 -43.940  0.00  0.00     0.139 C 
ATOM     26  O   UNK d   1      90.897  97.564 -42.622  0.00  0.00    -0.190 OA
BRANCH  25  27
ATOM     27  C   UNK d   1      91.368  95.724 -44.233  0.00  0.00     0.068 A 
ATOM     28  S   UNK d   1      91.204  94.967 -45.760  0.00  0.00    -0.070 SA
ATOM     29  C   UNK d   1      91.494  93.354 -45.284  0.00  0.00     0.072 A 
ATOM     30  N   UNK d   1      91.699  93.479 -43.986  0.00  0.00    -0.250 NA
ATOM     31  C   UNK d   1      91.511  92.102 -46.129  0.00  0.00     0.078 C 
ATOM     32  C   UNK d   1      91.642  94.651 -43.427  0.00  0.00     0.051 A 
ATOM     33  C   UNK d   1      91.837  94.783 -41.922  0.00  0.00     0.072 C 
ENDBRANCH  25  27
ENDBRANCH   1  25
TORSDOF 7
ENDMDL
