/Users/jonathanwahrer/Desktop/Msc/3_Semester/Drug_Design_Praktikum/waehrer_HTS_screening/HTS_experiment/out/docking_results/vina_output/4agl/1180_docked.pdbqt
 OpenBabel03212200043D

 32 35  0  0  1  0  0  0  0  0999 V2000
   89.5430   97.6070  -45.9030 C   0  0  1  0  0  3  0  0  0  0  0  0
   88.4590   98.5310  -45.4510 C   0  0  1  0  0  3  0  0  0  0  0  0
   87.3880   97.6270  -45.2870 N   0  0  0  0  0  0  0  0  0  0  0  0
   87.4450   96.8500  -46.5460 C   0  0  0  0  0  0  0  0  0  0  0  0
   86.4790   96.3090  -47.1490 O   0  0  0  0  0  0  0  0  0  0  0  0
   88.8500   96.8420  -46.9390 C   0  0  0  0  0  0  0  0  0  0  0  0
   89.4180   96.3100  -47.9430 O   0  0  0  0  0  0  0  0  0  0  0  0
   90.7960   97.5360  -45.5070 C   0  0  1  0  0  3  0  0  0  0  0  0
   91.7130   98.4800  -45.9340 O   0  0  0  0  0  1  0  0  0  0  0  0
   91.1490   96.4250  -44.6100 C   0  0  0  0  0  0  0  0  0  0  0  0
   91.2810   94.7450  -44.9700 S   0  0  0  0  0  0  0  0  0  0  0  0
   91.7720   94.1860  -43.4400 C   0  0  0  0  0  0  0  0  0  0  0  0
   91.8120   95.2980  -42.7330 N   0  0  0  0  0  0  0  0  0  0  0  0
   92.0810   92.7810  -42.9980 C   0  0  0  0  0  1  0  0  0  0  0  0
   91.5090   96.4320  -43.2830 C   0  0  0  0  0  0  0  0  0  0  0  0
   91.5920   97.7320  -42.4960 C   0  0  0  0  0  1  0  0  0  0  0  0
   88.8130   99.5720  -44.5490 C   0  0  0  0  0  0  0  0  0  0  0  0
   89.2710  100.7890  -45.0640 C   0  0  0  0  0  3  0  0  0  0  0  0
   89.6490  101.8360  -44.2650 C   0  0  0  0  0  3  0  0  0  0  0  0
   89.5680  101.6700  -42.8980 C   0  0  0  0  0  0  0  0  0  0  0  0
   89.1190  100.4770  -42.3710 C   0  0  0  0  0  3  0  0  0  0  0  0
   90.0750  103.0810  -41.7110 Br  0  0  0  0  0  0  0  0  0  0  0  0
   88.7460   99.4390  -43.1930 C   0  0  0  0  0  3  0  0  0  0  0  0
   86.3230   97.3230  -44.3920 C   0  0  0  0  0  2  0  0  0  0  0  0
   85.1860   98.2410  -44.2550 C   0  0  0  0  0  2  0  0  0  0  0  0
   85.3080   99.5030  -43.6460 N   0  0  0  0  0  4  0  0  0  0  0  0
   85.4500  100.6100  -44.5690 C   0  0  0  0  0  2  0  0  0  0  0  0
   85.7050  101.8470  -43.7150 C   0  0  0  0  0  2  0  0  0  0  0  0
   85.3590  101.6150  -42.3840 O   0  0  0  0  0  0  0  0  0  0  0  0
   84.0350  101.1320  -42.4180 C   0  0  0  0  0  2  0  0  0  0  0  0
   83.9660   99.7610  -43.0270 C   0  0  0  0  0  2  0  0  0  0  0  0
   85.9750   99.4950  -42.8680 H   0  0  0  0  0  0  0  0  0  0  0  0
  1  8  1  6  0  0  0
  1  2  1  0  0  0  0
  2  3  1  0  0  0  0
  2 17  1  1  0  0  0
  3 24  1  0  0  0  0
  4  3  1  0  0  0  0
  5  4  2  0  0  0  0
  6  4  1  0  0  0  0
  6  1  1  0  0  0  0
  7  6  2  0  0  0  0
  8  9  1  1  0  0  0
  8 10  1  0  0  0  0
 10 15  2  0  0  0  0
 11 10  1  0  0  0  0
 11 12  1  0  0  0  0
 12 14  1  0  0  0  0
 12 13  2  0  0  0  0
 15 13  1  0  0  0  0
 15 16  1  0  0  0  0
 17 23  1  0  0  0  0
 18 17  2  0  0  0  0
 18 19  1  0  0  0  0
 19 20  2  0  0  0  0
 20 21  1  0  0  0  0
 20 22  1  0  0  0  0
 23 21  2  0  0  0  0
 24 25  1  0  0  0  0
 25 26  1  0  0  0  0
 26 31  1  0  0  0  0
 26 32  1  0  0  0  0
 27 28  1  0  0  0  0
 27 26  1  0  0  0  0
 28 29  1  0  0  0  0
 30 29  1  0  0  0  0
 31 30  1  0  0  0  0
M  END
>  <Pose>
1

>  <Score>
-5.739

$$$$
