MODEL 1
REMARK VINA RESULT:    -6.681      0.000      0.000
REMARK INTER + INTRA:          -7.136
REMARK INTER:                  -7.072
REMARK INTRA:                  -0.065
REMARK UNBOUND:                -0.065
REMARK  1 active torsions:
REMARK  status: ('A' for Active; 'I' for Inactive)
REMARK    1  A    between atoms: C_14  and  C_16 
ROOT
ATOM      1  S   UNK d   1      89.578 100.355 -42.606  0.00  0.00    -0.074 SA
ATOM      2  C   UNK d   1      89.987  99.512 -44.046  0.00  0.00     0.088 A 
ATOM      3  C   UNK d   1      91.188 100.073 -44.387  0.00  0.00     0.073 A 
ATOM      4  C   UNK d   1      91.674 101.033 -43.585  0.00  0.00    -0.023 A 
ATOM      5  C   UNK d   1      90.930 101.376 -42.488  0.00  0.00     0.018 A 
ATOM      6  C   UNK d   1      91.490 102.451 -41.604  0.00  0.00     0.281 C 
ATOM      7  N   UNK d   1      92.842 102.053 -41.216  0.00  0.00    -0.070 N 
ATOM      8  C   UNK d   1      93.683 101.743 -42.330  0.00  0.00     0.239 C 
ATOM      9  C   UNK d   1      92.955 101.850 -43.665  0.00  0.00     0.068 C 
ATOM     10  C   UNK d   1      92.681 100.828 -40.431  0.00  0.00     0.270 C 
ATOM     11  C   UNK d   1      91.791  99.521 -45.632  0.00  0.00     0.256 C 
ATOM     12  O   UNK d   1      92.902  99.952 -46.059  0.00  0.00    -0.267 OA
ATOM     13  N   UNK d   1      91.096  98.500 -46.332  0.00  0.00    -0.332 N 
ATOM     14  C   UNK d   1      90.107  97.642 -45.750  0.00  0.00     0.219 C 
ATOM     15  N   UNK d   1      89.350  98.469 -44.823  0.00  0.00    -0.358 N 
ATOM     16  H   UNK d   1      93.247 102.753 -40.563  0.00  0.00     0.279 HD
ATOM     17  H   UNK d   1      91.338  98.379 -47.356  0.00  0.00     0.165 HD
ATOM     18  H   UNK d   1      88.327  98.347 -44.678  0.00  0.00     0.162 HD
ENDROOT
BRANCH  14  19
ATOM     19  C   UNK d   1      90.700  96.496 -45.018  0.00  0.00    -0.013 A 
ATOM     20  C   UNK d   1      91.095  96.598 -43.700  0.00  0.00     0.033 A 
ATOM     21  C   UNK d   1      91.646  95.545 -43.005  0.00  0.00     0.049 A 
ATOM     22  C   UNK d   1      91.822  94.328 -43.631  0.00  0.00     0.141 A 
ATOM     23 Br   UNK d   1      92.184  95.698 -41.194  0.00  0.00    -0.048 Br
ATOM     24  C   UNK d   1      91.436  94.203 -44.944  0.00  0.00     0.049 A 
ATOM     25  O   UNK d   1      92.377  93.263 -42.936  0.00  0.00    -0.189 OA
ATOM     26  C   UNK d   1      90.883  95.264 -45.634  0.00  0.00     0.033 A 
ATOM     27 Br   UNK d   1      91.699  92.491 -45.775  0.00  0.00    -0.048 Br
ENDBRANCH  14  19
TORSDOF 1
ENDMDL
