MODEL 1
REMARK VINA RESULT:    -6.365      0.000      0.000
REMARK INTER + INTRA:          -8.032
REMARK INTER:                  -7.482
REMARK INTRA:                  -0.551
REMARK UNBOUND:                -0.551
REMARK  3 active torsions:
REMARK  status: ('A' for Active; 'I' for Inactive)
REMARK    1  A    between atoms: N_6  and  C_18 
REMARK    2  A    between atoms: C_8  and  C_9 
REMARK    3  A    between atoms: C_12  and  N_15 
ROOT
ATOM      1  S   UNK d   1      88.658 100.690 -42.645  0.00  0.00    -0.087 SA
ATOM      2  C   UNK d   1      87.616  99.907 -43.903  0.00  0.00     0.069 C 
ATOM      3  C   UNK d   1      88.260  98.548 -43.939  0.00  0.00     0.146 C 
ATOM      4  N   UNK d   1      89.669  98.611 -43.696  0.00  0.00    -0.324 N 
ATOM      5  C   UNK d   1      90.095  99.699 -43.034  0.00  0.00     0.154 A 
ATOM      6  N   UNK d   1      91.425  99.641 -42.899  0.00  0.00    -0.300 N 
ATOM      7  C   UNK d   1      91.867  98.502 -43.479  0.00  0.00     0.130 A 
ATOM      8  C   UNK d   1      90.773  97.841 -43.984  0.00  0.00     0.062 A 
ATOM      9  C   UNK d   1      87.811 100.548 -45.256  0.00  0.00     0.023 C 
ENDROOT
BRANCH   8  10
ATOM     10  C   UNK d   1      90.836  96.582 -44.689  0.00  0.00    -0.008 A 
ATOM     11  C   UNK d   1      91.564  95.535 -44.098  0.00  0.00     0.016 A 
ATOM     12  C   UNK d   1      91.631  94.302 -44.693  0.00  0.00     0.037 A 
ATOM     13  C   UNK d   1      91.007  94.011 -45.880  0.00  0.00     0.102 A 
ATOM     14  C   UNK d   1      90.287  95.018 -46.478  0.00  0.00     0.037 A 
ATOM     15  C   UNK d   1      90.217  96.278 -45.872  0.00  0.00     0.016 A 
BRANCH  13  16
ATOM     16  N   UNK d   1      91.126  92.713 -46.430  0.00  0.00    -0.116 N 
ATOM     17  O   UNK d   1      90.695  92.463 -47.561  0.00  0.00    -0.532 OA
ATOM     18  O   UNK d   1      91.723  91.731 -45.699  0.00  0.00    -0.532 OA
ENDBRANCH  13  16
ENDBRANCH   8  10
BRANCH   6  19
ATOM     19  C   UNK d   1      92.256 100.602 -42.258  0.00  0.00     0.041 A 
ATOM     20  C   UNK d   1      92.274 100.754 -40.891  0.00  0.00     0.031 A 
ATOM     21  C   UNK d   1      93.070 101.677 -40.246  0.00  0.00     0.021 A 
ATOM     22  C   UNK d   1      93.893 102.498 -40.985  0.00  0.00     0.011 A 
ATOM     23  C   UNK d   1      93.901 102.373 -42.363  0.00  0.00     0.021 A 
ATOM     24 Br   UNK d   1      95.011 103.790 -40.124  0.00  0.00    -0.051 Br
ATOM     25  C   UNK d   1      93.096 101.441 -42.984  0.00  0.00     0.031 A 
ENDBRANCH   6  19
TORSDOF 3
ENDMDL
