MODEL 1
REMARK VINA RESULT:    -6.115      0.000      0.000
REMARK INTER + INTRA:          -8.057
REMARK INTER:                  -7.188
REMARK INTRA:                  -0.869
REMARK UNBOUND:                -0.869
REMARK  3 active torsions:
REMARK  status: ('A' for Active; 'I' for Inactive)
REMARK    1  A    between atoms: N_7  and  C_18 
REMARK    2  A    between atoms: C_8  and  C_10 
REMARK    3  A    between atoms: C_13  and  O_16 
ROOT
ATOM      1  S   UNK d   1      89.930 102.036 -42.496  0.00  0.00    -0.093 SA
ATOM      2  C   UNK d   1      90.365 102.777 -40.897  0.00  0.00     0.084 C 
ATOM      3  C   UNK d   1      91.381 101.860 -40.240  0.00  0.00     0.031 C 
ATOM      4  C   UNK d   1      92.427 101.432 -41.249  0.00  0.00     0.131 C 
ATOM      5  N   UNK d   1      91.886 100.277 -41.945  0.00  0.00    -0.335 N 
ATOM      6  C   UNK d   1      90.717 100.437 -42.570  0.00  0.00     0.154 A 
ATOM      7  N   UNK d   1      90.368  99.244 -43.167  0.00  0.00    -0.290 N 
ATOM      8  C   UNK d   1      91.311  98.350 -42.917  0.00  0.00     0.067 A 
ATOM      9  C   UNK d   1      92.259  99.018 -42.146  0.00  0.00     0.124 A 
ENDROOT
BRANCH   8  10
ATOM     10  C   UNK d   1      91.431  96.955 -43.310  0.00  0.00    -0.007 A 
ATOM     11  C   UNK d   1      91.649  95.981 -42.324  0.00  0.00     0.016 A 
ATOM     12  C   UNK d   1      91.771  94.655 -42.633  0.00  0.00     0.037 A 
ATOM     13  C   UNK d   1      91.689  94.177 -43.921  0.00  0.00     0.068 A 
ATOM     14  C   UNK d   1      91.477  95.121 -44.892  0.00  0.00     0.037 A 
ATOM     15  C   UNK d   1      91.349  96.487 -44.599  0.00  0.00     0.016 A 
BRANCH  13  16
ATOM     16  O   UNK d   1      91.817  92.823 -44.195  0.00  0.00    -0.356 OA
ATOM     17  C   UNK d   1      91.774  92.357 -45.531  0.00  0.00     0.210 C 
ENDBRANCH  13  16
ENDBRANCH   8  10
BRANCH   7  18
ATOM     18  C   UNK d   1      89.163  99.100 -43.914  0.00  0.00     0.042 A 
ATOM     19  C   UNK d   1      89.165  99.212 -45.294  0.00  0.00     0.031 A 
ATOM     20  C   UNK d   1      88.021  99.049 -46.048  0.00  0.00     0.021 A 
ATOM     21  C   UNK d   1      86.843  98.764 -45.387  0.00  0.00     0.011 A 
ATOM     22  C   UNK d   1      86.850  98.655 -44.012  0.00  0.00     0.021 A 
ATOM     23 Br   UNK d   1      85.199  98.521 -46.351  0.00  0.00    -0.051 Br
ATOM     24  C   UNK d   1      87.980  98.814 -43.240  0.00  0.00     0.031 A 
ENDBRANCH   7  18
TORSDOF 3
ENDMDL
