/Users/jonathanwahrer/Desktop/Msc/3_Semester/Drug_Design_Praktikum/waehrer_HTS_screening/HTS_experiment/out/docking_results/vina_output/4agl/1209_docked.pdbqt
 OpenBabel03212200043D

 24 27  0  0  1  0  0  0  0  0999 V2000
   89.9300  102.0360  -42.4960 S   0  0  0  0  0  0  0  0  0  0  0  0
   90.3650  102.7770  -40.8970 C   0  0  0  0  0  2  0  0  0  0  0  0
   91.3810  101.8600  -40.2400 C   0  0  0  0  0  2  0  0  0  0  0  0
   92.4270  101.4320  -41.2490 C   0  0  0  0  0  2  0  0  0  0  0  0
   91.8860  100.2770  -41.9450 N   0  0  0  0  0  0  0  0  0  0  0  0
   90.7170  100.4370  -42.5700 C   0  0  1  0  0  3  0  0  0  0  0  0
   90.3680   99.2440  -43.1670 N   0  0  0  0  0  0  0  0  0  0  0  0
   91.3110   98.3500  -42.9170 C   0  0  0  0  0  0  0  0  0  0  0  0
   92.2590   99.0180  -42.1460 C   0  0  0  0  0  3  0  0  0  0  0  0
   91.4310   96.9550  -43.3100 C   0  0  0  0  0  0  0  0  0  0  0  0
   91.6490   95.9810  -42.3240 C   0  0  0  0  0  3  0  0  0  0  0  0
   91.7710   94.6550  -42.6330 C   0  0  0  0  0  3  0  0  0  0  0  0
   91.6890   94.1770  -43.9210 C   0  0  0  0  0  0  0  0  0  0  0  0
   91.4770   95.1210  -44.8920 C   0  0  0  0  0  3  0  0  0  0  0  0
   91.3490   96.4870  -44.5990 C   0  0  0  0  0  3  0  0  0  0  0  0
   91.8170   92.8230  -44.1950 O   0  0  0  0  0  0  0  0  0  0  0  0
   91.7740   92.3570  -45.5310 C   0  0  0  0  0  1  0  0  0  0  0  0
   89.1630   99.1000  -43.9140 C   0  0  0  0  0  0  0  0  0  0  0  0
   89.1650   99.2120  -45.2940 C   0  0  0  0  0  3  0  0  0  0  0  0
   88.0210   99.0490  -46.0480 C   0  0  0  0  0  3  0  0  0  0  0  0
   86.8430   98.7640  -45.3870 C   0  0  0  0  0  0  0  0  0  0  0  0
   86.8500   98.6550  -44.0120 C   0  0  0  0  0  3  0  0  0  0  0  0
   85.1990   98.5210  -46.3510 Br  0  0  0  0  0  0  0  0  0  0  0  0
   87.9800   98.8140  -43.2400 C   0  0  0  0  0  3  0  0  0  0  0  0
  1  2  1  0  0  0  0
  2  3  1  0  0  0  0
  4  3  1  0  0  0  0
  5  4  1  0  0  0  0
  6  1  1  1  0  0  0
  6  5  1  0  0  0  0
  7  8  1  0  0  0  0
  7  6  1  0  0  0  0
  8  9  2  0  0  0  0
  9  5  1  0  0  0  0
 10  8  1  0  0  0  0
 10 11  1  0  0  0  0
 12 11  2  0  0  0  0
 13 12  1  0  0  0  0
 14 15  1  0  0  0  0
 14 13  2  0  0  0  0
 15 10  2  0  0  0  0
 16 13  1  0  0  0  0
 17 16  1  0  0  0  0
 18 24  1  0  0  0  0
 18  7  1  0  0  0  0
 19 18  2  0  0  0  0
 20 21  2  0  0  0  0
 20 19  1  0  0  0  0
 21 22  1  0  0  0  0
 22 24  2  0  0  0  0
 23 21  1  0  0  0  0
M  END
>  <Pose>
1

>  <Score>
-6.115

$$$$
