MODEL 1
REMARK VINA RESULT:    -5.796      0.000      0.000
REMARK INTER + INTRA:          -7.145
REMARK INTER:                  -6.982
REMARK INTRA:                  -0.163
REMARK UNBOUND:                -0.163
REMARK  4 active torsions:
REMARK  status: ('A' for Active; 'I' for Inactive)
REMARK    1  A    between atoms: N_7  and  C_19 
REMARK    2  A    between atoms: C_8  and  O_10 
REMARK    3  A    between atoms: C_8  and  C_11 
REMARK    4  A    between atoms: C_14  and  O_17 
ROOT
ATOM      1  S   UNK d   1      88.461  99.324 -42.800  0.00  0.00    -0.094 SA
ATOM      2  C   UNK d   1      87.182 100.347 -43.630  0.00  0.00     0.084 C 
ATOM      3  C   UNK d   1      87.705 100.522 -45.057  0.00  0.00     0.030 C 
ATOM      4  C   UNK d   1      88.967 101.375 -44.987  0.00  0.00     0.126 C 
ATOM      5  N   UNK d   1      90.065 100.491 -44.685  0.00  0.00    -0.356 N 
ATOM      6  C   UNK d   1      89.949  99.573 -43.761  0.00  0.00     0.148 C 
ATOM      7  N   UNK d   1      91.206  98.847 -43.714  0.00  0.00    -0.289 N 
ATOM      8  C   UNK d   1      92.156  99.909 -43.966  0.00  0.00     0.185 C 
ATOM      9  C   UNK d   1      91.408 100.386 -45.265  0.00  0.00     0.192 C 
ENDROOT
BRANCH   8  10
ATOM     10  O   UNK d   1      93.429  99.518 -44.236  0.00  0.00    -0.365 OA
ATOM     11  H   UNK d   1      94.029 100.324 -44.178  0.00  0.00     0.213 HD
ENDBRANCH   8  10
BRANCH   8  12
ATOM     12  C   UNK d   1      92.010 100.955 -42.947  0.00  0.00    -0.001 A 
ATOM     13  C   UNK d   1      92.048 102.307 -43.242  0.00  0.00     0.015 A 
ATOM     14  C   UNK d   1      91.934 103.248 -42.207  0.00  0.00     0.037 A 
ATOM     15  C   UNK d   1      91.788 102.891 -40.920  0.00  0.00     0.068 A 
ATOM     16  C   UNK d   1      91.742 101.522 -40.585  0.00  0.00     0.037 A 
ATOM     17  C   UNK d   1      91.858 100.625 -41.634  0.00  0.00     0.015 A 
BRANCH  15  18
ATOM     18  O   UNK d   1      91.672 103.811 -39.846  0.00  0.00    -0.356 OA
ATOM     19  C   UNK d   1      91.122 103.400 -38.612  0.00  0.00     0.210 C 
ENDBRANCH  15  18
ENDBRANCH   8  12
BRANCH   7  20
ATOM     20  C   UNK d   1      91.379  97.458 -43.548  0.00  0.00     0.040 A 
ATOM     21  C   UNK d   1      91.637  96.980 -42.239  0.00  0.00     0.031 A 
ATOM     22  C   UNK d   1      91.874  95.640 -41.986  0.00  0.00     0.021 A 
ATOM     23  C   UNK d   1      91.870  94.719 -42.997  0.00  0.00     0.011 A 
ATOM     24  C   UNK d   1      91.622  95.153 -44.282  0.00  0.00     0.021 A 
ATOM     25 Br   UNK d   1      92.211  92.864 -42.699  0.00  0.00    -0.051 Br
ATOM     26  C   UNK d   1      91.380  96.518 -44.532  0.00  0.00     0.031 A 
ENDBRANCH   7  20
TORSDOF 4
ENDMDL
