MODEL 1
REMARK VINA RESULT:    -5.866      0.000      0.000
REMARK INTER + INTRA:          -8.338
REMARK INTER:                  -7.410
REMARK INTRA:                  -0.928
REMARK UNBOUND:                -0.928
REMARK  5 active torsions:
REMARK  status: ('A' for Active; 'I' for Inactive)
REMARK    1  A    between atoms: C_6  and  O_20 
REMARK    2  A    between atoms: C_6  and  C_21 
REMARK    3  A    between atoms: N_8  and  C_10 
REMARK    4  A    between atoms: C_11  and  O_18 
REMARK    5  A    between atoms: C_14  and  O_16 
ROOT
ATOM      1  S   UNK d   1      89.900 100.152 -46.468  0.00  0.00    -0.094 SA
ATOM      2  C   UNK d   1      91.422 100.903 -46.989  0.00  0.00     0.084 C 
ATOM      3  C   UNK d   1      92.591 100.172 -46.360  0.00  0.00     0.030 C 
ATOM      4  C   UNK d   1      92.485 100.264 -44.848  0.00  0.00     0.129 C 
ATOM      5  N   UNK d   1      91.451  99.374 -44.371  0.00  0.00    -0.324 N 
ATOM      6  C   UNK d   1      91.471  98.315 -43.415  0.00  0.00     0.181 C 
ATOM      7  C   UNK d   1      90.069  98.461 -42.845  0.00  0.00     0.198 C 
ATOM      8  N   UNK d   1      89.286  98.844 -43.998  0.00  0.00    -0.320 N 
ATOM      9  C   UNK d   1      90.089  99.407 -44.833  0.00  0.00     0.148 C 
ENDROOT
BRANCH   8  10
ATOM     10  C   UNK d   1      87.902  98.618 -44.216  0.00  0.00     0.072 A 
ATOM     11  C   UNK d   1      87.016  99.515 -43.633  0.00  0.00     0.095 A 
ATOM     12  C   UNK d   1      85.636  99.344 -43.781  0.00  0.00     0.042 A 
ATOM     13  C   UNK d   1      85.152  98.273 -44.511  0.00  0.00     0.039 A 
ATOM     14  C   UNK d   1      86.000  97.366 -45.102  0.00  0.00     0.070 A 
ATOM     15  C   UNK d   1      87.378  97.595 -44.916  0.00  0.00     0.069 A 
BRANCH  11  16
ATOM     16  O   UNK d   1      87.501 100.579 -42.905  0.00  0.00    -0.354 OA
ATOM     17  C   UNK d   1      87.180 101.932 -43.130  0.00  0.00     0.210 C 
ENDBRANCH  11  16
BRANCH  14  18
ATOM     18  O   UNK d   1      85.580  96.276 -45.844  0.00  0.00    -0.356 OA
ATOM     19  C   UNK d   1      85.475  96.221 -47.238  0.00  0.00     0.210 C 
ENDBRANCH  14  18
ENDBRANCH   8  10
BRANCH   6  20
ATOM     20  O   UNK d   1      92.434  98.560 -42.442  0.00  0.00    -0.365 OA
ATOM     21  H   UNK d   1      92.594  99.528 -42.358  0.00  0.00     0.213 HD
ENDBRANCH   6  20
BRANCH   6  22
ATOM     22  C   UNK d   1      91.584  96.952 -43.972  0.00  0.00    -0.002 A 
ATOM     23  C   UNK d   1      91.678  96.625 -45.287  0.00  0.00     0.013 A 
ATOM     24  C   UNK d   1      91.743  95.294 -45.706  0.00  0.00     0.020 A 
ATOM     25  C   UNK d   1      91.713  94.257 -44.798  0.00  0.00     0.011 A 
ATOM     26  C   UNK d   1      91.619  94.574 -43.477  0.00  0.00     0.020 A 
ATOM     27 Br   UNK d   1      91.797  92.434 -45.388  0.00  0.00    -0.051 Br
ATOM     28  C   UNK d   1      91.555  95.876 -43.068  0.00  0.00     0.013 A 
ENDBRANCH   6  22
TORSDOF 5
ENDMDL
