/Users/jonathanwahrer/Desktop/Msc/3_Semester/Drug_Design_Praktikum/waehrer_HTS_screening/HTS_experiment/out/docking_results/vina_output/4agl/1219_docked.pdbqt
 OpenBabel03212200053D

 27 30  0  0  1  0  0  0  0  0999 V2000
   88.9360   99.2190  -42.7410 S   0  0  0  0  0  0  0  0  0  0  0  0
   89.9470  100.6330  -42.1360 C   0  0  0  0  0  2  0  0  0  0  0  0
   91.2490  100.6800  -42.9160 C   0  0  0  0  0  2  0  0  0  0  0  0
   91.8630   99.3090  -43.0310 C   0  0  0  0  0  2  0  0  0  0  0  0
   91.2350   98.5830  -44.0880 N   0  0  2  0  0  0  0  0  0  0  0  0
   91.6570   97.7120  -45.1700 C   0  0  1  0  0  0  0  0  0  0  0  0
   90.5830   97.9270  -46.2210 C   0  0  0  0  0  2  0  0  0  0  0  0
   89.4240   98.2930  -45.3820 N   0  0  0  0  0  0  0  0  0  0  0  0
   89.8070   98.6550  -44.2230 C   0  0  1  0  0  3  0  0  0  0  0  0
   92.9180   98.0250  -45.6380 O   0  0  0  0  0  0  0  0  0  0  0  0
   93.1310   97.7130  -46.5290 H   0  0  0  0  0  0  0  0  0  0  0  0
   91.6210   96.2850  -44.7700 C   0  0  0  0  0  0  0  0  0  0  0  0
   91.8590   95.9350  -43.4560 C   0  0  0  0  0  3  0  0  0  0  0  0
   91.8150   94.5810  -43.1240 C   0  0  0  0  0  0  0  0  0  0  0  0
   91.5460   93.6320  -44.0640 C   0  0  0  0  0  3  0  0  0  0  0  0
   91.3040   93.9680  -45.3840 C   0  0  0  0  0  3  0  0  0  0  0  0
   91.3500   95.3290  -45.7090 C   0  0  0  0  0  3  0  0  0  0  0  0
   92.0580   94.2110  -41.7770 N   0  0  0  0  0  0  0  0  0  0  0  0
   91.1510   94.2100  -40.9220 O   0  0  0  0  0  0  0  0  0  0  0  0
   93.3030   93.8380  -41.3590 O   0  0  0  0  0  0  0  0  0  0  0  0
   88.0720   98.2600  -45.8300 C   0  0  0  0  0  0  0  0  0  0  0  0
   87.3650   99.3080  -46.3410 C   0  0  0  0  0  3  0  0  0  0  0  0
   86.0520   99.2000  -46.7770 C   0  0  0  0  0  3  0  0  0  0  0  0
   85.4050   97.9830  -46.6990 C   0  0  0  0  0  0  0  0  0  0  0  0
   86.0940   96.8920  -46.1820 C   0  0  0  0  0  3  0  0  0  0  0  0
   83.5950   97.7350  -47.2680 Br  0  0  0  0  0  0  0  0  0  0  0  0
   87.4090   97.0250  -45.7520 C   0  0  0  0  0  3  0  0  0  0  0  0
  1  2  1  0  0  0  0
  3  2  1  0  0  0  0
  4  3  1  0  0  0  0
  5  4  1  6  0  0  0
  6 10  1  6  0  0  0
  6 12  1  0  0  0  0
  6  5  1  0  0  0  0
  7  8  1  0  0  0  0
  7  6  1  0  0  0  0
  8  9  1  0  0  0  0
  9  5  1  0  0  0  0
  9  1  1  1  0  0  0
 11 10  1  0  0  0  0
 12 13  1  0  0  0  0
 13 14  2  0  0  0  0
 14 18  1  0  0  0  0
 15 14  1  0  0  0  0
 16 15  2  0  0  0  0
 17 16  1  0  0  0  0
 17 12  2  0  0  0  0
 18 20  2  0  0  0  0
 18 19  2  0  0  0  0
 21 27  1  0  0  0  0
 21  8  1  0  0  0  0
 22 21  2  0  0  0  0
 23 24  2  0  0  0  0
 23 22  1  0  0  0  0
 24 25  1  0  0  0  0
 25 27  2  0  0  0  0
 26 24  1  0  0  0  0
M  END
>  <Pose>
1

>  <Score>
-6.384

$$$$
