MODEL 1
REMARK VINA RESULT:    -5.441      0.000      0.000
REMARK INTER + INTRA:          -6.919
REMARK INTER:                  -6.236
REMARK INTRA:                  -0.684
REMARK UNBOUND:                -0.684
REMARK  3 active torsions:
REMARK  status: ('A' for Active; 'I' for Inactive)
REMARK    1  A    between atoms: C_6  and  O_17 
REMARK    2  A    between atoms: C_6  and  C_18 
REMARK    3  A    between atoms: N_8  and  C_10 
ROOT
ATOM      1  S   UNK d   1      87.948  98.942 -43.672  0.00  0.00    -0.094 SA
ATOM      2  C   UNK d   1      86.932  99.428 -45.138  0.00  0.00     0.084 C 
ATOM      3  C   UNK d   1      87.593 100.562 -45.879  0.00  0.00     0.030 C 
ATOM      4  C   UNK d   1      88.444 101.453 -45.000  0.00  0.00     0.129 C 
ATOM      5  N   UNK d   1      89.647 100.860 -44.564  0.00  0.00    -0.324 N 
ATOM      6  C   UNK d   1      91.057 101.199 -44.306  0.00  0.00     0.181 C 
ATOM      7  C   UNK d   1      91.670  99.904 -44.783  0.00  0.00     0.198 C 
ATOM      8  N   UNK d   1      90.749  98.927 -44.223  0.00  0.00    -0.323 N 
ATOM      9  C   UNK d   1      89.619  99.455 -44.190  0.00  0.00     0.147 C 
ENDROOT
BRANCH   6  10
ATOM     10  O   UNK d   1      91.503 102.246 -45.053  0.00  0.00    -0.365 OA
ATOM     11  H   UNK d   1      92.143 102.026 -45.774  0.00  0.00     0.213 HD
ENDBRANCH   6  10
BRANCH   6  12
ATOM     12  C   UNK d   1      91.302 101.356 -42.834  0.00  0.00    -0.002 A 
ATOM     13  C   UNK d   1      90.371 101.905 -41.973  0.00  0.00     0.012 A 
ATOM     14  C   UNK d   1      90.675 102.007 -40.621  0.00  0.00     0.001 A 
ATOM     15  C   UNK d   1      91.883 101.577 -40.089  0.00  0.00     0.000 A 
ATOM     16  C   UNK d   1      92.810 101.032 -40.935  0.00  0.00     0.001 A 
ATOM     17  C   UNK d   1      92.509 100.931 -42.293  0.00  0.00     0.012 A 
ENDBRANCH   6  12
BRANCH   8  18
ATOM     18  C   UNK d   1      91.114  97.617 -43.737  0.00  0.00     0.036 A 
ATOM     19  C   UNK d   1      91.473  97.327 -42.458  0.00  0.00     0.031 A 
ATOM     20  C   UNK d   1      91.862  96.060 -42.042  0.00  0.00     0.021 A 
ATOM     21  C   UNK d   1      91.894  95.032 -42.947  0.00  0.00     0.011 A 
ATOM     22  C   UNK d   1      91.529  95.322 -44.248  0.00  0.00     0.021 A 
ATOM     23 Br   UNK d   1      92.422  93.250 -42.465  0.00  0.00    -0.051 Br
ATOM     24  C   UNK d   1      91.147  96.570 -44.655  0.00  0.00     0.031 A 
ENDBRANCH   8  18
TORSDOF 3
ENDMDL
