MODEL 1
REMARK VINA RESULT:    -5.722      0.000      0.000
REMARK INTER + INTRA:          -7.613
REMARK INTER:                  -6.893
REMARK INTRA:                  -0.720
REMARK UNBOUND:                -0.720
REMARK  4 active torsions:
REMARK  status: ('A' for Active; 'I' for Inactive)
REMARK    1  A    between atoms: C_6  and  O_18 
REMARK    2  A    between atoms: C_6  and  C_19 
REMARK    3  A    between atoms: N_8  and  C_10 
REMARK    4  A    between atoms: C_13  and  O_16 
ROOT
ATOM      1  S   UNK d   1      88.460  98.931 -43.292  0.00  0.00    -0.094 SA
ATOM      2  C   UNK d   1      87.453  99.711 -44.620  0.00  0.00     0.084 C 
ATOM      3  C   UNK d   1      87.883 101.170 -44.641  0.00  0.00     0.030 C 
ATOM      4  C   UNK d   1      89.278 101.336 -45.157  0.00  0.00     0.129 C 
ATOM      5  N   UNK d   1      90.294 100.737 -44.347  0.00  0.00    -0.324 N 
ATOM      6  C   UNK d   1      91.641 101.112 -43.908  0.00  0.00     0.181 C 
ATOM      7  C   UNK d   1      92.288  99.727 -44.098  0.00  0.00     0.198 C 
ATOM      8  N   UNK d   1      91.261  98.854 -43.560  0.00  0.00    -0.323 N 
ATOM      9  C   UNK d   1      90.142  99.435 -43.720  0.00  0.00     0.147 C 
ENDROOT
BRANCH   6  10
ATOM     10  O   UNK d   1      92.176 102.036 -44.775  0.00  0.00    -0.365 OA
ATOM     11  H   UNK d   1      91.776 102.932 -44.678  0.00  0.00     0.213 HD
ENDBRANCH   6  10
BRANCH   6  12
ATOM     12  C   UNK d   1      91.693 101.497 -42.486  0.00  0.00    -0.002 A 
ATOM     13  C   UNK d   1      92.603 101.034 -41.562  0.00  0.00     0.013 A 
ATOM     14  C   UNK d   1      92.572 101.468 -40.247  0.00  0.00     0.020 A 
ATOM     15  C   UNK d   1      91.630 102.369 -39.842  0.00  0.00     0.011 A 
ATOM     16  C   UNK d   1      90.711 102.842 -40.753  0.00  0.00     0.020 A 
ATOM     17 Br   UNK d   1      91.531 103.009 -38.032  0.00  0.00    -0.051 Br
ATOM     18  C   UNK d   1      90.753 102.404 -42.053  0.00  0.00     0.013 A 
ENDBRANCH   6  12
BRANCH   8  19
ATOM     19  C   UNK d   1      91.562  97.570 -42.969  0.00  0.00     0.036 A 
ATOM     20  C   UNK d   1      91.454  96.413 -43.735  0.00  0.00     0.032 A 
ATOM     21  C   UNK d   1      91.730  95.174 -43.200  0.00  0.00     0.039 A 
ATOM     22  C   UNK d   1      92.124  95.004 -41.890  0.00  0.00     0.068 A 
ATOM     23  C   UNK d   1      92.232  96.141 -41.126  0.00  0.00     0.039 A 
ATOM     24  C   UNK d   1      91.950  97.402 -41.675  0.00  0.00     0.032 A 
BRANCH  22  25
ATOM     25  O   UNK d   1      92.397  93.738 -41.384  0.00  0.00    -0.356 OA
ATOM     26  C   UNK d   1      93.499  92.946 -41.725  0.00  0.00     0.210 C 
ENDBRANCH  22  25
ENDBRANCH   8  19
TORSDOF 4
ENDMDL
