MODEL 1
REMARK VINA RESULT:     3.660      0.000      0.000
REMARK INTER + INTRA:           4.145
REMARK INTER:                   4.195
REMARK INTRA:                  -0.050
REMARK UNBOUND:                -0.050
REMARK  3 active torsions:
REMARK  status: ('A' for Active; 'I' for Inactive)
REMARK    1  A    between atoms: C_6  and  O_16 
REMARK    2  A    between atoms: C_6  and  C_17 
REMARK    3  A    between atoms: N_8  and  C_10 
ROOT
ATOM      1  S   UNK d   1      91.845  98.162 -42.320  0.00  0.00    -0.094 SA
ATOM      2  C   UNK d   1      92.104  99.937 -42.595  0.00  0.00     0.084 C 
ATOM      3  C   UNK d   1      91.961 100.160 -44.104  0.00  0.00     0.030 C 
ATOM      4  C   UNK d   1      90.506  99.851 -44.490  0.00  0.00     0.129 C 
ATOM      5  N   UNK d   1      90.395  98.401 -44.686  0.00  0.00    -0.324 N 
ATOM      6  C   UNK d   1      89.750  97.604 -45.648  0.00  0.00     0.181 C 
ATOM      7  C   UNK d   1      90.340  96.210 -45.458  0.00  0.00     0.198 C 
ATOM      8  N   UNK d   1      91.080  96.305 -44.236  0.00  0.00    -0.323 N 
ATOM      9  C   UNK d   1      91.070  97.504 -43.815  0.00  0.00     0.147 C 
ENDROOT
BRANCH   6  10
ATOM     10  O   UNK d   1      90.157  98.010 -46.939  0.00  0.00    -0.365 OA
ATOM     11  H   UNK d   1      90.166  99.002 -46.925  0.00  0.00     0.213 HD
ENDBRANCH   6  10
BRANCH   6  12
ATOM     12  C   UNK d   1      88.292  97.505 -45.632  0.00  0.00    -0.002 A 
ATOM     13  C   UNK d   1      87.713  96.750 -46.650  0.00  0.00     0.013 A 
ATOM     14  C   UNK d   1      86.352  96.529 -46.762  0.00  0.00     0.020 A 
ATOM     15  C   UNK d   1      85.498  97.069 -45.841  0.00  0.00     0.011 A 
ATOM     16  C   UNK d   1      86.053  97.823 -44.822  0.00  0.00     0.020 A 
ATOM     17 Br   UNK d   1      83.591  96.790 -45.932  0.00  0.00    -0.051 Br
ATOM     18  C   UNK d   1      87.425  98.036 -44.720  0.00  0.00     0.013 A 
ENDBRANCH   6  12
BRANCH   8  19
ATOM     19  C   UNK d   1      91.752  95.174 -43.659  0.00  0.00     0.036 A 
ATOM     20  C   UNK d   1      92.285  94.234 -44.480  0.00  0.00     0.029 A 
ATOM     21  C   UNK d   1      92.957  93.164 -43.896  0.00  0.00     0.002 A 
ATOM     22  C   UNK d   1      93.100  93.026 -42.534  0.00  0.00     0.000 A 
ATOM     23  C   UNK d   1      92.539  94.006 -41.741  0.00  0.00     0.002 A 
ATOM     24  C   UNK d   1      91.869  95.075 -42.283  0.00  0.00     0.029 A 
ENDBRANCH   8  19
TORSDOF 3
ENDMDL
