/Users/jonathanwahrer/Desktop/Msc/3_Semester/Drug_Design_Praktikum/waehrer_HTS_screening/HTS_experiment/out/docking_results/vina_output/4agl/1226_docked.pdbqt
 OpenBabel03212200063D

 24 27  0  0  1  0  0  0  0  0999 V2000
   91.8450   98.1620  -42.3200 S   0  0  0  0  0  0  0  0  0  0  0  0
   92.1040   99.9370  -42.5950 C   0  0  0  0  0  2  0  0  0  0  0  0
   91.9610  100.1600  -44.1040 C   0  0  0  0  0  2  0  0  0  0  0  0
   90.5060   99.8510  -44.4900 C   0  0  0  0  0  2  0  0  0  0  0  0
   90.3950   98.4010  -44.6860 N   0  0  1  0  0  0  0  0  0  0  0  0
   89.7500   97.6040  -45.6480 C   0  0  2  0  0  0  0  0  0  0  0  0
   90.3400   96.2100  -45.4580 C   0  0  0  0  0  2  0  0  0  0  0  0
   91.0800   96.3050  -44.2360 N   0  0  0  0  0  0  0  0  0  0  0  0
   91.0700   97.5040  -43.8150 C   0  0  1  0  0  3  0  0  0  0  0  0
   90.1570   98.0100  -46.9390 O   0  0  0  0  0  0  0  0  0  0  0  0
   90.1660   99.0020  -46.9250 H   0  0  0  0  0  0  0  0  0  0  0  0
   88.2920   97.5050  -45.6320 C   0  0  0  0  0  0  0  0  0  0  0  0
   87.7130   96.7500  -46.6500 C   0  0  0  0  0  3  0  0  0  0  0  0
   86.3520   96.5290  -46.7620 C   0  0  0  0  0  3  0  0  0  0  0  0
   85.4980   97.0690  -45.8410 C   0  0  0  0  0  0  0  0  0  0  0  0
   86.0530   97.8230  -44.8220 C   0  0  0  0  0  3  0  0  0  0  0  0
   83.5910   96.7900  -45.9320 Br  0  0  0  0  0  0  0  0  0  0  0  0
   87.4250   98.0360  -44.7200 C   0  0  0  0  0  3  0  0  0  0  0  0
   91.7520   95.1740  -43.6590 C   0  0  0  0  0  0  0  0  0  0  0  0
   92.2850   94.2340  -44.4800 C   0  0  0  0  0  3  0  0  0  0  0  0
   92.9570   93.1640  -43.8960 C   0  0  0  0  0  3  0  0  0  0  0  0
   93.1000   93.0260  -42.5340 C   0  0  0  0  0  3  0  0  0  0  0  0
   92.5390   94.0060  -41.7410 C   0  0  0  0  0  3  0  0  0  0  0  0
   91.8690   95.0750  -42.2830 C   0  0  0  0  0  3  0  0  0  0  0  0
  2  1  1  0  0  0  0
  3  2  1  0  0  0  0
  4  3  1  0  0  0  0
  5  4  1  6  0  0  0
  5  9  1  0  0  0  0
  6 10  1  6  0  0  0
  6 12  1  0  0  0  0
  6  7  1  0  0  0  0
  6  5  1  0  0  0  0
  7  8  1  0  0  0  0
  8  9  1  0  0  0  0
  8 19  1  0  0  0  0
  9  1  1  6  0  0  0
 10 11  1  0  0  0  0
 12 18  1  0  0  0  0
 13 12  2  0  0  0  0
 14 13  1  0  0  0  0
 14 15  2  0  0  0  0
 15 16  1  0  0  0  0
 16 18  2  0  0  0  0
 17 15  1  0  0  0  0
 19 24  1  0  0  0  0
 20 21  1  0  0  0  0
 20 19  2  0  0  0  0
 21 22  2  0  0  0  0
 22 23  1  0  0  0  0
 24 23  2  0  0  0  0
M  END
>  <Pose>
1

>  <Score>
3.660

$$$$
