MODEL 1
REMARK VINA RESULT:    -6.065      0.000      0.000
REMARK INTER + INTRA:         -10.382
REMARK INTER:                  -9.079
REMARK INTRA:                  -1.303
REMARK UNBOUND:                -1.303
REMARK  9 active torsions:
REMARK  status: ('A' for Active; 'I' for Inactive)
REMARK    1  A    between atoms: C_5  and  S_6 
REMARK    2  A    between atoms: S_6  and  C_7 
REMARK    3  A    between atoms: C_7  and  C_8 
REMARK    4  A    between atoms: N_9  and  C_28 
REMARK    5  A    between atoms: C_12  and  C_13 
REMARK       I    between atoms: C_13  and  N_15 
REMARK    6  A    between atoms: N_15  and  N_16 
REMARK    7  A    between atoms: C_17  and  C_18 
REMARK    8  A    between atoms: C_22  and  O_24 
REMARK    9  A    between atoms: C_32  and  N_33 
ROOT
ATOM      1  C   UNK d   1      91.394  98.082 -44.683  0.00  0.00     0.086 A 
ATOM      2  N   UNK d   1      91.671  98.584 -43.473  0.00  0.00    -0.192 N 
ATOM      3  N   UNK d   1      91.696  97.527 -42.642  0.00  0.00    -0.058 NA
ATOM      4  N   UNK d   1      91.455  96.434 -43.271  0.00  0.00    -0.124 NA
ATOM      5  C   UNK d   1      91.246  96.693 -44.612  0.00  0.00     0.175 A 
ENDROOT
BRANCH   5   6
ATOM      6  C   UNK d   1      90.966  95.677 -45.593  0.00  0.00     0.294 C 
ATOM      7  O   UNK d   1      90.220  96.025 -46.591  0.00  0.00    -0.264 OA
ATOM      8  N   UNK d   1      91.393  94.353 -45.616  0.00  0.00    -0.242 N 
ATOM      9  H   UNK d   1      91.984  93.851 -44.931  0.00  0.00     0.192 HD
BRANCH   8  10
ATOM     10  N   UNK d   1      91.000  93.494 -46.702  0.00  0.00    -0.183 NA
ATOM     11  C   UNK d   1      91.484  92.324 -46.844  0.00  0.00     0.150 C 
BRANCH  11  12
ATOM     12  C   UNK d   1      91.113  91.425 -47.927  0.00  0.00    -0.013 A 
ATOM     13  C   UNK d   1      90.158  91.767 -48.858  0.00  0.00     0.035 A 
ATOM     14  C   UNK d   1      89.801  90.929 -49.894  0.00  0.00     0.051 A 
ATOM     15  C   UNK d   1      90.390  89.700 -50.039  0.00  0.00     0.157 A 
ATOM     16 Br   UNK d   1      88.470  91.450 -51.163  0.00  0.00    -0.048 Br
ATOM     17  C   UNK d   1      91.368  89.317 -49.107  0.00  0.00     0.106 A 
ATOM     18  O   UNK d   1      90.015  88.873 -51.087  0.00  0.00    -0.188 OA
ATOM     19  C   UNK d   1      91.703  90.177 -48.084  0.00  0.00     0.052 A 
BRANCH  17  20
ATOM     20  O   UNK d   1      91.918  88.073 -49.311  0.00  0.00    -0.353 OA
ATOM     21  C   UNK d   1      91.360  86.850 -48.896  0.00  0.00     0.210 C 
ENDBRANCH  17  20
ENDBRANCH  11  12
ENDBRANCH   8  10
ENDBRANCH   5   6
BRANCH   1  22
ATOM     22  C   UNK d   1      91.282  98.826 -45.948  0.00  0.00     0.143 C 
BRANCH  22  23
ATOM     23  S   UNK d   1      89.737  99.650 -46.273  0.00  0.00    -0.098 SA
BRANCH  23  24
ATOM     24  C   UNK d   1      88.404  99.054 -45.241  0.00  0.00     0.125 C 
ATOM     25  S   UNK d   1      87.283  97.759 -45.772  0.00  0.00    -0.102 SA
ATOM     26  C   UNK d   1      86.156  97.901 -44.352  0.00  0.00     0.103 C 
ATOM     27  C   UNK d   1      86.973  98.787 -43.467  0.00  0.00     0.161 C 
ATOM     28  N   UNK d   1      88.040  99.374 -44.101  0.00  0.00    -0.275 NA
ENDBRANCH  23  24
ENDBRANCH  22  23
ENDBRANCH   1  22
BRANCH   2  29
ATOM     29  C   UNK d   1      91.940  99.910 -43.024  0.00  0.00     0.237 A 
ATOM     30  N   UNK d   1      93.018 100.679 -43.279  0.00  0.00    -0.081 NA
ATOM     31  O   UNK d   1      92.926 101.835 -42.737  0.00  0.00    -0.103 OA
ATOM     32  N   UNK d   1      91.797 101.892 -42.104  0.00  0.00    -0.075 NA
ATOM     33  C   UNK d   1      91.128 100.709 -42.247  0.00  0.00     0.300 A 
BRANCH  33  34
ATOM     34  N   UNK d   1      89.855 100.394 -41.720  0.00  0.00    -0.026 N 
ATOM     35  H   UNK d   1      89.711  99.355 -41.819  0.00  0.00     0.283 HD
ATOM     36  H   UNK d   1      89.068 100.908 -42.153  0.00  0.00     0.283 HD
ATOM     37  H   UNK d   1      89.860 100.588 -40.681  0.00  0.00     0.283 HD
ENDBRANCH  33  34
ENDBRANCH   2  29
TORSDOF 9
ENDMDL
