/Users/jonathanwahrer/Desktop/Msc/3_Semester/Drug_Design_Praktikum/waehrer_HTS_screening/HTS_experiment/out/docking_results/vina_output/4agl/1236_docked.pdbqt
 OpenBabel03212200073D

 30 34  0  0  1  0  0  0  0  0999 V2000
   90.4430   99.7540  -44.4250 C   0  0  2  0  0  3  0  0  0  0  0  0
   90.6140  101.0990  -45.0400 C   0  0  1  0  0  3  0  0  0  0  0  0
   89.6600  102.0210  -44.3660 C   0  0  0  0  0  0  0  0  0  0  0  0
   90.0380  102.5290  -43.0720 N   0  0  0  0  0  0  0  0  0  0  0  0
   88.5800  102.3240  -44.9320 O   0  0  0  0  0  0  0  0  0  0  0  0
   91.2400  102.5760  -42.6810 C   0  0  0  0  0  0  0  0  0  0  0  0
   92.0110  103.1340  -41.1750 S   0  0  0  0  0  0  0  0  0  0  0  0
   92.2970  102.1520  -43.5130 N   0  0  0  0  0  0  0  0  0  0  0  0
   93.6720  103.3940  -41.9630 C   0  0  0  0  0  2  0  0  0  0  0  0
   93.6050  102.2380  -42.9270 C   0  0  0  0  0  2  0  0  0  0  0  0
   91.9700  101.6610  -44.8390 C   0  0  0  0  0  0  0  0  0  0  0  0
   92.8520  101.7450  -45.7270 O   0  0  0  0  0  0  0  0  0  0  0  0
   91.7430   99.0450  -44.1330 C   0  0  2  0  0  3  0  0  0  0  0  0
   92.0940   97.9980  -45.1060 C   0  0  0  0  0  0  0  0  0  0  0  0
   92.5600   98.3250  -46.2530 O   0  0  0  0  0  0  0  0  0  0  0  0
   91.9140   96.6000  -44.7710 N   0  0  0  0  0  0  0  0  0  0  0  0
   91.9840   95.4860  -45.6770 C   0  0  0  0  0  2  0  0  0  0  0  0
   91.6670   96.2570  -43.4230 C   0  0  0  0  0  0  0  0  0  0  0  0
   91.0730   94.3720  -45.2250 C   0  0  0  0  0  2  0  0  0  0  0  0
   91.4710   94.4760  -43.4170 S   0  0  0  0  0  0  0  0  0  0  0  0
   91.6000   97.1240  -42.4890 N   0  0  0  0  0  0  0  0  0  0  0  0
   91.7690   98.5280  -42.7420 C   0  0  0  0  0  0  0  0  0  0  0  0
   91.9380   99.2860  -41.7550 O   0  0  0  0  0  0  0  0  0  0  0  0
   89.5430   98.9450  -45.2770 C   0  0  0  0  0  0  0  0  0  0  0  0
   89.5610   99.0770  -46.6590 C   0  0  0  0  0  3  0  0  0  0  0  0
   88.7300   98.3260  -47.4630 C   0  0  0  0  0  0  0  0  0  0  0  0
   87.8570   97.4180  -46.9060 C   0  0  0  0  0  3  0  0  0  0  0  0
   88.7480   98.5010  -49.3630 Br  0  0  0  0  0  0  0  0  0  0  0  0
   87.8410   97.2900  -45.5500 C   0  0  0  0  0  3  0  0  0  0  0  0
   88.6660   98.0350  -44.7330 C   0  0  0  0  0  3  0  0  0  0  0  0
  1 24  1  6  0  0  0
  2 11  1  0  0  0  0
  2  1  1  1  0  0  0
  2  3  1  0  0  0  0
  3  4  1  0  0  0  0
  4  6  2  0  0  0  0
  5  3  2  0  0  0  0
  6  7  1  0  0  0  0
  8 10  1  0  0  0  0
  8  6  1  0  0  0  0
  9  7  1  0  0  0  0
 10  9  1  0  0  0  0
 11  8  1  0  0  0  0
 12 11  2  0  0  0  0
 13  1  1  6  0  0  0
 13 22  1  0  0  0  0
 14 16  1  0  0  0  0
 14 13  1  0  0  0  0
 15 14  2  0  0  0  0
 16 18  1  0  0  0  0
 17 19  1  0  0  0  0
 17 16  1  0  0  0  0
 18 20  1  0  0  0  0
 18 21  2  0  0  0  0
 19 20  1  0  0  0  0
 22 21  1  0  0  0  0
 22 23  2  0  0  0  0
 24 30  1  0  0  0  0
 25 24  2  0  0  0  0
 26 27  2  0  0  0  0
 26 25  1  0  0  0  0
 27 29  1  0  0  0  0
 28 26  1  0  0  0  0
 29 30  2  0  0  0  0
M  END
>  <Pose>
1

>  <Score>
-5.324

$$$$
