MODEL 1
REMARK VINA RESULT:    -5.324      0.000      0.000
REMARK INTER + INTRA:          -7.168
REMARK INTER:                  -6.257
REMARK INTRA:                  -0.911
REMARK UNBOUND:                -0.911
REMARK  3 active torsions:
REMARK  status: ('A' for Active; 'I' for Inactive)
REMARK    1  A    between atoms: C_9  and  C_12 
REMARK    2  A    between atoms: C_12  and  C_13 
REMARK    3  A    between atoms: C_12  and  C_24 
ROOT
ATOM      1  C   UNK d   1      90.443  99.754 -44.425  0.00  0.00     0.063 C 
ENDROOT
BRANCH   1   2
ATOM      2  C   UNK d   1      90.614 101.099 -45.040  0.00  0.00     0.182 C 
ATOM      3  C   UNK d   1      89.660 102.021 -44.366  0.00  0.00     0.259 C 
ATOM      4  N   UNK d   1      90.038 102.529 -43.072  0.00  0.00    -0.188 NA
ATOM      5  O   UNK d   1      88.580 102.324 -44.932  0.00  0.00    -0.270 OA
ATOM      6  C   UNK d   1      91.240 102.576 -42.681  0.00  0.00     0.174 C 
ATOM      7  S   UNK d   1      92.011 103.134 -41.175  0.00  0.00    -0.090 SA
ATOM      8  N   UNK d   1      92.297 102.152 -43.513  0.00  0.00    -0.295 N 
ATOM      9  C   UNK d   1      93.672 103.394 -41.963  0.00  0.00     0.103 C 
ATOM     10  C   UNK d   1      93.605 102.238 -42.927  0.00  0.00     0.144 C 
ATOM     11  C   UNK d   1      91.970 101.661 -44.839  0.00  0.00     0.239 C 
ATOM     12  O   UNK d   1      92.852 101.745 -45.727  0.00  0.00    -0.272 OA
ENDBRANCH   1   2
BRANCH   1  13
ATOM     13  C   UNK d   1      91.743  99.045 -44.133  0.00  0.00     0.182 C 
ATOM     14  C   UNK d   1      92.094  97.998 -45.106  0.00  0.00     0.239 C 
ATOM     15  O   UNK d   1      92.560  98.325 -46.253  0.00  0.00    -0.272 OA
ATOM     16  N   UNK d   1      91.914  96.600 -44.771  0.00  0.00    -0.295 N 
ATOM     17  C   UNK d   1      91.984  95.486 -45.677  0.00  0.00     0.144 C 
ATOM     18  C   UNK d   1      91.667  96.257 -43.423  0.00  0.00     0.174 C 
ATOM     19  C   UNK d   1      91.073  94.372 -45.225  0.00  0.00     0.103 C 
ATOM     20  S   UNK d   1      91.471  94.476 -43.417  0.00  0.00    -0.090 SA
ATOM     21  N   UNK d   1      91.600  97.124 -42.489  0.00  0.00    -0.188 NA
ATOM     22  C   UNK d   1      91.769  98.528 -42.742  0.00  0.00     0.259 C 
ATOM     23  O   UNK d   1      91.938  99.286 -41.755  0.00  0.00    -0.270 OA
ENDBRANCH   1  13
BRANCH   1  24
ATOM     24  C   UNK d   1      89.543  98.945 -45.277  0.00  0.00    -0.050 A 
ATOM     25  C   UNK d   1      89.561  99.077 -46.659  0.00  0.00     0.026 A 
ATOM     26  C   UNK d   1      88.730  98.326 -47.463  0.00  0.00     0.011 A 
ATOM     27  C   UNK d   1      87.857  97.418 -46.906  0.00  0.00     0.019 A 
ATOM     28 Br   UNK d   1      88.748  98.501 -49.363  0.00  0.00    -0.051 Br
ATOM     29  C   UNK d   1      87.841  97.290 -45.550  0.00  0.00     0.002 A 
ATOM     30  C   UNK d   1      88.666  98.035 -44.733  0.00  0.00     0.007 A 
ENDBRANCH   1  24
TORSDOF 3
ENDMDL
