/Users/jonathanwahrer/Desktop/Msc/3_Semester/Drug_Design_Praktikum/waehrer_HTS_screening/HTS_experiment/out/docking_results/vina_output/4agl/1237_docked.pdbqt
 OpenBabel03212200073D

 30 34  0  0  1  0  0  0  0  0999 V2000
   89.8250   98.5360  -44.9530 C   0  0  2  0  0  3  0  0  0  0  0  0
   88.6370   98.0140  -45.6450 C   0  0  1  0  0  3  0  0  0  0  0  0
   87.2940   98.2990  -45.2220 C   0  0  0  0  0  0  0  0  0  0  0  0
   86.6470   99.4610  -45.8090 N   0  0  0  0  0  0  0  0  0  0  0  0
   86.5610   97.6880  -44.4060 O   0  0  0  0  0  0  0  0  0  0  0  0
   87.0100   99.9000  -46.9720 C   0  0  0  0  0  0  0  0  0  0  0  0
   86.4150  101.2950  -47.9620 S   0  0  0  0  0  0  0  0  0  0  0  0
   88.0570   99.3450  -47.7370 N   0  0  0  0  0  0  0  0  0  0  0  0
   87.9280  101.3840  -49.0150 C   0  0  0  0  0  2  0  0  0  0  0  0
   88.3070   99.9370  -48.9970 C   0  0  0  0  0  2  0  0  0  0  0  0
   88.7380   98.2190  -47.1380 C   0  0  0  0  0  0  0  0  0  0  0  0
   89.3920   97.4370  -47.8520 O   0  0  0  0  0  0  0  0  0  0  0  0
   90.7250   99.5110  -45.5830 C   0  0  1  0  0  3  0  0  0  0  0  0
   90.4100  100.8790  -44.9770 C   0  0  0  0  0  0  0  0  0  0  0  0
   89.4070  101.5170  -45.3690 O   0  0  0  0  0  0  0  0  0  0  0  0
   91.2680  101.4330  -43.9530 N   0  0  0  0  0  0  0  0  0  0  0  0
   90.9700  102.4980  -43.0590 C   0  0  0  0  0  2  0  0  0  0  0  0
   92.5630  100.8740  -43.8280 C   0  0  0  0  0  0  0  0  0  0  0  0
   91.7130  102.3450  -41.7550 C   0  0  0  0  0  2  0  0  0  0  0  0
   93.3180  101.7540  -42.4720 S   0  0  0  0  0  0  0  0  0  0  0  0
   93.0070   99.9290  -44.5580 N   0  0  0  0  0  0  0  0  0  0  0  0
   92.1560   99.3640  -45.6000 C   0  0  0  0  0  0  0  0  0  0  0  0
   92.7620   98.7540  -46.4990 O   0  0  0  0  0  0  0  0  0  0  0  0
   90.5510   97.4670  -44.1660 C   0  0  0  0  0  0  0  0  0  0  0  0
   90.8720   96.2610  -44.7410 C   0  0  0  0  0  3  0  0  0  0  0  0
   91.5250   95.3140  -43.9930 C   0  0  0  0  0  3  0  0  0  0  0  0
   91.8770   95.5100  -42.6950 C   0  0  0  0  0  0  0  0  0  0  0  0
   91.5690   96.7040  -42.0930 C   0  0  0  0  0  3  0  0  0  0  0  0
   92.7910   94.1790  -41.6580 Br  0  0  0  0  0  0  0  0  0  0  0  0
   90.9050   97.6670  -42.8530 C   0  0  0  0  0  3  0  0  0  0  0  0
  1 24  1  6  0  0  0
  2  3  1  0  0  0  0
  2  1  1  1  0  0  0
  3  5  2  0  0  0  0
  4  3  1  0  0  0  0
  6  4  2  0  0  0  0
  7  6  1  0  0  0  0
  8 11  1  0  0  0  0
  8  6  1  0  0  0  0
  9 10  1  0  0  0  0
  9  7  1  0  0  0  0
 10  8  1  0  0  0  0
 11  2  1  0  0  0  0
 12 11  2  0  0  0  0
 13 14  1  0  0  0  0
 13  1  1  1  0  0  0
 14 16  1  0  0  0  0
 15 14  2  0  0  0  0
 16 18  1  0  0  0  0
 16 17  1  0  0  0  0
 17 19  1  0  0  0  0
 18 20  1  0  0  0  0
 20 19  1  0  0  0  0
 21 18  2  0  0  0  0
 22 13  1  0  0  0  0
 22 21  1  0  0  0  0
 23 22  2  0  0  0  0
 24 30  1  0  0  0  0
 25 24  2  0  0  0  0
 25 26  1  0  0  0  0
 26 27  2  0  0  0  0
 27 28  1  0  0  0  0
 27 29  1  0  0  0  0
 30 28  2  0  0  0  0
M  END
>  <Pose>
1

>  <Score>
-5.773

$$$$
