MODEL 1
REMARK VINA RESULT:    -5.773      0.000      0.000
REMARK INTER + INTRA:          -8.364
REMARK INTER:                  -6.785
REMARK INTRA:                  -1.579
REMARK UNBOUND:                -1.579
REMARK  3 active torsions:
REMARK  status: ('A' for Active; 'I' for Inactive)
REMARK    1  A    between atoms: C_9  and  C_12 
REMARK    2  A    between atoms: C_12  and  C_13 
REMARK    3  A    between atoms: C_12  and  C_24 
ROOT
ATOM      1  C   UNK d   1      89.825  98.536 -44.953  0.00  0.00     0.063 C 
ENDROOT
BRANCH   1   2
ATOM      2  C   UNK d   1      88.637  98.014 -45.645  0.00  0.00     0.182 C 
ATOM      3  C   UNK d   1      87.294  98.299 -45.222  0.00  0.00     0.259 C 
ATOM      4  N   UNK d   1      86.647  99.461 -45.809  0.00  0.00    -0.188 NA
ATOM      5  O   UNK d   1      86.561  97.688 -44.406  0.00  0.00    -0.270 OA
ATOM      6  C   UNK d   1      87.010  99.900 -46.972  0.00  0.00     0.174 C 
ATOM      7  S   UNK d   1      86.415 101.295 -47.962  0.00  0.00    -0.090 SA
ATOM      8  N   UNK d   1      88.057  99.345 -47.737  0.00  0.00    -0.295 N 
ATOM      9  C   UNK d   1      87.928 101.384 -49.015  0.00  0.00     0.103 C 
ATOM     10  C   UNK d   1      88.307  99.937 -48.997  0.00  0.00     0.144 C 
ATOM     11  C   UNK d   1      88.738  98.219 -47.138  0.00  0.00     0.239 C 
ATOM     12  O   UNK d   1      89.392  97.437 -47.852  0.00  0.00    -0.272 OA
ENDBRANCH   1   2
BRANCH   1  13
ATOM     13  C   UNK d   1      90.725  99.511 -45.583  0.00  0.00     0.182 C 
ATOM     14  C   UNK d   1      90.410 100.879 -44.977  0.00  0.00     0.239 C 
ATOM     15  O   UNK d   1      89.407 101.517 -45.369  0.00  0.00    -0.272 OA
ATOM     16  N   UNK d   1      91.268 101.433 -43.953  0.00  0.00    -0.295 N 
ATOM     17  C   UNK d   1      90.970 102.498 -43.059  0.00  0.00     0.144 C 
ATOM     18  C   UNK d   1      92.563 100.874 -43.828  0.00  0.00     0.174 C 
ATOM     19  C   UNK d   1      91.713 102.345 -41.755  0.00  0.00     0.103 C 
ATOM     20  S   UNK d   1      93.318 101.754 -42.472  0.00  0.00    -0.090 SA
ATOM     21  N   UNK d   1      93.007  99.929 -44.558  0.00  0.00    -0.188 NA
ATOM     22  C   UNK d   1      92.156  99.364 -45.600  0.00  0.00     0.259 C 
ATOM     23  O   UNK d   1      92.762  98.754 -46.499  0.00  0.00    -0.270 OA
ENDBRANCH   1  13
BRANCH   1  24
ATOM     24  C   UNK d   1      90.551  97.467 -44.166  0.00  0.00    -0.051 A 
ATOM     25  C   UNK d   1      90.872  96.261 -44.741  0.00  0.00     0.009 A 
ATOM     26  C   UNK d   1      91.525  95.314 -43.993  0.00  0.00     0.019 A 
ATOM     27  C   UNK d   1      91.877  95.510 -42.695  0.00  0.00     0.011 A 
ATOM     28  C   UNK d   1      91.569  96.704 -42.093  0.00  0.00     0.019 A 
ATOM     29 Br   UNK d   1      92.791  94.179 -41.658  0.00  0.00    -0.051 Br
ATOM     30  C   UNK d   1      90.905  97.667 -42.853  0.00  0.00     0.009 A 
ENDBRANCH   1  24
TORSDOF 3
ENDMDL
