/Users/jonathanwahrer/Desktop/Msc/3_Semester/Drug_Design_Praktikum/waehrer_HTS_screening/HTS_experiment/out/docking_results/vina_output/4agl/1248_docked.pdbqt
 OpenBabel03212200073D

 21 24  0  0  0  0  0  0  0  0999 V2000
   89.3940   99.8570  -45.7830 S   0  0  0  0  0  0  0  0  0  0  0  0
   90.7920   98.8590  -45.7900 C   0  0  0  0  0  0  0  0  0  0  0  0
   90.4180   97.8840  -44.9640 N   0  0  0  0  0  0  0  0  0  0  0  0
   91.5060   97.0420  -44.9270 C   0  0  0  0  0  0  0  0  0  0  0  0
   92.4690   97.5260  -45.7100 N   0  0  0  0  0  0  0  0  0  0  0  0
   92.0630   98.6510  -46.2630 N   0  0  0  0  0  0  0  0  0  0  0  0
   89.2610   97.9280  -44.4380 N   0  0  0  0  0  0  0  0  0  0  0  0
   88.4330   98.9200  -44.7000 C   0  0  0  0  0  0  0  0  0  0  0  0
   87.0730   99.1710  -44.2140 C   0  0  0  0  0  0  0  0  0  0  0  0
   86.6700  100.1990  -43.4560 N   0  0  0  0  0  0  0  0  0  0  0  0
   85.3540  100.0830  -43.2180 N   0  0  0  0  0  0  0  0  0  0  0  0
   84.9000   98.9690  -43.8270 C   0  0  0  0  0  3  0  0  0  0  0  0
   84.7910  100.7560  -42.6500 H   0  0  0  0  0  0  0  0  0  0  0  0
   86.0000   98.3880  -44.4630 C   0  0  0  0  0  0  0  0  0  0  0  0
   85.9110   96.7950  -45.4680 Br  0  0  0  0  0  0  0  0  0  0  0  0
   91.6110   95.7910  -44.1470 C   0  0  0  0  0  0  0  0  0  0  0  0
   91.6760   95.8130  -42.8030 N   0  0  0  0  0  0  0  0  0  0  0  0
   91.7730   94.6620  -42.1010 C   0  0  0  0  0  3  0  0  0  0  0  0
   91.8040   93.4580  -42.7490 C   0  0  0  0  0  3  0  0  0  0  0  0
   91.7370   93.4520  -44.0810 N   0  0  0  0  0  0  0  0  0  0  0  0
   91.6410   94.5870  -44.8070 C   0  0  0  0  0  3  0  0  0  0  0  0
  1  8  1  0  0  0  0
  2  1  1  0  0  0  0
  2  3  1  0  0  0  0
  3  4  1  0  0  0  0
  3  7  1  0  0  0  0
  4 16  1  0  0  0  0
  5  4  2  0  0  0  0
  6  2  2  0  0  0  0
  6  5  1  0  0  0  0
  8  7  2  0  0  0  0
  8  9  1  0  0  0  0
  9 10  2  0  0  0  0
 10 11  1  0  0  0  0
 11 13  1  0  0  0  0
 12 11  1  0  0  0  0
 14  9  1  0  0  0  0
 14 12  2  0  0  0  0
 15 14  1  0  0  0  0
 16 17  1  0  0  0  0
 17 18  2  0  0  0  0
 19 18  1  0  0  0  0
 20 19  2  0  0  0  0
 21 16  2  0  0  0  0
 21 20  1  0  0  0  0
M  END
>  <Pose>
1

>  <Score>
-5.741

$$$$
