MODEL 1
REMARK VINA RESULT:    -5.741      0.000      0.000
REMARK INTER + INTRA:          -6.851
REMARK INTER:                  -6.412
REMARK INTRA:                  -0.439
REMARK UNBOUND:                -0.439
REMARK  2 active torsions:
REMARK  status: ('A' for Active; 'I' for Inactive)
REMARK    1  A    between atoms: C_4  and  C_7 
REMARK    2  A    between atoms: C_14  and  C_15 
ROOT
ATOM      1  S   UNK d   1      89.394  99.857 -45.783  0.00  0.00    -0.025 SA
ATOM      2  C   UNK d   1      90.792  98.859 -45.790  0.00  0.00     0.219 A 
ATOM      3  N   UNK d   1      90.418  97.884 -44.964  0.00  0.00    -0.184 N 
ATOM      4  C   UNK d   1      91.506  97.042 -44.927  0.00  0.00     0.205 A 
ATOM      5  N   UNK d   1      92.469  97.526 -45.710  0.00  0.00    -0.125 NA
ATOM      6  N   UNK d   1      92.063  98.651 -46.263  0.00  0.00    -0.120 NA
ATOM      7  N   UNK d   1      89.261  97.928 -44.438  0.00  0.00    -0.154 NA
ATOM      8  C   UNK d   1      88.433  98.920 -44.700  0.00  0.00     0.153 A 
ENDROOT
BRANCH   8   9
ATOM      9  C   UNK d   1      87.073  99.171 -44.214  0.00  0.00     0.133 A 
ATOM     10  N   UNK d   1      86.670 100.199 -43.456  0.00  0.00    -0.171 NA
ATOM     11  N   UNK d   1      85.354 100.083 -43.218  0.00  0.00    -0.287 N 
ATOM     12  C   UNK d   1      84.900  98.969 -43.827  0.00  0.00     0.131 A 
ATOM     13  H   UNK d   1      84.791 100.756 -42.650  0.00  0.00     0.188 HD
ATOM     14  C   UNK d   1      86.000  98.388 -44.463  0.00  0.00     0.061 A 
ATOM     15 Br   UNK d   1      85.911  96.795 -45.468  0.00  0.00    -0.047 Br
ENDBRANCH   8   9
BRANCH   4  16
ATOM     16  C   UNK d   1      91.611  95.791 -44.147  0.00  0.00     0.123 A 
ATOM     17  N   UNK d   1      91.676  95.813 -42.803  0.00  0.00    -0.254 NA
ATOM     18  C   UNK d   1      91.773  94.662 -42.101  0.00  0.00     0.136 A 
ATOM     19  C   UNK d   1      91.804  93.458 -42.749  0.00  0.00     0.135 A 
ATOM     20  N   UNK d   1      91.737  93.452 -44.081  0.00  0.00    -0.269 NA
ATOM     21  C   UNK d   1      91.641  94.587 -44.807  0.00  0.00     0.151 A 
ENDBRANCH   4  16
TORSDOF 2
ENDMDL
