MODEL 1
REMARK VINA RESULT:    -6.436      0.000      0.000
REMARK INTER + INTRA:          -7.835
REMARK INTER:                  -7.565
REMARK INTRA:                  -0.270
REMARK UNBOUND:                -0.270
REMARK  3 active torsions:
REMARK  status: ('A' for Active; 'I' for Inactive)
REMARK    1  A    between atoms: C_6  and  C_13 
REMARK    2  A    between atoms: C_13  and  C_14 
REMARK    3  A    between atoms: C_13  and  C_26 
ROOT
ATOM      1  C   UNK d   1      89.864  98.569 -45.147  0.00  0.00     0.063 C 
ENDROOT
BRANCH   1   2
ATOM      2  C   UNK d   1      88.778  98.571 -44.109  0.00  0.00     0.184 C 
ATOM      3  C   UNK d   1      87.431  98.610 -44.829  0.00  0.00     0.259 C 
ATOM      4  N   UNK d   1      87.145  99.810 -45.583  0.00  0.00    -0.186 NA
ATOM      5  O   UNK d   1      86.688  97.635 -44.725  0.00  0.00    -0.270 OA
ATOM      6  C   UNK d   1      87.654 100.938 -45.206  0.00  0.00     0.200 A 
ATOM      7  S   UNK d   1      87.509 102.578 -45.897  0.00  0.00    -0.032 SA
ATOM      8  N   UNK d   1      88.481 101.072 -44.070  0.00  0.00    -0.197 N 
ATOM      9  C   UNK d   1      88.535 103.372 -44.669  0.00  0.00     0.083 A 
ATOM     10  N   UNK d   1      88.933 102.335 -43.798  0.00  0.00    -0.283 N 
ATOM     11  C   UNK d   1      88.839 104.666 -44.620  0.00  0.00     0.052 C 
ATOM     12  H   UNK d   1      89.564 102.579 -42.954  0.00  0.00     0.188 HD
ATOM     13  C   UNK d   1      88.736  99.846 -43.326  0.00  0.00     0.259 C 
ATOM     14  O   UNK d   1      88.907  99.896 -42.074  0.00  0.00    -0.270 OA
ENDBRANCH   1   2
BRANCH   1  15
ATOM     15  C   UNK d   1      91.214  98.149 -44.720  0.00  0.00     0.184 C 
ATOM     16  C   UNK d   1      91.548  98.257 -43.307  0.00  0.00     0.259 C 
ATOM     17  O   UNK d   1      91.540  97.214 -42.568  0.00  0.00    -0.270 OA
ATOM     18  N   UNK d   1      91.896  99.529 -42.702  0.00  0.00    -0.197 N 
ATOM     19  N   UNK d   1      91.801  99.888 -41.396  0.00  0.00    -0.283 N 
ATOM     20  C   UNK d   1      92.401 100.495 -43.596  0.00  0.00     0.200 A 
ATOM     21  C   UNK d   1      92.216 101.198 -41.049  0.00  0.00     0.083 A 
ATOM     22  H   UNK d   1      91.437  99.255 -40.603  0.00  0.00     0.188 HD
ATOM     23  C   UNK d   1      92.234 101.790 -39.875  0.00  0.00     0.052 C 
ATOM     24  S   UNK d   1      92.740 101.933 -42.597  0.00  0.00    -0.032 SA
ATOM     25  N   UNK d   1      92.554 100.298 -44.857  0.00  0.00    -0.186 NA
ATOM     26  C   UNK d   1      92.206  99.037 -45.452  0.00  0.00     0.259 C 
ATOM     27  O   UNK d   1      92.660  98.620 -46.528  0.00  0.00    -0.270 OA
ENDBRANCH   1  15
BRANCH   1  28
ATOM     28  C   UNK d   1      89.454  97.811 -46.363  0.00  0.00    -0.051 A 
ATOM     29  C   UNK d   1      89.378  96.437 -46.356  0.00  0.00     0.009 A 
ATOM     30  C   UNK d   1      89.001  95.732 -47.476  0.00  0.00     0.019 A 
ATOM     31  C   UNK d   1      88.691  96.412 -48.633  0.00  0.00     0.011 A 
ATOM     32  C   UNK d   1      88.756  97.806 -48.683  0.00  0.00     0.019 A 
ATOM     33 Br   UNK d   1      88.163  95.461 -50.206  0.00  0.00    -0.051 Br
ATOM     34  C   UNK d   1      89.138  98.475 -47.539  0.00  0.00     0.009 A 
ENDBRANCH   1  28
TORSDOF 3
ENDMDL
