/Users/jonathanwahrer/Desktop/Msc/3_Semester/Drug_Design_Praktikum/waehrer_HTS_screening/HTS_experiment/out/docking_results/vina_output/4agl/1255_docked.pdbqt
 OpenBabel03212200073D

 34 38  0  0  1  0  0  0  0  0999 V2000
   89.8640   98.5690  -45.1470 C   0  0  1  0  0  3  0  0  0  0  0  0
   88.7780   98.5710  -44.1090 C   0  0  2  0  0  3  0  0  0  0  0  0
   87.4310   98.6100  -44.8290 C   0  0  0  0  0  0  0  0  0  0  0  0
   87.1450   99.8100  -45.5830 N   0  0  0  0  0  0  0  0  0  0  0  0
   86.6880   97.6350  -44.7250 O   0  0  0  0  0  0  0  0  0  0  0  0
   87.6540  100.9380  -45.2060 C   0  0  0  0  0  0  0  0  0  0  0  0
   87.5090  102.5780  -45.8970 S   0  0  0  0  0  0  0  0  0  0  0  0
   88.4810  101.0720  -44.0700 N   0  0  0  0  0  0  0  0  0  0  0  0
   88.5350  103.3720  -44.6690 C   0  0  0  0  0  0  0  0  0  0  0  0
   88.9330  102.3350  -43.7980 N   0  0  0  0  0  0  0  0  0  0  0  0
   88.8390  104.6660  -44.6200 C   0  0  0  0  0  2  0  0  0  0  0  0
   89.5640  102.5790  -42.9540 H   0  0  0  0  0  0  0  0  0  0  0  0
   88.7360   99.8460  -43.3260 C   0  0  0  0  0  0  0  0  0  0  0  0
   88.9070   99.8960  -42.0740 O   0  0  0  0  0  0  0  0  0  0  0  0
   91.2140   98.1490  -44.7200 C   0  0  2  0  0  3  0  0  0  0  0  0
   91.5480   98.2570  -43.3070 C   0  0  0  0  0  0  0  0  0  0  0  0
   91.5400   97.2140  -42.5680 O   0  0  0  0  0  0  0  0  0  0  0  0
   91.8960   99.5290  -42.7020 N   0  0  0  0  0  0  0  0  0  0  0  0
   91.8010   99.8880  -41.3960 N   0  0  0  0  0  0  0  0  0  0  0  0
   92.4010  100.4950  -43.5960 C   0  0  0  0  0  0  0  0  0  0  0  0
   92.2160  101.1980  -41.0490 C   0  0  0  0  0  0  0  0  0  0  0  0
   91.4370   99.2550  -40.6030 H   0  0  0  0  0  0  0  0  0  0  0  0
   92.2340  101.7900  -39.8750 C   0  0  0  0  0  2  0  0  0  0  0  0
   92.7400  101.9330  -42.5970 S   0  0  0  0  0  0  0  0  0  0  0  0
   92.5540  100.2980  -44.8570 N   0  0  0  0  0  0  0  0  0  0  0  0
   92.2060   99.0370  -45.4520 C   0  0  0  0  0  0  0  0  0  0  0  0
   92.6600   98.6200  -46.5280 O   0  0  0  0  0  0  0  0  0  0  0  0
   89.4540   97.8110  -46.3630 C   0  0  0  0  0  0  0  0  0  0  0  0
   89.3780   96.4370  -46.3560 C   0  0  0  0  0  3  0  0  0  0  0  0
   89.0010   95.7320  -47.4760 C   0  0  0  0  0  3  0  0  0  0  0  0
   88.6910   96.4120  -48.6330 C   0  0  0  0  0  0  0  0  0  0  0  0
   88.7560   97.8060  -48.6830 C   0  0  0  0  0  3  0  0  0  0  0  0
   88.1630   95.4610  -50.2060 Br  0  0  0  0  0  0  0  0  0  0  0  0
   89.1380   98.4750  -47.5390 C   0  0  0  0  0  3  0  0  0  0  0  0
  1 28  1  6  0  0  0
  2  1  1  6  0  0  0
  2 13  1  0  0  0  0
  3  5  2  0  0  0  0
  3  2  1  0  0  0  0
  4  6  2  0  0  0  0
  4  3  1  0  0  0  0
  6  8  1  0  0  0  0
  7  6  1  0  0  0  0
  7  9  1  0  0  0  0
  8 10  1  0  0  0  0
  8 13  1  0  0  0  0
  9 11  2  0  0  0  0
  9 10  1  0  0  0  0
 10 12  1  0  0  0  0
 13 14  2  0  0  0  0
 15  1  1  1  0  0  0
 15 16  1  0  0  0  0
 16 18  1  0  0  0  0
 16 17  2  0  0  0  0
 18 19  1  0  0  0  0
 19 21  1  0  0  0  0
 19 22  1  0  0  0  0
 20 18  1  0  0  0  0
 20 24  1  0  0  0  0
 21 23  2  0  0  0  0
 24 21  1  0  0  0  0
 25 20  2  0  0  0  0
 26 25  1  0  0  0  0
 26 15  1  0  0  0  0
 27 26  2  0  0  0  0
 28 29  1  0  0  0  0
 30 29  2  0  0  0  0
 31 30  1  0  0  0  0
 32 31  2  0  0  0  0
 32 34  1  0  0  0  0
 33 31  1  0  0  0  0
 34 28  2  0  0  0  0
M  END
>  <Pose>
1

>  <Score>
-6.436

$$$$
