MODEL 1
REMARK VINA RESULT:    -6.323      0.000      0.000
REMARK INTER + INTRA:          -9.434
REMARK INTER:                  -8.171
REMARK INTRA:                  -1.263
REMARK UNBOUND:                -1.263
REMARK  5 active torsions:
REMARK  status: ('A' for Active; 'I' for Inactive)
REMARK    1  A    between atoms: C_7  and  C_17 
REMARK    2  A    between atoms: C_10  and  N_11 
REMARK       I    between atoms: C_17  and  N_19 
REMARK    3  A    between atoms: N_19  and  C_20 
REMARK    4  A    between atoms: C_20  and  C_21 
REMARK    5  A    between atoms: C_22  and  O_28 
ROOT
ATOM      1  S   UNK d   1      87.891 100.980 -42.495  0.00  0.00    -0.010 SA
ATOM      2  C   UNK d   1      87.335  99.851 -43.656  0.00  0.00     0.201 A 
ATOM      3  N   UNK d   1      86.111  99.557 -44.195  0.00  0.00    -0.183 NA
ATOM      4  C   UNK d   1      85.977  98.613 -45.141  0.00  0.00     0.271 A 
ATOM      5  O   UNK d   1      84.908  98.281 -45.686  0.00  0.00    -0.266 OA
ATOM      6  C   UNK d   1      87.143  97.985 -45.508  0.00  0.00     0.114 A 
ATOM      7  C   UNK d   1      88.366  98.271 -44.977  0.00  0.00     0.134 A 
ATOM      8  N   UNK d   1      88.471  99.243 -44.012  0.00  0.00    -0.201 N 
ATOM      9  N   UNK d   1      89.553  99.627 -43.453  0.00  0.00    -0.139 NA
ATOM     10  C   UNK d   1      89.569 100.576 -42.561  0.00  0.00     0.192 A 
ENDROOT
BRANCH   7  11
ATOM     11  C   UNK d   1      89.519  97.525 -45.479  0.00  0.00     0.270 C 
ATOM     12  O   UNK d   1      89.488  97.052 -46.674  0.00  0.00    -0.266 OA
ATOM     13  N   UNK d   1      90.693  97.268 -44.742  0.00  0.00    -0.351 N 
ATOM     14  H   UNK d   1      90.799  97.592 -43.762  0.00  0.00     0.163 HD
BRANCH  13  15
ATOM     15  C   UNK d   1      91.785  96.522 -45.357  0.00  0.00     0.164 C 
BRANCH  15  16
ATOM     16  C   UNK d   1      91.758  95.103 -44.926  0.00  0.00    -0.006 A 
ATOM     17  C   UNK d   1      91.814  94.806 -43.573  0.00  0.00     0.076 A 
ATOM     18  C   UNK d   1      91.832  93.496 -43.167  0.00  0.00     0.039 A 
ATOM     19  C   UNK d   1      91.797  92.455 -44.057  0.00  0.00     0.022 A 
ATOM     20  C   UNK d   1      91.741  92.741 -45.408  0.00  0.00     0.011 A 
ATOM     21  C   UNK d   1      91.722  94.065 -45.815  0.00  0.00     0.030 A 
ATOM     22 Br   UNK d   1      91.684  91.350 -46.714  0.00  0.00    -0.051 Br
BRANCH  17  23
ATOM     23  O   UNK d   1      91.849  95.860 -42.688  0.00  0.00    -0.355 OA
ATOM     24  C   UNK d   1      91.840  95.569 -41.290  0.00  0.00     0.210 C 
ENDBRANCH  17  23
ENDBRANCH  15  16
ENDBRANCH  13  15
ENDBRANCH   7  11
BRANCH  10  25
ATOM     25  N   UNK d   1      90.678 101.160 -41.838  0.00  0.00    -0.355 N 
ATOM     26  C   UNK d   1      91.983 100.637 -41.979  0.00  0.00     0.151 C 
ATOM     27  C   UNK d   1      92.939 101.355 -41.055  0.00  0.00     0.187 C 
ATOM     28  O   UNK d   1      92.314 101.593 -39.828  0.00  0.00    -0.388 OA
ATOM     29  C   UNK d   1      91.355 102.605 -39.963  0.00  0.00     0.187 C 
ATOM     30  C   UNK d   1      90.336 102.264 -41.006  0.00  0.00     0.151 C 
ENDBRANCH  10  25
TORSDOF 5
ENDMDL
