/Users/jonathanwahrer/Desktop/Msc/3_Semester/Drug_Design_Praktikum/waehrer_HTS_screening/HTS_experiment/out/docking_results/vina_output/4agl/1265_docked.pdbqt
 OpenBabel03212200083D

 24 27  0  0  1  0  0  0  0  0999 V2000
   89.6520   98.5770  -45.3170 S   0  0  0  0  0  0  0  0  0  0  0  0
   90.6310   98.3560  -43.8370 C   0  0  1  0  0  3  0  0  0  0  0  0
   91.0310   98.9720  -42.7730 N   0  0  0  0  0  0  0  0  0  0  0  0
   91.8430   98.1430  -41.9640 C   0  0  0  0  0  3  0  0  0  0  0  0
   91.9050   96.8440  -42.6970 C   0  0  0  0  0  3  0  0  0  0  0  0
   91.0880   97.0290  -43.9190 N   0  0  0  0  0  0  0  0  0  0  0  0
   90.6840   96.3010  -45.0450 C   0  0  0  0  0  0  0  0  0  0  0  0
   89.9210   96.9170  -45.9190 C   0  0  0  0  0  3  0  0  0  0  0  0
   90.6380  100.3660  -42.4990 C   0  0  0  0  0  2  0  0  0  0  0  0
   91.8830  101.1330  -42.2990 C   0  0  0  0  0  0  0  0  0  0  0  0
   92.6890  101.3170  -43.2340 O   0  0  0  0  0  0  0  0  0  0  0  0
   92.1940  101.6930  -40.9920 C   0  0  0  0  0  0  0  0  0  0  0  0
   91.2180  102.3510  -40.2410 C   0  0  0  0  0  3  0  0  0  0  0  0
   91.4870  102.8990  -39.0010 C   0  0  0  0  0  3  0  0  0  0  0  0
   92.7630  102.7780  -38.5170 C   0  0  0  0  0  0  0  0  0  0  0  0
   93.7650  102.1360  -39.2210 C   0  0  0  0  0  3  0  0  0  0  0  0
   93.1260  103.5410  -36.7950 Br  0  0  0  0  0  0  0  0  0  0  0  0
   93.4670  101.5900  -40.4720 C   0  0  0  0  0  3  0  0  0  0  0  0
   91.0520   94.8710  -45.3070 C   0  0  0  0  0  0  0  0  0  0  0  0
   90.7110   94.2450  -46.4850 C   0  0  0  0  0  3  0  0  0  0  0  0
   91.0210   92.9330  -46.7750 C   0  0  0  0  0  3  0  0  0  0  0  0
   91.7100   92.1700  -45.8610 C   0  0  0  0  0  3  0  0  0  0  0  0
   92.0590   92.7690  -44.6830 C   0  0  0  0  0  3  0  0  0  0  0  0
   91.7380   94.1090  -44.3970 C   0  0  0  0  0  3  0  0  0  0  0  0
  2  1  1  1  0  0  0
  2  3  1  0  0  0  0
  3  9  1  0  0  0  0
  3  4  1  0  0  0  0
  5  4  2  0  0  0  0
  6  2  1  0  0  0  0
  6  5  1  0  0  0  0
  7  6  1  0  0  0  0
  8  1  1  0  0  0  0
  8  7  2  0  0  0  0
  9 10  1  0  0  0  0
 10 12  1  0  0  0  0
 11 10  2  0  0  0  0
 12 18  2  0  0  0  0
 12 13  1  0  0  0  0
 13 14  2  0  0  0  0
 14 15  1  0  0  0  0
 15 17  1  0  0  0  0
 16 15  2  0  0  0  0
 18 16  1  0  0  0  0
 19  7  1  0  0  0  0
 19 24  1  0  0  0  0
 20 19  2  0  0  0  0
 21 20  1  0  0  0  0
 21 22  2  0  0  0  0
 22 23  1  0  0  0  0
 23 24  2  0  0  0  0
M  END
>  <Pose>
1

>  <Score>
-6.154

$$$$
