MODEL 1
REMARK VINA RESULT:    -6.154      0.000      0.000
REMARK INTER + INTRA:          -7.876
REMARK INTER:                  -7.594
REMARK INTRA:                  -0.282
REMARK UNBOUND:                -0.282
REMARK  4 active torsions:
REMARK  status: ('A' for Active; 'I' for Inactive)
REMARK    1  A    between atoms: N_3  and  C_15 
REMARK    2  A    between atoms: C_7  and  C_9 
REMARK    3  A    between atoms: C_15  and  C_16 
REMARK    4  A    between atoms: C_16  and  C_18 
ROOT
ATOM      1  S   UNK d   1      89.652  98.577 -45.317  0.00  0.00    -0.063 SA
ATOM      2  C   UNK d   1      90.631  98.356 -43.837  0.00  0.00     0.149 A 
ATOM      3  N   UNK d   1      91.031  98.972 -42.773  0.00  0.00    -0.352 N 
ATOM      4  C   UNK d   1      91.843  98.143 -41.964  0.00  0.00     0.145 A 
ATOM      5  C   UNK d   1      91.905  96.844 -42.697  0.00  0.00     0.151 A 
ATOM      6  N   UNK d   1      91.088  97.029 -43.919  0.00  0.00    -0.325 N 
ATOM      7  C   UNK d   1      90.684  96.301 -45.045  0.00  0.00     0.053 A 
ATOM      8  C   UNK d   1      89.921  96.917 -45.919  0.00  0.00     0.083 A 
ENDROOT
BRANCH   3   9
ATOM      9  C   UNK d   1      90.638 100.366 -42.499  0.00  0.00     0.208 C 
BRANCH   9  10
ATOM     10  C   UNK d   1      91.883 101.133 -42.299  0.00  0.00     0.177 C 
ATOM     11  O   UNK d   1      92.689 101.317 -43.234  0.00  0.00    -0.291 OA
BRANCH  10  12
ATOM     12  C   UNK d   1      92.194 101.693 -40.992  0.00  0.00     0.011 A 
ATOM     13  C   UNK d   1      91.218 102.351 -40.241  0.00  0.00     0.016 A 
ATOM     14  C   UNK d   1      91.487 102.899 -39.001  0.00  0.00     0.020 A 
ATOM     15  C   UNK d   1      92.763 102.778 -38.517  0.00  0.00     0.011 A 
ATOM     16  C   UNK d   1      93.765 102.136 -39.221  0.00  0.00     0.020 A 
ATOM     17 Br   UNK d   1      93.126 103.541 -36.795  0.00  0.00    -0.051 Br
ATOM     18  C   UNK d   1      93.467 101.590 -40.472  0.00  0.00     0.016 A 
ENDBRANCH  10  12
ENDBRANCH   9  10
ENDBRANCH   3   9
BRANCH   7  19
ATOM     19  C   UNK d   1      91.052  94.871 -45.307  0.00  0.00    -0.009 A 
ATOM     20  C   UNK d   1      90.711  94.245 -46.485  0.00  0.00     0.014 A 
ATOM     21  C   UNK d   1      91.021  92.933 -46.775  0.00  0.00     0.001 A 
ATOM     22  C   UNK d   1      91.710  92.170 -45.861  0.00  0.00     0.000 A 
ATOM     23  C   UNK d   1      92.059  92.769 -44.683  0.00  0.00     0.001 A 
ATOM     24  C   UNK d   1      91.738  94.109 -44.397  0.00  0.00     0.014 A 
ENDBRANCH   7  19
TORSDOF 4
ENDMDL
