MODEL 1
REMARK VINA RESULT:    -7.777      0.000      0.000
REMARK INTER + INTRA:          -8.956
REMARK INTER:                  -8.687
REMARK INTRA:                  -0.269
REMARK UNBOUND:                -0.269
REMARK  2 active torsions:
REMARK  status: ('A' for Active; 'I' for Inactive)
REMARK    1  A    between atoms: C_3  and  C_8 
REMARK       I    between atoms: N_12  and  C_14 
REMARK    2  A    between atoms: C_14  and  C_16 
ROOT
ATOM      1  C   UNK d   1      91.083  97.079 -44.792  0.00  0.00     0.273 C 
ATOM      2  N   UNK d   1      92.382  97.313 -45.410  0.00  0.00     0.095 NA
ATOM      3  C   UNK d   1      92.905  98.598 -45.431  0.00  0.00     0.290 C 
ATOM      4  C   UNK d   1      92.476  99.591 -44.371  0.00  0.00     0.155 C 
ATOM      5  N   UNK d   1      91.202  99.345 -43.852  0.00  0.00    -0.355 N 
ATOM      6  C   UNK d   1      90.402  98.326 -44.463  0.00  0.00     0.165 C 
ATOM      7  C   UNK d   1      90.599 100.011 -42.754  0.00  0.00     0.189 C 
ATOM      8  O   UNK d   1      89.341  99.665 -42.603  0.00  0.00    -0.171 OA
ATOM      9  H   UNK d   1      93.065  96.592 -45.103  0.00  0.00     0.316 HD
ENDROOT
BRANCH   7  10
ATOM     10  C   UNK d   1      91.075 100.949 -41.803  0.00  0.00     0.038 A 
ATOM     11  C   UNK d   1      90.183 101.972 -41.400  0.00  0.00     0.135 A 
ATOM     12  N   UNK d   1      90.498 102.814 -40.417  0.00  0.00    -0.234 NA
ATOM     13  C   UNK d   1      91.661 102.736 -39.768  0.00  0.00     0.192 A 
ATOM     14  C   UNK d   1      92.564 101.767 -40.113  0.00  0.00     0.089 A 
ATOM     15  O   UNK d   1      91.975 103.631 -38.740  0.00  0.00    -0.323 OA
ATOM     16  C   UNK d   1      92.274 100.868 -41.136  0.00  0.00     0.051 A 
ATOM     17  N   UNK d   1      93.800 101.651 -39.401  0.00  0.00    -0.322 N 
ATOM     18  C   UNK d   1      94.060 102.564 -38.334  0.00  0.00     0.246 C 
ATOM     19  H   UNK d   1      94.496 100.927 -39.635  0.00  0.00     0.169 HD
ATOM     20  O   UNK d   1      94.838 102.335 -37.385  0.00  0.00    -0.271 OA
ATOM     21  C   UNK d   1      93.342 103.876 -38.371  0.00  0.00     0.280 C 
ENDBRANCH   7  10
BRANCH   1  22
ATOM     22  C   UNK d   1      91.386  96.209 -43.601  0.00  0.00    -0.002 A 
ATOM     23  C   UNK d   1      91.530  94.830 -43.823  0.00  0.00     0.042 A 
ATOM     24 Cl   UNK d   1      91.181  94.233 -45.459  0.00  0.00    -0.084 Cl
ATOM     25  C   UNK d   1      91.919  93.945 -42.841  0.00  0.00     0.024 A 
ATOM     26  C   UNK d   1      92.185  94.427 -41.564  0.00  0.00     0.002 A 
ATOM     27  C   UNK d   1      92.043  95.787 -41.347  0.00  0.00     0.001 A 
ATOM     28  C   UNK d   1      91.652  96.665 -42.343  0.00  0.00     0.011 A 
ENDBRANCH   1  22
TORSDOF 2
ENDMDL
