MODEL 1
REMARK VINA RESULT:    -6.804      0.000      0.000
REMARK INTER + INTRA:         -11.180
REMARK INTER:                  -9.787
REMARK INTRA:                  -1.393
REMARK UNBOUND:                -1.393
REMARK  8 active torsions:
REMARK  status: ('A' for Active; 'I' for Inactive)
REMARK    1  A    between atoms: C_4  and  C_8 
REMARK    2  A    between atoms: C_8  and  N_10 
REMARK    3  A    between atoms: N_10  and  N_11 
REMARK       I    between atoms: N_11  and  C_12 
REMARK    4  A    between atoms: C_12  and  C_14 
REMARK    5  A    between atoms: N_17  and  C_26 
REMARK    6  A    between atoms: C_18  and  C_19 
REMARK    7  A    between atoms: C_19  and  N_20 
REMARK    8  A    between atoms: C_30  and  N_31 
ROOT
ATOM      1  C   UNK d   1      88.345  97.565 -45.958  0.00  0.00     0.176 A 
ATOM      2  N   UNK d   1      87.365  97.387 -46.853  0.00  0.00    -0.124 NA
ATOM      3  N   UNK d   1      86.320  98.028 -46.395  0.00  0.00    -0.058 NA
ATOM      4  N   UNK d   1      86.603  98.611 -45.233  0.00  0.00    -0.191 N 
ATOM      5  C   UNK d   1      87.860  98.357 -44.905  0.00  0.00     0.104 A 
ENDROOT
BRANCH   1   6
ATOM      6  C   UNK d   1      89.684  97.023 -46.097  0.00  0.00     0.292 C 
ATOM      7  N   UNK d   1      89.964  95.642 -45.974  0.00  0.00    -0.264 N 
ATOM      8  H   UNK d   1      89.213  94.930 -45.768  0.00  0.00     0.190 HD
ATOM      9  O   UNK d   1      90.625  97.814 -46.337  0.00  0.00    -0.264 OA
BRANCH   7  10
ATOM     10  N   UNK d   1      91.254  95.131 -46.117  0.00  0.00    -0.298 N 
ATOM     11  H   UNK d   1      92.008  95.557 -46.681  0.00  0.00     0.187 HD
BRANCH  10  12
ATOM     12  C   UNK d   1      91.579  93.906 -45.424  0.00  0.00     0.049 C 
ATOM     13  C   UNK d   1      91.476  92.774 -46.074  0.00  0.00     0.045 C 
BRANCH  12  14
ATOM     14  C   UNK d   1      91.990  93.985 -44.037  0.00  0.00    -0.008 A 
ATOM     15  C   UNK d   1      92.940  93.095 -43.537  0.00  0.00     0.032 A 
ATOM     16  C   UNK d   1      93.350  93.168 -42.229  0.00  0.00     0.011 A 
ATOM     17 Br   UNK d   1      94.643  91.958 -41.536  0.00  0.00    -0.051 Br
ATOM     18  C   UNK d   1      92.842  94.120 -41.362  0.00  0.00     0.019 A 
ATOM     19  C   UNK d   1      91.914  94.995 -41.837  0.00  0.00     0.002 A 
ATOM     20  C   UNK d   1      91.501  94.917 -43.168  0.00  0.00     0.014 A 
ENDBRANCH  12  14
ENDBRANCH  10  12
ENDBRANCH   7  10
ENDBRANCH   1   6
BRANCH   5  21
ATOM     21  C   UNK d   1      88.667  98.697 -43.756  0.00  0.00     0.334 C 
BRANCH  21  22
ATOM     22  N   UNK d   1      88.846 100.111 -43.491  0.00  0.00     0.094 NA
ATOM     23  C   UNK d   1      89.769 100.317 -42.378  0.00  0.00     0.273 C 
ATOM     24  C   UNK d   1      91.022  99.482 -42.523  0.00  0.00     0.030 C 
ATOM     25  C   UNK d   1      91.706  99.800 -43.841  0.00  0.00     0.003 C 
ATOM     26  C   UNK d   1      90.956 100.863 -44.592  0.00  0.00     0.030 C 
ATOM     27  C   UNK d   1      89.486 100.742 -44.642  0.00  0.00     0.273 C 
ENDBRANCH  21  22
ENDBRANCH   5  21
BRANCH   4  28
ATOM     28  C   UNK d   1      85.665  99.357 -44.482  0.00  0.00     0.229 A 
ATOM     29  N   UNK d   1      85.546 100.711 -44.578  0.00  0.00    -0.081 NA
ATOM     30  O   UNK d   1      84.608 101.079 -43.764  0.00  0.00    -0.103 OA
ATOM     31  N   UNK d   1      84.105 100.076 -43.140  0.00  0.00    -0.083 NA
ATOM     32  C   UNK d   1      84.738  98.972 -43.559  0.00  0.00     0.201 A 
BRANCH  32  33
ATOM     33  N   UNK d   1      84.513  97.650 -43.145  0.00  0.00    -0.379 N 
ATOM     34  H   UNK d   1      83.924  97.351 -42.337  0.00  0.00     0.158 HD
ATOM     35  H   UNK d   1      84.967  96.876 -43.677  0.00  0.00     0.158 HD
ENDBRANCH  32  33
ENDBRANCH   4  28
TORSDOF 8
ENDMDL
