/Users/jonathanwahrer/Desktop/Msc/3_Semester/Drug_Design_Praktikum/waehrer_HTS_screening/HTS_experiment/out/docking_results/vina_output/4agl/1280_docked.pdbqt
 OpenBabel03212200093D

 35 38  0  0  1  0  0  0  0  0999 V2000
   90.8400   97.8780  -45.4350 C   0  0  1  0  0  3  0  0  0  0  0  0
   89.4800   98.0440  -45.9080 N   0  0  0  0  0  0  0  0  0  0  0  0
   88.6580   98.1770  -44.7610 C   0  0  0  0  0  0  0  0  0  0  0  0
   87.4580   97.8890  -44.7030 O   0  0  0  0  0  0  0  0  0  0  0  0
   89.5180   98.7130  -43.6910 C   0  0  0  0  0  0  0  0  0  0  0  0
   89.1910   98.9890  -42.5110 O   0  0  0  0  0  0  0  0  0  0  0  0
   90.8340   98.8590  -44.3000 C   0  0  0  0  0  0  0  0  0  0  0  0
   91.7680   99.7170  -43.9150 C   0  0  0  0  0  0  0  0  0  0  0  0
   92.9530   99.7130  -44.6890 O   0  0  0  0  0  1  0  0  0  0  0  0
   91.0690   96.4880  -45.0130 C   0  0  0  0  0  0  0  0  0  0  0  0
   91.4380   96.2090  -43.7050 C   0  0  0  0  0  3  0  0  0  0  0  0
   91.6410   94.8950  -43.2680 C   0  0  0  0  0  0  0  0  0  0  0  0
   92.1510   94.5460  -41.4480 Br  0  0  0  0  0  0  0  0  0  0  0  0
   91.4770   93.8470  -44.1360 C   0  0  0  0  0  3  0  0  0  0  0  0
   91.1110   94.1080  -45.4350 C   0  0  0  0  0  3  0  0  0  0  0  0
   90.9150   95.4180  -45.8510 C   0  0  0  0  0  3  0  0  0  0  0  0
   91.6290  100.6220  -42.7790 C   0  0  0  0  0  0  0  0  0  0  0  0
   91.0610  101.8590  -42.8430 C   0  0  0  0  0  0  0  0  0  0  0  0
   91.0130  102.6890  -41.7080 C   0  0  0  0  0  3  0  0  0  0  0  0
   90.4390  102.3360  -44.1010 C   0  0  0  0  0  1  0  0  0  0  0  0
   91.5230  102.3090  -40.4960 C   0  0  0  0  0  0  0  0  0  0  0  0
   92.0960  101.0570  -40.4290 C   0  0  0  0  0  3  0  0  0  0  0  0
   92.1490  100.2410  -41.5280 C   0  0  0  0  0  3  0  0  0  0  0  0
   91.4760  103.1260  -39.3670 O   0  0  0  0  0  0  0  0  0  0  0  0
   92.6100  103.2900  -38.5550 C   0  0  0  0  0  1  0  0  0  0  0  0
   89.0960   98.0570  -47.3040 C   0  0  0  0  0  2  0  0  0  0  0  0
   88.8850   99.4310  -47.8560 C   0  0  0  0  0  2  0  0  0  0  0  0
   89.5650   99.7270  -49.1380 C   0  0  0  0  0  2  0  0  0  0  0  0
   90.9710   99.9080  -49.0610 N   0  0  0  0  0  4  0  0  0  0  0  0
   91.5770  100.3720  -50.3200 C   0  0  0  0  0  2  0  0  0  0  0  0
   93.0480   99.9630  -50.2330 C   0  0  0  0  0  2  0  0  0  0  0  0
   93.4030   99.5680  -48.9560 O   0  0  0  0  0  0  0  0  0  0  0  0
   93.0110  100.5170  -48.0120 C   0  0  0  0  0  2  0  0  0  0  0  0
   91.4870  100.7330  -48.0310 C   0  0  0  0  0  2  0  0  0  0  0  0
   91.3950   98.9410  -48.9140 H   0  0  0  0  0  0  0  0  0  0  0  0
  1 10  1  1  0  0  0
  1  7  1  0  0  0  0
  2  1  1  0  0  0  0
  2  3  1  0  0  0  0
  3  4  2  0  0  0  0
  3  5  1  0  0  0  0
  5  6  2  0  0  0  0
  7  8  2  0  0  0  0
  7  5  1  0  0  0  0
  8 17  1  0  0  0  0
  9  8  1  0  0  0  0
 10 11  1  0  0  0  0
 11 12  2  0  0  0  0
 12 13  1  0  0  0  0
 14 12  1  0  0  0  0
 15 14  2  0  0  0  0
 16 15  1  0  0  0  0
 16 10  2  0  0  0  0
 17 23  1  0  0  0  0
 18 17  2  0  0  0  0
 18 19  1  0  0  0  0
 19 21  2  0  0  0  0
 20 18  1  0  0  0  0
 21 22  1  0  0  0  0
 21 24  1  0  0  0  0
 23 22  2  0  0  0  0
 24 25  1  0  0  0  0
 26  2  1  0  0  0  0
 27 26  1  0  0  0  0
 28 29  1  0  0  0  0
 28 27  1  0  0  0  0
 29 35  1  0  0  0  0
 29 34  1  0  0  0  0
 30 31  1  0  0  0  0
 30 29  1  0  0  0  0
 31 32  1  0  0  0  0
 32 33  1  0  0  0  0
 34 33  1  0  0  0  0
M  END
>  <Pose>
1

>  <Score>
-6.447

$$$$
