MODEL 1
REMARK VINA RESULT:    -6.447      0.000      0.000
REMARK INTER + INTRA:         -10.534
REMARK INTER:                  -9.085
REMARK INTRA:                  -1.449
REMARK UNBOUND:                -1.449
REMARK  7 active torsions:
REMARK  status: ('A' for Active; 'I' for Inactive)
REMARK    1  A    between atoms: C_4  and  C_8 
REMARK    2  A    between atoms: N_9  and  C_26 
REMARK    3  A    between atoms: C_15  and  C_17 
REMARK    4  A    between atoms: C_20  and  O_23 
REMARK    5  A    between atoms: C_26  and  C_27 
REMARK    6  A    between atoms: C_27  and  C_28 
REMARK    7  A    between atoms: C_28  and  N_29 
ROOT
ATOM      1  C   UNK d   1      90.840  97.878 -45.435  0.00  0.00     0.161 C 
ATOM      2  N   UNK d   1      89.480  98.044 -45.908  0.00  0.00    -0.332 N 
ATOM      3  C   UNK d   1      88.658  98.177 -44.761  0.00  0.00     0.295 C 
ATOM      4  O   UNK d   1      87.458  97.889 -44.703  0.00  0.00    -0.264 OA
ATOM      5  C   UNK d   1      89.518  98.713 -43.691  0.00  0.00     0.250 C 
ATOM      6  O   UNK d   1      89.191  98.989 -42.511  0.00  0.00    -0.282 OA
ATOM      7  C   UNK d   1      90.834  98.859 -44.300  0.00  0.00     0.062 C 
ATOM      8  C   UNK d   1      91.768  99.717 -43.915  0.00  0.00     0.130 C 
ATOM      9  O   UNK d   1      92.953  99.713 -44.689  0.00  0.00    -0.190 OA
ENDROOT
BRANCH   1  10
ATOM     10  C   UNK d   1      91.069  96.488 -45.013  0.00  0.00    -0.029 A 
ATOM     11  C   UNK d   1      91.438  96.209 -43.705  0.00  0.00     0.028 A 
ATOM     12  C   UNK d   1      91.641  94.895 -43.268  0.00  0.00     0.011 A 
ATOM     13 Br   UNK d   1      92.151  94.546 -41.448  0.00  0.00    -0.051 Br
ATOM     14  C   UNK d   1      91.477  93.847 -44.136  0.00  0.00     0.019 A 
ATOM     15  C   UNK d   1      91.111  94.108 -45.435  0.00  0.00     0.002 A 
ATOM     16  C   UNK d   1      90.915  95.418 -45.851  0.00  0.00     0.009 A 
ENDBRANCH   1  10
BRANCH   8  17
ATOM     17  C   UNK d   1      91.629 100.622 -42.779  0.00  0.00     0.007 A 
ATOM     18  C   UNK d   1      91.061 101.859 -42.843  0.00  0.00    -0.046 A 
ATOM     19  C   UNK d   1      91.013 102.689 -41.708  0.00  0.00     0.044 A 
ATOM     20  C   UNK d   1      90.439 102.336 -44.101  0.00  0.00     0.049 C 
ATOM     21  C   UNK d   1      91.523 102.309 -40.496  0.00  0.00     0.068 A 
ATOM     22  C   UNK d   1      92.096 101.057 -40.429  0.00  0.00     0.037 A 
ATOM     23  C   UNK d   1      92.149 100.241 -41.528  0.00  0.00     0.017 A 
BRANCH  21  24
ATOM     24  O   UNK d   1      91.476 103.126 -39.367  0.00  0.00    -0.356 OA
ATOM     25  C   UNK d   1      92.610 103.290 -38.555  0.00  0.00     0.210 C 
ENDBRANCH  21  24
ENDBRANCH   8  17
BRANCH   2  26
ATOM     26  C   UNK d   1      89.096  98.057 -47.304  0.00  0.00     0.129 C 
BRANCH  26  27
ATOM     27  C   UNK d   1      88.885  99.431 -47.856  0.00  0.00     0.048 C 
BRANCH  27  28
ATOM     28  C   UNK d   1      89.565  99.727 -49.138  0.00  0.00     0.236 C 
BRANCH  28  29
ATOM     29  N   UNK d   1      90.971  99.908 -49.061  0.00  0.00    -0.067 N 
ATOM     30  C   UNK d   1      91.577 100.372 -50.320  0.00  0.00     0.261 C 
ATOM     31  C   UNK d   1      93.048  99.963 -50.233  0.00  0.00     0.195 C 
ATOM     32  O   UNK d   1      93.403  99.568 -48.956  0.00  0.00    -0.388 OA
ATOM     33  C   UNK d   1      93.011 100.517 -48.012  0.00  0.00     0.195 C 
ATOM     34  C   UNK d   1      91.487 100.733 -48.031  0.00  0.00     0.261 C 
ATOM     35  H   UNK d   1      91.395  98.941 -48.914  0.00  0.00     0.280 HD
ENDBRANCH  28  29
ENDBRANCH  27  28
ENDBRANCH  26  27
ENDBRANCH   2  26
TORSDOF 7
ENDMDL
