/Users/jonathanwahrer/Desktop/Msc/3_Semester/Drug_Design_Praktikum/waehrer_HTS_screening/HTS_experiment/out/docking_results/vina_output/4agl/1284_docked.pdbqt
 OpenBabel03212200103D

 35 38  0  0  1  0  0  0  0  0999 V2000
   90.2860   96.7780  -46.1460 C   0  0  1  0  0  3  0  0  0  0  0  0
   88.8720   96.7580  -46.2020 N   0  0  0  0  0  0  0  0  0  0  0  0
   88.3470   97.8000  -45.3950 C   0  0  0  0  0  0  0  0  0  0  0  0
   87.1130   97.9890  -45.1620 O   0  0  0  0  0  0  0  0  0  0  0  0
   89.4480   98.5980  -44.9010 C   0  0  0  0  0  0  0  0  0  0  0  0
   89.2600   99.5940  -44.1510 O   0  0  0  0  0  0  0  0  0  0  0  0
   90.6700   98.0180  -45.4230 C   0  0  0  0  0  0  0  0  0  0  0  0
   91.8730   98.5060  -45.2200 C   0  0  0  0  0  0  0  0  0  0  0  0
   92.9640   97.8270  -45.7140 O   0  0  0  0  0  1  0  0  0  0  0  0
   90.8030   95.5740  -45.4880 C   0  0  0  0  0  0  0  0  0  0  0  0
   90.9280   94.4170  -46.2380 C   0  0  0  0  0  3  0  0  0  0  0  0
   91.4070   93.2260  -45.7850 C   0  0  0  0  0  0  0  0  0  0  0  0
   91.5600   91.6590  -46.8650 Br  0  0  0  0  0  0  0  0  0  0  0  0
   91.8040   93.1800  -44.4380 C   0  0  0  0  0  3  0  0  0  0  0  0
   91.6900   94.3200  -43.6610 C   0  0  0  0  0  3  0  0  0  0  0  0
   91.2000   95.5140  -44.1550 C   0  0  0  0  0  3  0  0  0  0  0  0
   92.0690   99.7400  -44.5000 C   0  0  0  0  0  0  0  0  0  0  0  0
   92.1850   99.8220  -43.1010 C   0  0  0  0  0  0  0  0  0  0  0  0
   92.3960  101.0970  -42.7530 N   0  0  0  0  0  0  0  0  0  0  0  0
   92.0860   98.6450  -42.1890 C   0  0  0  0  0  1  0  0  0  0  0  0
   92.4140  101.8040  -43.8680 N   0  0  0  0  0  0  0  0  0  0  0  0
   92.2230  101.0240  -44.9420 C   0  0  0  0  0  3  0  0  0  0  0  0
   92.5810  101.6120  -41.4430 C   0  0  0  0  0  0  0  0  0  0  0  0
   91.4620  101.9310  -40.6850 C   0  0  0  0  0  3  0  0  0  0  0  0
   91.5680  102.4260  -39.4010 C   0  0  0  0  0  3  0  0  0  0  0  0
   92.8160  102.6250  -38.8080 C   0  0  0  0  0  3  0  0  0  0  0  0
   93.9310  102.3070  -39.5630 C   0  0  0  0  0  3  0  0  0  0  0  0
   93.7990  101.8180  -40.8370 C   0  0  0  0  0  3  0  0  0  0  0  0
   88.0220   95.8240  -46.9920 C   0  0  0  0  0  2  0  0  0  0  0  0
   88.4290   95.8730  -48.4420 C   0  0  0  0  0  2  0  0  0  0  0  0
   88.1960   97.2040  -49.0830 C   0  0  0  0  0  2  0  0  0  0  0  0
   89.3600   97.9370  -49.4570 N   0  0  0  0  0  4  0  0  0  0  0  0
   89.5770   98.1140  -50.8550 C   0  0  0  0  0  1  0  0  0  0  0  0
   89.3380   99.2730  -48.8380 C   0  0  0  0  0  1  0  0  0  0  0  0
   90.2220   97.4730  -49.0400 H   0  0  0  0  0  0  0  0  0  0  0  0
  1 10  1  1  0  0  0
  1  7  1  0  0  0  0
  2  1  1  0  0  0  0
  2  3  1  0  0  0  0
  3  4  2  0  0  0  0
  3  5  1  0  0  0  0
  5  6  2  0  0  0  0
  7  8  2  0  0  0  0
  7  5  1  0  0  0  0
  8 17  1  0  0  0  0
  9  8  1  0  0  0  0
 10 16  1  0  0  0  0
 11 12  1  0  0  0  0
 11 10  2  0  0  0  0
 12 14  2  0  0  0  0
 13 12  1  0  0  0  0
 14 15  1  0  0  0  0
 16 15  2  0  0  0  0
 17 18  2  0  0  0  0
 18 19  1  0  0  0  0
 18 20  1  0  0  0  0
 19 23  1  0  0  0  0
 21 19  1  0  0  0  0
 22 17  1  0  0  0  0
 22 21  2  0  0  0  0
 23 28  2  0  0  0  0
 23 24  1  0  0  0  0
 24 25  2  0  0  0  0
 25 26  1  0  0  0  0
 27 26  2  0  0  0  0
 28 27  1  0  0  0  0
 29  2  1  0  0  0  0
 30 29  1  0  0  0  0
 31 30  1  0  0  0  0
 32 31  1  0  0  0  0
 32 35  1  0  0  0  0
 32 34  1  0  0  0  0
 33 32  1  0  0  0  0
M  END
>  <Pose>
1

>  <Score>
-6.515

$$$$
