/Users/jonathanwahrer/Desktop/Msc/3_Semester/Drug_Design_Praktikum/waehrer_HTS_screening/HTS_experiment/out/docking_results/vina_output/4agl/1285_docked.pdbqt
 OpenBabel03212200103D

 34 37  0  0  1  0  0  0  0  0999 V2000
   89.8870   97.6790  -44.6290 C   0  0  1  0  0  3  0  0  0  0  0  0
   91.2290   97.2940  -45.0220 N   0  0  0  0  0  0  0  0  0  0  0  0
   91.9250   98.4850  -45.4500 C   0  0  0  0  0  0  0  0  0  0  0  0
   92.8920   98.5650  -46.2160 O   0  0  0  0  0  0  0  0  0  0  0  0
   91.2310   99.5790  -44.7770 C   0  0  0  0  0  0  0  0  0  0  0  0
   91.4710  100.8220  -44.8400 O   0  0  0  0  0  0  0  0  0  0  0  0
   90.1590   99.0100  -43.9770 C   0  0  0  0  0  0  0  0  0  0  0  0
   89.5270   99.5450  -42.9450 C   0  0  0  0  0  0  0  0  0  0  0  0
   88.4600   98.7990  -42.3680 O   0  0  0  0  0  1  0  0  0  0  0  0
   88.9430   97.8360  -45.7440 C   0  0  0  0  0  0  0  0  0  0  0  0
   88.8860   96.8150  -46.6980 C   0  0  0  0  0  3  0  0  0  0  0  0
   88.0310   96.8990  -47.7520 C   0  0  0  0  0  0  0  0  0  0  0  0
   87.9700   95.4930  -49.0440 Br  0  0  0  0  0  0  0  0  0  0  0  0
   87.2030   97.9840  -47.9070 C   0  0  0  0  0  3  0  0  0  0  0  0
   87.2350   99.0050  -46.9860 C   0  0  0  0  0  3  0  0  0  0  0  0
   88.1080   98.9200  -45.9080 C   0  0  0  0  0  3  0  0  0  0  0  0
   89.9010  100.8290  -42.4060 C   0  0  0  0  0  0  0  0  0  0  0  0
   90.9700  101.1390  -41.6420 N   0  0  0  0  0  0  0  0  0  0  0  0
   90.9470  102.4710  -41.3930 C   0  0  0  0  0  0  0  0  0  0  0  0
   91.9740  100.4270  -41.1040 C   0  0  0  0  0  3  0  0  0  0  0  0
   89.8600  103.0240  -41.9980 N   0  0  0  0  0  0  0  0  0  0  0  0
   91.8760  103.1370  -40.6350 C   0  0  0  0  0  0  0  0  0  0  0  0
   89.2230  102.0020  -42.6180 C   0  0  0  0  0  0  0  0  0  0  0  0
   87.9710  102.1580  -43.4090 C   0  0  0  0  0  1  0  0  0  0  0  0
   92.9020  102.3980  -40.0880 C   0  0  0  0  0  3  0  0  0  0  0  0
   91.8030  104.6070  -40.3960 C   0  0  0  0  0  1  0  0  0  0  0  0
   92.9280  101.0410  -40.3370 C   0  0  0  0  0  3  0  0  0  0  0  0
   91.7900   95.9540  -45.0030 C   0  0  0  0  0  2  0  0  0  0  0  0
   91.4580   95.1670  -43.7820 C   0  0  0  0  0  2  0  0  0  0  0  0
   92.0230   93.7690  -43.7570 C   0  0  0  0  0  2  0  0  0  0  0  0
   92.1040   93.3000  -42.3940 N   0  0  0  0  0  4  0  0  0  0  0  0
   93.4800   93.0000  -42.0410 C   0  0  0  0  0  1  0  0  0  0  0  0
   91.6760   94.3710  -41.5150 C   0  0  0  0  0  1  0  0  0  0  0  0
   91.4660   92.4970  -42.2070 H   0  0  0  0  0  0  0  0  0  0  0  0
  1 10  1  6  0  0  0
  1  7  1  0  0  0  0
  2 28  1  0  0  0  0
  2  1  1  0  0  0  0
  3  2  1  0  0  0  0
  3  5  1  0  0  0  0
  4  3  2  0  0  0  0
  5  7  1  0  0  0  0
  6  5  2  0  0  0  0
  7  8  2  0  0  0  0
  8 17  1  0  0  0  0
  8  9  1  0  0  0  0
 11 10  2  0  0  0  0
 12 11  1  0  0  0  0
 13 12  1  0  0  0  0
 14 12  2  0  0  0  0
 14 15  1  0  0  0  0
 15 16  2  0  0  0  0
 16 10  1  0  0  0  0
 17 18  1  0  0  0  0
 18 19  1  0  0  0  0
 18 20  1  0  0  0  0
 19 22  1  0  0  0  0
 20 27  2  0  0  0  0
 21 19  2  0  0  0  0
 22 26  1  0  0  0  0
 22 25  2  0  0  0  0
 23 17  2  0  0  0  0
 23 21  1  0  0  0  0
 24 23  1  0  0  0  0
 27 25  1  0  0  0  0
 28 29  1  0  0  0  0
 29 30  1  0  0  0  0
 30 31  1  0  0  0  0
 31 34  1  0  0  0  0
 31 32  1  0  0  0  0
 31 33  1  0  0  0  0
M  END
>  <Pose>
1

>  <Score>
-6.139

$$$$
