MODEL 1
REMARK VINA RESULT:    -6.139      0.000      0.000
REMARK INTER + INTRA:          -9.688
REMARK INTER:                  -8.293
REMARK INTRA:                  -1.395
REMARK UNBOUND:                -1.395
REMARK  6 active torsions:
REMARK  status: ('A' for Active; 'I' for Inactive)
REMARK    1  A    between atoms: C_4  and  C_8 
REMARK    2  A    between atoms: N_9  and  C_28 
REMARK    3  A    between atoms: C_15  and  C_17 
REMARK    4  A    between atoms: C_28  and  C_29 
REMARK    5  A    between atoms: C_29  and  C_30 
REMARK    6  A    between atoms: C_30  and  N_31 
ROOT
ATOM      1  C   UNK d   1      89.887  97.679 -44.629  0.00  0.00     0.161 C 
ATOM      2  N   UNK d   1      91.229  97.294 -45.022  0.00  0.00    -0.332 N 
ATOM      3  C   UNK d   1      91.925  98.485 -45.450  0.00  0.00     0.295 C 
ATOM      4  O   UNK d   1      92.892  98.565 -46.216  0.00  0.00    -0.264 OA
ATOM      5  C   UNK d   1      91.231  99.579 -44.777  0.00  0.00     0.251 C 
ATOM      6  O   UNK d   1      91.471 100.822 -44.840  0.00  0.00    -0.282 OA
ATOM      7  C   UNK d   1      90.159  99.010 -43.977  0.00  0.00     0.064 C 
ATOM      8  C   UNK d   1      89.527  99.545 -42.945  0.00  0.00     0.149 C 
ATOM      9  O   UNK d   1      88.460  98.799 -42.368  0.00  0.00    -0.189 OA
ENDROOT
BRANCH   1  10
ATOM     10  C   UNK d   1      88.943  97.836 -45.744  0.00  0.00    -0.029 A 
ATOM     11  C   UNK d   1      88.886  96.815 -46.698  0.00  0.00     0.028 A 
ATOM     12  C   UNK d   1      88.031  96.899 -47.752  0.00  0.00     0.011 A 
ATOM     13 Br   UNK d   1      87.970  95.493 -49.044  0.00  0.00    -0.051 Br
ATOM     14  C   UNK d   1      87.203  97.984 -47.907  0.00  0.00     0.019 A 
ATOM     15  C   UNK d   1      87.235  99.005 -46.986  0.00  0.00     0.002 A 
ATOM     16  C   UNK d   1      88.108  98.920 -45.908  0.00  0.00     0.009 A 
ENDBRANCH   1  10
BRANCH   8  17
ATOM     17  C   UNK d   1      89.901 100.829 -42.406  0.00  0.00     0.102 A 
ATOM     18  N   UNK d   1      90.970 101.139 -41.642  0.00  0.00    -0.302 N 
ATOM     19  C   UNK d   1      90.947 102.471 -41.393  0.00  0.00     0.140 A 
ATOM     20  C   UNK d   1      91.974 100.427 -41.104  0.00  0.00     0.099 A 
ATOM     21  N   UNK d   1      89.860 103.024 -41.998  0.00  0.00    -0.233 NA
ATOM     22  C   UNK d   1      91.876 103.137 -40.635  0.00  0.00    -0.015 A 
ATOM     23  C   UNK d   1      89.223 102.002 -42.618  0.00  0.00     0.063 A 
ATOM     24  C   UNK d   1      87.971 102.158 -43.409  0.00  0.00     0.073 C 
ATOM     25  C   UNK d   1      92.902 102.398 -40.088  0.00  0.00     0.012 A 
ATOM     26  C   UNK d   1      91.803 104.607 -40.396  0.00  0.00     0.052 C 
ATOM     27  C   UNK d   1      92.928 101.041 -40.337  0.00  0.00     0.018 A 
ENDBRANCH   8  17
BRANCH   2  28
ATOM     28  C   UNK d   1      91.790  95.954 -45.003  0.00  0.00     0.129 C 
BRANCH  28  29
ATOM     29  C   UNK d   1      91.458  95.167 -43.782  0.00  0.00     0.048 C 
BRANCH  29  30
ATOM     30  C   UNK d   1      92.023  93.769 -43.757  0.00  0.00     0.235 C 
BRANCH  30  31
ATOM     31  N   UNK d   1      92.104  93.300 -42.394  0.00  0.00    -0.079 N 
ATOM     32  C   UNK d   1      93.480  93.000 -42.041  0.00  0.00     0.269 C 
ATOM     33  C   UNK d   1      91.676  94.371 -41.515  0.00  0.00     0.269 C 
ATOM     34  H   UNK d   1      91.466  92.497 -42.207  0.00  0.00     0.278 HD
ENDBRANCH  30  31
ENDBRANCH  29  30
ENDBRANCH  28  29
ENDBRANCH   2  28
TORSDOF 6
ENDMDL
