MODEL 1
REMARK VINA RESULT:    -6.379      0.000      0.000
REMARK INTER + INTRA:          -6.945
REMARK INTER:                  -6.752
REMARK INTRA:                  -0.193
REMARK UNBOUND:                -0.193
REMARK  1 active torsions:
REMARK  status: ('A' for Active; 'I' for Inactive)
REMARK    1  A    between atoms: C_5  and  C_8 
ROOT
ATOM      1  C   UNK d   1      91.293  98.353 -44.081  0.00  0.00     0.102 A 
ATOM      2  C   UNK d   1      91.574  99.656 -43.518  0.00  0.00     0.068 A 
ATOM      3  C   UNK d   1      92.016  99.792 -42.233  0.00  0.00     0.124 A 
ATOM      4  N   UNK d   1      92.248  98.662 -41.382  0.00  0.00    -0.343 N 
ATOM      5  C   UNK d   1      91.991  97.388 -41.960  0.00  0.00     0.048 A 
ATOM      6  C   UNK d   1      91.572  97.232 -43.184  0.00  0.00     0.055 A 
ATOM      7  C   UNK d   1      91.444  95.768 -43.464  0.00  0.00     0.292 A 
ATOM      8  O   UNK d   1      91.054  95.312 -44.581  0.00  0.00    -0.259 OA
ATOM      9  O   UNK d   1      91.816  95.136 -42.324  0.00  0.00    -0.312 OA
ATOM     10  C   UNK d   1      92.140  96.025 -41.310  0.00  0.00     0.237 A 
ATOM     11  N   UNK d   1      92.261 101.046 -41.732  0.00  0.00    -0.289 N 
ATOM     12  C   UNK d   1      92.071 102.131 -42.491  0.00  0.00     0.332 A 
ATOM     13  O   UNK d   1      92.303 103.276 -42.010  0.00  0.00    -0.246 OA
ATOM     14  N   UNK d   1      91.636 101.987 -43.754  0.00  0.00    -0.270 N 
ATOM     15  C   UNK d   1      91.376 100.808 -44.314  0.00  0.00     0.262 A 
ATOM     16  O   UNK d   1      90.970 100.663 -45.494  0.00  0.00    -0.267 OA
ATOM     17  C   UNK d   1      91.442 103.203 -44.546  0.00  0.00     0.164 C 
ATOM     18  C   UNK d   1      92.729 101.124 -40.357  0.00  0.00     0.163 C 
ATOM     19  H   UNK d   1      92.582  98.808 -40.413  0.00  0.00     0.167 HD
ENDROOT
BRANCH   1  20
ATOM     20  C   UNK d   1      90.017  98.224 -44.778  0.00  0.00    -0.045 A 
ATOM     21  C   UNK d   1      89.937  97.911 -46.101  0.00  0.00     0.009 A 
ATOM     22  C   UNK d   1      88.693  97.799 -46.747  0.00  0.00     0.019 A 
ATOM     23  C   UNK d   1      87.540  98.007 -46.034  0.00  0.00     0.011 A 
ATOM     24 Br   UNK d   1      85.816  97.865 -46.873  0.00  0.00    -0.051 Br
ATOM     25  C   UNK d   1      87.607  98.322 -44.707  0.00  0.00     0.019 A 
ATOM     26  C   UNK d   1      88.857  98.431 -44.073  0.00  0.00     0.009 A 
ENDBRANCH   1  20
TORSDOF 1
ENDMDL
