/Users/jonathanwahrer/Desktop/Msc/3_Semester/Drug_Design_Praktikum/waehrer_HTS_screening/HTS_experiment/out/docking_results/vina_output/4agl/1299_docked.pdbqt
 OpenBabel03212200113D

 36 39  0  0  0  0  0  0  0  0999 V2000
   91.1520   96.3560  -44.9700 C   0  0  0  0  0  0  0  0  0  0  0  0
   90.1420   96.5930  -45.8670 N   0  0  0  0  0  0  0  0  0  0  0  0
   89.9230   95.4400  -46.4650 N   0  0  0  0  0  0  0  0  0  0  0  0
   90.7030   94.5110  -46.0190 N   0  0  0  0  0  0  0  0  0  0  0  0
   91.5140   95.0390  -45.0590 C   0  0  0  0  0  0  0  0  0  0  0  0
   91.6560   97.4310  -44.1240 C   0  0  0  0  0  0  0  0  0  0  0  0
   91.1340   97.8440  -42.8780 N   0  0  0  0  0  0  0  0  0  0  0  0
   90.3090   97.4300  -42.3900 H   0  0  0  0  0  0  0  0  0  0  0  0
   92.6850   98.1080  -44.5060 O   0  0  0  0  0  0  0  0  0  0  0  0
   91.8080   98.9340  -42.2310 N   0  0  0  0  0  0  0  0  0  0  0  0
   91.2780  100.0910  -42.1430 C   0  0  0  0  0  3  0  0  0  0  0  0
   91.9700  101.2070  -41.4810 C   0  0  0  0  0  0  0  0  0  0  0  0
   93.0780  101.7730  -42.0290 C   0  0  0  0  0  3  0  0  0  0  0  0
   93.7280  102.8220  -41.4050 C   0  0  0  0  0  0  0  0  0  0  0  0
   93.2760  103.3270  -40.2120 C   0  0  0  0  0  0  0  0  0  0  0  0
   95.2940  103.6150  -42.1900 Br  0  0  0  0  0  0  0  0  0  0  0  0
   92.1520  102.7550  -39.6520 C   0  0  0  0  0  0  0  0  0  0  0  0
   91.5150  103.4490  -37.9920 Br  0  0  0  0  0  0  0  0  0  0  0  0
   91.5100  101.7080  -40.2830 C   0  0  0  0  0  3  0  0  0  0  0  0
   93.9540  104.3810  -39.6160 O   0  0  0  0  0  0  0  0  0  0  0  0
   94.3060  105.1710  -40.1270 H   0  0  0  0  0  0  0  0  0  0  0  0
   89.4790   97.8180  -46.1010 C   0  0  0  0  0  0  0  0  0  0  0  0
   89.0880   98.7720  -45.2190 N   0  0  0  0  0  0  0  0  0  0  0  0
   88.5170   99.7260  -45.8630 O   0  0  0  0  0  0  0  0  0  0  0  0
   88.4810   99.5080  -47.1390 N   0  0  0  0  0  0  0  0  0  0  0  0
   89.0830   98.3040  -47.3330 C   0  0  0  0  0  0  0  0  0  0  0  0
   89.2530   97.6910  -48.6000 N   0  0  0  0  0  0  0  0  0  0  0  0
   89.2580   96.6550  -48.6440 H   0  0  0  0  0  0  0  0  0  0  0  0
   89.3710   98.2160  -49.4860 H   0  0  0  0  0  0  0  0  0  0  0  0
   92.5590   94.3680  -44.2870 C   0  0  0  0  0  2  0  0  0  0  0  0
   92.0640   93.3350  -43.3890 N   0  0  0  0  0  0  0  0  0  0  0  0
   93.1780   92.5880  -42.8210 C   0  0  0  0  0  2  0  0  0  0  0  0
   93.6420   93.1790  -41.5200 C   0  0  0  0  0  2  0  0  0  0  0  0
   93.3150   94.5120  -41.3560 O   0  0  0  0  0  0  0  0  0  0  0  0
   91.9560   94.7830  -41.4180 C   0  0  0  0  0  2  0  0  0  0  0  0
   91.2190   93.8500  -42.3400 C   0  0  0  0  0  2  0  0  0  0  0  0
  1  6  1  0  0  0  0
  2  1  1  0  0  0  0
  3  4  2  0  0  0  0
  3  2  1  0  0  0  0
  4  5  1  0  0  0  0
  5  1  2  0  0  0  0
  5 30  1  0  0  0  0
  6  7  1  0  0  0  0
  7  8  1  0  0  0  0
  7 10  1  0  0  0  0
  9  6  2  0  0  0  0
 10 11  2  0  0  0  0
 11 12  1  0  0  0  0
 12 19  1  0  0  0  0
 13 12  2  0  0  0  0
 13 14  1  0  0  0  0
 14 15  2  0  0  0  0
 15 17  1  0  0  0  0
 15 20  1  0  0  0  0
 16 14  1  0  0  0  0
 17 18  1  0  0  0  0
 19 17  2  0  0  0  0
 21 20  1  0  0  0  0
 22  2  1  0  0  0  0
 22 23  2  0  0  0  0
 24 23  1  0  0  0  0
 25 24  1  0  0  0  0
 26 25  2  0  0  0  0
 26 22  1  0  0  0  0
 27 26  1  0  0  0  0
 28 27  1  0  0  0  0
 29 27  1  0  0  0  0
 30 31  1  0  0  0  0
 31 32  1  0  0  0  0
 31 36  1  0  0  0  0
 32 33  1  0  0  0  0
 33 34  1  0  0  0  0
 35 34  1  0  0  0  0
 36 35  1  0  0  0  0
M  END
>  <Pose>
1

>  <Score>
-6.144

$$$$
