MODEL 1
REMARK VINA RESULT:    -5.777      0.000      0.000
REMARK INTER + INTRA:          -7.017
REMARK INTER:                  -6.453
REMARK INTRA:                  -0.564
REMARK UNBOUND:                -0.564
REMARK  2 active torsions:
REMARK  status: ('A' for Active; 'I' for Inactive)
REMARK    1  A    between atoms: C_3  and  N_11 
REMARK    2  A    between atoms: C_6  and  N_8 
ROOT
ATOM      1  N   UNK d   1      91.183  99.138 -43.050  0.00  0.00    -0.250 N 
ATOM      2  C   UNK d   1      91.951 100.167 -43.646  0.00  0.00     0.239 C 
ATOM      3  O   UNK d   1      92.942 100.020 -44.391  0.00  0.00    -0.272 OA
ATOM      4  C   UNK d   1      91.421 101.494 -43.265  0.00  0.00     0.127 C 
ATOM      5  C   UNK d   1      92.233 101.962 -42.077  0.00  0.00     0.159 C 
ATOM      6  O   UNK d   1      91.692 101.122 -41.067  0.00  0.00    -0.371 OA
ATOM      7  C   UNK d   1      90.355 101.587 -41.181  0.00  0.00     0.159 C 
ATOM      8  C   UNK d   1      90.071 101.213 -42.611  0.00  0.00     0.127 C 
ATOM      9  C   UNK d   1      89.939  99.741 -42.685  0.00  0.00     0.239 C 
ATOM     10  O   UNK d   1      88.868  99.091 -42.456  0.00  0.00    -0.272 OA
ATOM     11  C   UNK d   1      90.579 103.038 -41.012  0.00  0.00     0.004 C 
ATOM     12  C   UNK d   1      91.747 103.282 -41.602  0.00  0.00     0.004 C 
ENDROOT
BRANCH   1  13
ATOM     13  C   UNK d   1      91.485  97.771 -42.817  0.00  0.00     0.062 A 
ATOM     14  C   UNK d   1      91.257  96.808 -43.774  0.00  0.00     0.040 A 
ATOM     15 Br   UNK d   1      90.525  97.406 -45.439  0.00  0.00    -0.049 Br
ATOM     16  C   UNK d   1      91.538  95.459 -43.569  0.00  0.00     0.057 A 
ATOM     17  C   UNK d   1      92.068  95.027 -42.369  0.00  0.00     0.104 A 
ATOM     18  C   UNK d   1      92.297  95.996 -41.405  0.00  0.00     0.038 A 
ATOM     19  C   UNK d   1      92.021  97.327 -41.607  0.00  0.00     0.034 A 
BRANCH  17  20
ATOM     20  N   UNK d   1      92.362  93.657 -42.130  0.00  0.00    -0.116 N 
ATOM     21  O   UNK d   1      91.697  92.798 -42.734  0.00  0.00    -0.532 OA
ATOM     22  O   UNK d   1      93.334  93.215 -41.274  0.00  0.00    -0.532 OA
ENDBRANCH  17  20
ENDBRANCH   1  13
TORSDOF 2
ENDMDL
