/Users/jonathanwahrer/Desktop/Msc/3_Semester/Drug_Design_Praktikum/waehrer_HTS_screening/HTS_experiment/out/docking_results/vina_output/4agl/1300_docked.pdbqt
 OpenBabel03212200113D

 22 25  0  0  1  0  0  0  0  0999 V2000
   91.1830   99.1380  -43.0500 N   0  0  0  0  0  0  0  0  0  0  0  0
   91.9510  100.1670  -43.6460 C   0  0  0  0  0  0  0  0  0  0  0  0
   92.9420  100.0200  -44.3910 O   0  0  0  0  0  0  0  0  0  0  0  0
   91.4210  101.4940  -43.2650 C   0  0  2  0  0  3  0  0  0  0  0  0
   92.2330  101.9620  -42.0770 C   0  0  2  0  0  3  0  0  0  0  0  0
   91.6920  101.1220  -41.0670 O   0  0  0  0  0  0  0  0  0  0  0  0
   90.3550  101.5870  -41.1810 C   0  0  2  0  0  3  0  0  0  0  0  0
   90.0710  101.2130  -42.6110 C   0  0  2  0  0  3  0  0  0  0  0  0
   89.9390   99.7410  -42.6850 C   0  0  0  0  0  0  0  0  0  0  0  0
   88.8680   99.0910  -42.4560 O   0  0  0  0  0  0  0  0  0  0  0  0
   90.5790  103.0380  -41.0120 C   0  0  0  0  0  2  0  0  0  0  0  0
   91.7470  103.2820  -41.6020 C   0  0  0  0  0  2  0  0  0  0  0  0
   91.4850   97.7710  -42.8170 C   0  0  0  0  0  0  0  0  0  0  0  0
   91.2570   96.8080  -43.7740 C   0  0  0  0  0  0  0  0  0  0  0  0
   90.5250   97.4060  -45.4390 Br  0  0  0  0  0  0  0  0  0  0  0  0
   91.5380   95.4590  -43.5690 C   0  0  0  0  0  3  0  0  0  0  0  0
   92.0680   95.0270  -42.3690 C   0  0  0  0  0  0  0  0  0  0  0  0
   92.2970   95.9960  -41.4050 C   0  0  0  0  0  3  0  0  0  0  0  0
   92.0210   97.3270  -41.6070 C   0  0  0  0  0  3  0  0  0  0  0  0
   92.3620   93.6570  -42.1300 N   0  0  0  0  0  0  0  0  0  0  0  0
   91.6970   92.7980  -42.7340 O   0  0  0  0  0  0  0  0  0  0  0  0
   93.3340   93.2150  -41.2740 O   0  0  0  0  0  0  0  0  0  0  0  0
  1 13  1  0  0  0  0
  1  9  1  0  0  0  0
  2  1  1  0  0  0  0
  3  2  2  0  0  0  0
  4  2  1  1  0  0  0
  4  8  1  0  0  0  0
  4  5  1  0  0  0  0
  5 12  1  1  0  0  0
  5  6  1  0  0  0  0
  7  6  1  0  0  0  0
  7 11  1  6  0  0  0
  8  9  1  1  0  0  0
  8  7  1  0  0  0  0
  9 10  2  0  0  0  0
 12 11  1  0  0  0  0
 13 19  1  0  0  0  0
 14 16  1  0  0  0  0
 14 13  2  0  0  0  0
 15 14  1  0  0  0  0
 16 17  2  0  0  0  0
 17 20  1  0  0  0  0
 17 18  1  0  0  0  0
 19 18  2  0  0  0  0
 20 22  2  0  0  0  0
 21 20  2  0  0  0  0
M  END
>  <Pose>
1

>  <Score>
-5.777

$$$$
