MODEL 1
REMARK VINA RESULT:    -6.445      0.000      0.000
REMARK INTER + INTRA:          -8.013
REMARK INTER:                  -7.387
REMARK INTRA:                  -0.626
REMARK UNBOUND:                -0.626
REMARK  3 active torsions:
REMARK  status: ('A' for Active; 'I' for Inactive)
REMARK    1  A    between atoms: C_6  and  N_8 
REMARK    2  A    between atoms: C_12  and  C_21 
REMARK    3  A    between atoms: C_21  and  O_22 
ROOT
ATOM      1  N   UNK d   1      91.100  98.023 -44.338  0.00  0.00    -0.252 N 
ATOM      2  C   UNK d   1      89.795  98.502 -44.645  0.00  0.00     0.239 C 
ATOM      3  O   UNK d   1      88.791  97.826 -44.957  0.00  0.00    -0.272 OA
ATOM      4  C   UNK d   1      89.777  99.992 -44.541  0.00  0.00     0.136 C 
ATOM      5  C   UNK d   1      89.488 100.456 -43.153  0.00  0.00     0.114 C 
ATOM      6  O   UNK d   1      90.731 100.284 -42.493  0.00  0.00    -0.358 OA
ATOM      7  C   UNK d   1      91.489 101.087 -43.383  0.00  0.00     0.089 C 
ATOM      8  C   UNK d   1      91.250 100.372 -44.672  0.00  0.00     0.133 C 
ATOM      9  C   UNK d   1      91.980  99.082 -44.691  0.00  0.00     0.239 C 
ATOM     10  O   UNK d   1      93.188  98.949 -44.976  0.00  0.00    -0.272 OA
ATOM     11  C   UNK d   1      90.680 102.342 -43.317  0.00  0.00     0.010 C 
ATOM     12  C   UNK d   1      89.407 101.941 -43.158  0.00  0.00     0.013 C 
ATOM     13  C   UNK d   1      92.892 101.238 -42.976  0.00  0.00     0.051 C 
ENDROOT
BRANCH   1  14
ATOM     14  C   UNK d   1      91.397  96.747 -43.787  0.00  0.00     0.046 A 
ATOM     15  C   UNK d   1      91.638  96.552 -42.442  0.00  0.00     0.031 A 
ATOM     16  C   UNK d   1      91.929  95.295 -41.901  0.00  0.00     0.010 A 
ATOM     17  C   UNK d   1      91.988  94.181 -42.706  0.00  0.00    -0.044 A 
ATOM     18  C   UNK d   1      91.749  94.359 -44.049  0.00  0.00     0.019 A 
ATOM     19  C   UNK d   1      92.302  92.842 -42.126  0.00  0.00     0.049 C 
ATOM     20 Br   UNK d   1      91.822  92.842 -45.195  0.00  0.00    -0.051 Br
ATOM     21  C   UNK d   1      91.458  95.617 -44.583  0.00  0.00     0.050 A 
ENDBRANCH   1  14
BRANCH   5  22
ATOM     22  C   UNK d   1      88.368  99.784 -42.470  0.00  0.00     0.207 C 
BRANCH  22  23
ATOM     23  O   UNK d   1      87.369 100.680 -42.097  0.00  0.00    -0.398 OA
ATOM     24  H   UNK d   1      87.686 101.626 -42.065  0.00  0.00     0.209 HD
ENDBRANCH  22  23
ENDBRANCH   5  22
TORSDOF 3
ENDMDL
