/Users/jonathanwahrer/Desktop/Msc/3_Semester/Drug_Design_Praktikum/waehrer_HTS_screening/HTS_experiment/out/docking_results/vina_output/4agl/1310_docked.pdbqt
 OpenBabel03212200113D

 32 35  0  0  1  0  0  0  0  0999 V2000
   90.8120   97.7220  -45.4460 C   0  0  1  0  0  3  0  0  0  0  0  0
   89.4690   97.9180  -45.9460 N   0  0  0  0  0  0  0  0  0  0  0  0
   88.6310   98.0890  -44.8160 C   0  0  0  0  0  0  0  0  0  0  0  0
   87.4040   97.8360  -44.7180 O   0  0  0  0  0  0  0  0  0  0  0  0
   89.4850   98.6280  -43.7580 C   0  0  0  0  0  0  0  0  0  0  0  0
   89.1850   98.9350  -42.5810 O   0  0  0  0  0  0  0  0  0  0  0  0
   90.8250   98.7470  -44.3550 C   0  0  0  0  0  0  0  0  0  0  0  0
   91.7690   99.5640  -43.9480 C   0  0  0  0  0  0  0  0  0  0  0  0
   92.9980   99.4990  -44.6170 O   0  0  0  0  0  1  0  0  0  0  0  0
   91.0900   96.3610  -44.9770 C   0  0  0  0  0  0  0  0  0  0  0  0
   91.4420   96.0240  -43.6950 C   0  0  0  0  0  3  0  0  0  0  0  0
   91.6890   94.7070  -43.3000 C   0  0  0  0  0  0  0  0  0  0  0  0
   92.1800   94.3150  -41.4810 Br  0  0  0  0  0  0  0  0  0  0  0  0
   91.5830   93.6850  -44.2170 C   0  0  0  0  0  3  0  0  0  0  0  0
   91.2310   93.9950  -45.5120 C   0  0  0  0  0  3  0  0  0  0  0  0
   90.9900   95.2960  -45.8880 C   0  0  0  0  0  3  0  0  0  0  0  0
   91.5680  100.5230  -42.8430 C   0  0  0  0  0  0  0  0  0  0  0  0
   90.8560  101.6110  -42.8250 O   0  0  0  0  0  0  0  0  0  0  0  0
   90.9150  102.2090  -41.6560 C   0  0  0  0  0  0  0  0  0  0  0  0
   91.7310  101.4690  -40.8150 C   0  0  0  0  0  0  0  0  0  0  0  0
   90.3500  103.3630  -41.1440 C   0  0  0  0  0  3  0  0  0  0  0  0
   92.1370  100.3990  -41.5890 C   0  0  0  0  0  3  0  0  0  0  0  0
   91.9590  101.8850  -39.5210 C   0  0  0  0  0  3  0  0  0  0  0  0
   91.3970  103.0330  -39.0110 C   0  0  0  0  0  3  0  0  0  0  0  0
   90.5830  103.7800  -39.8350 C   0  0  0  0  0  3  0  0  0  0  0  0
   88.9760   97.9740  -47.3210 C   0  0  0  0  0  2  0  0  0  0  0  0
   88.3700   96.6420  -47.7210 C   0  0  0  0  0  2  0  0  0  0  0  0
   86.9760   96.7810  -48.2750 C   0  0  0  0  0  2  0  0  0  0  0  0
   86.0610   97.0530  -47.2130 N   0  0  0  0  0  4  0  0  0  0  0  0
   85.1930   98.1800  -47.4800 C   0  0  0  0  0  1  0  0  0  0  0  0
   85.2370   95.9520  -46.8160 C   0  0  0  0  0  1  0  0  0  0  0  0
   86.6400   97.3280  -46.3640 H   0  0  0  0  0  0  0  0  0  0  0  0
  1 10  1  1  0  0  0
  1  7  1  0  0  0  0
  2  1  1  0  0  0  0
  2  3  1  0  0  0  0
  3  4  2  0  0  0  0
  3  5  1  0  0  0  0
  5  6  2  0  0  0  0
  7  8  2  0  0  0  0
  7  5  1  0  0  0  0
  8 17  1  0  0  0  0
  9  8  1  0  0  0  0
 10 11  1  0  0  0  0
 11 12  2  0  0  0  0
 12 13  1  0  0  0  0
 14 12  1  0  0  0  0
 15 14  2  0  0  0  0
 16 15  1  0  0  0  0
 16 10  2  0  0  0  0
 17 18  1  0  0  0  0
 17 22  2  0  0  0  0
 18 19  1  0  0  0  0
 19 21  2  0  0  0  0
 19 20  1  0  0  0  0
 20 23  2  0  0  0  0
 21 25  1  0  0  0  0
 22 20  1  0  0  0  0
 23 24  1  0  0  0  0
 25 24  2  0  0  0  0
 26  2  1  0  0  0  0
 27 26  1  0  0  0  0
 28 27  1  0  0  0  0
 28 29  1  0  0  0  0
 29 31  1  0  0  0  0
 29 32  1  0  0  0  0
 30 29  1  0  0  0  0
M  END
>  <Pose>
1

>  <Score>
-6.411

$$$$
