MODEL 1
REMARK VINA RESULT:    -6.411      0.000      0.000
REMARK INTER + INTRA:         -10.029
REMARK INTER:                  -8.660
REMARK INTRA:                  -1.369
REMARK UNBOUND:                -1.369
REMARK  6 active torsions:
REMARK  status: ('A' for Active; 'I' for Inactive)
REMARK    1  A    between atoms: C_4  and  C_8 
REMARK    2  A    between atoms: N_9  and  C_26 
REMARK    3  A    between atoms: C_15  and  C_17 
REMARK    4  A    between atoms: C_26  and  C_27 
REMARK    5  A    between atoms: C_27  and  C_28 
REMARK    6  A    between atoms: C_28  and  N_29 
ROOT
ATOM      1  C   UNK d   1      90.812  97.722 -45.446  0.00  0.00     0.161 C 
ATOM      2  N   UNK d   1      89.469  97.918 -45.946  0.00  0.00    -0.332 N 
ATOM      3  C   UNK d   1      88.631  98.089 -44.816  0.00  0.00     0.295 C 
ATOM      4  O   UNK d   1      87.404  97.836 -44.718  0.00  0.00    -0.264 OA
ATOM      5  C   UNK d   1      89.485  98.628 -43.758  0.00  0.00     0.251 C 
ATOM      6  O   UNK d   1      89.185  98.935 -42.581  0.00  0.00    -0.282 OA
ATOM      7  C   UNK d   1      90.825  98.747 -44.355  0.00  0.00     0.064 C 
ATOM      8  C   UNK d   1      91.769  99.564 -43.948  0.00  0.00     0.153 C 
ATOM      9  O   UNK d   1      92.998  99.499 -44.617  0.00  0.00    -0.188 OA
ENDROOT
BRANCH   1  10
ATOM     10  C   UNK d   1      91.090  96.361 -44.977  0.00  0.00    -0.029 A 
ATOM     11  C   UNK d   1      91.442  96.024 -43.695  0.00  0.00     0.028 A 
ATOM     12  C   UNK d   1      91.689  94.707 -43.300  0.00  0.00     0.011 A 
ATOM     13 Br   UNK d   1      92.180  94.315 -41.481  0.00  0.00    -0.051 Br
ATOM     14  C   UNK d   1      91.583  93.685 -44.217  0.00  0.00     0.019 A 
ATOM     15  C   UNK d   1      91.231  93.995 -45.512  0.00  0.00     0.002 A 
ATOM     16  C   UNK d   1      90.990  95.296 -45.888  0.00  0.00     0.009 A 
ENDBRANCH   1  10
BRANCH   8  17
ATOM     17  C   UNK d   1      91.568 100.523 -42.843  0.00  0.00     0.114 A 
ATOM     18  O   UNK d   1      90.856 101.611 -42.825  0.00  0.00    -0.307 OA
ATOM     19  C   UNK d   1      90.915 102.209 -41.656  0.00  0.00     0.086 A 
ATOM     20  C   UNK d   1      91.731 101.469 -40.815  0.00  0.00     0.001 A 
ATOM     21  C   UNK d   1      90.350 103.363 -41.144  0.00  0.00     0.038 A 
ATOM     22  C   UNK d   1      92.137 100.399 -41.589  0.00  0.00     0.054 A 
ATOM     23  C   UNK d   1      91.959 101.885 -39.521  0.00  0.00     0.014 A 
ATOM     24  C   UNK d   1      91.397 103.033 -39.011  0.00  0.00     0.001 A 
ATOM     25  C   UNK d   1      90.583 103.780 -39.835  0.00  0.00     0.003 A 
ENDBRANCH   8  17
BRANCH   2  26
ATOM     26  C   UNK d   1      88.976  97.974 -47.321  0.00  0.00     0.129 C 
BRANCH  26  27
ATOM     27  C   UNK d   1      88.370  96.642 -47.721  0.00  0.00     0.048 C 
BRANCH  27  28
ATOM     28  C   UNK d   1      86.976  96.781 -48.275  0.00  0.00     0.235 C 
BRANCH  28  29
ATOM     29  N   UNK d   1      86.061  97.053 -47.213  0.00  0.00    -0.079 N 
ATOM     30  C   UNK d   1      85.193  98.180 -47.480  0.00  0.00     0.269 C 
ATOM     31  C   UNK d   1      85.237  95.952 -46.816  0.00  0.00     0.269 C 
ATOM     32  H   UNK d   1      86.640  97.328 -46.364  0.00  0.00     0.278 HD
ENDBRANCH  28  29
ENDBRANCH  27  28
ENDBRANCH  26  27
ENDBRANCH   2  26
TORSDOF 6
ENDMDL
