MODEL 1
REMARK VINA RESULT:    -5.901      0.000      0.000
REMARK INTER + INTRA:          -9.645
REMARK INTER:                  -8.143
REMARK INTRA:                  -1.502
REMARK UNBOUND:                -1.502
REMARK  7 active torsions:
REMARK  status: ('A' for Active; 'I' for Inactive)
REMARK    1  A    between atoms: C_3  and  C_8 
REMARK    2  A    between atoms: C_8  and  N_9 
REMARK    3  A    between atoms: N_9  and  N_10 
REMARK       I    between atoms: N_10  and  C_11 
REMARK    4  A    between atoms: C_11  and  C_13 
REMARK    5  A    between atoms: N_16  and  C_24 
REMARK    6  A    between atoms: C_17  and  C_18 
REMARK    7  A    between atoms: C_28  and  N_29 
ROOT
ATOM      1  C   UNK d   1      87.712  98.525 -46.126  0.00  0.00     0.176 A 
ATOM      2  N   UNK d   1      86.661  98.893 -46.793  0.00  0.00    -0.124 NA
ATOM      3  N   UNK d   1      85.839  99.497 -46.005  0.00  0.00    -0.058 NA
ATOM      4  N   UNK d   1      86.319  99.570 -44.704  0.00  0.00    -0.191 N 
ATOM      5  C   UNK d   1      87.491  98.975 -44.744  0.00  0.00     0.093 A 
ENDROOT
BRANCH   1   6
ATOM      6  C   UNK d   1      88.758  97.642 -46.448  0.00  0.00     0.294 C 
ATOM      7  N   UNK d   1      88.635  96.117 -46.230  0.00  0.00    -0.242 N 
ATOM      8  H   UNK d   1      87.730  95.816 -45.880  0.00  0.00     0.192 HD
ATOM      9  O   UNK d   1      89.846  97.971 -46.908  0.00  0.00    -0.264 OA
BRANCH   7  10
ATOM     10  N   UNK d   1      89.805  95.664 -46.538  0.00  0.00    -0.183 NA
BRANCH  10  11
ATOM     11  C   UNK d   1      90.722  94.831 -46.641  0.00  0.00     0.151 C 
BRANCH  11  12
ATOM     12  C   UNK d   1      91.383  94.630 -45.255  0.00  0.00     0.000 A 
ATOM     13  C   UNK d   1      91.681  93.335 -44.905  0.00  0.00     0.022 A 
ATOM     14 Br   UNK d   1      91.607  91.969 -46.206  0.00  0.00    -0.050 Br
ATOM     15  C   UNK d   1      91.967  93.071 -43.561  0.00  0.00     0.020 A 
ATOM     16  C   UNK d   1      91.973  94.104 -42.619  0.00  0.00     0.001 A 
ATOM     17  C   UNK d   1      91.702  95.374 -43.000  0.00  0.00     0.001 A 
ATOM     18  C   UNK d   1      91.387  95.628 -44.371  0.00  0.00     0.014 A 
ENDBRANCH  11  12
ENDBRANCH  10  11
ENDBRANCH   7  10
ENDBRANCH   1   6
BRANCH   5  19
ATOM     19  C   UNK d   1      88.635  98.812 -43.851  0.00  0.00     0.179 C 
ATOM     20  N   UNK d   1      89.694  99.595 -43.619  0.00  0.00    -0.407 N 
ATOM     21  C   UNK d   1      90.471  99.073 -42.504  0.00  0.00     0.117 C 
ATOM     22  C   UNK d   1      90.537 100.319 -44.414  0.00  0.00     0.117 C 
ATOM     23  C   UNK d   1      91.910  99.097 -42.925  0.00  0.00     0.021 C 
ATOM     24  C   UNK d   1      91.911  99.607 -44.362  0.00  0.00     0.021 C 
ENDBRANCH   5  19
BRANCH   4  25
ATOM     25  C   UNK d   1      85.485 100.151 -43.750  0.00  0.00     0.229 A 
ATOM     26  N   UNK d   1      84.137  99.808 -43.654  0.00  0.00    -0.081 NA
ATOM     27  O   UNK d   1      83.591 100.563 -42.785  0.00  0.00    -0.103 OA
ATOM     28  N   UNK d   1      84.425 101.380 -42.277  0.00  0.00    -0.083 NA
ATOM     29  C   UNK d   1      85.630 101.142 -42.870  0.00  0.00     0.201 A 
BRANCH  29  30
ATOM     30  N   UNK d   1      86.777 101.925 -42.518  0.00  0.00    -0.379 N 
ATOM     31  H   UNK d   1      86.615 102.913 -42.278  0.00  0.00     0.158 HD
ATOM     32  H   UNK d   1      87.714 101.530 -42.568  0.00  0.00     0.158 HD
ENDBRANCH  29  30
ENDBRANCH   4  25
TORSDOF 7
ENDMDL
