/Users/jonathanwahrer/Desktop/Msc/3_Semester/Drug_Design_Praktikum/waehrer_HTS_screening/HTS_experiment/out/docking_results/vina_output/4agl/1315_docked.pdbqt
 OpenBabel03212200123D

 30 33  0  0  1  0  0  0  0  0999 V2000
   92.0590   99.3930  -44.0280 N   0  0  0  0  0  0  0  0  0  0  0  0
   91.7280  100.6060  -44.5790 C   0  0  0  0  0  0  0  0  0  0  0  0
   91.2660  101.3820  -43.5560 C   0  0  0  0  0  0  0  0  0  0  0  0
   90.8440  102.6880  -43.8220 C   0  0  0  0  0  3  0  0  0  0  0  0
   90.9020  103.1710  -45.1120 C   0  0  0  0  0  3  0  0  0  0  0  0
   91.3690  102.3900  -46.1470 C   0  0  0  0  0  3  0  0  0  0  0  0
   91.7880  101.0860  -45.8690 C   0  0  0  0  0  3  0  0  0  0  0  0
   91.3250  100.6500  -42.4220 N   0  0  0  0  0  0  0  0  0  0  0  0
   91.8080   99.4350  -42.6920 C   0  0  2  0  0  3  0  0  0  0  0  0
   92.6490   98.2990  -44.7680 C   0  0  0  0  0  2  0  0  0  0  0  0
   91.6930   97.2490  -45.1430 C   0  0  2  0  0  3  0  0  0  0  0  0
   90.6990   97.6320  -45.9120 O   0  0  0  0  0  1  0  0  0  0  0  0
   91.6570   95.8490  -44.8070 C   0  0  0  0  0  0  0  0  0  0  0  0
   91.5740   94.8160  -45.6960 C   0  0  0  0  0  3  0  0  0  0  0  0
   91.5600   93.5090  -45.3020 C   0  0  0  0  0  0  0  0  0  0  0  0
   91.4510   92.0780  -46.6010 Br  0  0  0  0  0  0  0  0  0  0  0  0
   91.6300   93.2000  -43.9620 C   0  0  0  0  0  3  0  0  0  0  0  0
   91.7150   94.1970  -43.0190 C   0  0  0  0  0  3  0  0  0  0  0  0
   91.7270   95.4940  -43.4510 C   0  0  0  0  0  3  0  0  0  0  0  0
   92.0820   98.5010  -41.8090 N   0  0  0  0  0  0  0  0  0  0  0  0
   91.3870   98.1030  -41.1830 H   0  0  0  0  0  0  0  0  0  0  0  0
   93.0550   98.1770  -41.7260 H   0  0  0  0  0  0  0  0  0  0  0  0
   90.9410  101.2010  -41.1340 C   0  0  0  0  0  2  0  0  0  0  0  0
   92.0470  101.5970  -40.2460 C   0  0  0  0  0  2  0  0  0  0  0  0
   92.5290  102.9310  -40.2830 N   0  0  0  0  0  0  0  0  0  0  0  0
   93.7870  103.0080  -41.0690 C   0  0  0  0  0  2  0  0  0  0  0  0
   94.8340  102.0810  -40.5460 C   0  0  0  0  0  2  0  0  0  0  0  0
   95.2150  102.5630  -39.2920 O   0  0  0  0  0  0  0  0  0  0  0  0
   94.1500  102.6440  -38.4310 C   0  0  0  0  0  2  0  0  0  0  0  0
   92.9620  103.4030  -38.9570 C   0  0  0  0  0  2  0  0  0  0  0  0
  1  9  1  0  0  0  0
  2  1  1  0  0  0  0
  2  3  1  0  0  0  0
  3  8  1  0  0  0  0
  4  3  2  0  0  0  0
  5  4  1  0  0  0  0
  6  7  1  0  0  0  0
  6  5  2  0  0  0  0
  7  2  2  0  0  0  0
  8 23  1  0  0  0  0
  9  8  1  0  0  0  0
  9 20  1  1  0  0  0
 10  1  1  0  0  0  0
 11 12  1  1  0  0  0
 11 13  1  0  0  0  0
 11 10  1  0  0  0  0
 13 19  1  0  0  0  0
 14 15  1  0  0  0  0
 14 13  2  0  0  0  0
 15 17  2  0  0  0  0
 16 15  1  0  0  0  0
 17 18  1  0  0  0  0
 19 18  2  0  0  0  0
 20 22  1  0  0  0  0
 20 21  1  0  0  0  0
 23 24  1  0  0  0  0
 25 24  1  0  0  0  0
 25 30  1  0  0  0  0
 26 27  1  0  0  0  0
 26 25  1  0  0  0  0
 27 28  1  0  0  0  0
 28 29  1  0  0  0  0
 30 29  1  0  0  0  0
M  END
>  <Pose>
1

>  <Score>
-6.141

$$$$
