MODEL 1
REMARK VINA RESULT:    -6.141      0.000      0.000
REMARK INTER + INTRA:          -9.504
REMARK INTER:                  -8.474
REMARK INTRA:                  -1.030
REMARK UNBOUND:                -1.030
REMARK  7 active torsions:
REMARK  status: ('A' for Active; 'I' for Inactive)
REMARK    1  A    between atoms: C_4  and  C_8 
REMARK    2  A    between atoms: C_8  and  C_10 
REMARK    3  A    between atoms: C_10  and  N_11 
REMARK    4  A    between atoms: N_18  and  C_21 
REMARK    5  A    between atoms: C_19  and  N_20 
REMARK    6  A    between atoms: C_21  and  C_22 
REMARK    7  A    between atoms: C_22  and  N_23 
ROOT
ATOM      1  N   UNK d   1      92.059  99.393 -44.028  0.00  0.00    -0.175 N 
ATOM      2  C   UNK d   1      91.728 100.606 -44.579  0.00  0.00     0.079 A 
ATOM      3  C   UNK d   1      91.266 101.382 -43.556  0.00  0.00     0.079 A 
ATOM      4  C   UNK d   1      90.844 102.688 -43.822  0.00  0.00     0.032 A 
ATOM      5  C   UNK d   1      90.902 103.171 -45.112  0.00  0.00     0.002 A 
ATOM      6  C   UNK d   1      91.369 102.390 -46.147  0.00  0.00     0.002 A 
ATOM      7  C   UNK d   1      91.788 101.086 -45.869  0.00  0.00     0.032 A 
ATOM      8  N   UNK d   1      91.325 100.650 -42.422  0.00  0.00    -0.179 N 
ATOM      9  C   UNK d   1      91.808  99.435 -42.692  0.00  0.00     0.681 A 
ENDROOT
BRANCH   1  10
ATOM     10  C   UNK d   1      92.649  98.299 -44.768  0.00  0.00     0.216 C 
BRANCH  10  11
ATOM     11  C   UNK d   1      91.693  97.249 -45.143  0.00  0.00     0.113 C 
ATOM     12  O   UNK d   1      90.699  97.632 -45.912  0.00  0.00    -0.194 OA
BRANCH  11  13
ATOM     13  C   UNK d   1      91.657  95.849 -44.807  0.00  0.00    -0.001 A 
ATOM     14  C   UNK d   1      91.574  94.816 -45.696  0.00  0.00     0.033 A 
ATOM     15  C   UNK d   1      91.560  93.509 -45.302  0.00  0.00     0.011 A 
ATOM     16 Br   UNK d   1      91.451  92.078 -46.601  0.00  0.00    -0.051 Br
ATOM     17  C   UNK d   1      91.630  93.200 -43.962  0.00  0.00     0.019 A 
ATOM     18  C   UNK d   1      91.715  94.197 -43.019  0.00  0.00     0.002 A 
ATOM     19  C   UNK d   1      91.727  95.494 -43.451  0.00  0.00     0.014 A 
ENDBRANCH  11  13
ENDBRANCH  10  11
ENDBRANCH   1  10
BRANCH   9  20
ATOM     20  N   UNK d   1      92.082  98.501 -41.809  0.00  0.00    -0.234 N 
ATOM     21  H   UNK d   1      91.387  98.103 -41.183  0.00  0.00     0.174 HD
ATOM     22  H   UNK d   1      93.055  98.177 -41.726  0.00  0.00     0.174 HD
ENDBRANCH   9  20
BRANCH   8  23
ATOM     23  C   UNK d   1      90.941 101.201 -41.134  0.00  0.00     0.178 C 
BRANCH  23  24
ATOM     24  C   UNK d   1      92.047 101.597 -40.246  0.00  0.00     0.293 C 
BRANCH  24  25
ATOM     25  N   UNK d   1      92.529 102.931 -40.283  0.00  0.00     0.094 N 
ATOM     26  C   UNK d   1      93.787 103.008 -41.069  0.00  0.00     0.298 C 
ATOM     27  C   UNK d   1      94.834 102.081 -40.546  0.00  0.00     0.198 C 
ATOM     28  O   UNK d   1      95.215 102.563 -39.292  0.00  0.00    -0.388 OA
ATOM     29  C   UNK d   1      94.150 102.644 -38.431  0.00  0.00     0.198 C 
ATOM     30  C   UNK d   1      92.962 103.403 -38.957  0.00  0.00     0.298 C 
ENDBRANCH  24  25
ENDBRANCH  23  24
ENDBRANCH   8  23
TORSDOF 7
ENDMDL
