/Users/jonathanwahrer/Desktop/Msc/3_Semester/Drug_Design_Praktikum/waehrer_HTS_screening/HTS_experiment/out/docking_results/vina_output/4agl/1325_docked.pdbqt
 OpenBabel03212200123D

 31 34  0  0  1  0  0  0  0  0999 V2000
   89.9990  100.8620  -42.7480 C   0  0  1  0  0  3  0  0  0  0  0  0
   89.5210  101.4760  -43.9510 N   0  0  0  0  0  0  0  0  0  0  0  0
   88.6950  100.4380  -44.5570 C   0  0  0  0  0  0  0  0  0  0  0  0
   87.7400  100.6210  -45.3440 O   0  0  0  0  0  0  0  0  0  0  0  0
   89.1840   99.1570  -44.0820 C   0  0  0  0  0  0  0  0  0  0  0  0
   88.7630   97.9920  -44.3490 O   0  0  0  0  0  0  0  0  0  0  0  0
   90.3070   99.4730  -43.1930 C   0  0  0  0  0  0  0  0  0  0  0  0
   91.2830   98.6690  -42.8750 C   0  0  0  0  0  0  0  0  0  0  0  0
   92.2450   99.1180  -41.9620 O   0  0  0  0  0  1  0  0  0  0  0  0
   91.0490  101.5110  -42.0030 C   0  0  0  0  0  0  0  0  0  0  0  0
   90.8700  101.6670  -40.6160 C   0  0  0  0  0  3  0  0  0  0  0  0
   91.8070  102.2510  -39.8030 C   0  0  0  0  0  3  0  0  0  0  0  0
   92.9880  102.7220  -40.3220 C   0  0  0  0  0  0  0  0  0  0  0  0
   94.3190  103.5450  -39.2160 Br  0  0  0  0  0  0  0  0  0  0  0  0
   93.1690  102.5730  -41.6770 C   0  0  0  0  0  3  0  0  0  0  0  0
   92.2250  101.9840  -42.4960 C   0  0  0  0  0  3  0  0  0  0  0  0
   91.3950   97.3160  -43.4560 C   0  0  0  0  0  0  0  0  0  0  0  0
   91.4670   96.1850  -42.7640 O   0  0  0  0  0  0  0  0  0  0  0  0
   91.5610   95.1450  -43.5520 C   0  0  0  0  0  0  0  0  0  0  0  0
   91.5580   95.5580  -44.8680 C   0  0  0  0  0  0  0  0  0  0  0  0
   91.6620   93.7700  -43.3220 C   0  0  0  0  0  3  0  0  0  0  0  0
   91.4520   96.9360  -44.7750 C   0  0  0  0  0  3  0  0  0  0  0  0
   91.6470   94.6420  -45.8920 C   0  0  0  0  0  3  0  0  0  0  0  0
   91.7450   93.2850  -45.6760 C   0  0  0  0  0  3  0  0  0  0  0  0
   91.7510   92.8660  -44.3580 C   0  0  0  0  0  3  0  0  0  0  0  0
   89.6670  102.7990  -44.5160 C   0  0  0  0  0  2  0  0  0  0  0  0
   90.3550  102.9310  -45.8090 C   0  0  0  0  0  2  0  0  0  0  0  0
   91.5540  102.1570  -46.0020 N   0  0  0  0  0  4  0  0  0  0  0  0
   91.4040  101.1510  -47.0150 C   0  0  0  0  0  1  0  0  0  0  0  0
   92.7630  102.9250  -46.0890 C   0  0  0  0  0  1  0  0  0  0  0  0
   91.6430  101.5980  -45.0850 H   0  0  0  0  0  0  0  0  0  0  0  0
  1 10  1  6  0  0  0
  2  1  1  0  0  0  0
  3  5  1  0  0  0  0
  3  2  1  0  0  0  0
  4  3  2  0  0  0  0
  5  7  1  0  0  0  0
  6  5  2  0  0  0  0
  7  8  2  0  0  0  0
  7  1  1  0  0  0  0
  8  9  1  0  0  0  0
 10 11  1  0  0  0  0
 11 12  2  0  0  0  0
 13 12  1  0  0  0  0
 13 14  1  0  0  0  0
 15 13  2  0  0  0  0
 16 10  2  0  0  0  0
 16 15  1  0  0  0  0
 17  8  1  0  0  0  0
 17 18  1  0  0  0  0
 19 21  1  0  0  0  0
 19 18  1  0  0  0  0
 20 22  1  0  0  0  0
 20 19  2  0  0  0  0
 22 17  2  0  0  0  0
 23 24  2  0  0  0  0
 23 20  1  0  0  0  0
 24 25  1  0  0  0  0
 25 21  2  0  0  0  0
 26  2  1  0  0  0  0
 27 26  1  0  0  0  0
 28 27  1  0  0  0  0
 28 31  1  0  0  0  0
 29 28  1  0  0  0  0
 30 28  1  0  0  0  0
M  END
>  <Pose>
1

>  <Score>
-5.972

$$$$
