MODEL 1
REMARK VINA RESULT:    -5.972      0.000      0.000
REMARK INTER + INTRA:          -7.862
REMARK INTER:                  -7.717
REMARK INTRA:                  -0.145
REMARK UNBOUND:                -0.145
REMARK  5 active torsions:
REMARK  status: ('A' for Active; 'I' for Inactive)
REMARK    1  A    between atoms: C_5  and  C_8 
REMARK    2  A    between atoms: N_9  and  C_26 
REMARK    3  A    between atoms: C_15  and  C_17 
REMARK    4  A    between atoms: C_26  and  C_27 
REMARK    5  A    between atoms: C_27  and  N_28 
ROOT
ATOM      1  C   UNK d   1      89.999 100.862 -42.748  0.00  0.00     0.161 C 
ATOM      2  N   UNK d   1      89.521 101.476 -43.951  0.00  0.00    -0.331 N 
ATOM      3  C   UNK d   1      88.695 100.438 -44.557  0.00  0.00     0.295 C 
ATOM      4  O   UNK d   1      87.740 100.621 -45.344  0.00  0.00    -0.264 OA
ATOM      5  C   UNK d   1      89.184  99.157 -44.082  0.00  0.00     0.251 C 
ATOM      6  O   UNK d   1      88.763  97.992 -44.349  0.00  0.00    -0.282 OA
ATOM      7  C   UNK d   1      90.307  99.473 -43.193  0.00  0.00     0.064 C 
ATOM      8  C   UNK d   1      91.283  98.669 -42.875  0.00  0.00     0.153 C 
ATOM      9  O   UNK d   1      92.245  99.118 -41.962  0.00  0.00    -0.188 OA
ENDROOT
BRANCH   1  10
ATOM     10  C   UNK d   1      91.049 101.511 -42.003  0.00  0.00    -0.030 A 
ATOM     11  C   UNK d   1      90.870 101.667 -40.616  0.00  0.00     0.011 A 
ATOM     12  C   UNK d   1      91.807 102.251 -39.803  0.00  0.00     0.019 A 
ATOM     13  C   UNK d   1      92.988 102.722 -40.322  0.00  0.00     0.011 A 
ATOM     14 Br   UNK d   1      94.319 103.545 -39.216  0.00  0.00    -0.051 Br
ATOM     15  C   UNK d   1      93.169 102.573 -41.677  0.00  0.00     0.019 A 
ATOM     16  C   UNK d   1      92.225 101.984 -42.496  0.00  0.00     0.011 A 
ENDBRANCH   1  10
BRANCH   8  17
ATOM     17  C   UNK d   1      91.395  97.316 -43.456  0.00  0.00     0.114 A 
ATOM     18  O   UNK d   1      91.467  96.185 -42.764  0.00  0.00    -0.307 OA
ATOM     19  C   UNK d   1      91.561  95.145 -43.552  0.00  0.00     0.086 A 
ATOM     20  C   UNK d   1      91.558  95.558 -44.868  0.00  0.00     0.001 A 
ATOM     21  C   UNK d   1      91.662  93.770 -43.322  0.00  0.00     0.038 A 
ATOM     22  C   UNK d   1      91.452  96.936 -44.775  0.00  0.00     0.054 A 
ATOM     23  C   UNK d   1      91.647  94.642 -45.892  0.00  0.00     0.014 A 
ATOM     24  C   UNK d   1      91.745  93.285 -45.676  0.00  0.00     0.001 A 
ATOM     25  C   UNK d   1      91.751  92.866 -44.358  0.00  0.00     0.003 A 
ENDBRANCH   8  17
BRANCH   2  26
ATOM     26  C   UNK d   1      89.667 102.799 -44.516  0.00  0.00     0.155 C 
BRANCH  26  27
ATOM     27  C   UNK d   1      90.355 102.931 -45.809  0.00  0.00     0.254 C 
BRANCH  27  28
ATOM     28  N   UNK d   1      91.554 102.157 -46.002  0.00  0.00    -0.077 N 
ATOM     29  C   UNK d   1      91.404 101.151 -47.015  0.00  0.00     0.269 C 
ATOM     30  C   UNK d   1      92.763 102.925 -46.089  0.00  0.00     0.269 C 
ATOM     31  H   UNK d   1      91.643 101.598 -45.085  0.00  0.00     0.279 HD
ENDBRANCH  27  28
ENDBRANCH  26  27
ENDBRANCH   2  26
TORSDOF 5
ENDMDL
