MODEL 1
REMARK VINA RESULT:    -6.406      0.000      0.000
REMARK INTER + INTRA:          -8.548
REMARK INTER:                  -7.530
REMARK INTRA:                  -1.018
REMARK UNBOUND:                -1.018
REMARK  3 active torsions:
REMARK  status: ('A' for Active; 'I' for Inactive)
REMARK    1  A    between atoms: C_4  and  C_8 
REMARK    2  A    between atoms: C_16  and  C_17 
REMARK    3  A    between atoms: C_17  and  N_18 
ROOT
ATOM      1  C   UNK d   1      91.693  98.201 -42.518  0.00  0.00     0.053 C 
ATOM      2  C   UNK d   1      90.589  98.923 -42.724  0.00  0.00     0.127 A 
ATOM      3  O   UNK d   1      89.345  98.456 -43.144  0.00  0.00    -0.305 OA
ATOM      4  C   UNK d   1      88.449  99.485 -43.237  0.00  0.00     0.101 A 
ATOM      5  C   UNK d   1      89.056 100.686 -42.884  0.00  0.00     0.051 A 
ATOM      6  C   UNK d   1      88.291 101.841 -42.915  0.00  0.00     0.021 A 
ATOM      7  C   UNK d   1      86.967 101.786 -43.285  0.00  0.00     0.041 A 
ATOM      8  C   UNK d   1      86.391 100.561 -43.634  0.00  0.00     0.118 A 
ATOM      9  C   UNK d   1      87.124  99.404 -43.613  0.00  0.00     0.039 A 
ATOM     10  O   UNK d   1      85.053 100.611 -43.992  0.00  0.00    -0.191 OA
ATOM     11  C   UNK d   1      90.452 100.366 -42.543  0.00  0.00     0.218 A 
ATOM     12  O   UNK d   1      91.314 101.208 -42.180  0.00  0.00    -0.284 OA
ENDROOT
BRANCH   9  13
ATOM     13  C   UNK d   1      86.496  98.161 -44.064  0.00  0.00     0.279 C 
BRANCH  13  14
ATOM     14  N   UNK d   1      85.965  98.162 -45.378  0.00  0.00    -0.064 N 
ATOM     15  C   UNK d   1      85.179  96.951 -45.552  0.00  0.00     0.265 C 
ATOM     16  C   UNK d   1      85.288  96.312 -46.893  0.00  0.00     0.299 C 
ATOM     17  N   UNK d   1      86.611  96.121 -47.372  0.00  0.00     0.087 N 
ATOM     18  C   UNK d   1      87.563  96.875 -46.626  0.00  0.00     0.299 C 
ATOM     19  C   UNK d   1      86.669  96.413 -48.789  0.00  0.00     0.310 C 
ATOM     20  C   UNK d   1      87.027  98.240 -46.352  0.00  0.00     0.265 C 
ATOM     21  H   UNK d   1      85.353  99.010 -45.575  0.00  0.00     0.280 HD
ENDBRANCH  13  14
ENDBRANCH   9  13
BRANCH   1  22
ATOM     22  C   UNK d   1      91.698  96.767 -42.726  0.00  0.00    -0.032 A 
ATOM     23  C   UNK d   1      91.543  96.230 -43.985  0.00  0.00     0.030 A 
ATOM     24  C   UNK d   1      91.537  94.850 -44.168  0.00  0.00     0.011 A 
ATOM     25 Br   UNK d   1      91.313  94.106 -45.914  0.00  0.00    -0.051 Br
ATOM     26  C   UNK d   1      91.689  94.009 -43.076  0.00  0.00     0.019 A 
ATOM     27  C   UNK d   1      91.839  94.584 -41.834  0.00  0.00     0.002 A 
ATOM     28  C   UNK d   1      91.849  95.945 -41.636  0.00  0.00     0.011 A 
ENDBRANCH   1  22
TORSDOF 3
ENDMDL
