/Users/jonathanwahrer/Desktop/Msc/3_Semester/Drug_Design_Praktikum/waehrer_HTS_screening/HTS_experiment/out/docking_results/vina_output/4agl/1337_docked.pdbqt
 OpenBabel03212200133D

 32 35  0  0  1  0  0  0  0  0999 V2000
   88.0640   99.7920  -43.5250 C   0  0  2  0  0  3  0  0  0  0  0  0
   87.4360   98.6110  -43.6620 O   0  0  0  0  0  0  0  0  0  0  0  0
   86.0770   98.5940  -43.6890 C   0  0  2  0  0  3  0  0  0  0  0  0
   85.6760   97.3460  -44.1850 O   0  0  0  0  0  0  0  0  0  0  0  0
   85.5990   97.4500  -45.5520 C   0  0  0  0  0  0  0  0  0  0  0  0
   85.7350   98.7770  -45.9050 O   0  0  0  0  0  0  0  0  0  0  0  0
   85.4770   99.5140  -44.7250 C   0  0  2  0  0  3  0  0  0  0  0  0
   86.1190  100.8480  -44.7430 C   0  0  1  0  0  3  0  0  0  0  0  0
   85.2520  101.8440  -44.2400 O   0  0  0  0  0  0  0  0  0  0  0  0
   85.9940  102.6620  -43.4250 C   0  0  0  0  0  0  0  0  0  0  0  0
   86.9640  101.8410  -42.9090 O   0  0  0  0  0  0  0  0  0  0  0  0
   87.3570  101.0160  -43.9740 C   0  0  1  0  0  3  0  0  0  0  0  0
   85.0500  103.1710  -42.3300 C   0  0  0  0  0  1  0  0  0  0  0  0
   86.5270  103.8850  -44.1240 C   0  0  0  0  0  1  0  0  0  0  0  0
   84.2390   96.9940  -46.0830 C   0  0  0  0  0  1  0  0  0  0  0  0
   86.6400   96.5980  -46.2600 C   0  0  0  0  0  1  0  0  0  0  0  0
   89.4100   99.6960  -44.1490 C   0  0  0  0  0  0  0  0  0  0  0  0
   90.4700   99.0670  -43.4500 N   0  0  0  0  0  0  0  0  0  0  0  0
   90.2730   98.6830  -42.5020 H   0  0  0  0  0  0  0  0  0  0  0  0
   89.6550  100.1590  -45.2960 O   0  0  0  0  0  0  0  0  0  0  0  0
   91.7960   98.9310  -43.9750 C   0  0  0  0  0  2  0  0  0  0  0  0
   91.9550   97.6430  -44.6980 C   0  0  0  0  0  0  0  0  0  0  0  0
   91.3230   96.4570  -44.2820 N   0  0  0  0  0  0  0  0  0  0  0  0
   90.7180   96.5510  -43.4020 H   0  0  0  0  0  0  0  0  0  0  0  0
   92.6850   97.6600  -45.7090 O   0  0  0  0  0  0  0  0  0  0  0  0
   91.3810   95.1910  -44.8550 C   0  0  0  0  0  0  0  0  0  0  0  0
   90.7490   94.9630  -46.0700 C   0  0  0  0  0  3  0  0  0  0  0  0
   90.7480   93.7490  -46.7160 C   0  0  0  0  0  3  0  0  0  0  0  0
   91.4030   92.6780  -46.1510 C   0  0  0  0  0  0  0  0  0  0  0  0
   91.3870   90.9980  -47.0720 Br  0  0  0  0  0  0  0  0  0  0  0  0
   92.0360   92.8540  -44.9610 C   0  0  0  0  0  3  0  0  0  0  0  0
   92.0260   94.1010  -44.3160 C   0  0  0  0  0  3  0  0  0  0  0  0
  1 17  1  6  0  0  0
  2  1  1  0  0  0  0
  3  4  1  6  0  0  0
  3  2  1  0  0  0  0
  5  4  1  0  0  0  0
  6  5  1  0  0  0  0
  7  6  1  6  0  0  0
  7  3  1  0  0  0  0
  8  7  1  0  0  0  0
  8  9  1  1  0  0  0
  8 12  1  0  0  0  0
  9 10  1  0  0  0  0
 10 11  1  0  0  0  0
 10 13  1  0  0  0  0
 12  1  1  0  0  0  0
 12 11  1  1  0  0  0
 14 10  1  0  0  0  0
 15  5  1  0  0  0  0
 16  5  1  0  0  0  0
 17 18  1  0  0  0  0
 18 19  1  0  0  0  0
 20 17  2  0  0  0  0
 21 18  1  0  0  0  0
 22 23  1  0  0  0  0
 22 21  1  0  0  0  0
 23 24  1  0  0  0  0
 25 22  2  0  0  0  0
 26 32  1  0  0  0  0
 26 23  1  0  0  0  0
 27 26  2  0  0  0  0
 28 29  2  0  0  0  0
 28 27  1  0  0  0  0
 29 31  1  0  0  0  0
 30 29  1  0  0  0  0
 31 32  2  0  0  0  0
M  END
>  <Pose>
1

>  <Score>
-6.587

$$$$
