/Users/jonathanwahrer/Desktop/Msc/3_Semester/Drug_Design_Praktikum/waehrer_HTS_screening/HTS_experiment/out/docking_results/vina_output/4agl/1355_docked.pdbqt
 OpenBabel03212200143D

 27 30  0  0  1  0  0  0  0  0999 V2000
   90.7160   90.3580  -47.6840 N   0  0  0  0  0  0  0  0  0  0  0  0
   90.7510   89.9380  -49.0250 C   0  0  0  0  0  0  0  0  0  0  0  0
   91.8110   90.0560  -49.6790 O   0  0  0  0  0  0  0  0  0  0  0  0
   89.8320   90.2570  -47.1450 H   0  0  0  0  0  0  0  0  0  0  0  0
   91.8850   90.9270  -47.0390 C   0  0  0  0  0  2  0  0  0  0  0  0
   91.5370   92.2440  -46.3940 C   0  0  0  0  0  0  0  0  0  0  0  0
   90.8310   93.2240  -46.8990 O   0  0  0  0  0  0  0  0  0  0  0  0
   90.7460   94.2080  -46.0290 N   0  0  0  0  0  0  0  0  0  0  0  0
   91.4140   93.8750  -44.9130 C   0  0  0  0  0  0  0  0  0  0  0  0
   91.9010   92.6460  -45.1570 N   0  0  0  0  0  0  0  0  0  0  0  0
   91.5750   94.6740  -43.7020 C   0  0  0  0  0  0  0  0  0  0  0  0
   91.4980   96.0500  -43.7100 C   0  0  0  0  0  0  0  0  0  0  0  0
   91.1970   96.8400  -45.2380 Cl  0  0  0  0  0  0  0  0  0  0  0  0
   91.6510   96.8160  -42.5580 C   0  0  0  0  0  3  0  0  0  0  0  0
   91.8890   96.2050  -41.3530 C   0  0  0  0  0  3  0  0  0  0  0  0
   91.9690   94.8070  -41.3240 C   0  0  0  0  0  3  0  0  0  0  0  0
   91.8130   94.0830  -42.4840 C   0  0  0  0  0  3  0  0  0  0  0  0
   89.5540   89.3660  -49.6580 C   0  0  1  0  0  3  0  0  0  0  0  0
   89.6600   89.3490  -51.1720 C   0  0  0  0  0  2  0  0  0  0  0  0
   88.5290   88.5970  -51.7890 C   0  0  0  0  0  2  0  0  0  0  0  0
   88.7890   87.1450  -52.0250 C   0  0  0  0  0  2  0  0  0  0  0  0
   89.7850   86.5660  -51.0250 C   0  0  0  0  0  2  0  0  0  0  0  0
   89.2790   86.8480  -49.7010 N   0  0  0  0  0  0  0  0  0  0  0  0
   88.8400   85.9290  -48.8840 N   0  0  0  0  0  0  0  0  0  0  0  0
   89.1810   88.0500  -49.1180 C   0  0  0  0  0  0  0  0  0  0  0  0
   88.4540   86.5050  -47.7730 N   0  0  0  0  0  0  0  0  0  0  0  0
   88.6580   87.8010  -47.9050 N   0  0  0  0  0  0  0  0  0  0  0  0
  1  4  1  0  0  0  0
  1  5  1  0  0  0  0
  2  1  1  0  0  0  0
  3  2  2  0  0  0  0
  5  6  1  0  0  0  0
  6 10  2  0  0  0  0
  7  6  1  0  0  0  0
  7  8  1  0  0  0  0
  8  9  2  0  0  0  0
  9 11  1  0  0  0  0
 10  9  1  0  0  0  0
 11 17  1  0  0  0  0
 12 11  2  0  0  0  0
 12 14  1  0  0  0  0
 13 12  1  0  0  0  0
 14 15  2  0  0  0  0
 15 16  1  0  0  0  0
 17 16  2  0  0  0  0
 18 25  1  0  0  0  0
 18  2  1  1  0  0  0
 19 18  1  0  0  0  0
 20 19  1  0  0  0  0
 21 20  1  0  0  0  0
 21 22  1  0  0  0  0
 22 23  1  0  0  0  0
 23 25  1  0  0  0  0
 23 24  1  0  0  0  0
 24 26  2  0  0  0  0
 25 27  2  0  0  0  0
 27 26  1  0  0  0  0
M  END
>  <Pose>
1

>  <Score>
-7.862

$$$$
