MODEL 1
REMARK VINA RESULT:    -7.862      0.000      0.000
REMARK INTER + INTRA:          -9.849
REMARK INTER:                  -9.701
REMARK INTRA:                  -0.149
REMARK UNBOUND:                -0.149
REMARK  4 active torsions:
REMARK  status: ('A' for Active; 'I' for Inactive)
REMARK    1  A    between atoms: C_3  and  C_8 
REMARK    2  A    between atoms: C_11  and  C_13 
REMARK    3  A    between atoms: C_13  and  N_14 
REMARK       I    between atoms: N_14  and  C_15 
REMARK    4  A    between atoms: C_15  and  C_17 
ROOT
ATOM      1  N   UNK d   1      90.716  90.358 -47.684  0.00  0.00    -0.353 N 
ATOM      2  C   UNK d   1      90.751  89.938 -49.025  0.00  0.00     0.229 C 
ATOM      3  O   UNK d   1      91.811  90.056 -49.679  0.00  0.00    -0.273 OA
ATOM      4  H   UNK d   1      89.832  90.257 -47.145  0.00  0.00     0.162 HD
ENDROOT
BRANCH   1   5
ATOM      5  C   UNK d   1      91.885  90.927 -47.039  0.00  0.00     0.211 C 
BRANCH   5   6
ATOM      6  C   UNK d   1      91.537  92.244 -46.394  0.00  0.00     0.190 A 
ATOM      7  O   UNK d   1      90.831  93.224 -46.899  0.00  0.00    -0.194 OA
ATOM      8  N   UNK d   1      90.746  94.208 -46.029  0.00  0.00    -0.105 NA
ATOM      9  C   UNK d   1      91.414  93.875 -44.913  0.00  0.00     0.191 A 
ATOM     10  N   UNK d   1      91.901  92.646 -45.157  0.00  0.00    -0.202 NA
BRANCH   9  11
ATOM     11  C   UNK d   1      91.575  94.674 -43.702  0.00  0.00     0.036 A 
ATOM     12  C   UNK d   1      91.498  96.050 -43.710  0.00  0.00     0.048 A 
ATOM     13 Cl   UNK d   1      91.197  96.840 -45.238  0.00  0.00    -0.083 Cl
ATOM     14  C   UNK d   1      91.651  96.816 -42.558  0.00  0.00     0.025 A 
ATOM     15  C   UNK d   1      91.889  96.205 -41.353  0.00  0.00     0.002 A 
ATOM     16  C   UNK d   1      91.969  94.807 -41.324  0.00  0.00     0.001 A 
ATOM     17  C   UNK d   1      91.813  94.083 -42.484  0.00  0.00     0.017 A 
ENDBRANCH   9  11
ENDBRANCH   5   6
ENDBRANCH   1   5
BRANCH   2  18
ATOM     18  C   UNK d   1      89.554  89.366 -49.658  0.00  0.00     0.151 C 
ATOM     19  C   UNK d   1      89.660  89.349 -51.172  0.00  0.00     0.022 C 
ATOM     20  C   UNK d   1      88.529  88.597 -51.789  0.00  0.00     0.003 C 
ATOM     21  C   UNK d   1      88.789  87.145 -52.025  0.00  0.00     0.022 C 
ATOM     22  C   UNK d   1      89.785  86.566 -51.025  0.00  0.00     0.154 C 
ATOM     23  N   UNK d   1      89.279  86.848 -49.701  0.00  0.00    -0.234 N 
ATOM     24  N   UNK d   1      88.840  85.929 -48.884  0.00  0.00    -0.044 NA
ATOM     25  C   UNK d   1      89.181  88.050 -49.118  0.00  0.00     0.161 A 
ATOM     26  N   UNK d   1      88.454  86.505 -47.773  0.00  0.00    -0.023 NA
ATOM     27  N   UNK d   1      88.658  87.801 -47.905  0.00  0.00    -0.113 NA
ENDBRANCH   2  18
TORSDOF 4
ENDMDL
