MODEL 1
REMARK VINA RESULT:    -5.465      0.000      0.000
REMARK INTER + INTRA:          -5.981
REMARK INTER:                  -5.944
REMARK INTRA:                  -0.037
REMARK UNBOUND:                -0.037
REMARK  2 active torsions:
REMARK  status: ('A' for Active; 'I' for Inactive)
REMARK    1  A    between atoms: C_3  and  C_8 
REMARK    2  A    between atoms: C_12  and  N_16 
ROOT
ATOM      1  C   UNK d   1      90.381  97.398 -44.777  0.00  0.00     0.084 A 
ATOM      2  C   UNK d   1      90.039  98.693 -44.383  0.00  0.00     0.166 A 
ATOM      3  C   UNK d   1      90.743  99.960 -44.047  0.00  0.00     0.295 C 
ATOM      4  N   UNK d   1      90.604 100.531 -45.411  0.00  0.00    -0.209 NA
ATOM      5  C   UNK d   1      90.798  99.573 -46.262  0.00  0.00     0.124 C 
ATOM      6  C   UNK d   1      91.070  98.387 -45.512  0.00  0.00     0.146 A 
ATOM      7  C   UNK d   1      92.517  98.414 -45.143  0.00  0.00     0.080 C 
ATOM      8  N   UNK d   1      93.666  98.409 -44.860  0.00  0.00    -0.196 NA
ATOM      9  O   UNK d   1      89.935 100.686 -43.165  0.00  0.00    -0.333 OA
ATOM     10  C   UNK d   1      90.731 101.054 -42.098  0.00  0.00     0.199 C 
ATOM     11  C   UNK d   1      92.120 101.049 -42.713  0.00  0.00     0.199 C 
ATOM     12  O   UNK d   1      91.987  99.921 -43.560  0.00  0.00    -0.333 OA
ATOM     13  C   UNK d   1      88.671  99.095 -44.869  0.00  0.00     0.080 C 
ATOM     14  N   UNK d   1      87.597  99.393 -45.262  0.00  0.00    -0.196 NA
ENDROOT
BRANCH   1  15
ATOM     15  C   UNK d   1      91.054  96.539 -43.769  0.00  0.00    -0.032 A 
ATOM     16  C   UNK d   1      91.460  95.260 -44.054  0.00  0.00     0.017 A 
ATOM     17 Br   UNK d   1      91.207  94.486 -45.780  0.00  0.00    -0.051 Br
ATOM     18  C   UNK d   1      92.076  94.520 -43.054  0.00  0.00     0.019 A 
ATOM     19  C   UNK d   1      92.289  95.047 -41.775  0.00  0.00     0.001 A 
ATOM     20  C   UNK d   1      91.874  96.330 -41.511  0.00  0.00     0.001 A 
ATOM     21  C   UNK d   1      91.259  97.066 -42.515  0.00  0.00     0.009 A 
ENDBRANCH   1  15
BRANCH   5  22
ATOM     22  N   UNK d   1      90.744  99.701 -47.701  0.00  0.00    -0.386 N 
ATOM     23  H   UNK d   1      91.328 100.399 -48.200  0.00  0.00     0.157 HD
ATOM     24  H   UNK d   1      90.118  99.095 -48.263  0.00  0.00     0.157 HD
ENDBRANCH   5  22
TORSDOF 2
ENDMDL
