/Users/jonathanwahrer/Desktop/Msc/3_Semester/Drug_Design_Praktikum/waehrer_HTS_screening/HTS_experiment/out/docking_results/vina_output/4agl/1360_docked.pdbqt
 OpenBabel03212200153D

 34 37  0  0  1  0  0  0  0  0999 V2000
   92.0050   99.8960  -42.2070 C   0  0  1  0  0  3  0  0  0  0  0  0
   91.6450   98.6730  -42.8750 N   0  0  0  0  0  0  0  0  0  0  0  0
   90.9540   99.1900  -44.0790 C   0  0  2  0  0  3  0  0  0  0  0  0
   90.7000   98.0770  -44.9090 N   0  0  0  0  0  0  0  0  0  0  0  0
   91.0900   96.9010  -44.1940 C   0  0  0  0  0  0  0  0  0  0  0  0
   91.6540   97.2850  -42.9760 C   0  0  0  0  0  0  0  0  0  0  0  0
   92.1030   96.3060  -42.1150 C   0  0  0  0  0  0  0  0  0  0  0  0
   92.6060   96.6760  -41.0240 O   0  0  0  0  0  0  0  0  0  0  0  0
   91.9900   95.0180  -42.4610 N   0  0  0  0  0  0  0  0  0  0  0  0
   91.4520   94.6830  -43.6220 C   0  0  0  0  0  0  0  0  0  0  0  0
   91.3640   93.4580  -43.9100 O   0  0  0  0  0  0  0  0  0  0  0  0
   90.9890   95.6080  -44.5180 N   0  0  0  0  0  0  0  0  0  0  0  0
   90.4200   95.1100  -45.7500 C   0  0  0  0  0  1  0  0  0  0  0  0
   92.4800   94.0090  -41.5160 C   0  0  0  0  0  1  0  0  0  0  0  0
   90.1200   98.0620  -46.2280 C   0  0  0  0  0  1  0  0  0  0  0  0
   91.7910  100.3100  -44.5320 C   0  0  1  0  0  3  0  0  0  0  0  0
   92.7580  100.5660  -43.3680 C   0  0  1  0  0  3  0  0  0  0  0  0
   90.8470  100.6920  -41.8680 C   0  0  2  0  0  3  0  0  0  0  0  0
   89.7460  100.2780  -42.4270 O   0  0  0  0  0  1  0  0  0  0  0  0
   90.7110  101.8570  -41.0230 C   0  0  0  0  0  0  0  0  0  0  0  0
   89.9770  102.9620  -41.3830 C   0  0  0  0  0  3  0  0  0  0  0  0
   89.9230  104.0430  -40.5370 C   0  0  0  0  0  3  0  0  0  0  0  0
   90.5910  104.0520  -39.3220 C   0  0  0  0  0  0  0  0  0  0  0  0
   90.4970  105.5650  -38.1680 Br  0  0  0  0  0  0  0  0  0  0  0  0
   91.3280  102.9360  -38.9650 C   0  0  0  0  0  3  0  0  0  0  0  0
   91.3910  101.8490  -39.8020 C   0  0  0  0  0  3  0  0  0  0  0  0
   92.9900  101.9910  -43.1550 C   0  0  0  0  0  0  0  0  0  0  0  0
   92.3670  102.8500  -43.8630 O   0  0  0  0  0  0  0  0  0  0  0  0
   93.8650  102.4530  -42.2090 O   0  0  0  0  0  0  0  0  0  0  0  0
   93.8650  103.8020  -41.7390 C   0  0  0  0  0  1  0  0  0  0  0  0
   92.5090  100.1910  -45.7950 C   0  0  0  0  0  0  0  0  0  0  0  0
   93.3670   99.2820  -45.9450 O   0  0  0  0  0  0  0  0  0  0  0  0
   92.2780  101.0510  -46.8470 O   0  0  0  0  0  0  0  0  0  0  0  0
   91.0640  101.7570  -46.9680 C   0  0  0  0  0  1  0  0  0  0  0  0
  1 18  1  6  0  0  0
  2  1  1  0  0  0  0
  3  4  1  6  0  0  0
  3  2  1  0  0  0  0
  4  5  1  0  0  0  0
  5  6  2  0  0  0  0
  6  2  1  0  0  0  0
  6  7  1  0  0  0  0
  7  8  2  0  0  0  0
  9  7  1  0  0  0  0
  9 14  1  0  0  0  0
 10  9  1  0  0  0  0
 11 10  2  0  0  0  0
 12  5  1  0  0  0  0
 12 10  1  0  0  0  0
 13 12  1  0  0  0  0
 15  4  1  0  0  0  0
 16 31  1  6  0  0  0
 16  3  1  0  0  0  0
 16 17  1  0  0  0  0
 17 27  1  1  0  0  0
 17  1  1  0  0  0  0
 18 19  1  6  0  0  0
 18 20  1  0  0  0  0
 20 26  1  0  0  0  0
 21 20  2  0  0  0  0
 21 22  1  0  0  0  0
 22 23  2  0  0  0  0
 23 25  1  0  0  0  0
 23 24  1  0  0  0  0
 26 25  2  0  0  0  0
 27 29  1  0  0  0  0
 28 27  2  0  0  0  0
 29 30  1  0  0  0  0
 32 31  2  0  0  0  0
 33 31  1  0  0  0  0
 34 33  1  0  0  0  0
M  END
>  <Pose>
1

>  <Score>
-6.163

$$$$
