MODEL 1
REMARK VINA RESULT:    -6.637      0.000      0.000
REMARK INTER + INTRA:          -8.454
REMARK INTER:                  -7.802
REMARK INTRA:                  -0.652
REMARK UNBOUND:                -0.652
REMARK  3 active torsions:
REMARK  status: ('A' for Active; 'I' for Inactive)
REMARK    1  A    between atoms: C_4  and  C_8 
REMARK       I    between atoms: C_8  and  N_10 
REMARK    2  A    between atoms: N_10  and  C_11 
REMARK    3  A    between atoms: C_11  and  C_13 
REMARK       I    between atoms: C_13  and  N_15 
ROOT
ATOM      1  C   UNK d   1      91.851  99.759 -44.272  0.00  0.00     0.242 C 
ATOM      2  O   UNK d   1      92.976 100.299 -44.309  0.00  0.00    -0.271 OA
ATOM      3  N   UNK d   1      91.040  99.903 -43.141  0.00  0.00    -0.350 N 
ATOM      4  C   UNK d   1      91.092 100.847 -42.076  0.00  0.00     0.129 C 
ATOM      5  C   UNK d   1      89.627 101.007 -41.640  0.00  0.00     0.068 C 
ATOM      6  C   UNK d   1      88.669 100.788 -42.784  0.00  0.00     0.206 C 
ATOM      7  N   UNK d   1      87.303 100.933 -42.358  0.00  0.00     0.099 N 
ATOM      8  C   UNK d   1      86.443 100.610 -43.505  0.00  0.00     0.277 C 
ATOM      9  C   UNK d   1      86.574 101.622 -44.601  0.00  0.00     0.089 C 
ATOM     10  C   UNK d   1      87.936 102.194 -44.693  0.00  0.00     0.039 A 
ATOM     11  N   UNK d   1      88.438 103.101 -45.536  0.00  0.00    -0.352 N 
ATOM     12  C   UNK d   1      89.736 103.300 -45.230  0.00  0.00     0.207 A 
ATOM     13  N   UNK d   1      90.025 102.504 -44.191  0.00  0.00    -0.244 NA
ATOM     14  C   UNK d   1      88.951 101.795 -43.813  0.00  0.00     0.097 A 
ATOM     15  C   UNK d   1      88.744  99.359 -43.348  0.00  0.00     0.068 C 
ATOM     16  C   UNK d   1      90.025  98.833 -42.859  0.00  0.00     0.129 C 
ATOM     17  H   UNK d   1      87.088 100.207 -41.634  0.00  0.00     0.317 HD
ATOM     18  H   UNK d   1      87.979 103.615 -46.320  0.00  0.00     0.166 HD
ENDROOT
BRANCH   1  19
ATOM     19  C   UNK d   1      91.413  98.980 -45.471  0.00  0.00     0.173 C 
ATOM     20  C   UNK d   1      92.271  99.488 -46.659  0.00  0.00     0.042 C 
BRANCH  19  21
ATOM     21  N   UNK d   1      91.734  97.575 -45.403  0.00  0.00    -0.344 N 
ATOM     22  C   UNK d   1      90.672  96.600 -45.583  0.00  0.00     0.252 C 
ATOM     23  O   UNK d   1      89.511  96.945 -45.836  0.00  0.00    -0.268 OA
ATOM     24  H   UNK d   1      92.691  97.269 -45.238  0.00  0.00     0.163 HD
BRANCH  22  25
ATOM     25  C   UNK d   1      91.063  95.189 -45.430  0.00  0.00     0.033 A 
ATOM     26  C   UNK d   1      91.670  94.806 -44.222  0.00  0.00     0.036 A 
ATOM     27  C   UNK d   1      92.091  93.525 -43.968  0.00  0.00     0.011 A 
ATOM     28 Br   UNK d   1      92.906  93.093 -42.273  0.00  0.00    -0.051 Br
ATOM     29  C   UNK d   1      91.913  92.571 -44.942  0.00  0.00     0.019 A 
ATOM     30  C   UNK d   1      91.319  92.931 -46.141  0.00  0.00     0.002 A 
ATOM     31  C   UNK d   1      90.897  94.234 -46.386  0.00  0.00     0.017 A 
ENDBRANCH  22  25
ENDBRANCH  19  21
ENDBRANCH   1  19
TORSDOF 3
ENDMDL
