MODEL 1
REMARK VINA RESULT:    -6.963      0.000      0.000
REMARK INTER + INTRA:         -10.981
REMARK INTER:                  -9.609
REMARK INTRA:                  -1.372
REMARK UNBOUND:                -1.372
REMARK  7 active torsions:
REMARK  status: ('A' for Active; 'I' for Inactive)
REMARK    1  A    between atoms: C_7  and  C_11 
REMARK    2  A    between atoms: C_11  and  O_12 
REMARK    3  A    between atoms: O_12  and  C_13 
REMARK    4  A    between atoms: C_13  and  C_15 
REMARK    5  A    between atoms: N_17  and  C_26 
REMARK    6  A    between atoms: C_26  and  C_27 
REMARK    7  A    between atoms: C_27  and  O_28 
ROOT
ATOM      1  C   UNK d   1      90.578  97.039 -45.327  0.00  0.00     0.315 C 
ATOM      2  O   UNK d   1      89.424  97.427 -45.458  0.00  0.00    -0.257 OA
ENDROOT
BRANCH   1   3
ATOM      3  O   UNK d   1      91.489  97.889 -46.011  0.00  0.00    -0.310 OA
BRANCH   3   4
ATOM      4  C   UNK d   1      92.572  98.404 -45.285  0.00  0.00     0.238 C 
BRANCH   4   5
ATOM      5  C   UNK d   1      92.073  99.549 -44.498  0.00  0.00     0.066 A 
ATOM      6  N   UNK d   1      92.324  99.615 -43.180  0.00  0.00    -0.233 NA
ATOM      7  C   UNK d   1      91.895 100.632 -42.415  0.00  0.00     0.137 A 
ATOM      8  N   UNK d   1      91.187 101.632 -42.950  0.00  0.00    -0.272 N 
ATOM      9  C   UNK d   1      92.171 100.663 -41.074  0.00  0.00     0.052 A 
ATOM     10  C   UNK d   1      90.751 102.661 -42.182  0.00  0.00     0.121 A 
ATOM     11  C   UNK d   1      90.890 101.645 -44.265  0.00  0.00     0.255 A 
ATOM     12  C   UNK d   1      91.020 102.710 -40.826  0.00  0.00     0.027 A 
ATOM     13 Br   UNK d   1      90.391 104.181 -39.756  0.00  0.00    -0.050 Br
ATOM     14  C   UNK d   1      91.745 101.692 -40.260  0.00  0.00     0.024 A 
ATOM     15  C   UNK d   1      91.347 100.575 -45.049  0.00  0.00     0.104 A 
ATOM     16  O   UNK d   1      90.228 102.568 -44.801  0.00  0.00    -0.268 OA
ENDBRANCH   4   5
ENDBRANCH   3   4
ENDBRANCH   1   3
BRANCH   1  17
ATOM     17  C   UNK d   1      91.100  95.894 -44.607  0.00  0.00     0.163 A 
ATOM     18  N   UNK d   1      91.503  96.017 -43.307  0.00  0.00    -0.163 NA
ATOM     19  N   UNK d   1      91.982  94.988 -42.629  0.00  0.00    -0.231 N 
ATOM     20  C   UNK d   1      92.095  93.772 -43.189  0.00  0.00     0.274 A 
ATOM     21  O   UNK d   1      92.560  92.786 -42.524  0.00  0.00    -0.266 OA
ATOM     22  C   UNK d   1      91.712  93.564 -44.493  0.00  0.00     0.046 A 
ATOM     23  C   UNK d   1      91.209  94.668 -45.186  0.00  0.00     0.016 A 
ATOM     24  C   UNK d   1      91.837  92.316 -45.042  0.00  0.00     0.018 A 
ATOM     25  C   UNK d   1      90.838  94.415 -46.484  0.00  0.00     0.015 A 
ATOM     26  C   UNK d   1      90.960  93.152 -47.054  0.00  0.00     0.001 A 
ATOM     27  C   UNK d   1      91.460  92.087 -46.342  0.00  0.00     0.001 A 
BRANCH  19  28
ATOM     28  C   UNK d   1      92.406  95.131 -41.252  0.00  0.00     0.180 C 
BRANCH  28  29
ATOM     29  C   UNK d   1      92.038  96.472 -40.672  0.00  0.00     0.186 C 
BRANCH  29  30
ATOM     30  O   UNK d   1      92.931  97.468 -41.022  0.00  0.00    -0.399 OA
ATOM     31  H   UNK d   1      93.549  97.592 -40.263  0.00  0.00     0.209 HD
ENDBRANCH  29  30
ENDBRANCH  28  29
ENDBRANCH  19  28
ENDBRANCH   1  17
TORSDOF 7
ENDMDL
