/Users/jonathanwahrer/Desktop/Msc/3_Semester/Drug_Design_Praktikum/waehrer_HTS_screening/HTS_experiment/out/docking_results/vina_output/4agl/1386_docked.pdbqt
 OpenBabel03212200163D

 33 36  0  0  1  0  0  0  0  0999 V2000
   92.2240  100.0900  -44.6000 C   0  0  0  0  0  0  0  0  0  0  0  0
   93.3290   99.5020  -44.5900 O   0  0  0  0  0  0  0  0  0  0  0  0
   92.0840  101.3210  -43.8570 N   0  0  0  0  0  0  0  0  0  0  0  0
   93.2170  101.8280  -43.1330 C   0  0  0  0  0  2  0  0  0  0  0  0
   92.8910  101.7200  -41.6580 C   0  0  2  0  0  3  0  0  0  0  0  0
   91.4470  101.8900  -41.3520 C   0  0  2  0  0  0  0  0  0  0  0  0
   90.6450  102.5740  -42.3970 C   0  0  0  0  0  2  0  0  0  0  0  0
   90.8690  102.0850  -43.7910 C   0  0  0  0  0  2  0  0  0  0  0  0
   91.3490  102.7330  -40.0740 C   0  0  0  0  0  1  0  0  0  0  0  0
   91.0630   99.5770  -45.3360 C   0  0  0  0  0  2  0  0  0  0  0  0
   90.2170   98.5720  -44.6770 C   0  0  0  0  0  2  0  0  0  0  0  0
   90.6730   97.1600  -44.7320 C   0  0  0  0  0  0  0  0  0  0  0  0
   90.4930   96.3270  -45.8160 N   0  0  0  0  0  0  0  0  0  0  0  0
   90.9640   95.1070  -45.5200 C   0  0  0  0  0  0  0  0  0  0  0  0
   91.0380   93.9140  -46.2220 C   0  0  0  0  0  3  0  0  0  0  0  0
   91.4580   95.1290  -44.2360 C   0  0  0  0  0  0  0  0  0  0  0  0
   91.5880   92.7900  -45.6530 C   0  0  0  0  0  0  0  0  0  0  0  0
   91.6590   91.2910  -46.5930 Cl  0  0  0  0  0  0  0  0  0  0  0  0
   92.0800   92.8310  -44.3620 C   0  0  0  0  0  3  0  0  0  0  0  0
   92.0120   94.0080  -43.6570 C   0  0  0  0  0  3  0  0  0  0  0  0
   91.2530   96.4070  -43.8030 N   0  0  0  0  0  0  0  0  0  0  0  0
   91.6150   96.7940  -42.4520 C   0  0  0  0  0  1  0  0  0  0  0  0
   93.7460  102.6400  -40.9480 N   0  0  0  0  0  0  0  0  0  0  0  0
   93.8010  103.9360  -41.3140 C   0  0  0  0  0  3  0  0  0  0  0  0
   94.6030  104.8480  -40.6660 C   0  0  0  0  0  3  0  0  0  0  0  0
   95.3690  104.4120  -39.6090 C   0  0  0  0  0  0  0  0  0  0  0  0
   96.1320  105.2080  -38.9680 O   0  0  0  0  0  0  0  0  0  0  0  0
   95.2950  103.1170  -39.2670 N   0  0  0  0  0  0  0  0  0  0  0  0
   94.5100  102.2520  -39.9120 C   0  0  0  0  0  0  0  0  0  0  0  0
   95.8710  102.7370  -38.4570 H   0  0  0  0  0  0  0  0  0  0  0  0
   94.4760  101.0410  -39.5490 O   0  0  0  0  0  0  0  0  0  0  0  0
   90.8100  100.6780  -41.0430 O   0  0  0  0  0  0  0  0  0  0  0  0
   89.9880  100.8920  -40.5010 H   0  0  0  0  0  0  0  0  0  0  0  0
  1  2  2  0  0  0  0
  1  3  1  0  0  0  0
  3  8  1  0  0  0  0
  3  4  1  0  0  0  0
  5  4  1  6  0  0  0
  5  6  1  0  0  0  0
  5 23  1  0  0  0  0
  6 32  1  0  0  0  0
  6  9  1  1  0  0  0
  7  6  1  0  0  0  0
  8  7  1  0  0  0  0
 10 11  1  0  0  0  0
 10  1  1  0  0  0  0
 12 11  1  0  0  0  0
 12 21  1  0  0  0  0
 13 14  1  0  0  0  0
 13 12  2  0  0  0  0
 14 16  1  0  0  0  0
 15 17  1  0  0  0  0
 15 14  2  0  0  0  0
 16 21  1  0  0  0  0
 16 20  2  0  0  0  0
 17 19  2  0  0  0  0
 18 17  1  0  0  0  0
 19 20  1  0  0  0  0
 21 22  1  0  0  0  0
 23 29  1  0  0  0  0
 24 23  1  0  0  0  0
 24 25  2  0  0  0  0
 25 26  1  0  0  0  0
 26 28  1  0  0  0  0
 26 27  2  0  0  0  0
 28 30  1  0  0  0  0
 29 31  2  0  0  0  0
 29 28  1  0  0  0  0
 32 33  1  0  0  0  0
M  END
>  <Pose>
1

>  <Score>
-6.984

$$$$
