/Users/jonathanwahrer/Desktop/Msc/3_Semester/Drug_Design_Praktikum/waehrer_HTS_screening/HTS_experiment/out/docking_results/vina_output/4agl/1405_docked.pdbqt
 OpenBabel03212200163D

 27 30  0  0  1  0  0  0  0  0999 V2000
   85.1070   98.3070  -43.8970 Br  0  0  0  0  0  0  0  0  0  0  0  0
   86.7890   98.6490  -44.7730 C   0  0  0  0  0  0  0  0  0  0  0  0
   87.9460   98.0580  -44.3380 C   0  0  0  0  0  3  0  0  0  0  0  0
   89.1380   98.3170  -44.9810 C   0  0  0  0  0  0  0  0  0  0  0  0
   89.1100   99.1720  -46.0490 C   0  0  0  0  0  0  0  0  0  0  0  0
   87.9190   99.7790  -46.4970 C   0  0  0  0  0  3  0  0  0  0  0  0
   86.7450   99.5100  -45.8460 C   0  0  0  0  0  3  0  0  0  0  0  0
   90.4110   99.3390  -46.6060 N   0  0  0  0  0  0  0  0  0  0  0  0
   91.3020   98.5580  -45.8590 C   0  0  0  0  0  0  0  0  0  0  0  0
   92.5490   98.4650  -46.0740 O   0  0  0  0  0  0  0  0  0  0  0  0
   90.5320   97.8560  -44.7720 C   0  0  2  0  0  0  0  0  0  0  0  0
   90.7070   96.4290  -45.0170 C   0  0  0  0  0  0  0  0  0  0  0  0
   91.3470   95.6320  -44.1200 C   0  0  0  0  0  0  0  0  0  0  0  0
   91.3390   94.3710  -44.6430 N   0  0  0  0  0  0  0  0  0  0  0  0
   90.7290   94.3660  -45.8100 N   0  0  0  0  0  0  0  0  0  0  0  0
   90.3240   95.6050  -46.0800 C   0  0  0  0  0  0  0  0  0  0  0  0
   89.5880   96.1210  -47.2760 C   0  0  0  0  0  1  0  0  0  0  0  0
   91.8740   96.1160  -42.9170 O   0  0  0  0  0  0  0  0  0  0  0  0
   91.7060   97.4780  -42.6880 C   0  0  0  0  0  0  0  0  0  0  0  0
   91.1010   98.2940  -43.5110 C   0  0  0  0  0  0  0  0  0  0  0  0
   91.0150   99.7070  -43.1040 C   0  0  0  0  0  0  0  0  0  0  0  0
   90.9350  100.8320  -42.8010 N   0  0  0  0  0  0  0  0  0  0  0  0
   90.7690  100.1800  -47.7580 C   0  0  0  0  0  1  0  0  0  0  0  0
   90.5610   93.5540  -46.4580 H   0  0  0  0  0  0  0  0  0  0  0  0
   92.2330   98.0390  -41.4530 N   0  0  0  0  0  0  0  0  0  0  0  0
   93.1630   97.6710  -41.1710 H   0  0  0  0  0  0  0  0  0  0  0  0
   91.7420   98.7370  -40.8980 H   0  0  0  0  0  0  0  0  0  0  0  0
  2  3  1  0  0  0  0
  2  1  1  0  0  0  0
  4 11  1  0  0  0  0
  4  3  2  0  0  0  0
  5  4  1  0  0  0  0
  6  5  2  0  0  0  0
  6  7  1  0  0  0  0
  7  2  2  0  0  0  0
  8  5  1  0  0  0  0
  8  9  1  0  0  0  0
 10  9  2  0  0  0  0
 11  9  1  6  0  0  0
 11 20  1  0  0  0  0
 12 11  1  0  0  0  0
 12 13  1  0  0  0  0
 13 18  1  0  0  0  0
 14 13  2  0  0  0  0
 15 14  1  0  0  0  0
 16 15  1  0  0  0  0
 16 12  2  0  0  0  0
 17 16  1  0  0  0  0
 18 19  1  0  0  0  0
 19 25  1  0  0  0  0
 20 21  1  0  0  0  0
 20 19  2  0  0  0  0
 21 22  3  0  0  0  0
 23  8  1  0  0  0  0
 24 15  1  0  0  0  0
 25 26  1  0  0  0  0
 25 27  1  0  0  0  0
M  END
>  <Pose>
1

>  <Score>
-6.329

$$$$
