/Users/jonathanwahrer/Desktop/Msc/3_Semester/Drug_Design_Praktikum/waehrer_HTS_screening/HTS_experiment/out/docking_results/vina_output/4agl/1413_docked.pdbqt
 OpenBabel03212200163D

 24 27  0  0  0  0  0  0  0  0999 V2000
   91.8280   92.0840  -47.8730 C   0  0  0  0  0  2  0  0  0  0  0  0
   91.2460   90.9360  -48.5470 N   0  0  0  0  0  0  0  0  0  0  0  0
   91.8250   89.7240  -48.5670 C   0  0  0  0  0  2  0  0  0  0  0  0
   91.2320   88.6520  -49.2260 C   0  0  0  0  0  0  0  0  0  0  0  0
   90.0290   88.8000  -49.8790 C   0  0  0  0  0  0  0  0  0  0  0  0
   91.5650   87.3490  -49.4150 N   0  0  0  0  0  0  0  0  0  0  0  0
   89.4410   90.0190  -49.8620 C   0  0  0  0  0  0  0  0  0  0  0  0
   89.6540   87.6330  -50.4390 N   0  0  0  0  0  0  0  0  0  0  0  0
   87.7860   90.2480  -50.7550 Br  0  0  0  0  0  0  0  0  0  0  0  0
   90.0660   91.0690  -49.1910 C   0  0  0  0  0  3  0  0  0  0  0  0
   90.6270   86.7850  -50.1230 N   0  0  0  0  0  0  0  0  0  0  0  0
   88.5180   87.2800  -51.2030 C   0  0  0  0  0  1  0  0  0  0  0  0
   91.5950   92.1170  -46.4320 C   0  0  0  0  0  0  0  0  0  0  0  0
   91.4020   90.9970  -45.8680 O   0  0  0  0  0  0  0  0  0  0  0  0
   91.5620   93.3070  -45.5870 C   0  0  0  0  0  0  0  0  0  0  0  0
   91.8500   93.1830  -44.2570 C   0  0  0  0  0  3  0  0  0  0  0  0
   91.8210   94.2820  -43.4390 C   0  0  0  0  0  0  0  0  0  0  0  0
   91.5050   95.5420  -43.9130 C   0  0  0  0  0  0  0  0  0  0  0  0
   92.1170   94.1320  -42.0950 C   0  0  0  0  0  3  0  0  0  0  0  0
   91.2160   95.6340  -45.2730 C   0  0  0  0  0  3  0  0  0  0  0  0
   91.4710   96.6620  -43.1090 C   0  0  0  0  0  3  0  0  0  0  0  0
   91.2450   94.5400  -46.0940 C   0  0  0  0  0  3  0  0  0  0  0  0
   91.7670   96.4980  -41.7730 C   0  0  0  0  0  3  0  0  0  0  0  0
   92.0830   95.2460  -41.2880 C   0  0  0  0  0  3  0  0  0  0  0  0
  1 13  1  0  0  0  0
  2  1  1  0  0  0  0
  3  2  1  0  0  0  0
  4  3  1  0  0  0  0
  5  7  1  0  0  0  0
  5  4  2  0  0  0  0
  6  4  1  0  0  0  0
  7 10  2  0  0  0  0
  8 11  1  0  0  0  0
  8  5  1  0  0  0  0
  9  7  1  0  0  0  0
 10  2  1  0  0  0  0
 11  6  2  0  0  0  0
 12  8  1  0  0  0  0
 13 14  2  0  0  0  0
 13 15  1  0  0  0  0
 15 16  1  0  0  0  0
 16 17  2  0  0  0  0
 17 19  1  0  0  0  0
 18 17  1  0  0  0  0
 18 21  1  0  0  0  0
 19 24  2  0  0  0  0
 20 18  2  0  0  0  0
 21 23  2  0  0  0  0
 22 15  2  0  0  0  0
 22 20  1  0  0  0  0
 23 24  1  0  0  0  0
M  END
>  <Pose>
1

>  <Score>
-7.428

$$$$
