MODEL 1
REMARK VINA RESULT:    -6.751      0.000      0.000
REMARK INTER + INTRA:         -10.409
REMARK INTER:                  -9.119
REMARK INTRA:                  -1.291
REMARK UNBOUND:                -1.291
REMARK  6 active torsions:
REMARK  status: ('A' for Active; 'I' for Inactive)
REMARK    1  A    between atoms: C_13  and  C_29 
REMARK    2  A    between atoms: C_15  and  C_16 
REMARK       I    between atoms: C_16  and  N_18 
REMARK    3  A    between atoms: N_18  and  C_19 
REMARK    4  A    between atoms: C_20  and  O_27 
REMARK    5  A    between atoms: C_23  and  O_25 
REMARK    6  A    between atoms: C_29  and  C_30 
REMARK       I    between atoms: C_30  and  N_32 
ROOT
ATOM      1 Cl   UNK d   1      87.637  96.245 -47.309  0.00  0.00    -0.084 Cl
ATOM      2  C   UNK d   1      87.761  97.265 -45.879  0.00  0.00     0.034 A 
ATOM      3  C   UNK d   1      88.913  97.934 -45.561  0.00  0.00     0.036 A 
ATOM      4  C   UNK d   1      88.956  98.719 -44.431  0.00  0.00     0.019 A 
ATOM      5  C   UNK d   1      87.830  98.801 -43.655  0.00  0.00     0.044 A 
ATOM      6  C   UNK d   1      86.656  98.117 -43.982  0.00  0.00     0.032 A 
ATOM      7  C   UNK d   1      86.625  97.343 -45.104  0.00  0.00     0.026 A 
ATOM      8  N   UNK d   1      88.010  99.654 -42.530  0.00  0.00    -0.324 N 
ATOM      9  C   UNK d   1      89.325 100.131 -42.609  0.00  0.00     0.267 A 
ATOM     10  O   UNK d   1      89.800 100.940 -41.746  0.00  0.00    -0.270 OA
ATOM     11  C   UNK d   1      89.993  99.560 -43.787  0.00  0.00     0.278 A 
ATOM     12  N   UNK d   1      90.410 100.648 -44.627  0.00  0.00     0.113 N 
ATOM     13  C   UNK d   1      91.838 100.717 -44.622  0.00  0.00     0.232 C 
ATOM     14  C   UNK d   1      92.323  99.843 -43.510  0.00  0.00     0.053 C 
ATOM     15  C   UNK d   1      91.207  98.844 -43.380  0.00  0.00     0.133 C 
ATOM     16  H   UNK d   1      87.302  99.884 -41.783  0.00  0.00     0.169 HD
ATOM     17  H   UNK d   1      89.990 100.573 -45.577  0.00  0.00     0.318 HD
ENDROOT
BRANCH  15  18
ATOM     18  C   UNK d   1      91.491  97.569 -44.088  0.00  0.00     0.229 C 
ATOM     19  O   UNK d   1      92.056  97.673 -45.203  0.00  0.00    -0.273 OA
ATOM     20  N   UNK d   1      91.164  96.307 -43.579  0.00  0.00    -0.324 N 
ATOM     21  H   UNK d   1      90.698  96.328 -42.620  0.00  0.00     0.169 HD
BRANCH  20  22
ATOM     22  C   UNK d   1      91.374  95.050 -44.149  0.00  0.00     0.071 A 
ATOM     23  C   UNK d   1      92.003  94.064 -43.403  0.00  0.00     0.095 A 
ATOM     24  C   UNK d   1      92.242  92.800 -43.902  0.00  0.00     0.042 A 
ATOM     25  C   UNK d   1      91.863  92.456 -45.175  0.00  0.00     0.039 A 
ATOM     26  C   UNK d   1      91.242  93.406 -45.933  0.00  0.00     0.070 A 
ATOM     27  C   UNK d   1      91.007  94.678 -45.417  0.00  0.00     0.069 A 
BRANCH  23  28
ATOM     28  O   UNK d   1      92.415  94.334 -42.110  0.00  0.00    -0.354 OA
ATOM     29  C   UNK d   1      93.369  93.587 -41.419  0.00  0.00     0.210 C 
ENDBRANCH  23  28
BRANCH  26  30
ATOM     30  O   UNK d   1      90.844  93.099 -47.222  0.00  0.00    -0.356 OA
ATOM     31  C   UNK d   1      91.074  91.833 -47.813  0.00  0.00     0.210 C 
ENDBRANCH  26  30
ENDBRANCH  20  22
ENDBRANCH  15  18
BRANCH  13  32
ATOM     32  C   UNK d   1      92.333 102.147 -44.482  0.00  0.00     0.138 C 
BRANCH  32  33
ATOM     33  C   UNK d   1      91.272 103.055 -44.023  0.00  0.00     0.217 C 
ATOM     34  O   UNK d   1      90.436 103.499 -44.825  0.00  0.00    -0.274 OA
ATOM     35  N   UNK d   1      91.206 103.421 -42.665  0.00  0.00    -0.370 N 
ATOM     36  H   UNK d   1      90.283 103.365 -42.185  0.00  0.00     0.159 HD
ATOM     37  H   UNK d   1      92.025 103.749 -42.098  0.00  0.00     0.159 HD
ENDBRANCH  32  33
ENDBRANCH  13  32
TORSDOF 6
ENDMDL
