MODEL 1
REMARK VINA RESULT:    -6.025      0.000      0.000
REMARK INTER + INTRA:          -6.932
REMARK INTER:                  -6.729
REMARK INTRA:                  -0.203
REMARK UNBOUND:                -0.203
REMARK  2 active torsions:
REMARK  status: ('A' for Active; 'I' for Inactive)
REMARK    1  A    between atoms: N_4  and  C_8 
REMARK    2  A    between atoms: C_8  and  C_9 
ROOT
ATOM      1  C   UNK d   1      91.485  91.593 -46.838  0.00  0.00     0.168 A 
ATOM      2  N   UNK d   1      91.075  92.843 -47.105  0.00  0.00    -0.148 NA
ATOM      3  N   UNK d   1      91.199  93.624 -46.019  0.00  0.00    -0.206 N 
ATOM      4  C   UNK d   1      91.701  92.854 -45.037  0.00  0.00     0.169 A 
ATOM      5  N   UNK d   1      91.872  91.619 -45.544  0.00  0.00    -0.209 NA
ATOM      6  C   UNK d   1      91.921  93.444 -43.807  0.00  0.00     0.079 A 
ATOM      7  C   UNK d   1      91.642  94.777 -43.569  0.00  0.00     0.162 A 
ATOM      8  N   UNK d   1      91.945  95.097 -42.293  0.00  0.00    -0.256 N 
ATOM      9  N   UNK d   1      92.405  93.990 -41.742  0.00  0.00    -0.182 NA
ATOM     10  C   UNK d   1      92.409  92.965 -42.614  0.00  0.00     0.158 A 
ATOM     11  C   UNK d   1      91.786  96.413 -41.677  0.00  0.00     0.182 C 
ATOM     12  N   UNK d   1      91.142  95.485 -44.596  0.00  0.00    -0.222 NA
ATOM     13  C   UNK d   1      90.925  94.923 -45.796  0.00  0.00     0.239 A 
ENDROOT
BRANCH   1  14
ATOM     14  C   UNK d   1      91.520  90.412 -47.744  0.00  0.00     0.232 C 
BRANCH  14  15
ATOM     15  N   UNK d   1      90.744  90.637 -48.952  0.00  0.00    -0.272 N 
ATOM     16  C   UNK d   1      89.499  90.186 -49.208  0.00  0.00     0.134 A 
ATOM     17  C   UNK d   1      89.125  90.627 -50.475  0.00  0.00     0.054 A 
ATOM     18 Br   UNK d   1      87.485  90.312 -51.393  0.00  0.00    -0.047 Br
ATOM     19  C   UNK d   1      90.193  91.354 -50.956  0.00  0.00     0.069 A 
ATOM     20  N   UNK d   1      91.152  91.339 -50.010  0.00  0.00    -0.176 NA
ATOM     21  C   UNK d   1      90.210  92.006 -52.287  0.00  0.00     0.074 C 
ENDBRANCH  14  15
ENDBRANCH   1  14
TORSDOF 2
ENDMDL
