MODEL 1
REMARK VINA RESULT:    -6.107      0.000      0.000
REMARK INTER + INTRA:          -8.291
REMARK INTER:                  -7.357
REMARK INTRA:                  -0.934
REMARK UNBOUND:                -0.934
REMARK  4 active torsions:
REMARK  status: ('A' for Active; 'I' for Inactive)
REMARK    1  A    between atoms: C_10  and  O_27 
REMARK    2  A    between atoms: C_11  and  N_14 
REMARK    3  A    between atoms: C_11  and  C_20 
REMARK    4  A    between atoms: C_20  and  N_21 
ROOT
ATOM      1 Br   UNK d   1      91.015  94.736 -46.223  0.00  0.00    -0.048 Br
ATOM      2  C   UNK d   1      91.340  95.432 -44.489  0.00  0.00     0.051 A 
ATOM      3  C   UNK d   1      91.110  96.788 -44.233  0.00  0.00     0.095 A 
ATOM      4  C   UNK d   1      91.323  97.324 -42.986  0.00  0.00     0.008 A 
ATOM      5  C   UNK d   1      91.771  96.479 -41.999  0.00  0.00     0.020 A 
ATOM      6  C   UNK d   1      92.008  95.125 -42.226  0.00  0.00    -0.054 A 
ATOM      7  C   UNK d   1      91.784  94.593 -43.499  0.00  0.00    -0.036 A 
ATOM      8  C   UNK d   1      92.029  93.146 -43.753  0.00  0.00     0.050 C 
ATOM      9  C   UNK d   1      92.513  94.256 -41.130  0.00  0.00     0.049 C 
ATOM     10  C   UNK d   1      91.069  98.745 -42.614  0.00  0.00     0.197 C 
ATOM     11  C   UNK d   1      90.762  99.646 -43.771  0.00  0.00     0.236 C 
ATOM     12  C   UNK d   1      91.275  98.997 -45.044  0.00  0.00     0.222 C 
ATOM     13  O   UNK d   1      90.668  97.687 -45.192  0.00  0.00    -0.346 OA
ENDROOT
BRANCH  11  14
ATOM     14  N   UNK d   1      91.523 100.858 -43.556  0.00  0.00     0.109 N 
ATOM     15  C   UNK d   1      90.758 101.924 -43.001  0.00  0.00     0.299 C 
ATOM     16  C   UNK d   1      91.368 103.291 -43.123  0.00  0.00     0.198 C 
ATOM     17  O   UNK d   1      92.045 103.528 -44.288  0.00  0.00    -0.388 OA
ATOM     18  C   UNK d   1      93.049 102.557 -44.407  0.00  0.00     0.198 C 
ATOM     19  C   UNK d   1      92.262 101.256 -44.717  0.00  0.00     0.299 C 
ENDBRANCH  11  14
BRANCH  11  20
ATOM     20  C   UNK d   1      89.327  99.901 -44.035  0.00  0.00     0.319 C 
BRANCH  20  21
ATOM     21  N   UNK d   1      88.289  99.360 -43.285  0.00  0.00     0.095 N 
ATOM     22  C   UNK d   1      87.345 100.456 -42.875  0.00  0.00     0.298 C 
ATOM     23  C   UNK d   1      86.851 101.209 -44.054  0.00  0.00     0.198 C 
ATOM     24  O   UNK d   1      86.737 100.474 -45.204  0.00  0.00    -0.388 OA
ATOM     25  C   UNK d   1      86.571  99.130 -45.043  0.00  0.00     0.198 C 
ATOM     26  C   UNK d   1      87.335  98.480 -43.934  0.00  0.00     0.298 C 
ENDBRANCH  20  21
ENDBRANCH  11  20
BRANCH  10  27
ATOM     27  O   UNK d   1      92.234  99.209 -41.928  0.00  0.00    -0.388 OA
ATOM     28  H   UNK d   1      92.010 100.099 -41.558  0.00  0.00     0.210 HD
ENDBRANCH  10  27
TORSDOF 4
ENDMDL
