MODEL 1
REMARK VINA RESULT:    -6.661      0.000      0.000
REMARK INTER + INTRA:          -7.867
REMARK INTER:                  -7.440
REMARK INTRA:                  -0.428
REMARK UNBOUND:                -0.428
REMARK  2 active torsions:
REMARK  status: ('A' for Active; 'I' for Inactive)
REMARK    1  A    between atoms: N_5  and  C_8 
REMARK    2  A    between atoms: C_8  and  C_9 
REMARK       I    between atoms: C_9  and  N_11 
ROOT
ATOM      1  C   UNK d   1      91.183  98.189 -44.910  0.00  0.00     0.171 C 
ATOM      2  O   UNK d   1      92.432  97.805 -45.151  0.00  0.00    -0.175 OA
ATOM      3  N   UNK d   1      91.006  99.563 -44.867  0.00  0.00    -0.361 N 
ATOM      4  C   UNK d   1      89.807 100.285 -44.630  0.00  0.00     0.127 C 
ATOM      5  C   UNK d   1      89.855 100.932 -43.245  0.00  0.00     0.061 C 
ATOM      6  C   UNK d   1      91.289 101.307 -42.909  0.00  0.00     0.118 C 
ATOM      7  N   UNK d   1      91.201 102.532 -42.133  0.00  0.00    -0.324 N 
ATOM      8  C   UNK d   1      91.080 102.130 -40.752  0.00  0.00     0.323 C 
ATOM      9  O   UNK d   1      90.666 102.848 -39.808  0.00  0.00    -0.247 OA
ATOM     10  N   UNK d   1      91.519 100.761 -40.668  0.00  0.00    -0.277 N 
ATOM     11  C   UNK d   1      91.900 100.341 -41.972  0.00  0.00     0.254 C 
ATOM     12  O   UNK d   1      92.613  99.343 -42.231  0.00  0.00    -0.270 OA
ATOM     13  C   UNK d   1      92.117 101.576 -44.126  0.00  0.00     0.061 C 
ATOM     14  C   UNK d   1      92.190 100.430 -45.082  0.00  0.00     0.127 C 
ATOM     15  H   UNK d   1      91.220 103.511 -42.487  0.00  0.00     0.165 HD
ATOM     16  H   UNK d   1      91.550 100.192 -39.811  0.00  0.00     0.173 HD
ENDROOT
BRANCH   1  17
ATOM     17  C   UNK d   1      90.295  97.056 -44.745  0.00  0.00     0.216 C 
BRANCH  17  18
ATOM     18  N   UNK d   1      90.824  95.737 -44.721  0.00  0.00    -0.341 N 
ATOM     19  C   UNK d   1      91.452  95.203 -43.632  0.00  0.00     0.046 A 
ATOM     20  C   UNK d   1      91.825  93.915 -43.916  0.00  0.00     0.010 A 
ATOM     21  C   UNK d   1      91.743  95.739 -42.377  0.00  0.00     0.030 A 
ATOM     22  C   UNK d   1      91.419  93.659 -45.202  0.00  0.00     0.045 A 
ATOM     23  C   UNK d   1      92.486  93.161 -42.958  0.00  0.00     0.015 A 
ATOM     24 Br   UNK d   1      91.708  91.982 -46.073  0.00  0.00    -0.048 Br
ATOM     25  C   UNK d   1      90.806  94.783 -45.681  0.00  0.00     0.027 A 
ATOM     26  C   UNK d   1      90.215  94.943 -47.029  0.00  0.00     0.070 C 
ATOM     27  C   UNK d   1      92.769  93.698 -41.723  0.00  0.00     0.001 A 
ATOM     28  C   UNK d   1      92.405  94.980 -41.420  0.00  0.00     0.002 A 
ENDBRANCH  17  18
ENDBRANCH   1  17
TORSDOF 2
ENDMDL
