/Users/jonathanwahrer/Desktop/Msc/3_Semester/Drug_Design_Praktikum/waehrer_HTS_screening/HTS_experiment/out/docking_results/vina_output/4agl/1435_docked.pdbqt
 OpenBabel03212200183D

 32 35  0  0  0  0  0  0  0  0999 V2000
   89.4120  100.5400  -43.0910 C   0  0  0  0  0  2  0  0  0  0  0  0
   89.7770  101.7610  -42.2580 C   0  0  0  0  0  2  0  0  0  0  0  0
   91.0960  102.2480  -42.5860 N   0  0  0  0  0  0  0  0  0  0  0  0
   91.5370  102.7950  -43.7450 C   0  0  0  0  0  0  0  0  0  0  0  0
   90.4210  103.0430  -45.2740 Br  0  0  0  0  0  0  0  0  0  0  0  0
   92.8390  103.1190  -43.6450 N   0  0  0  0  0  0  0  0  0  0  0  0
   93.2730  102.7870  -42.4060 C   0  0  0  0  0  0  0  0  0  0  0  0
   92.1740  102.2480  -41.7700 C   0  0  0  0  0  0  0  0  0  0  0  0
   94.4790  102.9020  -41.8060 N   0  0  0  0  0  0  0  0  0  0  0  0
   92.3290  101.8150  -40.4640 C   0  0  0  0  0  0  0  0  0  0  0  0
   93.5290  101.9330  -39.8770 N   0  0  0  0  0  0  0  0  0  0  0  0
   91.3230  101.3290  -39.9000 O   0  0  0  0  0  0  0  0  0  0  0  0
   94.5910  102.4690  -40.5370 C   0  0  0  0  0  0  0  0  0  0  0  0
   93.6550  101.6070  -38.8900 H   0  0  0  0  0  0  0  0  0  0  0  0
   95.6830  102.5440  -39.9130 O   0  0  0  0  0  0  0  0  0  0  0  0
   95.6250  103.4700  -42.4910 C   0  0  0  0  0  1  0  0  0  0  0  0
   90.0280   99.2910  -42.5170 C   0  0  0  0  0  2  0  0  0  0  0  0
   91.4120   98.9890  -43.0100 C   0  0  0  0  0  2  0  0  0  0  0  0
   91.4220   97.7790  -43.7610 N   0  0  0  0  0  0  0  0  0  0  0  0
   91.5790   96.5140  -43.3740 C   0  0  0  0  0  0  0  0  0  0  0  0
   91.4690   95.6880  -44.4870 C   0  0  0  0  0  0  0  0  0  0  0  0
   91.8210   95.9080  -42.1690 C   0  0  0  0  0  0  0  0  0  0  0  0
   91.2480   96.4990  -45.5170 N   0  0  0  0  0  0  0  0  0  0  0  0
   91.5940   94.3630  -44.3710 N   0  0  0  0  0  0  0  0  0  0  0  0
   91.2160   97.7670  -45.1020 C   0  0  0  0  0  0  0  0  0  0  0  0
   90.9260   99.2620  -46.2480 Br  0  0  0  0  0  0  0  0  0  0  0  0
   91.8310   93.7920  -43.1750 C   0  0  0  0  0  0  0  0  0  0  0  0
   91.4830   93.4740  -45.5220 C   0  0  0  0  0  1  0  0  0  0  0  0
   91.9470   92.5450  -43.0740 O   0  0  0  0  0  0  0  0  0  0  0  0
   91.9400   94.5740  -42.0970 N   0  0  0  0  0  0  0  0  0  0  0  0
   92.1260   94.1650  -41.1370 H   0  0  0  0  0  0  0  0  0  0  0  0
   91.9280   96.6220  -41.1520 O   0  0  0  0  0  0  0  0  0  0  0  0
  1 17  1  0  0  0  0
  1  2  1  0  0  0  0
  3  2  1  0  0  0  0
  3  8  1  0  0  0  0
  4  6  2  0  0  0  0
  4  3  1  0  0  0  0
  5  4  1  0  0  0  0
  6  7  1  0  0  0  0
  7  9  1  0  0  0  0
  7  8  2  0  0  0  0
  8 10  1  0  0  0  0
  9 13  1  0  0  0  0
 10 12  2  0  0  0  0
 10 11  1  0  0  0  0
 11 14  1  0  0  0  0
 13 15  2  0  0  0  0
 13 11  1  0  0  0  0
 16  9  1  0  0  0  0
 18 17  1  0  0  0  0
 19 20  1  0  0  0  0
 19 18  1  0  0  0  0
 20 22  1  0  0  0  0
 21 24  1  0  0  0  0
 21 20  2  0  0  0  0
 22 30  1  0  0  0  0
 22 32  2  0  0  0  0
 23 25  2  0  0  0  0
 23 21  1  0  0  0  0
 24 27  1  0  0  0  0
 25 19  1  0  0  0  0
 26 25  1  0  0  0  0
 27 29  2  0  0  0  0
 27 30  1  0  0  0  0
 28 24  1  0  0  0  0
 30 31  1  0  0  0  0
M  END
>  <Pose>
1

>  <Score>
-6.134

$$$$
