MODEL 1
REMARK VINA RESULT:    -6.134      0.000      0.000
REMARK INTER + INTRA:          -8.923
REMARK INTER:                  -7.926
REMARK INTRA:                  -0.996
REMARK UNBOUND:                -0.996
REMARK  5 active torsions:
REMARK  status: ('A' for Active; 'I' for Inactive)
REMARK    1  A    between atoms: N_3  and  C_14 
REMARK    2  A    between atoms: C_14  and  C_15 
REMARK    3  A    between atoms: C_15  and  C_16 
REMARK    4  A    between atoms: C_16  and  C_17 
REMARK    5  A    between atoms: C_17  and  N_18 
ROOT
ATOM      1  C   UNK d   1      89.412 100.540 -43.091  0.00  0.00     0.022 C 
ENDROOT
BRANCH   1   2
ATOM      2  C   UNK d   1      89.777 101.761 -42.258  0.00  0.00     0.132 C 
BRANCH   2   3
ATOM      3  N   UNK d   1      91.096 102.248 -42.586  0.00  0.00    -0.318 N 
ATOM      4  C   UNK d   1      91.537 102.795 -43.745  0.00  0.00     0.180 A 
ATOM      5 Br   UNK d   1      90.421 103.043 -45.274  0.00  0.00    -0.008 Br
ATOM      6  N   UNK d   1      92.839 103.119 -43.645  0.00  0.00    -0.203 NA
ATOM      7  C   UNK d   1      93.273 102.787 -42.406  0.00  0.00     0.169 A 
ATOM      8  C   UNK d   1      92.174 102.248 -41.770  0.00  0.00     0.152 A 
ATOM      9  N   UNK d   1      94.479 102.902 -41.806  0.00  0.00    -0.286 N 
ATOM     10  C   UNK d   1      92.329 101.815 -40.464  0.00  0.00     0.280 A 
ATOM     11  N   UNK d   1      93.529 101.933 -39.877  0.00  0.00    -0.273 N 
ATOM     12  O   UNK d   1      91.323 101.329 -39.900  0.00  0.00    -0.265 OA
ATOM     13  C   UNK d   1      94.591 102.469 -40.537  0.00  0.00     0.330 A 
ATOM     14  H   UNK d   1      93.655 101.607 -38.890  0.00  0.00     0.173 HD
ATOM     15  O   UNK d   1      95.683 102.544 -39.913  0.00  0.00    -0.246 OA
ATOM     16  C   UNK d   1      95.625 103.470 -42.491  0.00  0.00     0.163 C 
ENDBRANCH   2   3
ENDBRANCH   1   2
BRANCH   1  17
ATOM     17  C   UNK d   1      90.028  99.291 -42.517  0.00  0.00     0.022 C 
BRANCH  17  18
ATOM     18  C   UNK d   1      91.412  98.989 -43.010  0.00  0.00     0.132 C 
BRANCH  18  19
ATOM     19  N   UNK d   1      91.422  97.779 -43.761  0.00  0.00    -0.318 N 
ATOM     20  C   UNK d   1      91.579  96.514 -43.374  0.00  0.00     0.152 A 
ATOM     21  C   UNK d   1      91.469  95.688 -44.487  0.00  0.00     0.169 A 
ATOM     22  C   UNK d   1      91.821  95.908 -42.169  0.00  0.00     0.280 A 
ATOM     23  N   UNK d   1      91.248  96.499 -45.517  0.00  0.00    -0.203 NA
ATOM     24  N   UNK d   1      91.594  94.363 -44.371  0.00  0.00    -0.286 N 
ATOM     25  C   UNK d   1      91.216  97.767 -45.102  0.00  0.00     0.180 A 
ATOM     26 Br   UNK d   1      90.926  99.262 -46.248  0.00  0.00    -0.008 Br
ATOM     27  C   UNK d   1      91.831  93.792 -43.175  0.00  0.00     0.330 A 
ATOM     28  C   UNK d   1      91.483  93.474 -45.522  0.00  0.00     0.163 C 
ATOM     29  O   UNK d   1      91.947  92.545 -43.074  0.00  0.00    -0.246 OA
ATOM     30  N   UNK d   1      91.940  94.574 -42.097  0.00  0.00    -0.273 N 
ATOM     31  H   UNK d   1      92.126  94.165 -41.137  0.00  0.00     0.173 HD
ATOM     32  O   UNK d   1      91.928  96.622 -41.152  0.00  0.00    -0.265 OA
ENDBRANCH  18  19
ENDBRANCH  17  18
ENDBRANCH   1  17
TORSDOF 5
ENDMDL
