/Users/jonathanwahrer/Desktop/Msc/3_Semester/Drug_Design_Praktikum/waehrer_HTS_screening/HTS_experiment/out/docking_results/vina_output/4agl/1444_docked.pdbqt
 OpenBabel03212200193D

 33 36  0  0  0  0  0  0  0  0999 V2000
   89.8850   99.7240  -42.4450 N   0  0  0  0  0  0  0  0  0  0  0  0
   90.4660  100.9420  -42.2850 C   0  0  0  0  0  0  0  0  0  0  0  0
   90.7510  101.0950  -40.9490 O   0  0  0  0  0  0  0  0  0  0  0  0
   89.8050   99.1660  -41.4720 H   0  0  0  0  0  0  0  0  0  0  0  0
   90.8890  102.1230  -43.0190 C   0  0  0  0  0  2  0  0  0  0  0  0
   91.6990  102.1460  -44.1600 N   0  0  0  0  0  0  0  0  0  0  0  0
   91.3520  101.4200  -45.4110 C   0  0  0  0  0  2  0  0  0  0  0  0
   92.6330  101.4200  -46.2190 C   0  0  0  0  0  2  0  0  0  0  0  0
   92.9760  102.8420  -46.5760 C   0  0  0  0  0  2  0  0  0  0  0  0
   93.3750  103.5920  -45.3220 C   0  0  0  0  0  2  0  0  0  0  0  0
   92.9660  102.8170  -44.1150 C   0  0  0  0  0  0  0  0  0  0  0  0
   93.8050  102.6840  -43.0850 C   0  0  0  0  0  0  0  0  0  0  0  0
   95.0650  103.3750  -43.0540 N   0  0  0  0  0  0  0  0  0  0  0  0
   93.7690  101.9020  -41.9350 N   0  0  0  0  0  0  0  0  0  0  0  0
   95.7700  103.0060  -41.8940 N   0  0  0  0  0  0  0  0  0  0  0  0
   95.4920  104.0570  -43.7100 H   0  0  0  0  0  0  0  0  0  0  0  0
   94.9780  102.0850  -41.1770 C   0  0  0  0  0  0  0  0  0  0  0  0
   96.7170  103.3360  -41.5820 H   0  0  0  0  0  0  0  0  0  0  0  0
   95.2160  101.5030  -40.0940 O   0  0  0  0  0  0  0  0  0  0  0  0
   93.0080  101.2580  -41.6610 H   0  0  0  0  0  0  0  0  0  0  0  0
   89.2710   98.9910  -43.4530 C   0  0  0  0  0  0  0  0  0  0  0  0
   89.8500   98.0310  -44.2350 N   0  0  0  0  0  0  0  0  0  0  0  0
   88.9200   97.5230  -45.0350 N   0  0  0  0  0  0  0  0  0  0  0  0
   87.7450   98.0930  -44.8310 C   0  0  0  0  0  3  0  0  0  0  0  0
   87.9440   99.0410  -43.8170 C   0  0  0  0  0  3  0  0  0  0  0  0
   91.2200   97.6590  -44.1850 C   0  0  0  0  0  2  0  0  0  0  0  0
   91.4960   96.4510  -43.3860 C   0  0  0  0  0  0  0  0  0  0  0  0
   91.5580   95.1920  -43.9080 C   0  0  0  0  0  0  0  0  0  0  0  0
   91.3040   94.9480  -45.6200 Cl  0  0  0  0  0  0  0  0  0  0  0  0
   91.8190   94.1010  -43.1120 C   0  0  0  0  0  3  0  0  0  0  0  0
   92.0260   94.2430  -41.7590 C   0  0  0  0  0  3  0  0  0  0  0  0
   91.9650   95.5100  -41.2200 C   0  0  0  0  0  3  0  0  0  0  0  0
   91.7040   96.5850  -42.0310 C   0  0  0  0  0  3  0  0  0  0  0  0
  1  2  1  0  0  0  0
  1  4  1  0  0  0  0
  2  3  2  0  0  0  0
  5  2  1  0  0  0  0
  6 11  1  0  0  0  0
  6  5  1  0  0  0  0
  7  6  1  0  0  0  0
  8  7  1  0  0  0  0
  9  8  1  0  0  0  0
  9 10  1  0  0  0  0
 10 11  1  0  0  0  0
 11 12  2  0  0  0  0
 12 13  1  0  0  0  0
 12 14  1  0  0  0  0
 13 15  1  0  0  0  0
 14 20  1  0  0  0  0
 14 17  1  0  0  0  0
 15 18  1  0  0  0  0
 15 17  1  0  0  0  0
 16 13  1  0  0  0  0
 17 19  2  0  0  0  0
 21  1  1  0  0  0  0
 22 26  1  0  0  0  0
 22 21  1  0  0  0  0
 23 24  2  0  0  0  0
 23 22  1  0  0  0  0
 24 25  1  0  0  0  0
 25 21  2  0  0  0  0
 26 27  1  0  0  0  0
 27 33  1  0  0  0  0
 28 27  2  0  0  0  0
 28 30  1  0  0  0  0
 29 28  1  0  0  0  0
 30 31  2  0  0  0  0
 31 32  1  0  0  0  0
 33 32  2  0  0  0  0
M  END
>  <Pose>
1

>  <Score>
-6.930

$$$$
