MODEL 1
REMARK VINA RESULT:    -6.882      0.000      0.000
REMARK INTER + INTRA:          -9.830
REMARK INTER:                  -9.296
REMARK INTRA:                  -0.534
REMARK UNBOUND:                -0.534
REMARK  6 active torsions:
REMARK  status: ('A' for Active; 'I' for Inactive)
REMARK    1  A    between atoms: C_6  and  C_8 
REMARK       I    between atoms: C_8  and  N_10 
REMARK    2  A    between atoms: N_10  and  C_11 
REMARK    3  A    between atoms: C_11  and  C_12 
REMARK    4  A    between atoms: C_12  and  N_13 
REMARK    5  A    between atoms: C_16  and  C_18 
REMARK    6  A    between atoms: C_20  and  C_23 
ROOT
ATOM      1  N   UNK d   1      90.426  97.837 -44.236  0.00  0.00    -0.281 N 
ATOM      2  N   UNK d   1      89.705  97.737 -45.341  0.00  0.00     0.005 NA
ATOM      3  N   UNK d   1      89.868  96.543 -45.894  0.00  0.00    -0.154 NA
ATOM      4  C   UNK d   1      90.718  95.820 -45.147  0.00  0.00     0.146 A 
ATOM      5  C   UNK d   1      91.065  96.645 -44.103  0.00  0.00     0.145 A 
ENDROOT
BRANCH   1   6
ATOM      6  C   UNK d   1      90.535  98.982 -43.325  0.00  0.00     0.165 C 
BRANCH   6   7
ATOM      7  C   UNK d   1      92.010  99.149 -43.038  0.00  0.00     0.144 C 
BRANCH   7   8
ATOM      8  N   UNK d   1      92.217  99.717 -41.714  0.00  0.00    -0.355 N 
ATOM      9  C   UNK d   1      92.732 101.037 -41.627  0.00  0.00     0.253 C 
ATOM     10  O   UNK d   1      92.996 101.684 -42.693  0.00  0.00    -0.268 OA
ATOM     11  H   UNK d   1      91.996  99.177 -40.854  0.00  0.00     0.162 HD
BRANCH   9  12
ATOM     12  C   UNK d   1      92.977 101.702 -40.355  0.00  0.00     0.050 A 
ATOM     13  C   UNK d   1      94.229 101.693 -39.811  0.00  0.00     0.133 A 
ATOM     14  N   UNK d   1      94.557 102.277 -38.644  0.00  0.00    -0.271 NA
ATOM     15  C   UNK d   1      93.590 102.921 -37.950  0.00  0.00     0.135 A 
ATOM     16  C   UNK d   1      92.305 102.967 -38.442  0.00  0.00     0.029 A 
ATOM     17 Br   UNK d   1      90.972 103.887 -37.429  0.00  0.00    -0.050 Br
ATOM     18  C   UNK d   1      91.983 102.357 -39.654  0.00  0.00     0.039 A 
ENDBRANCH   9  12
ENDBRANCH   7   8
ENDBRANCH   6   7
ENDBRANCH   1   6
BRANCH   4  19
ATOM     19  C   UNK d   1      91.175  94.463 -45.386  0.00  0.00     0.228 A 
ATOM     20  N   UNK d   1      91.037  93.745 -46.515  0.00  0.00    -0.198 NA
ATOM     21  C   UNK d   1      91.590  92.534 -46.341  0.00  0.00     0.191 A 
ATOM     22  N   UNK d   1      92.068  92.528 -45.087  0.00  0.00    -0.105 NA
ATOM     23  O   UNK d   1      91.806  93.680 -44.551  0.00  0.00    -0.189 OA
BRANCH  21  24
ATOM     24  C   UNK d   1      91.659  91.434 -47.328  0.00  0.00     0.032 A 
ATOM     25  C   UNK d   1      90.633  91.255 -48.225  0.00  0.00     0.131 A 
ATOM     26  N   UNK d   1      90.685  90.257 -49.128  0.00  0.00    -0.272 NA
ATOM     27  C   UNK d   1      91.717  89.393 -49.209  0.00  0.00     0.116 A 
ATOM     28  C   UNK d   1      92.744  89.582 -48.304  0.00  0.00     0.020 A 
ATOM     29  C   UNK d   1      92.731  90.584 -47.369  0.00  0.00     0.018 A 
ENDBRANCH  21  24
ENDBRANCH   4  19
TORSDOF 6
ENDMDL
