MODEL 1
REMARK VINA RESULT:    -6.878      0.000      0.000
REMARK INTER + INTRA:         -10.406
REMARK INTER:                  -9.291
REMARK INTRA:                  -1.115
REMARK UNBOUND:                -1.115
REMARK  6 active torsions:
REMARK  status: ('A' for Active; 'I' for Inactive)
REMARK    1  A    between atoms: C_3  and  N_8 
REMARK       I    between atoms: N_11  and  C_14 
REMARK    2  A    between atoms: C_14  and  C_16 
REMARK    3  A    between atoms: N_18  and  C_26 
REMARK    4  A    between atoms: C_26  and  C_27 
REMARK    5  A    between atoms: C_27  and  C_28 
REMARK    6  A    between atoms: C_28  and  O_29 
ROOT
ATOM      1  C   UNK d   1      90.707  96.652 -44.723  0.00  0.00     0.079 A 
ATOM      2  C   UNK d   1      90.680  95.655 -45.659  0.00  0.00     0.110 A 
ATOM      3  N   UNK d   1      91.122  94.379 -45.438  0.00  0.00    -0.364 N 
ATOM      4  C   UNK d   1      91.606  94.103 -44.231  0.00  0.00     0.110 A 
ATOM      5  C   UNK d   1      91.673  95.034 -43.229  0.00  0.00     0.080 A 
ATOM      6  C   UNK d   1      91.199  96.382 -43.480  0.00  0.00     0.111 A 
ATOM      7  N   UNK d   1      91.386  97.062 -42.334  0.00  0.00    -0.170 NA
ATOM      8  N   UNK d   1      91.921  96.270 -41.420  0.00  0.00    -0.242 N 
ATOM      9  C   UNK d   1      92.110  95.040 -41.916  0.00  0.00     0.275 A 
ATOM     10  O   UNK d   1      92.594  94.011 -41.353  0.00  0.00    -0.266 OA
ATOM     11  H   UNK d   1      92.183  96.512 -40.424  0.00  0.00     0.192 HD
ENDROOT
BRANCH   1  12
ATOM     12  C   UNK d   1      90.215  97.983 -45.042  0.00  0.00     0.257 C 
ATOM     13  N   UNK d   1      91.075  99.021 -45.463  0.00  0.00    -0.345 N 
ATOM     14  C   UNK d   1      90.620 100.347 -45.787  0.00  0.00     0.146 C 
ATOM     15  C   UNK d   1      92.485  98.752 -45.581  0.00  0.00     0.146 C 
ATOM     16  C   UNK d   1      91.580 101.336 -45.174  0.00  0.00     0.143 C 
ATOM     17  N   UNK d   1      92.440 100.752 -44.178  0.00  0.00    -0.376 N 
ATOM     18  C   UNK d   1      93.156  99.489 -44.414  0.00  0.00     0.143 C 
ATOM     19  O   UNK d   1      88.969  98.169 -44.923  0.00  0.00    -0.267 OA
BRANCH  17  20
ATOM     20  C   UNK d   1      92.638 101.365 -42.926  0.00  0.00     0.052 A 
ATOM     21  C   UNK d   1      91.709 101.270 -41.913  0.00  0.00     0.060 A 
ATOM     22 Cl   UNK d   1      90.222 100.356 -42.182  0.00  0.00    -0.082 Cl
ATOM     23  C   UNK d   1      91.915 101.876 -40.692  0.00  0.00     0.026 A 
ATOM     24  C   UNK d   1      93.069 102.588 -40.478  0.00  0.00     0.002 A 
ATOM     25  C   UNK d   1      94.037 102.707 -41.481  0.00  0.00     0.002 A 
ATOM     26  C   UNK d   1      93.781 102.079 -42.690  0.00  0.00     0.031 A 
ENDBRANCH  17  20
ENDBRANCH   1  12
BRANCH   3  27
ATOM     27  C   UNK d   1      91.082  93.406 -46.519  0.00  0.00     0.130 C 
BRANCH  27  28
ATOM     28  C   UNK d   1      91.513  92.049 -46.181  0.00  0.00     0.046 C 
BRANCH  28  29
ATOM     29  C   UNK d   1      91.380  90.894 -47.071  0.00  0.00     0.168 C 
BRANCH  29  30
ATOM     30  O   UNK d   1      92.302  90.600 -48.002  0.00  0.00    -0.396 OA
ATOM     31  C   UNK d   1      93.418  89.912 -47.751  0.00  0.00     0.201 C 
ENDBRANCH  29  30
ENDBRANCH  28  29
ENDBRANCH  27  28
ENDBRANCH   3  27
TORSDOF 6
ENDMDL
