/Users/jonathanwahrer/Desktop/Msc/3_Semester/Drug_Design_Praktikum/waehrer_HTS_screening/HTS_experiment/out/docking_results/vina_output/4agl/1477_docked.pdbqt
 OpenBabel03212200213D

 35 39  0  0  1  0  0  0  0  0999 V2000
   88.7360   98.0280  -44.4250 C   0  0  2  0  0  3  0  0  0  0  0  0
   87.7820   98.7610  -43.7150 N   0  0  0  0  0  0  0  0  0  0  0  0
   88.5100   99.6970  -42.8630 C   0  0  0  0  0  0  0  0  0  0  0  0
   88.0370  100.6300  -42.1680 O   0  0  0  0  0  0  0  0  0  0  0  0
   89.9340   99.4000  -42.9160 C   0  0  0  0  0  0  0  0  0  0  0  0
   90.8610  100.0240  -42.2990 O   0  0  0  0  0  0  0  0  0  0  0  0
   90.0760   98.2760  -43.8020 C   0  0  2  0  0  3  0  0  0  0  0  0
   91.1990   97.6310  -44.0440 C   0  0  2  0  0  3  0  0  0  0  0  0
   92.1990   98.3890  -44.6980 O   0  0  0  0  0  1  0  0  0  0  0  0
   91.4850   96.2480  -43.7120 C   0  0  0  0  0  0  0  0  0  0  0  0
   91.4800   95.1180  -44.4360 N   0  0  0  0  0  0  0  0  0  0  0  0
   91.7680   94.0320  -43.7020 C   0  0  0  0  0  0  0  0  0  0  0  0
   91.2410   94.9750  -45.7680 C   0  0  0  0  0  3  0  0  0  0  0  0
   91.9690   94.4810  -42.4440 N   0  0  0  0  0  0  0  0  0  0  0  0
   91.8330   92.7650  -44.2490 C   0  0  0  0  0  3  0  0  0  0  0  0
   91.8080   95.8060  -42.4100 C   0  0  0  0  0  0  0  0  0  0  0  0
   91.9390   96.6830  -41.2380 C   0  0  0  0  0  1  0  0  0  0  0  0
   91.5930   92.6090  -45.5880 C   0  0  0  0  0  3  0  0  0  0  0  0
   91.2970   93.7270  -46.3450 C   0  0  0  0  0  3  0  0  0  0  0  0
   88.8050   98.0030  -45.8720 C   0  0  0  0  0  0  0  0  0  0  0  0
   88.6790   96.7930  -46.5680 C   0  0  0  0  0  3  0  0  0  0  0  0
   88.6900   96.7650  -47.9460 C   0  0  0  0  0  0  0  0  0  0  0  0
   88.5160   95.1250  -48.8830 Br  0  0  0  0  0  0  0  0  0  0  0  0
   88.8260   97.9250  -48.6820 C   0  0  0  0  0  3  0  0  0  0  0  0
   88.9530   99.1380  -48.0300 C   0  0  0  0  0  3  0  0  0  0  0  0
   88.9360   99.1210  -46.6660 C   0  0  0  0  0  3  0  0  0  0  0  0
   86.3730   98.6170  -43.6840 C   0  0  0  0  0  2  0  0  0  0  0  0
   85.6900   97.6050  -44.4860 C   0  0  0  0  0  2  0  0  0  0  0  0
   84.5120   97.9330  -45.2340 N   0  0  0  0  0  4  0  0  0  0  0  0
   84.9660   98.5240  -46.4930 C   0  0  0  0  0  2  0  0  0  0  0  0
   85.1870   97.5060  -47.5650 C   0  0  0  0  0  2  0  0  0  0  0  0
   85.1770   96.2070  -47.0350 O   0  0  0  0  0  0  0  0  0  0  0  0
   83.8920   96.0060  -46.5840 C   0  0  0  0  0  2  0  0  0  0  0  0
   83.6090   96.8440  -45.3920 C   0  0  0  0  0  2  0  0  0  0  0  0
   83.9730   98.7330  -44.7860 H   0  0  0  0  0  0  0  0  0  0  0  0
  1 20  1  6  0  0  0
  1  7  1  0  0  0  0
  1  2  1  0  0  0  0
  2 27  1  0  0  0  0
  2  3  1  0  0  0  0
  3  4  2  0  0  0  0
  5  3  1  0  0  0  0
  5  6  2  0  0  0  0
  7  8  1  6  0  0  0
  7  5  1  0  0  0  0
  8  9  1  6  0  0  0
  8 10  1  0  0  0  0
 10 16  2  0  0  0  0
 11 10  1  0  0  0  0
 11 12  1  0  0  0  0
 12 14  2  0  0  0  0
 13 11  1  0  0  0  0
 14 16  1  0  0  0  0
 15 12  1  0  0  0  0
 16 17  1  0  0  0  0
 18 15  2  0  0  0  0
 19 13  2  0  0  0  0
 19 18  1  0  0  0  0
 21 20  1  0  0  0  0
 22 21  2  0  0  0  0
 23 22  1  0  0  0  0
 24 25  2  0  0  0  0
 24 22  1  0  0  0  0
 25 26  1  0  0  0  0
 26 20  2  0  0  0  0
 28 27  1  0  0  0  0
 29 35  1  0  0  0  0
 29 28  1  0  0  0  0
 30 29  1  0  0  0  0
 31 32  1  0  0  0  0
 31 30  1  0  0  0  0
 32 33  1  0  0  0  0
 33 34  1  0  0  0  0
 34 29  1  0  0  0  0
M  END
>  <Pose>
1

>  <Score>
-6.739

$$$$
