MODEL 1
REMARK VINA RESULT:    -6.739      0.000      0.000
REMARK INTER + INTRA:         -11.342
REMARK INTER:                  -9.103
REMARK INTRA:                  -2.240
REMARK UNBOUND:                -2.240
REMARK  6 active torsions:
REMARK  status: ('A' for Active; 'I' for Inactive)
REMARK    1  A    between atoms: C_4  and  C_8 
REMARK    2  A    between atoms: N_9  and  C_27 
REMARK    3  A    between atoms: C_14  and  C_15 
REMARK    4  A    between atoms: C_15  and  C_17 
REMARK    5  A    between atoms: C_27  and  C_28 
REMARK    6  A    between atoms: C_28  and  N_29 
ROOT
ATOM      1  C   UNK d   1      88.736  98.028 -44.425  0.00  0.00     0.161 C 
ATOM      2  N   UNK d   1      87.782  98.761 -43.715  0.00  0.00    -0.331 N 
ATOM      3  C   UNK d   1      88.510  99.697 -42.863  0.00  0.00     0.295 C 
ATOM      4  O   UNK d   1      88.037 100.630 -42.168  0.00  0.00    -0.264 OA
ATOM      5  C   UNK d   1      89.934  99.400 -42.916  0.00  0.00     0.251 C 
ATOM      6  O   UNK d   1      90.861 100.024 -42.299  0.00  0.00    -0.282 OA
ATOM      7  C   UNK d   1      90.076  98.276 -43.802  0.00  0.00     0.064 C 
ENDROOT
BRANCH   7   8
ATOM      8  C   UNK d   1      91.199  97.631 -44.044  0.00  0.00     0.149 C 
ATOM      9  O   UNK d   1      92.199  98.389 -44.698  0.00  0.00    -0.189 OA
BRANCH   8  10
ATOM     10  C   UNK d   1      91.485  96.248 -43.712  0.00  0.00     0.102 A 
ATOM     11  N   UNK d   1      91.480  95.118 -44.436  0.00  0.00    -0.302 N 
ATOM     12  C   UNK d   1      91.768  94.032 -43.702  0.00  0.00     0.134 A 
ATOM     13  C   UNK d   1      91.241  94.975 -45.768  0.00  0.00     0.099 A 
ATOM     14  N   UNK d   1      91.969  94.481 -42.444  0.00  0.00    -0.233 NA
ATOM     15  C   UNK d   1      91.833  92.765 -44.249  0.00  0.00     0.051 A 
ATOM     16  C   UNK d   1      91.808  95.806 -42.410  0.00  0.00     0.063 A 
ATOM     17  C   UNK d   1      91.939  96.683 -41.238  0.00  0.00     0.073 C 
ATOM     18  C   UNK d   1      91.593  92.609 -45.588  0.00  0.00     0.005 A 
ATOM     19  C   UNK d   1      91.297  93.727 -46.345  0.00  0.00     0.018 A 
ENDBRANCH   8  10
ENDBRANCH   7   8
BRANCH   1  20
ATOM     20  C   UNK d   1      88.805  98.003 -45.872  0.00  0.00    -0.029 A 
ATOM     21  C   UNK d   1      88.679  96.793 -46.568  0.00  0.00     0.028 A 
ATOM     22  C   UNK d   1      88.690  96.765 -47.946  0.00  0.00     0.011 A 
ATOM     23 Br   UNK d   1      88.516  95.125 -48.883  0.00  0.00    -0.051 Br
ATOM     24  C   UNK d   1      88.826  97.925 -48.682  0.00  0.00     0.019 A 
ATOM     25  C   UNK d   1      88.953  99.138 -48.030  0.00  0.00     0.002 A 
ATOM     26  C   UNK d   1      88.936  99.121 -46.666  0.00  0.00     0.009 A 
ENDBRANCH   1  20
BRANCH   2  27
ATOM     27  C   UNK d   1      86.373  98.617 -43.684  0.00  0.00     0.155 C 
BRANCH  27  28
ATOM     28  C   UNK d   1      85.690  97.605 -44.486  0.00  0.00     0.255 C 
BRANCH  28  29
ATOM     29  N   UNK d   1      84.512  97.933 -45.234  0.00  0.00    -0.066 N 
ATOM     30  C   UNK d   1      84.966  98.524 -46.493  0.00  0.00     0.261 C 
ATOM     31  C   UNK d   1      85.187  97.506 -47.565  0.00  0.00     0.195 C 
ATOM     32  O   UNK d   1      85.177  96.207 -47.035  0.00  0.00    -0.388 OA
ATOM     33  C   UNK d   1      83.892  96.006 -46.584  0.00  0.00     0.195 C 
ATOM     34  C   UNK d   1      83.609  96.844 -45.392  0.00  0.00     0.261 C 
ATOM     35  H   UNK d   1      83.973  98.733 -44.786  0.00  0.00     0.280 HD
ENDBRANCH  28  29
ENDBRANCH  27  28
ENDBRANCH   2  27
TORSDOF 6
ENDMDL
