MODEL 1
REMARK VINA RESULT:    -6.481      0.000      0.000
REMARK INTER + INTRA:         -10.617
REMARK INTER:                  -9.133
REMARK INTRA:                  -1.483
REMARK UNBOUND:                -1.483
REMARK  7 active torsions:
REMARK  status: ('A' for Active; 'I' for Inactive)
REMARK    1  A    between atoms: C_5  and  C_8 
REMARK    2  A    between atoms: C_8  and  C_10 
REMARK    3  A    between atoms: C_10  and  N_11 
REMARK    4  A    between atoms: C_13  and  C_21 
REMARK    5  A    between atoms: C_21  and  N_22 
REMARK    6  A    between atoms: N_22  and  C_23 
REMARK    7  A    between atoms: C_26  and  O_29 
ROOT
ATOM      1  N   UNK d   1      89.011  99.381 -44.090  0.00  0.00    -0.249 N 
ATOM      2  N   UNK d   1      89.569  98.776 -43.067  0.00  0.00    -0.155 NA
ATOM      3  C   UNK d   1      90.905  98.883 -43.127  0.00  0.00     0.145 A 
ATOM      4  N   UNK d   1      91.191  99.584 -44.234  0.00  0.00    -0.321 N 
ATOM      5  C   UNK d   1      90.001  99.890 -44.830  0.00  0.00     0.104 A 
ATOM      6  C   UNK d   1      89.829 100.649 -46.068  0.00  0.00     0.078 C 
ATOM      7  C   UNK d   1      90.536 100.024 -47.247  0.00  0.00     0.008 C 
ATOM      8  C   UNK d   1      92.038 100.184 -47.156  0.00  0.00     0.002 C 
ATOM      9  C   UNK d   1      92.658  99.333 -46.092  0.00  0.00     0.020 C 
ATOM     10  C   UNK d   1      92.513  99.944 -44.706  0.00  0.00     0.132 C 
ENDROOT
BRANCH   3  11
ATOM     11  C   UNK d   1      91.896  98.349 -42.183  0.00  0.00     0.200 C 
BRANCH  11  12
ATOM     12  N   UNK d   1      91.560  97.040 -41.713  0.00  0.00    -0.383 N 
ATOM     13  H   UNK d   1      91.261  96.902 -40.736  0.00  0.00     0.160 HD
BRANCH  12  14
ATOM     14  C   UNK d   1      91.617  95.881 -42.539  0.00  0.00     0.028 A 
ATOM     15  C   UNK d   1      91.516  95.950 -43.910  0.00  0.00     0.032 A 
ATOM     16  C   UNK d   1      91.577  94.828 -44.695  0.00  0.00     0.039 A 
ATOM     17  C   UNK d   1      91.741  93.610 -44.114  0.00  0.00     0.068 A 
ATOM     18  C   UNK d   1      91.842  93.537 -42.742  0.00  0.00     0.039 A 
ATOM     19  C   UNK d   1      91.782  94.659 -41.942  0.00  0.00     0.032 A 
BRANCH  17  20
ATOM     20  O   UNK d   1      91.805  92.467 -44.876  0.00  0.00    -0.356 OA
ATOM     21  C   UNK d   1      91.400  92.422 -46.222  0.00  0.00     0.210 C 
ENDBRANCH  17  20
ENDBRANCH  12  14
ENDBRANCH  11  12
ENDBRANCH   3  11
BRANCH   1  22
ATOM     22  C   UNK d   1      87.609  99.480 -44.368  0.00  0.00     0.236 C 
BRANCH  22  23
ATOM     23  C   UNK d   1      87.006  98.152 -44.655  0.00  0.00     0.179 C 
ATOM     24  O   UNK d   1      86.174  97.698 -43.825  0.00  0.00    -0.290 OA
BRANCH  23  25
ATOM     25  C   UNK d   1      87.332  97.373 -45.830  0.00  0.00     0.011 A 
ATOM     26  C   UNK d   1      88.602  96.898 -46.060  0.00  0.00     0.016 A 
ATOM     27  C   UNK d   1      88.901  96.150 -47.195  0.00  0.00     0.020 A 
ATOM     28  C   UNK d   1      87.913  95.870 -48.123  0.00  0.00     0.011 A 
ATOM     29 Br   UNK d   1      88.335  94.835 -49.690  0.00  0.00    -0.051 Br
ATOM     30  C   UNK d   1      86.640  96.340 -47.902  0.00  0.00     0.020 A 
ATOM     31  C   UNK d   1      86.373  97.075 -46.773  0.00  0.00     0.016 A 
ENDBRANCH  23  25
ENDBRANCH  22  23
ENDBRANCH   1  22
TORSDOF 7
ENDMDL
