/Users/jonathanwahrer/Desktop/Msc/3_Semester/Drug_Design_Praktikum/waehrer_HTS_screening/HTS_experiment/out/docking_results/vina_output/4agl/1487_docked.pdbqt
 OpenBabel03212200213D

 29 32  0  0  1  0  0  0  0  0999 V2000
   91.7540   97.4990  -45.7090 N   0  0  0  0  0  4  0  0  0  0  0  0
   92.7970   98.3700  -45.2270 C   0  0  0  0  0  2  0  0  0  0  0  0
   92.2990   99.7340  -44.9980 C   0  0  2  0  0  0  0  0  0  0  0  0
   90.9230   99.6610  -45.3990 N   0  0  0  0  0  0  0  0  0  0  0  0
   89.9790  100.6670  -45.8260 C   0  0  0  0  0  3  0  0  0  0  0  0
   88.7600  100.7960  -44.9700 C   0  0  0  0  0  3  0  0  0  0  0  0
   88.5810   99.7220  -43.9550 C   0  0  0  0  0  2  0  0  0  0  0  0
   88.1020   98.4480  -44.6880 C   0  0  0  0  0  2  0  0  0  0  0  0
   89.3900   97.7350  -45.0600 C   0  0  0  0  0  3  0  0  0  0  0  0
   90.5590   98.2540  -45.3600 C   0  0  0  0  0  0  0  0  0  0  0  0
   91.7050   97.3310  -46.7070 H   0  0  0  0  0  0  0  0  0  0  0  0
   92.9330  100.6280  -45.9060 O   0  0  0  0  0  0  0  0  0  0  0  0
   93.9270  100.4590  -45.7960 H   0  0  0  0  0  0  0  0  0  0  0  0
   92.5120  100.3090  -43.6910 C   0  0  0  0  0  0  0  0  0  0  0  0
   93.2860  101.4480  -43.4700 C   0  0  0  0  0  3  0  0  0  0  0  0
   93.4670  102.0100  -42.2140 C   0  0  0  0  0  0  0  0  0  0  0  0
   92.8450  101.4110  -41.1190 C   0  0  0  0  0  3  0  0  0  0  0  0
   92.0800  100.2930  -41.2910 C   0  0  0  0  0  3  0  0  0  0  0  0
   91.9210   99.7550  -42.5780 C   0  0  0  0  0  3  0  0  0  0  0  0
   94.2660  103.1670  -42.0640 N   0  0  0  0  0  0  0  0  0  0  0  0
   93.8860  104.0940  -41.2830 O   0  0  0  0  0  0  0  0  0  0  0  0
   95.4270  103.3560  -42.7150 O   0  0  0  0  0  0  0  0  0  0  0  0
   91.6210   96.2650  -45.0170 C   0  0  0  0  0  0  0  0  0  0  0  0
   91.6890   96.1670  -43.6500 C   0  0  0  0  0  3  0  0  0  0  0  0
   91.6690   94.9440  -42.9850 C   0  0  0  0  0  0  0  0  0  0  0  0
   91.7240   94.8780  -41.2300 Cl  0  0  0  0  0  0  0  0  0  0  0  0
   91.5770   93.7690  -43.7040 C   0  0  0  0  0  3  0  0  0  0  0  0
   91.5110   93.8230  -45.0710 C   0  0  0  0  0  3  0  0  0  0  0  0
   91.5330   95.0550  -45.7150 C   0  0  0  0  0  3  0  0  0  0  0  0
  1 10  1  0  0  0  0
  1  2  1  0  0  0  0
  1 23  1  0  0  0  0
  2  3  1  0  0  0  0
  3 12  1  6  0  0  0
  3 14  1  0  0  0  0
  4 10  1  0  0  0  0
  4  3  1  0  0  0  0
  5  4  1  0  0  0  0
  5  6  2  0  0  0  0
  6  7  1  0  0  0  0
  8  7  1  0  0  0  0
  9  8  1  0  0  0  0
 10  9  2  0  0  0  0
 11  1  1  0  0  0  0
 12 13  1  0  0  0  0
 14 15  2  0  0  0  0
 14 19  1  0  0  0  0
 15 16  1  0  0  0  0
 16 20  1  0  0  0  0
 16 17  2  0  0  0  0
 18 17  1  0  0  0  0
 19 18  2  0  0  0  0
 20 21  2  0  0  0  0
 22 20  2  0  0  0  0
 23 24  1  0  0  0  0
 24 25  2  0  0  0  0
 25 26  1  0  0  0  0
 27 25  1  0  0  0  0
 28 27  2  0  0  0  0
 29 28  1  0  0  0  0
 29 23  2  0  0  0  0
M  END
>  <Pose>
1

>  <Score>
-6.650

$$$$
