MODEL 1
REMARK VINA RESULT:    -6.650      0.000      0.000
REMARK INTER + INTRA:          -8.958
REMARK INTER:                  -8.011
REMARK INTRA:                  -0.947
REMARK UNBOUND:                -0.947
REMARK  4 active torsions:
REMARK  status: ('A' for Active; 'I' for Inactive)
REMARK    1  A    between atoms: C_4  and  N_8 
REMARK    2  A    between atoms: C_10  and  O_18 
REMARK    3  A    between atoms: C_10  and  C_19 
REMARK    4  A    between atoms: C_21  and  N_25 
ROOT
ATOM      1  N   UNK d   1      91.754  97.499 -45.709  0.00  0.00     0.009 N 
ATOM      2  C   UNK d   1      92.797  98.370 -45.227  0.00  0.00     0.316 C 
ATOM      3  C   UNK d   1      92.299  99.734 -44.998  0.00  0.00     0.189 C 
ATOM      4  N   UNK d   1      90.923  99.661 -45.399  0.00  0.00    -0.324 N 
ATOM      5  C   UNK d   1      89.979 100.667 -45.826  0.00  0.00     0.128 C 
ATOM      6  C   UNK d   1      88.760 100.796 -44.970  0.00  0.00     0.020 C 
ATOM      7  C   UNK d   1      88.581  99.722 -43.955  0.00  0.00     0.005 C 
ATOM      8  C   UNK d   1      88.102  98.448 -44.688  0.00  0.00     0.031 C 
ATOM      9  C   UNK d   1      89.390  97.735 -45.060  0.00  0.00     0.030 C 
ATOM     10  C   UNK d   1      90.559  98.254 -45.360  0.00  0.00     0.208 C 
ATOM     11  H   UNK d   1      91.705  97.331 -46.707  0.00  0.00     0.295 HD
ENDROOT
BRANCH   3  12
ATOM     12  O   UNK d   1      92.933 100.628 -45.906  0.00  0.00    -0.365 OA
ATOM     13  H   UNK d   1      93.927 100.459 -45.796  0.00  0.00     0.213 HD
ENDBRANCH   3  12
BRANCH   3  14
ATOM     14  C   UNK d   1      92.512 100.309 -43.691  0.00  0.00     0.001 A 
ATOM     15  C   UNK d   1      93.286 101.448 -43.470  0.00  0.00     0.048 A 
ATOM     16  C   UNK d   1      93.467 102.010 -42.214  0.00  0.00     0.103 A 
ATOM     17  C   UNK d   1      92.845 101.411 -41.119  0.00  0.00     0.036 A 
ATOM     18  C   UNK d   1      92.080 100.293 -41.291  0.00  0.00     0.003 A 
ATOM     19  C   UNK d   1      91.921  99.755 -42.578  0.00  0.00     0.012 A 
BRANCH  16  20
ATOM     20  N   UNK d   1      94.266 103.167 -42.064  0.00  0.00    -0.116 N 
ATOM     21  O   UNK d   1      93.886 104.094 -41.283  0.00  0.00    -0.532 OA
ATOM     22  O   UNK d   1      95.427 103.356 -42.715  0.00  0.00    -0.532 OA
ENDBRANCH  16  20
ENDBRANCH   3  14
BRANCH   1  23
ATOM     23  C   UNK d   1      91.621  96.265 -45.017  0.00  0.00     0.143 A 
ATOM     24  C   UNK d   1      91.689  96.167 -43.650  0.00  0.00     0.061 A 
ATOM     25  C   UNK d   1      91.669  94.944 -42.985  0.00  0.00     0.036 A 
ATOM     26 Cl   UNK d   1      91.724  94.878 -41.230  0.00  0.00    -0.084 Cl
ATOM     27  C   UNK d   1      91.577  93.769 -43.704  0.00  0.00     0.024 A 
ATOM     28  C   UNK d   1      91.511  93.823 -45.071  0.00  0.00     0.004 A 
ATOM     29  C   UNK d   1      91.533  95.055 -45.715  0.00  0.00     0.038 A 
ENDBRANCH   1  23
TORSDOF 4
ENDMDL
