MODEL 1
REMARK VINA RESULT:    -6.297      0.000      0.000
REMARK INTER + INTRA:          -8.419
REMARK INTER:                  -7.770
REMARK INTRA:                  -0.650
REMARK UNBOUND:                -0.650
REMARK  4 active torsions:
REMARK  status: ('A' for Active; 'I' for Inactive)
REMARK    1  A    between atoms: C_7  and  N_8 
REMARK    2  A    between atoms: C_14  and  C_16 
REMARK    3  A    between atoms: N_23  and  C_31 
REMARK    4  A    between atoms: C_25  and  C_28 
ROOT
ATOM      1  F   UNK d   1      88.024 102.663 -43.169  0.00  0.00    -0.204 F 
ATOM      2  C   UNK d   1      89.123 102.523 -42.406  0.00  0.00     0.151 A 
ATOM      3  C   UNK d   1      89.242 103.477 -41.399  0.00  0.00     0.062 A 
ATOM      4  C   UNK d   1      90.314 103.451 -40.536  0.00  0.00     0.045 A 
ATOM      5  C   UNK d   1      91.253 102.461 -40.699  0.00  0.00     0.051 A 
ATOM      6  C   UNK d   1      91.116 101.516 -41.711  0.00  0.00     0.071 A 
ATOM      7  C   UNK d   1      90.056 101.531 -42.577  0.00  0.00     0.175 A 
ATOM      8  N   UNK d   1      92.293 102.455 -39.841  0.00  0.00    -0.350 N 
ATOM      9  C   UNK d   1      92.430 103.366 -38.861  0.00  0.00     0.114 A 
ATOM     10  C   UNK d   1      91.507 104.371 -38.671  0.00  0.00     0.107 A 
ATOM     11  C   UNK d   1      90.429 104.414 -39.524  0.00  0.00     0.202 A 
ATOM     12  O   UNK d   1      89.552 105.302 -39.406  0.00  0.00    -0.286 OA
ENDROOT
BRANCH   7  13
ATOM     13  N   UNK d   1      89.958 100.572 -43.585  0.00  0.00    -0.035 N 
ATOM     14  C   UNK d   1      89.574  99.252 -43.155  0.00  0.00     0.261 C 
ATOM     15  C   UNK d   1      89.363  98.340 -44.387  0.00  0.00     0.153 C 
ATOM     16  N   UNK d   1      90.624  98.250 -45.010  0.00  0.00    -0.356 N 
ATOM     17  C   UNK d   1      91.003  99.586 -45.616  0.00  0.00     0.153 C 
ATOM     18  C   UNK d   1      91.541  97.260 -45.121  0.00  0.00     0.187 C 
ATOM     19  C   UNK d   1      91.114 100.473 -44.414  0.00  0.00     0.261 C 
ATOM     20  O   UNK d   1      92.585  97.542 -45.861  0.00  0.00    -0.171 OA
ATOM     21  H   UNK d   1      89.169 100.895 -44.226  0.00  0.00     0.287 HD
BRANCH  18  22
ATOM     22  C   UNK d   1      91.578  95.935 -44.567  0.00  0.00     0.019 A 
ATOM     23  C   UNK d   1      91.503  94.796 -45.300  0.00  0.00     0.039 A 
ATOM     24  C   UNK d   1      91.599  93.534 -44.726  0.00  0.00     0.035 A 
ATOM     25  C   UNK d   1      91.772  93.428 -43.370  0.00  0.00     0.024 A 
ATOM     26 Cl   UNK d   1      91.499  92.080 -45.722  0.00  0.00    -0.084 Cl
ATOM     27  C   UNK d   1      91.851  94.543 -42.585  0.00  0.00     0.003 A 
ATOM     28  C   UNK d   1      91.755  95.766 -43.178  0.00  0.00     0.016 A 
ENDBRANCH  18  22
ENDBRANCH   7  13
BRANCH   8  29
ATOM     29  C   UNK d   1      93.285 101.391 -40.032  0.00  0.00     0.090 A 
ATOM     30  C   UNK d   1      94.557 101.404 -39.302  0.00  0.00     0.028 A 
ATOM     31  C   UNK d   1      94.619 101.890 -40.681  0.00  0.00     0.028 A 
ENDBRANCH   8  29
BRANCH  10  32
ATOM     32  C   UNK d   1      91.672 105.362 -37.591  0.00  0.00     0.214 C 
ATOM     33  O   UNK d   1      90.927 105.398 -36.599  0.00  0.00    -0.644 OA
ATOM     34  O   UNK d   1      92.698 106.274 -37.702  0.00  0.00    -0.644 OA
ENDBRANCH  10  32
TORSDOF 4
ENDMDL
