MODEL 1
REMARK VINA RESULT:    -6.256      0.000      0.000
REMARK INTER + INTRA:          -9.970
REMARK INTER:                  -8.450
REMARK INTRA:                  -1.520
REMARK UNBOUND:                -1.520
REMARK  6 active torsions:
REMARK  status: ('A' for Active; 'I' for Inactive)
REMARK    1  A    between atoms: C_5  and  C_8 
REMARK       I    between atoms: C_8  and  N_10 
REMARK    2  A    between atoms: N_10  and  C_11 
REMARK    3  A    between atoms: C_11  and  C_12 
REMARK    4  A    between atoms: C_12  and  N_13 
REMARK       I    between atoms: N_13  and  C_14 
REMARK    5  A    between atoms: C_14  and  C_16 
REMARK    6  A    between atoms: N_19  and  C_22 
ROOT
ATOM      1  N   UNK d   1      88.178  98.932 -43.445  0.00  0.00    -0.359 N 
ATOM      2  C   UNK d   1      89.268  99.603 -44.108  0.00  0.00     0.222 C 
ATOM      3  O   UNK d   1      89.020 100.545 -44.877  0.00  0.00    -0.273 OA
ATOM      4  H   UNK d   1      88.457  98.191 -42.808  0.00  0.00     0.162 HD
ENDROOT
BRANCH   2   5
ATOM      5  C   UNK d   1      90.676  99.194 -43.892  0.00  0.00     0.081 C 
ATOM      6  C   UNK d   1      91.211  98.650 -45.198  0.00  0.00     0.034 C 
ATOM      7  C   UNK d   1      90.544  97.314 -45.433  0.00  0.00     0.125 C 
ATOM      8  N   UNK d   1      91.110  96.412 -44.434  0.00  0.00    -0.364 N 
ATOM      9  C   UNK d   1      91.437  96.900 -43.138  0.00  0.00     0.125 C 
ATOM     10  C   UNK d   1      90.854  98.220 -42.787  0.00  0.00     0.034 C 
BRANCH   8  11
ATOM     11  C   UNK d   1      91.310  95.064 -44.812  0.00  0.00     0.148 A 
ATOM     12  N   UNK d   1      90.878  94.560 -45.984  0.00  0.00    -0.129 NA
ATOM     13  N   UNK d   1      91.055  93.304 -46.350  0.00  0.00    -0.108 N 
ATOM     14  N   UNK d   1      90.705  92.642 -47.448  0.00  0.00    -0.021 NA
ATOM     15  C   UNK d   1      91.687  92.415 -45.576  0.00  0.00     0.196 A 
ATOM     16  N   UNK d   1      91.094  91.397 -47.376  0.00  0.00    -0.021 NA
ATOM     17  N   UNK d   1      91.707  91.230 -46.223  0.00  0.00    -0.107 NA
ATOM     18  C   UNK d   1      92.155  92.871 -44.357  0.00  0.00     0.060 A 
ATOM     19  C   UNK d   1      91.971  94.184 -43.972  0.00  0.00     0.056 A 
ENDBRANCH   8  11
ENDBRANCH   2   5
BRANCH   1  20
ATOM     20  C   UNK d   1      86.875  99.398 -43.716  0.00  0.00     0.142 C 
BRANCH  20  21
ATOM     21  C   UNK d   1      85.924  98.628 -44.534  0.00  0.00     0.142 C 
BRANCH  21  22
ATOM     22  N   UNK d   1      86.428  97.802 -45.563  0.00  0.00    -0.355 N 
ATOM     23  C   UNK d   1      85.785  97.019 -46.510  0.00  0.00     0.251 C 
ATOM     24  O   UNK d   1      84.539  96.955 -46.580  0.00  0.00    -0.268 OA
ATOM     25  H   UNK d   1      87.534  97.737 -45.657  0.00  0.00     0.162 HD
BRANCH  23  26
ATOM     26  C   UNK d   1      86.523  96.204 -47.504  0.00  0.00     0.032 A 
ATOM     27  C   UNK d   1      85.825  95.425 -48.401  0.00  0.00     0.018 A 
ATOM     28  C   UNK d   1      86.467  94.660 -49.346  0.00  0.00     0.025 A 
ATOM     29  C   UNK d   1      87.850  94.668 -49.401  0.00  0.00     0.034 A 
ATOM     30 Cl   UNK d   1      88.680  93.693 -50.603  0.00  0.00    -0.084 Cl
ATOM     31  C   UNK d   1      88.575  95.431 -48.525  0.00  0.00     0.025 A 
ATOM     32  C   UNK d   1      87.891  96.197 -47.578  0.00  0.00     0.018 A 
ENDBRANCH  23  26
ENDBRANCH  21  22
ENDBRANCH  20  21
ENDBRANCH   1  20
TORSDOF 6
ENDMDL
