/Users/jonathanwahrer/Desktop/Msc/3_Semester/Drug_Design_Praktikum/waehrer_HTS_screening/HTS_experiment/out/docking_results/vina_output/4agl/1507_docked.pdbqt
 OpenBabel03212200223D

 32 35  0  0  1  0  0  0  0  0999 V2000
   91.7280  101.6420  -45.4970 C   0  0  0  0  0  0  0  0  0  0  0  0
   92.1870  100.4410  -45.2100 C   0  0  0  0  0  0  0  0  0  0  0  0
   92.4950   99.8290  -43.8760 C   0  0  2  0  0  3  0  0  0  0  0  0
   91.9920   98.5130  -44.0330 N   0  0  0  0  0  0  0  0  0  0  0  0
   92.4500   98.1260  -45.3640 C   0  0  0  0  0  0  0  0  0  0  0  0
   92.6930   96.9660  -45.7870 O   0  0  0  0  0  0  0  0  0  0  0  0
   92.5740   99.3660  -46.1230 C   0  0  0  0  0  0  0  0  0  0  0  0
   92.9370   99.5570  -47.3310 O   0  0  0  0  0  0  0  0  0  0  0  0
   91.4540  102.5780  -44.5160 O   0  0  0  0  0  1  0  0  0  0  0  0
   91.4880  102.0480  -46.8770 C   0  0  0  0  0  0  0  0  0  0  0  0
   92.4160  102.7820  -47.5930 C   0  0  0  0  0  3  0  0  0  0  0  0
   92.1060  103.1500  -48.8720 C   0  0  0  0  0  3  0  0  0  0  0  0
   90.9210  102.8350  -49.4970 C   0  0  0  0  0  0  0  0  0  0  0  0
   90.5580  103.3890  -51.3020 Br  0  0  0  0  0  0  0  0  0  0  0  0
   89.9900  102.1040  -48.7880 C   0  0  0  0  0  3  0  0  0  0  0  0
   90.2950  101.7210  -47.4780 C   0  0  0  0  0  3  0  0  0  0  0  0
   92.1810  100.6560  -42.7590 C   0  0  0  0  0  0  0  0  0  0  0  0
   90.9000  100.6540  -42.2630 C   0  0  0  0  0  3  0  0  0  0  0  0
   90.5240  101.4110  -41.1790 C   0  0  0  0  0  3  0  0  0  0  0  0
   91.4460  102.2210  -40.5340 C   0  0  0  0  0  0  0  0  0  0  0  0
   92.7280  102.2090  -41.0470 C   0  0  0  0  0  3  0  0  0  0  0  0
   90.9830  103.1870  -39.1550 Cl  0  0  0  0  0  0  0  0  0  0  0  0
   93.0960  101.4480  -42.1340 C   0  0  0  0  0  3  0  0  0  0  0  0
   91.2570   97.5970  -43.1810 C   0  0  0  0  0  2  0  0  0  0  0  0
   92.0400   96.7360  -42.2690 C   0  0  0  0  0  2  0  0  0  0  0  0
   91.5160   95.3720  -42.1350 N   0  0  0  0  0  4  0  0  0  0  0  0
   92.3000   94.6300  -41.2080 C   0  0  0  0  0  2  0  0  0  0  0  0
   93.0550   93.4670  -41.7520 C   0  0  0  0  0  2  0  0  0  0  0  0
   92.5060   92.8690  -42.8700 O   0  0  0  0  0  0  0  0  0  0  0  0
   92.4920   93.8820  -43.8560 C   0  0  0  0  0  2  0  0  0  0  0  0
   91.4140   94.8260  -43.4560 C   0  0  0  0  0  2  0  0  0  0  0  0
   90.5270   95.5060  -41.7590 H   0  0  0  0  0  0  0  0  0  0  0  0
  1  2  2  0  0  0  0
  1  9  1  0  0  0  0
  2  3  1  0  0  0  0
  3 17  1  1  0  0  0
  4  3  1  0  0  0  0
  4 24  1  0  0  0  0
  5  4  1  0  0  0  0
  6  5  2  0  0  0  0
  7  5  1  0  0  0  0
  7  2  1  0  0  0  0
  8  7  2  0  0  0  0
 10  1  1  0  0  0  0
 11 10  2  0  0  0  0
 12 11  1  0  0  0  0
 13 12  2  0  0  0  0
 13 15  1  0  0  0  0
 14 13  1  0  0  0  0
 15 16  2  0  0  0  0
 16 10  1  0  0  0  0
 17 18  2  0  0  0  0
 17 23  1  0  0  0  0
 18 19  1  0  0  0  0
 19 20  2  0  0  0  0
 20 22  1  0  0  0  0
 21 20  1  0  0  0  0
 23 21  2  0  0  0  0
 24 25  1  0  0  0  0
 25 26  1  0  0  0  0
 26 32  1  0  0  0  0
 26 27  1  0  0  0  0
 28 27  1  0  0  0  0
 29 28  1  0  0  0  0
 30 31  1  0  0  0  0
 30 29  1  0  0  0  0
 31 26  1  0  0  0  0
M  END
>  <Pose>
1

>  <Score>
-5.813

$$$$
