/Users/jonathanwahrer/Desktop/Msc/3_Semester/Drug_Design_Praktikum/waehrer_HTS_screening/HTS_experiment/out/docking_results/vina_output/4agl/1511_docked.pdbqt
 OpenBabel03212200233D

 34 37  0  0  0  0  0  0  0  0999 V2000
   92.6980  102.1430  -42.5320 N   0  0  0  0  0  0  0  0  0  0  0  0
   91.9580  101.2420  -43.1990 C   0  0  0  0  0  0  0  0  0  0  0  0
   91.1890  100.4360  -42.6150 O   0  0  0  0  0  0  0  0  0  0  0  0
   92.1650  101.3370  -44.5650 C   0  0  0  0  0  0  0  0  0  0  0  0
   93.0470  102.3140  -44.7300 C   0  0  0  0  0  0  0  0  0  0  0  0
   93.2480  102.4050  -46.0540 N   0  0  0  0  0  0  0  0  0  0  0  0
   92.5080  101.5080  -46.6800 N   0  0  0  0  0  0  0  0  0  0  0  0
   91.8330  100.8410  -45.7810 N   0  0  0  0  0  0  0  0  0  0  0  0
   93.3800  102.8130  -43.4880 C   0  0  0  0  0  0  0  0  0  0  0  0
   94.2040  103.7620  -43.2700 O   0  0  0  0  0  0  0  0  0  0  0  0
   93.8800  103.0660  -46.5470 H   0  0  0  0  0  0  0  0  0  0  0  0
   92.4500  101.3380  -47.7280 H   0  0  0  0  0  0  0  0  0  0  0  0
   90.8980   99.7640  -46.0000 C   0  0  0  0  0  2  0  0  0  0  0  0
   91.4830   98.4810  -45.4570 C   0  0  0  0  0  0  0  0  0  0  0  0
   92.5600   98.0550  -45.9290 O   0  0  0  0  0  0  0  0  0  0  0  0
   90.8210   97.7830  -44.4370 N   0  0  0  0  0  0  0  0  0  0  0  0
   89.9040   98.2080  -44.0810 H   0  0  0  0  0  0  0  0  0  0  0  0
   91.2580   96.5840  -43.8390 C   0  0  0  0  0  0  0  0  0  0  0  0
   91.4320   95.3820  -44.4770 C   0  0  0  0  0  3  0  0  0  0  0  0
   91.8470   94.2370  -43.8290 C   0  0  0  0  0  0  0  0  0  0  0  0
   92.0980   94.3130  -42.4760 C   0  0  0  0  0  0  0  0  0  0  0  0
   91.9370   95.5090  -41.7940 C   0  0  0  0  0  3  0  0  0  0  0  0
   91.5220   96.6320  -42.4570 C   0  0  0  0  0  3  0  0  0  0  0  0
   92.0140   93.0300  -44.5050 O   0  0  0  0  0  0  0  0  0  0  0  0
   91.4010   92.9020  -45.7940 C   0  0  0  0  0  1  0  0  0  0  0  0
   92.5190   93.1690  -41.8030 O   0  0  0  0  0  0  0  0  0  0  0  0
   93.8960   92.9940  -41.5350 C   0  0  0  0  0  1  0  0  0  0  0  0
   92.7960  102.3940  -41.1350 C   0  0  0  0  0  0  0  0  0  0  0  0
   93.8470  101.9450  -40.3630 C   0  0  0  0  0  3  0  0  0  0  0  0
   93.9100  102.2100  -38.9980 C   0  0  0  0  0  3  0  0  0  0  0  0
   92.9180  102.9320  -38.3660 C   0  0  0  0  0  0  0  0  0  0  0  0
   92.9970  103.2990  -36.4880 Br  0  0  0  0  0  0  0  0  0  0  0  0
   91.8690  103.3770  -39.1450 C   0  0  0  0  0  3  0  0  0  0  0  0
   91.8090  103.1140  -40.4990 C   0  0  0  0  0  3  0  0  0  0  0  0
  1 28  1  0  0  0  0
  2  3  2  0  0  0  0
  2  1  1  0  0  0  0
  4  2  1  0  0  0  0
  5  4  2  0  0  0  0
  5  9  1  0  0  0  0
  6  5  1  0  0  0  0
  7  6  1  0  0  0  0
  7  8  1  0  0  0  0
  8  4  1  0  0  0  0
  9 10  2  0  0  0  0
  9  1  1  0  0  0  0
 11  6  1  0  0  0  0
 12  7  1  0  0  0  0
 13  8  1  0  0  0  0
 13 14  1  0  0  0  0
 14 16  1  0  0  0  0
 15 14  2  0  0  0  0
 16 17  1  0  0  0  0
 16 18  1  0  0  0  0
 18 23  1  0  0  0  0
 19 18  2  0  0  0  0
 19 20  1  0  0  0  0
 20 21  2  0  0  0  0
 21 26  1  0  0  0  0
 21 22  1  0  0  0  0
 23 22  2  0  0  0  0
 24 20  1  0  0  0  0
 25 24  1  0  0  0  0
 26 27  1  0  0  0  0
 28 34  2  0  0  0  0
 28 29  1  0  0  0  0
 29 30  2  0  0  0  0
 30 31  1  0  0  0  0
 31 32  1  0  0  0  0
 33 31  2  0  0  0  0
 34 33  1  0  0  0  0
M  END
>  <Pose>
1

>  <Score>
-6.549

$$$$
