/Users/jonathanwahrer/Desktop/Msc/3_Semester/Drug_Design_Praktikum/waehrer_HTS_screening/HTS_experiment/out/docking_results/vina_output/4agl/1516_docked.pdbqt
 OpenBabel03212200233D

 30 33  0  0  1  0  0  0  0  0999 V2000
   91.0990   99.8140  -42.9190 C   0  0  0  0  0  0  0  0  0  0  0  0
   91.4630  100.7240  -42.0440 O   0  0  0  0  0  0  0  0  0  0  0  0
   89.8070   99.9750  -43.3990 N   0  0  0  0  0  0  0  0  0  0  0  0
   89.1980   99.1350  -44.3780 C   0  0  0  0  0  2  0  0  0  0  0  0
   87.9130   99.8370  -44.8730 C   0  0  0  0  0  2  0  0  0  0  0  0
   86.9410   99.8190  -43.7080 C   0  0  2  0  0  0  0  0  0  0  0  0
   86.6690   98.4880  -43.3520 N   0  0  0  0  0  0  0  0  0  0  0  0
   85.6710   97.7590  -44.0100 C   0  0  0  0  0  2  0  0  0  0  0  0
   84.4430   98.4830  -44.4150 C   0  0  0  0  0  2  0  0  0  0  0  0
   84.5950   99.9530  -44.4250 C   0  0  0  0  0  0  0  0  0  0  0  0
   83.6700  100.8810  -44.7390 N   0  0  0  0  0  0  0  0  0  0  0  0
   84.2330  102.0870  -44.6160 C   0  0  0  0  0  3  0  0  0  0  0  0
   85.5150  101.9160  -44.2220 N   0  0  0  0  0  0  0  0  0  0  0  0
   85.7560  100.5970  -44.0990 C   0  0  0  0  0  0  0  0  0  0  0  0
   87.6440  100.4830  -42.5110 C   0  0  0  0  0  2  0  0  0  0  0  0
   88.9710  101.0760  -42.8940 C   0  0  0  0  0  2  0  0  0  0  0  0
   87.3060   97.9990  -42.7350 H   0  0  0  0  0  0  0  0  0  0  0  0
   86.1940  102.6790  -44.0480 H   0  0  0  0  0  0  0  0  0  0  0  0
   92.1310   98.8210  -43.2080 C   0  0  0  0  0  2  0  0  0  0  0  0
   91.9460   97.5450  -42.7450 N   0  0  0  0  0  0  0  0  0  0  0  0
   91.7620   96.2840  -42.2850 C   0  0  0  0  0  0  0  0  0  0  0  0
   91.6200   95.9210  -41.0880 O   0  0  0  0  0  0  0  0  0  0  0  0
   91.9640   98.0360  -41.4590 H   0  0  0  0  0  0  0  0  0  0  0  0
   91.7190   95.1730  -43.2910 C   0  0  0  0  0  0  0  0  0  0  0  0
   91.9200   93.8930  -42.8650 C   0  0  0  0  0  3  0  0  0  0  0  0
   91.8820   92.8460  -43.7920 C   0  0  0  0  0  3  0  0  0  0  0  0
   91.6460   93.1400  -45.1050 C   0  0  0  0  0  0  0  0  0  0  0  0
   91.6050   91.8220  -46.2680 Cl  0  0  0  0  0  0  0  0  0  0  0  0
   91.4460   94.4210  -45.5310 C   0  0  0  0  0  3  0  0  0  0  0  0
   91.4850   95.4690  -44.5900 C   0  0  0  0  0  3  0  0  0  0  0  0
  1  2  2  0  0  0  0
  3  1  1  0  0  0  0
  3 16  1  0  0  0  0
  4  3  1  0  0  0  0
  5  4  1  0  0  0  0
  6  5  1  6  0  0  0
  6  7  1  0  0  0  0
  6 15  1  0  0  0  0
  7 17  1  0  0  0  0
  8  7  1  0  0  0  0
  9  8  1  0  0  0  0
 10  9  1  0  0  0  0
 10 14  2  0  0  0  0
 11 12  2  0  0  0  0
 11 10  1  0  0  0  0
 12 13  1  0  0  0  0
 13 14  1  0  0  0  0
 13 18  1  0  0  0  0
 14  6  1  0  0  0  0
 16 15  1  0  0  0  0
 19  1  1  0  0  0  0
 19 20  1  0  0  0  0
 20 21  1  0  0  0  0
 20 23  1  0  0  0  0
 21 22  2  0  0  0  0
 24 25  1  0  0  0  0
 24 21  1  0  0  0  0
 26 25  2  0  0  0  0
 27 26  1  0  0  0  0
 28 27  1  0  0  0  0
 29 27  2  0  0  0  0
 29 30  1  0  0  0  0
 30 24  2  0  0  0  0
M  END
>  <Pose>
1

>  <Score>
-6.896

$$$$
