/Users/jonathanwahrer/Desktop/Msc/3_Semester/Drug_Design_Praktikum/waehrer_HTS_screening/HTS_experiment/out/docking_results/vina_output/4agl/1518_docked.pdbqt
 OpenBabel03212200233D

 31 34  0  0  1  0  0  0  0  0999 V2000
   90.7250   95.5050  -45.8790 C   0  0  0  0  0  0  0  0  0  0  0  0
   89.7670   95.2470  -46.6480 O   0  0  0  0  0  0  0  0  0  0  0  0
   90.6850   96.6460  -45.0450 N   0  0  0  0  0  0  0  0  0  0  0  0
   91.7580   96.9980  -44.1380 C   0  0  0  0  0  2  0  0  0  0  0  0
   91.1350   97.6700  -42.9240 C   0  0  0  0  0  2  0  0  0  0  0  0
   90.4540   98.9770  -43.3310 C   0  0  1  0  0  0  0  0  0  0  0  0
   89.3050   99.1250  -42.4860 N   0  0  0  0  0  0  0  0  0  0  0  0
   88.8510  100.4980  -42.4210 C   0  0  0  0  0  2  0  0  0  0  0  0
   89.8640  101.3050  -41.6110 C   0  0  0  0  0  2  0  0  0  0  0  0
   91.1590  101.2030  -42.3430 C   0  0  0  0  0  0  0  0  0  0  0  0
   92.2410  102.0360  -42.3970 N   0  0  0  0  0  0  0  0  0  0  0  0
   93.1530  101.4750  -43.2100 C   0  0  0  0  0  3  0  0  0  0  0  0
   92.6490  100.3100  -43.6560 N   0  0  0  0  0  0  0  0  0  0  0  0
   91.4030  100.1040  -43.1360 C   0  0  0  0  0  0  0  0  0  0  0  0
   90.0050   98.9190  -44.7750 C   0  0  0  0  0  2  0  0  0  0  0  0
   89.5330   97.5270  -45.0730 C   0  0  0  0  0  2  0  0  0  0  0  0
   88.5260   98.5030  -42.7820 H   0  0  0  0  0  0  0  0  0  0  0  0
   92.2700  102.9350  -41.8660 H   0  0  0  0  0  0  0  0  0  0  0  0
   91.8850   94.5860  -45.8760 C   0  0  0  0  0  2  0  0  0  0  0  0
   91.5040   93.1720  -45.5690 C   0  0  0  0  0  2  0  0  0  0  0  0
   90.9250   92.5580  -46.7480 N   0  0  0  0  0  0  0  0  0  0  0  0
   91.4730   91.4530  -47.4010 C   0  0  0  0  0  0  0  0  0  0  0  0
   92.5320   90.9290  -46.9720 O   0  0  0  0  0  0  0  0  0  0  0  0
   90.0410   93.0040  -47.0920 H   0  0  0  0  0  0  0  0  0  0  0  0
   90.8630   90.8610  -48.5880 C   0  0  0  0  0  0  0  0  0  0  0  0
   90.0140   89.7790  -48.5160 C   0  0  0  0  0  3  0  0  0  0  0  0
   89.4650   89.2590  -49.6790 C   0  0  0  0  0  3  0  0  0  0  0  0
   89.7510   89.8020  -50.9230 C   0  0  0  0  0  0  0  0  0  0  0  0
   89.0150   89.0830  -52.3420 Cl  0  0  0  0  0  0  0  0  0  0  0  0
   90.6010   90.8850  -51.0080 C   0  0  0  0  0  3  0  0  0  0  0  0
   91.1320   91.3860  -49.8510 C   0  0  0  0  0  3  0  0  0  0  0  0
  1 19  1  0  0  0  0
  1  3  1  0  0  0  0
  2  1  2  0  0  0  0
  3  4  1  0  0  0  0
  4  5  1  0  0  0  0
  6 15  1  6  0  0  0
  6 14  1  0  0  0  0
  6  5  1  0  0  0  0
  6  7  1  0  0  0  0
  7  8  1  0  0  0  0
  8  9  1  0  0  0  0
 10  9  1  0  0  0  0
 11 10  1  0  0  0  0
 11 18  1  0  0  0  0
 12 11  1  0  0  0  0
 13 12  2  0  0  0  0
 13 14  1  0  0  0  0
 14 10  2  0  0  0  0
 16  3  1  0  0  0  0
 16 15  1  0  0  0  0
 17  7  1  0  0  0  0
 19 20  1  0  0  0  0
 21 20  1  0  0  0  0
 22 23  2  0  0  0  0
 22 21  1  0  0  0  0
 24 21  1  0  0  0  0
 25 26  1  0  0  0  0
 25 22  1  0  0  0  0
 27 26  2  0  0  0  0
 28 27  1  0  0  0  0
 29 28  1  0  0  0  0
 30 28  2  0  0  0  0
 30 31  1  0  0  0  0
 31 25  2  0  0  0  0
M  END
>  <Pose>
1

>  <Score>
-7.247

$$$$
