/Users/jonathanwahrer/Desktop/Msc/3_Semester/Drug_Design_Praktikum/waehrer_HTS_screening/HTS_experiment/out/docking_results/vina_output/4agl/1521_docked.pdbqt
 OpenBabel03212200233D

 24 27  0  0  1  0  0  0  0  0999 V2000
   91.8250   92.9780  -44.9270 Cl  0  0  0  0  0  0  0  0  0  0  0  0
   91.7540   94.2450  -43.7200 C   0  0  0  0  0  0  0  0  0  0  0  0
   91.5960   95.5500  -44.1180 C   0  0  0  0  0  0  0  0  0  0  0  0
   91.4700   96.1650  -45.3060 N   0  0  0  0  0  0  0  0  0  0  0  0
   91.3360   97.4970  -45.1620 C   0  0  0  0  0  0  0  0  0  0  0  0
   91.3820   97.7260  -43.8030 C   0  0  0  0  0  0  0  0  0  0  0  0
   91.5430   96.5290  -43.1400 C   0  0  0  0  0  0  0  0  0  0  0  0
   91.6500   96.1660  -41.8130 C   0  0  0  0  0  3  0  0  0  0  0  0
   91.8090   94.8700  -41.3890 C   0  0  0  0  0  3  0  0  0  0  0  0
   91.8610   93.8900  -42.3740 C   0  0  0  0  0  3  0  0  0  0  0  0
   91.2510   99.1450  -43.3860 C   0  0  0  0  0  2  0  0  0  0  0  0
   90.0700   99.6220  -44.0690 N   0  0  0  0  0  0  0  0  0  0  0  0
   90.1890   99.7030  -45.4730 C   0  0  0  0  0  2  0  0  0  0  0  0
   91.1700   98.6900  -46.0180 C   0  0  0  0  0  2  0  0  0  0  0  0
   91.4690   95.7030  -46.2590 H   0  0  0  0  0  0  0  0  0  0  0  0
   89.3540  100.6160  -43.3890 C   0  0  0  0  0  2  0  0  0  0  0  0
   87.8930  100.3090  -43.2620 C   0  0  1  0  0  0  0  0  0  0  0  0
   87.0720  100.8460  -44.3830 C   0  0  0  0  0  2  0  0  0  0  0  0
   86.3370   99.8000  -45.0050 N   0  0  0  0  0  0  0  0  0  0  0  0
   86.6730   98.5570  -44.3890 C   0  0  0  0  0  3  0  0  0  0  0  0
   85.3030   99.9660  -45.0360 H   0  0  0  0  0  0  0  0  0  0  0  0
   87.7080   98.8180  -43.3480 C   0  0  0  0  0  3  0  0  0  0  0  0
   87.4030  100.7040  -42.0110 O   0  0  0  0  0  0  0  0  0  0  0  0
   86.8670   99.9380  -41.6750 H   0  0  0  0  0  0  0  0  0  0  0  0
  1  2  1  0  0  0  0
  2 10  1  0  0  0  0
  3  2  2  0  0  0  0
  3  7  1  0  0  0  0
  4  5  1  0  0  0  0
  4  3  1  0  0  0  0
  5  6  2  0  0  0  0
  6 11  1  0  0  0  0
  6  7  1  0  0  0  0
  7  8  2  0  0  0  0
  8  9  1  0  0  0  0
 10  9  2  0  0  0  0
 12 16  1  0  0  0  0
 12 11  1  0  0  0  0
 13 12  1  0  0  0  0
 14 13  1  0  0  0  0
 14  5  1  0  0  0  0
 15  4  1  0  0  0  0
 17 16  1  6  0  0  0
 17 23  1  0  0  0  0
 18 17  1  0  0  0  0
 19 20  1  0  0  0  0
 19 18  1  0  0  0  0
 20 22  2  0  0  0  0
 21 19  1  0  0  0  0
 22 17  1  0  0  0  0
 23 24  1  0  0  0  0
M  END
>  <Pose>
1

>  <Score>
-6.105

$$$$
