MODEL 1
REMARK VINA RESULT:    -6.105      0.000      0.000
REMARK INTER + INTRA:          -7.325
REMARK INTER:                  -6.997
REMARK INTRA:                  -0.328
REMARK UNBOUND:                -0.328
REMARK  3 active torsions:
REMARK  status: ('A' for Active; 'I' for Inactive)
REMARK    1  A    between atoms: N_12  and  C_15 
REMARK    2  A    between atoms: C_15  and  C_16 
REMARK    3  A    between atoms: C_16  and  O_21 
ROOT
ATOM      1 Cl   UNK d   1      91.825  92.978 -44.927  0.00  0.00    -0.082 Cl
ATOM      2  C   UNK d   1      91.754  94.245 -43.720  0.00  0.00     0.061 A 
ATOM      3  C   UNK d   1      91.596  95.550 -44.118  0.00  0.00     0.065 A 
ATOM      4  N   UNK d   1      91.470  96.165 -45.306  0.00  0.00    -0.357 N 
ATOM      5  C   UNK d   1      91.336  97.497 -45.162  0.00  0.00     0.020 A 
ATOM      6  C   UNK d   1      91.382  97.726 -43.803  0.00  0.00    -0.006 A 
ATOM      7  C   UNK d   1      91.543  96.529 -43.140  0.00  0.00     0.002 A 
ATOM      8  C   UNK d   1      91.650  96.166 -41.813  0.00  0.00     0.014 A 
ATOM      9  C   UNK d   1      91.809  94.870 -41.389  0.00  0.00     0.003 A 
ATOM     10  C   UNK d   1      91.861  93.890 -42.374  0.00  0.00     0.026 A 
ATOM     11  C   UNK d   1      91.251  99.145 -43.386  0.00  0.00     0.158 C 
ATOM     12  N   UNK d   1      90.070  99.622 -44.069  0.00  0.00    -0.405 N 
ATOM     13  C   UNK d   1      90.189  99.703 -45.473  0.00  0.00     0.123 C 
ATOM     14  C   UNK d   1      91.170  98.690 -46.018  0.00  0.00     0.077 C 
ATOM     15  H   UNK d   1      91.469  95.703 -46.259  0.00  0.00     0.166 HD
ENDROOT
BRANCH  12  16
ATOM     16  C   UNK d   1      89.354 100.616 -43.389  0.00  0.00     0.156 C 
BRANCH  16  17
ATOM     17  C   UNK d   1      87.893 100.309 -43.262  0.00  0.00     0.101 A 
ATOM     18  C   UNK d   1      87.072 100.846 -44.383  0.00  0.00     0.308 A 
ATOM     19  N   UNK d   1      86.337  99.800 -45.005  0.00  0.00     0.086 N 
ATOM     20  C   UNK d   1      86.673  98.557 -44.389  0.00  0.00     0.272 A 
ATOM     21  H   UNK d   1      85.303  99.966 -45.036  0.00  0.00     0.315 HD
ATOM     22  C   UNK d   1      87.708  98.818 -43.348  0.00  0.00     0.071 A 
BRANCH  17  23
ATOM     23  O   UNK d   1      87.403 100.704 -42.011  0.00  0.00    -0.386 OA
ATOM     24  H   UNK d   1      86.867  99.938 -41.675  0.00  0.00     0.210 HD
ENDBRANCH  17  23
ENDBRANCH  16  17
ENDBRANCH  12  16
TORSDOF 3
ENDMDL
