/Users/jonathanwahrer/Desktop/Msc/3_Semester/Drug_Design_Praktikum/waehrer_HTS_screening/HTS_experiment/out/docking_results/vina_output/4agl/1525_docked.pdbqt
 OpenBabel03212200243D

 26 29  0  0  1  0  0  0  0  0999 V2000
   90.9080   97.6640  -45.3210 N   0  0  0  0  0  0  0  0  0  0  0  0
   89.6040   98.2170  -45.4470 C   0  0  0  0  0  0  0  0  0  0  0  0
   88.5640   97.5210  -45.5340 O   0  0  0  0  0  0  0  0  0  0  0  0
   89.7590   99.6670  -45.4520 C   0  0  2  0  0  3  0  0  0  0  0  0
   91.1300   99.8630  -46.0630 C   0  0  0  0  0  2  0  0  0  0  0  0
   91.8740   98.6250  -45.7640 C   0  0  0  0  0  0  0  0  0  0  0  0
   93.1140   98.4290  -45.8690 O   0  0  0  0  0  0  0  0  0  0  0  0
   89.6080  100.3220  -44.2150 N   0  0  2  0  0  0  0  0  0  0  0  0
   89.7070   99.5530  -43.0410 C   0  0  0  0  0  2  0  0  0  0  0  0
   88.2920   99.1830  -42.5770 C   0  0  0  0  0  2  0  0  0  0  0  0
   87.3200  100.0490  -43.2250 N   0  0  0  0  0  0  0  0  0  0  0  0
   87.6030  101.4410  -43.5130 C   0  0  0  0  0  2  0  0  0  0  0  0
   88.9750  101.5630  -44.1320 C   0  0  0  0  0  2  0  0  0  0  0  0
   86.0370   99.5480  -43.6260 C   0  0  0  0  0  0  0  0  0  0  0  0
   85.0520  100.3860  -44.0100 N   0  0  0  0  0  0  0  0  0  0  0  0
   83.8550   99.9080  -44.4030 C   0  0  0  0  0  3  0  0  0  0  0  0
   83.5910   98.5430  -44.4270 C   0  0  0  0  0  3  0  0  0  0  0  0
   84.6060   97.6890  -44.0330 C   0  0  0  0  0  3  0  0  0  0  0  0
   85.7780   98.2280  -43.6530 N   0  0  0  0  0  0  0  0  0  0  0  0
   91.1790   96.3540  -44.8200 C   0  0  0  0  0  0  0  0  0  0  0  0
   91.1840   95.2260  -45.6140 C   0  0  0  0  0  3  0  0  0  0  0  0
   91.4560   93.9710  -45.0780 C   0  0  0  0  0  0  0  0  0  0  0  0
   91.4650   92.4080  -46.1650 Br  0  0  0  0  0  0  0  0  0  0  0  0
   91.7300   93.8240  -43.7360 C   0  0  0  0  0  3  0  0  0  0  0  0
   91.7300   94.9350  -42.9270 C   0  0  0  0  0  3  0  0  0  0  0  0
   91.4600   96.1600  -43.4720 C   0  0  0  0  0  3  0  0  0  0  0  0
  1 20  1  0  0  0  0
  2  1  1  0  0  0  0
  3  2  2  0  0  0  0
  4  5  1  1  0  0  0
  4  2  1  0  0  0  0
  4  8  1  0  0  0  0
  5  6  1  0  0  0  0
  6  1  1  0  0  0  0
  7  6  2  0  0  0  0
  8 13  1  6  0  0  0
  8  9  1  0  0  0  0
  9 10  1  0  0  0  0
 11 10  1  0  0  0  0
 12 11  1  0  0  0  0
 13 12  1  0  0  0  0
 14 11  1  0  0  0  0
 15 14  2  0  0  0  0
 16 15  1  0  0  0  0
 17 16  2  0  0  0  0
 17 18  1  0  0  0  0
 18 19  2  0  0  0  0
 19 14  1  0  0  0  0
 20 26  1  0  0  0  0
 21 22  1  0  0  0  0
 21 20  2  0  0  0  0
 22 24  2  0  0  0  0
 23 22  1  0  0  0  0
 24 25  1  0  0  0  0
 26 25  2  0  0  0  0
M  END
>  <Pose>
1

>  <Score>
-6.095

$$$$
