MODEL 1
REMARK VINA RESULT:    -6.971      0.000      0.000
REMARK INTER + INTRA:          -9.327
REMARK INTER:                  -8.601
REMARK INTRA:                  -0.726
REMARK UNBOUND:                -0.726
REMARK  4 active torsions:
REMARK  status: ('A' for Active; 'I' for Inactive)
REMARK    1  A    between atoms: C_6  and  C_8 
REMARK    2  A    between atoms: N_11  and  C_13 
REMARK    3  A    between atoms: C_14  and  C_16 
REMARK    4  A    between atoms: C_18  and  N_22 
ROOT
ATOM      1  C   UNK d   1      91.419  94.435 -45.090  0.00  0.00     0.061 A 
ATOM      2  N   UNK d   1      91.651  94.420 -43.752  0.00  0.00    -0.335 N 
ATOM      3  C   UNK d   1      91.671  95.676 -43.291  0.00  0.00     0.086 A 
ATOM      4  N   UNK d   1      91.449  96.552 -44.318  0.00  0.00    -0.338 N 
ATOM      5  C   UNK d   1      91.297  95.781 -45.407  0.00  0.00     0.123 A 
ATOM      6  C   UNK d   1      91.934  95.702 -41.835  0.00  0.00     0.078 C 
ATOM      7  C   UNK d   1      91.522  94.315 -41.428  0.00  0.00     0.028 C 
ATOM      8  C   UNK d   1      91.877  93.492 -42.644  0.00  0.00     0.131 C 
ENDROOT
BRANCH   4   9
ATOM      9  C   UNK d   1      91.439  97.984 -44.239  0.00  0.00     0.198 C 
ATOM     10  C   UNK d   1      90.227  98.754 -44.297  0.00  0.00     0.113 C 
ATOM     11  O   UNK d   1      90.435 100.064 -44.195  0.00  0.00    -0.194 OA
BRANCH  10  12
ATOM     12  C   UNK d   1      88.832  98.422 -44.442  0.00  0.00     0.000 A 
ATOM     13  C   UNK d   1      88.409  97.640 -45.541  0.00  0.00     0.050 A 
ATOM     14  C   UNK d   1      87.107  97.272 -45.762  0.00  0.00     0.103 A 
ATOM     15  C   UNK d   1      86.177  97.705 -44.840  0.00  0.00     0.036 A 
ATOM     16  C   UNK d   1      86.564  98.468 -43.761  0.00  0.00     0.003 A 
ATOM     17  C   UNK d   1      87.891  98.841 -43.541  0.00  0.00     0.014 A 
BRANCH  14  18
ATOM     18  N   UNK d   1      86.705  96.488 -46.870  0.00  0.00    -0.116 N 
ATOM     19  O   UNK d   1      87.534  96.195 -47.737  0.00  0.00    -0.532 OA
ATOM     20  O   UNK d   1      85.422  96.044 -47.010  0.00  0.00    -0.532 OA
ENDBRANCH  14  18
ENDBRANCH  10  12
ENDBRANCH   4   9
BRANCH   1  21
ATOM     21  C   UNK d   1      91.306  93.332 -46.043  0.00  0.00    -0.006 A 
ATOM     22  C   UNK d   1      91.904  92.131 -45.734  0.00  0.00     0.015 A 
ATOM     23  C   UNK d   1      91.822  91.032 -46.592  0.00  0.00     0.026 A 
ATOM     24  C   UNK d   1      91.125  91.155 -47.772  0.00  0.00     0.055 A 
ATOM     25  C   UNK d   1      90.530  92.342 -48.085  0.00  0.00     0.056 A 
ATOM     26 Cl   UNK d   1      91.032  89.754 -48.841  0.00  0.00    -0.083 Cl
ATOM     27 Cl   UNK d   1      89.652  92.463 -49.594  0.00  0.00    -0.083 Cl
ATOM     28  C   UNK d   1      90.621  93.428 -47.220  0.00  0.00     0.039 A 
ENDBRANCH   1  21
TORSDOF 4
ENDMDL
