MODEL 1
REMARK VINA RESULT:    -6.456      0.000      0.000
REMARK INTER + INTRA:          -8.405
REMARK INTER:                  -7.589
REMARK INTRA:                  -0.816
REMARK UNBOUND:                -0.816
REMARK  3 active torsions:
REMARK  status: ('A' for Active; 'I' for Inactive)
REMARK    1  A    between atoms: S_1  and  N_4 
REMARK    2  A    between atoms: S_1  and  C_19 
REMARK    3  A    between atoms: C_7  and  C_10 
REMARK       I    between atoms: C_10  and  N_12 
ROOT
ATOM      1  S   UNK d   1      90.178  98.924 -45.273  0.00  0.00     0.262 S 
ATOM      2  O   UNK d   1      91.229 100.007 -45.536  0.00  0.00    -0.200 OA
ATOM      3  O   UNK d   1      90.054  98.224 -46.628  0.00  0.00    -0.200 OA
ENDROOT
BRANCH   1   4
ATOM      4  N   UNK d   1      88.750  99.666 -44.896  0.00  0.00    -0.307 N 
ATOM      5  C   UNK d   1      88.062  99.488 -43.701  0.00  0.00     0.136 C 
ATOM      6  C   UNK d   1      87.017  98.418 -43.680  0.00  0.00     0.034 C 
ATOM      7  C   UNK d   1      86.559  98.143 -45.110  0.00  0.00     0.081 C 
ATOM      8  C   UNK d   1      86.455  99.546 -45.731  0.00  0.00     0.034 C 
ATOM      9  C   UNK d   1      87.889  99.948 -46.038  0.00  0.00     0.136 C 
BRANCH   7  10
ATOM     10  C   UNK d   1      85.292  97.433 -45.157  0.00  0.00     0.224 C 
ATOM     11  O   UNK d   1      84.419  97.663 -44.279  0.00  0.00    -0.273 OA
ATOM     12  N   UNK d   1      85.012  96.497 -46.157  0.00  0.00    -0.348 N 
ATOM     13  C   UNK d   1      83.729  95.792 -46.255  0.00  0.00     0.156 C 
ATOM     14  C   UNK d   1      85.991  96.151 -47.148  0.00  0.00     0.156 C 
ATOM     15  C   UNK d   1      83.905  94.735 -47.325  0.00  0.00     0.291 C 
ATOM     16  N   UNK d   1      84.190  95.355 -48.605  0.00  0.00     0.087 N 
ATOM     17  C   UNK d   1      85.402  96.153 -48.548  0.00  0.00     0.291 C 
ATOM     18  C   UNK d   1      84.278  94.363 -49.655  0.00  0.00     0.310 C 
ENDBRANCH   7  10
ENDBRANCH   1   4
BRANCH   1  19
ATOM     19  C   UNK d   1      90.898  97.850 -44.109  0.00  0.00     0.104 A 
ATOM     20  C   UNK d   1      91.092  96.500 -44.451  0.00  0.00     0.066 A 
ATOM     21  C   UNK d   1      91.607  95.583 -43.572  0.00  0.00     0.097 A 
ATOM     22  C   UNK d   1      91.950  95.975 -42.315  0.00  0.00     0.070 A 
ATOM     23  O   UNK d   1      91.785  94.246 -43.949  0.00  0.00    -0.340 OA
ATOM     24  C   UNK d   1      91.785  97.280 -41.925  0.00  0.00     0.058 A 
ATOM     25  N   UNK d   1      92.484  94.998 -41.404  0.00  0.00    -0.323 N 
ATOM     26  C   UNK d   1      91.260  98.195 -42.840  0.00  0.00     0.059 A 
ATOM     27 Cl   UNK d   1      91.143  99.865 -42.314  0.00  0.00    -0.083 Cl
ATOM     28  C   UNK d   1      92.639  93.656 -41.833  0.00  0.00     0.246 C 
ATOM     29  H   UNK d   1      92.749  95.289 -40.443  0.00  0.00     0.169 HD
ATOM     30  O   UNK d   1      93.419  92.870 -41.256  0.00  0.00    -0.271 OA
ATOM     31  C   UNK d   1      91.835  93.213 -43.001  0.00  0.00     0.278 C 
ENDBRANCH   1  19
TORSDOF 3
ENDMDL
