/Users/jonathanwahrer/Desktop/Msc/3_Semester/Drug_Design_Praktikum/waehrer_HTS_screening/HTS_experiment/out/docking_results/vina_output/4agl/1539_docked.pdbqt
 OpenBabel03212200253D

 34 37  0  0  1  0  0  0  0  0999 V2000
   90.0760   98.6070  -44.5610 C   0  0  2  0  0  3  0  0  0  0  0  0
   90.3940   98.9730  -45.9470 N   0  0  0  0  0  0  0  0  0  0  0  0
   91.7890   99.2410  -45.9450 C   0  0  0  0  0  0  0  0  0  0  0  0
   92.5710   99.1250  -46.9020 O   0  0  0  0  0  0  0  0  0  0  0  0
   92.1170   99.6800  -44.5920 C   0  0  0  0  0  0  0  0  0  0  0  0
   93.2250  100.0300  -44.0880 O   0  0  0  0  0  0  0  0  0  0  0  0
   90.8570   99.6500  -43.8350 C   0  0  0  0  0  0  0  0  0  0  0  0
   90.5600  100.3680  -42.7700 C   0  0  0  0  0  0  0  0  0  0  0  0
   89.3190  100.1680  -42.1590 O   0  0  0  0  0  1  0  0  0  0  0  0
   90.6660   97.2620  -44.3520 C   0  0  0  0  0  0  0  0  0  0  0  0
   91.2310   96.9000  -43.1480 C   0  0  0  0  0  3  0  0  0  0  0  0
   91.7860   95.6580  -42.9270 C   0  0  0  0  0  3  0  0  0  0  0  0
   91.7960   94.7050  -43.9290 C   0  0  0  0  0  0  0  0  0  0  0  0
   92.5010   93.1110  -43.6670 Cl  0  0  0  0  0  0  0  0  0  0  0  0
   91.2390   95.0440  -45.1370 C   0  0  0  0  0  3  0  0  0  0  0  0
   90.6850   96.2840  -45.3550 C   0  0  0  0  0  3  0  0  0  0  0  0
   91.4630  101.3600  -42.2060 C   0  0  0  0  0  0  0  0  0  0  0  0
   92.3340  101.0620  -41.1700 C   0  0  0  0  0  3  0  0  0  0  0  0
   93.1690  102.0130  -40.6210 C   0  0  0  0  0  0  0  0  0  0  0  0
   93.1660  103.3180  -41.0930 C   0  0  0  0  0  0  0  0  0  0  0  0
   94.0830  101.6490  -39.5150 C   0  0  0  0  0  1  0  0  0  0  0  0
   92.3050  103.6260  -42.1210 C   0  0  0  0  0  3  0  0  0  0  0  0
   91.4630  102.6550  -42.6700 C   0  0  0  0  0  3  0  0  0  0  0  0
   94.0030  104.2880  -40.5500 O   0  0  0  0  0  0  0  0  0  0  0  0
   93.4350  105.4220  -39.9550 C   0  0  0  0  0  1  0  0  0  0  0  0
   89.4670   99.0390  -47.0780 C   0  0  0  0  0  2  0  0  0  0  0  0
   88.0820   99.1760  -46.4910 C   0  0  0  0  0  2  0  0  0  0  0  0
   87.1600   98.2060  -47.0180 N   0  0  0  0  0  4  0  0  0  0  0  0
   85.8900   98.7990  -47.2850 C   0  0  0  0  0  2  0  0  0  0  0  0
   84.8570   98.6450  -46.2190 C   0  0  0  0  0  2  0  0  0  0  0  0
   84.9300   97.4840  -45.4980 O   0  0  0  0  0  0  0  0  0  0  0  0
   86.1900   97.2470  -44.9650 C   0  0  0  0  0  2  0  0  0  0  0  0
   87.1290   97.0770  -46.1310 C   0  0  0  0  0  2  0  0  0  0  0  0
   87.5690   97.9040  -47.9470 H   0  0  0  0  0  0  0  0  0  0  0  0
  1 10  1  1  0  0  0
  1  7  1  0  0  0  0
  2  3  1  0  0  0  0
  2  1  1  0  0  0  0
  3  5  1  0  0  0  0
  4  3  2  0  0  0  0
  5  6  2  0  0  0  0
  5  7  1  0  0  0  0
  7  8  2  0  0  0  0
  8 17  1  0  0  0  0
  8  9  1  0  0  0  0
 10 11  1  0  0  0  0
 11 12  2  0  0  0  0
 13 14  1  0  0  0  0
 13 12  1  0  0  0  0
 15 13  2  0  0  0  0
 16 15  1  0  0  0  0
 16 10  2  0  0  0  0
 17 18  1  0  0  0  0
 18 19  2  0  0  0  0
 19 21  1  0  0  0  0
 20 19  1  0  0  0  0
 20 24  1  0  0  0  0
 22 20  2  0  0  0  0
 23 17  2  0  0  0  0
 23 22  1  0  0  0  0
 24 25  1  0  0  0  0
 26 27  1  0  0  0  0
 26  2  1  0  0  0  0
 28 27  1  0  0  0  0
 28 33  1  0  0  0  0
 29 28  1  0  0  0  0
 29 30  1  0  0  0  0
 30 31  1  0  0  0  0
 31 32  1  0  0  0  0
 33 32  1  0  0  0  0
 34 28  1  0  0  0  0
M  END
>  <Pose>
1

>  <Score>
-5.988

$$$$
