MODEL 1
REMARK VINA RESULT:    -6.084      0.000      0.000
REMARK INTER + INTRA:          -6.456
REMARK INTER:                  -6.440
REMARK INTRA:                  -0.016
REMARK UNBOUND:                -0.016
REMARK  1 active torsions:
REMARK  status: ('A' for Active; 'I' for Inactive)
REMARK       I    between atoms: N_10  and  C_13 
REMARK    1  A    between atoms: C_13  and  C_15 
ROOT
ATOM      1 Cl   UNK d   1      91.639  91.304 -46.343  0.00  0.00    -0.083 Cl
ATOM      2  C   UNK d   1      91.492  92.886 -45.590  0.00  0.00     0.050 A 
ATOM      3  C   UNK d   1      90.881  93.946 -46.224  0.00  0.00     0.125 A 
ATOM      4  N   UNK d   1      90.768  95.173 -45.638  0.00  0.00    -0.271 N 
ATOM      5  C   UNK d   1      91.251  95.408 -44.404  0.00  0.00     0.137 A 
ATOM      6  N   UNK d   1      91.140  96.627 -43.819  0.00  0.00    -0.234 NA
ATOM      7  C   UNK d   1      90.540  97.661 -44.447  0.00  0.00     0.051 A 
ATOM      8  C   UNK d   1      90.039  97.458 -45.700  0.00  0.00     0.053 A 
ATOM      9  C   UNK d   1      89.362  98.570 -46.441  0.00  0.00     0.172 C 
ATOM     10  N   UNK d   1      88.817  99.447 -45.391  0.00  0.00    -0.342 N 
ATOM     11  C   UNK d   1      89.816 100.022 -44.535  0.00  0.00     0.132 C 
ATOM     12  C   UNK d   1      90.482  98.944 -43.698  0.00  0.00     0.080 C 
ATOM     13  C   UNK d   1      87.437  99.618 -45.340  0.00  0.00     0.274 C 
ATOM     14  O   UNK d   1      86.713  99.015 -46.207  0.00  0.00    -0.266 OA
ATOM     15  C   UNK d   1      90.169  96.199 -46.269  0.00  0.00     0.263 A 
ATOM     16  O   UNK d   1      89.714  96.004 -47.414  0.00  0.00    -0.267 OA
ATOM     17  C   UNK d   1      91.867  94.347 -43.758  0.00  0.00     0.053 A 
ATOM     18  C   UNK d   1      91.996  93.097 -44.325  0.00  0.00     0.029 A 
ENDROOT
BRANCH  13  19
ATOM     19  C   UNK d   1      86.708 100.441 -44.368  0.00  0.00     0.141 A 
ATOM     20  N   UNK d   1      87.109 101.669 -44.027  0.00  0.00    -0.253 NA
ATOM     21  C   UNK d   1      86.439 102.412 -43.140  0.00  0.00     0.136 A 
ATOM     22  C   UNK d   1      85.293 101.952 -42.525  0.00  0.00     0.135 A 
ATOM     23  N   UNK d   1      84.905 100.715 -42.880  0.00  0.00    -0.269 NA
ATOM     24  C   UNK d   1      85.555  99.954 -43.761  0.00  0.00     0.153 A 
ENDBRANCH  13  19
TORSDOF 1
ENDMDL
