MODEL 1
REMARK VINA RESULT:    -6.993      0.000      0.000
REMARK INTER + INTRA:          -8.874
REMARK INTER:                  -8.015
REMARK INTRA:                  -0.860
REMARK UNBOUND:                -0.860
REMARK  3 active torsions:
REMARK  status: ('A' for Active; 'I' for Inactive)
REMARK    1  A    between atoms: C_3  and  O_25 
REMARK    2  A    between atoms: C_4  and  C_9 
REMARK    3  A    between atoms: C_11  and  C_22 
ROOT
ATOM      1  C   UNK d   1      90.702  97.701 -45.553  0.00  0.00     0.272 C 
ATOM      2  N   UNK d   1      90.917  98.948 -44.922  0.00  0.00    -0.047 N 
ATOM      3  C   UNK d   1      91.762  98.952 -43.763  0.00  0.00     0.291 C 
ATOM      4  C   UNK d   1      91.226  97.926 -42.750  0.00  0.00     0.086 C 
ATOM      5  C   UNK d   1      91.388  96.632 -43.440  0.00  0.00    -0.018 A 
ATOM      6  C   UNK d   1      91.783  95.387 -42.977  0.00  0.00    -0.001 A 
ATOM      7  C   UNK d   1      91.765  94.543 -44.064  0.00  0.00     0.043 A 
ATOM      8  N   UNK d   1      91.377  95.223 -45.154  0.00  0.00    -0.356 N 
ATOM      9  C   UNK d   1      91.142  96.522 -44.773  0.00  0.00     0.052 A 
ATOM     10  C   UNK d   1      92.127  93.223 -43.862  0.00  0.00     0.030 A 
ATOM     11  C   UNK d   1      92.484  92.817 -42.601  0.00  0.00     0.002 A 
ATOM     12  C   UNK d   1      92.502  93.664 -41.515  0.00  0.00     0.001 A 
ATOM     13  C   UNK d   1      92.140  94.996 -41.704  0.00  0.00     0.014 A 
ATOM     14  H   UNK d   1      91.375  99.597 -45.639  0.00  0.00     0.279 HD
ATOM     15  H   UNK d   1      90.037  99.451 -44.647  0.00  0.00     0.279 HD
ATOM     16  H   UNK d   1      91.257  94.881 -46.142  0.00  0.00     0.166 HD
ENDROOT
BRANCH   1  17
ATOM     17  C   UNK d   1      89.225  97.524 -45.805  0.00  0.00     0.014 A 
ATOM     18  C   UNK d   1      88.751  96.775 -46.867  0.00  0.00     0.091 A 
ATOM     19  C   UNK d   1      87.376  96.619 -47.074  0.00  0.00     0.046 A 
ATOM     20 Br   UNK d   1      86.738  95.584 -48.550  0.00  0.00    -0.048 Br
ATOM     21  C   UNK d   1      86.466  97.203 -46.235  0.00  0.00     0.041 A 
ATOM     22  C   UNK d   1      86.935  97.948 -45.178  0.00  0.00     0.013 A 
ATOM     23  C   UNK d   1      88.299  98.107 -44.965  0.00  0.00     0.031 A 
ATOM     24 Br   UNK d   1      85.687  98.787 -43.976  0.00  0.00    -0.051 Br
BRANCH  18  25
ATOM     25  O   UNK d   1      89.572  96.149 -47.768  0.00  0.00    -0.359 OA
ATOM     26  H   UNK d   1      89.544  96.230 -48.747  0.00  0.00     0.217 HD
ENDBRANCH  18  25
ENDBRANCH   1  17
BRANCH   3  27
ATOM     27  C   UNK d   1      91.797 100.305 -43.172  0.00  0.00     0.205 C 
ATOM     28  O   UNK d   1      92.737 101.081 -43.481  0.00  0.00    -0.646 OA
ATOM     29  O   UNK d   1      90.798 100.691 -42.293  0.00  0.00    -0.646 OA
ENDBRANCH   3  27
TORSDOF 3
ENDMDL
