MODEL 1
REMARK VINA RESULT:    -6.372      0.000      0.000
REMARK INTER + INTRA:          -9.609
REMARK INTER:                  -8.234
REMARK INTRA:                  -1.375
REMARK UNBOUND:                -1.375
REMARK  5 active torsions:
REMARK  status: ('A' for Active; 'I' for Inactive)
REMARK    1  A    between atoms: C_7  and  C_11 
REMARK    2  A    between atoms: C_11  and  O_12 
REMARK    3  A    between atoms: O_12  and  C_13 
REMARK    4  A    between atoms: C_13  and  C_15 
REMARK    5  A    between atoms: C_15  and  N_16 
ROOT
ATOM      1  O   UNK d   1      92.140  98.854 -42.343  0.00  0.00    -0.314 OA
ENDROOT
BRANCH   1   2
ATOM      2  C   UNK d   1      91.789  97.743 -41.566  0.00  0.00     0.238 C 
BRANCH   2   3
ATOM      3  C   UNK d   1      91.783  96.479 -42.339  0.00  0.00     0.066 A 
ATOM      4  N   UNK d   1      91.430  96.410 -43.637  0.00  0.00    -0.233 NA
ATOM      5  C   UNK d   1      91.434  95.257 -44.310  0.00  0.00     0.137 A 
ATOM      6  N   UNK d   1      91.790  94.072 -43.750  0.00  0.00    -0.272 N 
ATOM      7  C   UNK d   1      91.056  95.269 -45.651  0.00  0.00     0.052 A 
ATOM      8  C   UNK d   1      91.778  92.941 -44.470  0.00  0.00     0.121 A 
ATOM      9  C   UNK d   1      92.152  94.108 -42.442  0.00  0.00     0.255 A 
ATOM     10  C   UNK d   1      91.410  92.914 -45.794  0.00  0.00     0.027 A 
ATOM     11 Br   UNK d   1      91.409  91.264 -46.789  0.00  0.00    -0.050 Br
ATOM     12  C   UNK d   1      91.047  94.099 -46.380  0.00  0.00     0.024 A 
ATOM     13  C   UNK d   1      92.151  95.294 -41.735  0.00  0.00     0.104 A 
ATOM     14  O   UNK d   1      92.481  93.002 -41.929  0.00  0.00    -0.268 OA
ENDBRANCH   2   3
ENDBRANCH   1   2
BRANCH   1  15
ATOM     15  C   UNK d   1      91.384  99.992 -42.500  0.00  0.00     0.277 C 
ATOM     16  O   UNK d   1      91.114 100.626 -41.441  0.00  0.00    -0.263 OA
BRANCH  15  17
ATOM     17  C   UNK d   1      90.905 100.465 -43.827  0.00  0.00     0.245 C 
BRANCH  17  18
ATOM     18  N   UNK d   1      89.931  99.538 -44.407  0.00  0.00    -0.278 N 
ATOM     19  C   UNK d   1      88.700  99.108 -43.833  0.00  0.00     0.232 C 
ATOM     20  O   UNK d   1      88.149  99.586 -42.810  0.00  0.00    -0.273 OA
ATOM     21  C   UNK d   1      88.179  97.994 -44.659  0.00  0.00     0.091 C 
ATOM     22  C   UNK d   1      88.709  98.390 -46.017  0.00  0.00     0.091 C 
ATOM     23  C   UNK d   1      86.720  97.801 -44.591  0.00  0.00     0.015 C 
ATOM     24  C   UNK d   1      87.922  99.522 -46.650  0.00  0.00     0.015 C 
ATOM     25  C   UNK d   1      90.057  98.891 -45.661  0.00  0.00     0.232 C 
ATOM     26  C   UNK d   1      86.681  99.882 -45.878  0.00  0.00     0.001 C 
ATOM     27  C   UNK d   1      85.904  98.653 -45.496  0.00  0.00     0.001 C 
ATOM     28  O   UNK d   1      91.131  98.775 -46.330  0.00  0.00    -0.273 OA
ENDBRANCH  17  18
ENDBRANCH  15  17
ENDBRANCH   1  15
TORSDOF 5
ENDMDL
