MODEL 1
REMARK VINA RESULT:    -6.145      0.000      0.000
REMARK INTER + INTRA:          -8.787
REMARK INTER:                  -7.582
REMARK INTRA:                  -1.205
REMARK UNBOUND:                -1.205
REMARK  4 active torsions:
REMARK  status: ('A' for Active; 'I' for Inactive)
REMARK    1  A    between atoms: C_3  and  N_8 
REMARK       I    between atoms: N_11  and  C_14 
REMARK    2  A    between atoms: C_14  and  C_16 
REMARK    3  A    between atoms: C_16  and  N_17 
REMARK    4  A    between atoms: C_19  and  C_23 
REMARK       I    between atoms: C_23  and  N_25 
ROOT
ATOM      1  N   UNK d   1      86.778  98.096 -46.724  0.00  0.00    -0.376 N 
ATOM      2  C   UNK d   1      85.993  97.973 -45.514  0.00  0.00     0.143 C 
ATOM      3  C   UNK d   1      86.089  99.287 -44.742  0.00  0.00     0.145 C 
ATOM      4  N   UNK d   1      87.453  99.785 -44.804  0.00  0.00    -0.348 N 
ATOM      5  C   UNK d   1      88.042 100.020 -46.102  0.00  0.00     0.145 C 
ATOM      6  C   UNK d   1      87.103  99.466 -47.147  0.00  0.00     0.143 C 
ATOM      7  C   UNK d   1      88.209 100.045 -43.626  0.00  0.00     0.239 C 
ATOM      8  O   UNK d   1      87.658  99.832 -42.502  0.00  0.00    -0.271 OA
ENDROOT
BRANCH   7   9
ATOM      9  C   UNK d   1      89.588 100.544 -43.628  0.00  0.00     0.254 C 
BRANCH   9  10
ATOM     10  N   UNK d   1      90.588  99.494 -43.440  0.00  0.00    -0.265 N 
ATOM     11  N   UNK d   1      90.591  98.485 -42.593  0.00  0.00    -0.167 NA
ATOM     12  C   UNK d   1      91.677  97.717 -42.704  0.00  0.00     0.146 A 
ATOM     13  C   UNK d   1      92.444  98.275 -43.710  0.00  0.00     0.065 A 
ATOM     14  C   UNK d   1      91.744  99.377 -44.149  0.00  0.00     0.029 A 
ATOM     15  C   UNK d   1      92.191 100.286 -45.226  0.00  0.00     0.070 C 
BRANCH  12  16
ATOM     16  C   UNK d   1      91.993  96.512 -41.914  0.00  0.00     0.274 C 
ATOM     17  O   UNK d   1      92.382  96.621 -40.734  0.00  0.00    -0.266 OA
ATOM     18  N   UNK d   1      91.846  95.244 -42.516  0.00  0.00    -0.343 N 
ATOM     19  C   UNK d   1      91.403  95.043 -43.867  0.00  0.00     0.152 C 
ATOM     20  C   UNK d   1      92.156  94.039 -41.741  0.00  0.00     0.152 C 
ATOM     21  C   UNK d   1      91.535  93.540 -44.145  0.00  0.00     0.187 C 
ATOM     22  O   UNK d   1      92.804  93.090 -43.855  0.00  0.00    -0.388 OA
ATOM     23  C   UNK d   1      93.163  93.233 -42.535  0.00  0.00     0.187 C 
ENDBRANCH  12  16
ENDBRANCH   9  10
ENDBRANCH   7   9
BRANCH   1  24
ATOM     24  C   UNK d   1      87.245  97.038 -47.506  0.00  0.00     0.052 A 
ATOM     25  C   UNK d   1      88.470  96.426 -47.347  0.00  0.00     0.060 A 
ATOM     26 Cl   UNK d   1      89.525  96.989 -46.102  0.00  0.00    -0.082 Cl
ATOM     27  C   UNK d   1      88.894  95.380 -48.143  0.00  0.00     0.026 A 
ATOM     28  C   UNK d   1      88.087  94.914 -49.134  0.00  0.00     0.002 A 
ATOM     29  C   UNK d   1      86.860  95.492 -49.330  0.00  0.00     0.002 A 
ATOM     30  C   UNK d   1      86.443  96.538 -48.530  0.00  0.00     0.031 A 
ENDBRANCH   1  24
TORSDOF 4
ENDMDL
