/Users/jonathanwahrer/Desktop/Msc/3_Semester/Drug_Design_Praktikum/waehrer_HTS_screening/HTS_experiment/out/docking_results/vina_output/4agl/1581_docked.pdbqt
 OpenBabel03212200263D

 27 30  0  0  1  0  0  0  0  0999 V2000
   90.1840  101.3470  -43.3920 N   0  0  0  0  0  0  0  0  0  0  0  0
   89.6730  102.0370  -44.5020 C   0  0  0  0  0  2  0  0  0  0  0  0
   88.7360  101.2680  -45.3740 C   0  0  0  0  0  2  0  0  0  0  0  0
   88.0210  100.2380  -44.6350 N   0  0  0  0  0  0  0  0  0  0  0  0
   87.0760   99.4350  -45.1220 N   0  0  0  0  0  0  0  0  0  0  0  0
   86.6490   98.6200  -44.1540 C   0  0  0  0  0  0  0  0  0  0  0  0
   87.3610   98.9330  -43.0230 C   0  0  0  0  0  3  0  0  0  0  0  0
   88.2400   99.9730  -43.3380 C   0  0  0  0  0  0  0  0  0  0  0  0
   89.2440  100.7170  -42.5360 C   0  0  0  0  0  2  0  0  0  0  0  0
   91.4570  100.7650  -43.4900 C   0  0  0  0  0  2  0  0  0  0  0  0
   91.5040   99.2980  -43.5480 C   0  0  0  0  0  0  0  0  0  0  0  0
   91.7000   98.5040  -42.4790 N   0  0  0  0  0  0  0  0  0  0  0  0
   91.7380   97.1620  -42.5710 C   0  0  0  0  0  0  0  0  0  0  0  0
   91.5830   96.5120  -43.7360 N   0  0  0  0  0  0  0  0  0  0  0  0
   91.9480   96.4520  -41.3840 C   0  0  0  0  0  3  0  0  0  0  0  0
   91.6220   95.1590  -43.8190 C   0  0  0  0  0  3  0  0  0  0  0  0
   91.3830   97.2570  -44.8420 C   0  0  0  0  0  0  0  0  0  0  0  0
   91.8290   94.4550  -42.6540 C   0  0  0  0  0  0  0  0  0  0  0  0
   91.8800   92.7010  -42.7570 Cl  0  0  0  0  0  0  0  0  0  0  0  0
   91.9930   95.0810  -41.4360 C   0  0  0  0  0  3  0  0  0  0  0  0
   91.3440   98.6300  -44.7490 C   0  0  0  0  0  3  0  0  0  0  0  0
   91.2310   96.6860  -45.9660 O   0  0  0  0  0  0  0  0  0  0  0  0
   85.5940   97.5670  -44.2880 C   0  0  1  0  0  3  0  0  0  0  0  0
   84.8420   97.5630  -43.1010 O   0  0  0  0  0  0  0  0  0  0  0  0
   83.9560   98.0050  -43.2450 H   0  0  0  0  0  0  0  0  0  0  0  0
   84.6170   97.9470  -45.3970 C   0  0  0  0  0  2  0  0  0  0  0  0
   83.7490   96.7350  -45.7050 C   0  0  0  0  0  1  0  0  0  0  0  0
  1  9  1  0  0  0  0
  2  1  1  0  0  0  0
  3  4  1  0  0  0  0
  3  2  1  0  0  0  0
  4  8  1  0  0  0  0
  5  4  1  0  0  0  0
  5  6  2  0  0  0  0
  6  7  1  0  0  0  0
  8  7  2  0  0  0  0
  8  9  1  0  0  0  0
 10  1  1  0  0  0  0
 11 10  1  0  0  0  0
 11 12  1  0  0  0  0
 13 12  2  0  0  0  0
 13 15  1  0  0  0  0
 14 13  1  0  0  0  0
 16 14  1  0  0  0  0
 16 18  2  0  0  0  0
 17 21  1  0  0  0  0
 17 14  1  0  0  0  0
 18 20  1  0  0  0  0
 19 18  1  0  0  0  0
 20 15  2  0  0  0  0
 21 11  2  0  0  0  0
 22 17  2  0  0  0  0
 23 26  1  6  0  0  0
 23  6  1  0  0  0  0
 23 24  1  0  0  0  0
 25 24  1  0  0  0  0
 27 26  1  0  0  0  0
M  END
>  <Pose>
1

>  <Score>
-6.208

$$$$
