MODEL 1
REMARK VINA RESULT:    -6.208      0.000      0.000
REMARK INTER + INTRA:          -8.489
REMARK INTER:                  -7.841
REMARK INTRA:                  -0.649
REMARK UNBOUND:                -0.649
REMARK  5 active torsions:
REMARK  status: ('A' for Active; 'I' for Inactive)
REMARK    1  A    between atoms: C_7  and  C_11 
REMARK    2  A    between atoms: C_11  and  N_12 
REMARK    3  A    between atoms: C_17  and  C_21 
REMARK    4  A    between atoms: C_21  and  O_22 
REMARK    5  A    between atoms: C_21  and  C_23 
ROOT
ATOM      1  N   UNK d   1      90.184 101.347 -43.392  0.00  0.00    -0.400 N 
ATOM      2  C   UNK d   1      89.673 102.037 -44.502  0.00  0.00     0.139 C 
ATOM      3  C   UNK d   1      88.736 101.268 -45.374  0.00  0.00     0.170 C 
ATOM      4  N   UNK d   1      88.021 100.238 -44.635  0.00  0.00    -0.270 N 
ATOM      5  N   UNK d   1      87.076  99.435 -45.122  0.00  0.00    -0.174 NA
ATOM      6  C   UNK d   1      86.649  98.620 -44.154  0.00  0.00     0.085 A 
ATOM      7  C   UNK d   1      87.361  98.933 -43.023  0.00  0.00     0.060 A 
ATOM      8  C   UNK d   1      88.240  99.973 -43.338  0.00  0.00     0.050 A 
ATOM      9  C   UNK d   1      89.244 100.717 -42.536  0.00  0.00     0.176 C 
ENDROOT
BRANCH   1  10
ATOM     10  C   UNK d   1      91.457 100.765 -43.490  0.00  0.00     0.177 C 
BRANCH  10  11
ATOM     11  C   UNK d   1      91.504  99.298 -43.548  0.00  0.00     0.059 A 
ATOM     12  N   UNK d   1      91.700  98.504 -42.479  0.00  0.00    -0.233 NA
ATOM     13  C   UNK d   1      91.738  97.162 -42.571  0.00  0.00     0.137 A 
ATOM     14  N   UNK d   1      91.583  96.512 -43.736  0.00  0.00    -0.272 N 
ATOM     15  C   UNK d   1      91.948  96.452 -41.384  0.00  0.00     0.053 A 
ATOM     16  C   UNK d   1      91.622  95.159 -43.819  0.00  0.00     0.125 A 
ATOM     17  C   UNK d   1      91.383  97.257 -44.842  0.00  0.00     0.255 A 
ATOM     18  C   UNK d   1      91.829  94.455 -42.654  0.00  0.00     0.050 A 
ATOM     19 Cl   UNK d   1      91.880  92.701 -42.757  0.00  0.00    -0.083 Cl
ATOM     20  C   UNK d   1      91.993  95.081 -41.436  0.00  0.00     0.029 A 
ATOM     21  C   UNK d   1      91.344  98.630 -44.749  0.00  0.00     0.103 A 
ATOM     22  O   UNK d   1      91.231  96.686 -45.966  0.00  0.00    -0.268 OA
ENDBRANCH  10  11
ENDBRANCH   1  10
BRANCH   6  23
ATOM     23  C   UNK d   1      85.594  97.567 -44.288  0.00  0.00     0.171 C 
BRANCH  23  24
ATOM     24  O   UNK d   1      84.842  97.563 -43.101  0.00  0.00    -0.389 OA
ATOM     25  H   UNK d   1      83.956  98.005 -43.245  0.00  0.00     0.210 HD
ENDBRANCH  23  24
BRANCH  23  26
ATOM     26  C   UNK d   1      84.617  97.947 -45.397  0.00  0.00     0.034 C 
ATOM     27  C   UNK d   1      83.749  96.735 -45.705  0.00  0.00     0.008 C 
ENDBRANCH  23  26
ENDBRANCH   6  23
TORSDOF 5
ENDMDL
