MODEL 1
REMARK VINA RESULT:    -6.620      0.000      0.000
REMARK INTER + INTRA:          -8.512
REMARK INTER:                  -7.782
REMARK INTRA:                  -0.730
REMARK UNBOUND:                -0.730
REMARK  3 active torsions:
REMARK  status: ('A' for Active; 'I' for Inactive)
REMARK    1  A    between atoms: C_5  and  C_8 
REMARK       I    between atoms: C_8  and  N_10 
REMARK    2  A    between atoms: C_18  and  C_22 
REMARK    3  A    between atoms: C_22  and  C_23 
ROOT
ATOM      1  C   UNK d   1      92.875 102.711 -42.141  0.00  0.00     0.187 C 
ATOM      2  O   UNK d   1      93.480 103.732 -42.727  0.00  0.00    -0.171 OA
ATOM      3  N   UNK d   1      92.233 101.809 -43.005  0.00  0.00    -0.355 N 
ATOM      4  C   UNK d   1      91.504 100.665 -42.586  0.00  0.00     0.160 C 
ATOM      5  C   UNK d   1      90.771 100.070 -43.801  0.00  0.00     0.197 C 
ATOM      6  N   UNK d   1      91.801  99.760 -44.758  0.00  0.00    -0.334 N 
ATOM      7  C   UNK d   1      92.598 100.839 -45.239  0.00  0.00     0.147 C 
ATOM      8  C   UNK d   1      92.360 102.099 -44.433  0.00  0.00     0.145 C 
ATOM      9  C   UNK d   1      92.008  98.441 -45.196  0.00  0.00     0.243 C 
ATOM     10  O   UNK d   1      92.609  98.250 -46.268  0.00  0.00    -0.271 OA
ATOM     11  C   UNK d   1      91.505  97.326 -44.366  0.00  0.00     0.182 C 
ATOM     12  N   UNK d   1      90.158  97.655 -44.002  0.00  0.00    -0.346 N 
ATOM     13  C   UNK d   1      89.920  98.936 -43.446  0.00  0.00     0.243 C 
ATOM     14  O   UNK d   1      88.968  99.140 -42.629  0.00  0.00    -0.271 OA
ATOM     15  H   UNK d   1      89.358  96.987 -44.131  0.00  0.00     0.163 HD
ENDROOT
BRANCH   1  16
ATOM     16  C   UNK d   1      93.006 102.744 -40.711  0.00  0.00     0.018 A 
ATOM     17  C   UNK d   1      92.071 103.158 -39.795  0.00  0.00     0.017 A 
ATOM     18  C   UNK d   1      92.286 103.193 -38.416  0.00  0.00     0.025 A 
ATOM     19  C   UNK d   1      93.483 102.798 -37.915  0.00  0.00     0.034 A 
ATOM     20 Cl   UNK d   1      93.796 102.828 -36.173  0.00  0.00    -0.084 Cl
ATOM     21  C   UNK d   1      94.461 102.372 -38.777  0.00  0.00     0.025 A 
ATOM     22  C   UNK d   1      94.225 102.346 -40.135  0.00  0.00     0.017 A 
ENDBRANCH   1  16
BRANCH  11  23
ATOM     23  C   UNK d   1      91.685  95.989 -44.976  0.00  0.00     0.095 C 
BRANCH  23  24
ATOM     24  C   UNK d   1      91.679  94.952 -43.932  0.00  0.00     0.053 A 
ATOM     25  N   UNK d   1      91.714  95.103 -42.605  0.00  0.00    -0.247 NA
ATOM     26  C   UNK d   1      91.692  93.873 -42.012  0.00  0.00     0.207 A 
ATOM     27  N   UNK d   1      91.645  92.940 -42.966  0.00  0.00    -0.359 N 
ATOM     28  C   UNK d   1      91.636  93.573 -44.143  0.00  0.00     0.116 A 
ATOM     29  H   UNK d   1      91.620  91.926 -42.826  0.00  0.00     0.166 HD
ENDBRANCH  23  24
ENDBRANCH  11  23
TORSDOF 3
ENDMDL
