/Users/jonathanwahrer/Desktop/Msc/3_Semester/Drug_Design_Praktikum/waehrer_HTS_screening/HTS_experiment/out/docking_results/vina_output/4agl/1586_docked.pdbqt
 OpenBabel03212200273D

 29 32  0  0  1  0  0  0  0  0999 V2000
   92.8750  102.7110  -42.1410 C   0  0  0  0  0  0  0  0  0  0  0  0
   93.4800  103.7320  -42.7270 O   0  0  0  0  0  0  0  0  0  0  0  0
   92.2330  101.8090  -43.0050 N   0  0  0  0  0  0  0  0  0  0  0  0
   91.5040  100.6650  -42.5860 C   0  0  0  0  0  2  0  0  0  0  0  0
   90.7710  100.0700  -43.8010 C   0  0  1  0  0  3  0  0  0  0  0  0
   91.8010   99.7600  -44.7580 N   0  0  0  0  0  0  0  0  0  0  0  0
   92.5980  100.8390  -45.2390 C   0  0  0  0  0  2  0  0  0  0  0  0
   92.3600  102.0990  -44.4330 C   0  0  0  0  0  2  0  0  0  0  0  0
   92.0080   98.4410  -45.1960 C   0  0  0  0  0  0  0  0  0  0  0  0
   92.6090   98.2500  -46.2680 O   0  0  0  0  0  0  0  0  0  0  0  0
   91.5050   97.3260  -44.3660 C   0  0  1  0  0  3  0  0  0  0  0  0
   90.1580   97.6550  -44.0020 N   0  0  0  0  0  0  0  0  0  0  0  0
   89.9200   98.9360  -43.4460 C   0  0  0  0  0  0  0  0  0  0  0  0
   88.9680   99.1400  -42.6290 O   0  0  0  0  0  0  0  0  0  0  0  0
   89.3580   96.9870  -44.1310 H   0  0  0  0  0  0  0  0  0  0  0  0
   93.0060  102.7440  -40.7110 C   0  0  0  0  0  0  0  0  0  0  0  0
   92.0710  103.1580  -39.7950 C   0  0  0  0  0  3  0  0  0  0  0  0
   92.2860  103.1930  -38.4160 C   0  0  0  0  0  3  0  0  0  0  0  0
   93.4830  102.7980  -37.9150 C   0  0  0  0  0  0  0  0  0  0  0  0
   93.7960  102.8280  -36.1730 Cl  0  0  0  0  0  0  0  0  0  0  0  0
   94.4610  102.3720  -38.7770 C   0  0  0  0  0  3  0  0  0  0  0  0
   94.2250  102.3460  -40.1350 C   0  0  0  0  0  3  0  0  0  0  0  0
   91.6850   95.9890  -44.9760 C   0  0  0  0  0  2  0  0  0  0  0  0
   91.6790   94.9520  -43.9320 C   0  0  0  0  0  0  0  0  0  0  0  0
   91.7140   95.1030  -42.6050 N   0  0  0  0  0  0  0  0  0  0  0  0
   91.6920   93.8730  -42.0120 C   0  0  0  0  0  3  0  0  0  0  0  0
   91.6450   92.9400  -42.9660 N   0  0  0  0  0  0  0  0  0  0  0  0
   91.6360   93.5730  -44.1430 C   0  0  0  0  0  3  0  0  0  0  0  0
   91.6200   91.9260  -42.8260 H   0  0  0  0  0  0  0  0  0  0  0  0
  1 16  1  0  0  0  0
  2  1  2  0  0  0  0
  3  4  1  0  0  0  0
  3  1  1  0  0  0  0
  5 13  1  0  0  0  0
  5  4  1  1  0  0  0
  6  5  1  0  0  0  0
  7  6  1  0  0  0  0
  7  8  1  0  0  0  0
  8  3  1  0  0  0  0
  9  6  1  0  0  0  0
  9 11  1  0  0  0  0
 10  9  2  0  0  0  0
 11 23  1  6  0  0  0
 11 12  1  0  0  0  0
 12 13  1  0  0  0  0
 13 14  2  0  0  0  0
 15 12  1  0  0  0  0
 16 22  2  0  0  0  0
 16 17  1  0  0  0  0
 17 18  2  0  0  0  0
 18 19  1  0  0  0  0
 19 20  1  0  0  0  0
 21 19  2  0  0  0  0
 22 21  1  0  0  0  0
 23 24  1  0  0  0  0
 24 25  1  0  0  0  0
 25 26  2  0  0  0  0
 27 29  1  0  0  0  0
 27 26  1  0  0  0  0
 28 24  2  0  0  0  0
 28 27  1  0  0  0  0
M  END
>  <Pose>
1

>  <Score>
-6.620

$$$$
