/Users/jonathanwahrer/Desktop/Msc/3_Semester/Drug_Design_Praktikum/waehrer_HTS_screening/HTS_experiment/out/docking_results/vina_output/4agl/1591_docked.pdbqt
 OpenBabel03212200273D

 26 29  0  0  0  0  0  0  0  0999 V2000
   89.9860  100.1040  -45.6410 Cl  0  0  0  0  0  0  0  0  0  0  0  0
   90.7140   98.9440  -44.5520 C   0  0  0  0  0  0  0  0  0  0  0  0
   91.1910   99.3450  -43.3370 C   0  0  0  0  0  0  0  0  0  0  0  0
   91.7640   98.3360  -42.5580 C   0  0  0  0  0  3  0  0  0  0  0  0
   91.8230   97.0720  -43.0060 N   0  0  0  0  0  0  0  0  0  0  0  0
   91.3700   96.6650  -44.1710 N   0  0  0  0  0  0  0  0  0  0  0  0
   90.8120   97.6000  -44.9510 C   0  0  0  0  0  0  0  0  0  0  0  0
   90.3490   97.3090  -46.0830 O   0  0  0  0  0  0  0  0  0  0  0  0
   91.1040  100.6760  -42.8640 N   0  0  0  0  0  0  0  0  0  0  0  0
   91.8510  101.7730  -43.4560 C   0  0  0  0  0  2  0  0  0  0  0  0
   92.8290  102.3720  -42.4790 C   0  0  0  0  0  2  0  0  0  0  0  0
   92.1600  102.4290  -41.2020 N   0  0  0  0  0  0  0  0  0  0  0  0
   90.7200  102.4390  -41.1950 C   0  0  0  0  0  2  0  0  0  0  0  0
   90.2780  101.0570  -41.7240 C   0  0  0  0  0  2  0  0  0  0  0  0
   92.8910  102.4750  -39.9910 C   0  0  0  0  0  0  0  0  0  0  0  0
   94.1040  101.9080  -39.7340 N   0  0  0  0  0  0  0  0  0  0  0  0
   94.4550  102.1730  -38.4920 N   0  0  0  0  0  0  0  0  0  0  0  0
   93.4900  102.9010  -37.9450 C   0  0  0  0  0  0  0  0  0  0  0  0
   92.5680  103.0680  -38.8560 O   0  0  0  0  0  0  0  0  0  0  0  0
   93.4040  103.4580  -36.5560 C   0  0  0  0  0  1  0  0  0  0  0  0
   91.4730   95.3020  -44.5690 C   0  0  0  0  0  0  0  0  0  0  0  0
   91.2200   94.8810  -45.8600 C   0  0  0  0  0  3  0  0  0  0  0  0
   91.3230   93.5590  -46.2350 C   0  0  0  0  0  3  0  0  0  0  0  0
   91.6870   92.5940  -45.3170 C   0  0  0  0  0  3  0  0  0  0  0  0
   91.9410   93.0080  -44.0260 C   0  0  0  0  0  3  0  0  0  0  0  0
   91.8370   94.3350  -43.6540 C   0  0  0  0  0  3  0  0  0  0  0  0
  1  2  1  0  0  0  0
  2  3  2  0  0  0  0
  3  9  1  0  0  0  0
  3  4  1  0  0  0  0
  5  4  2  0  0  0  0
  6  5  1  0  0  0  0
  7  2  1  0  0  0  0
  7  6  1  0  0  0  0
  8  7  2  0  0  0  0
  9 14  1  0  0  0  0
 10  9  1  0  0  0  0
 10 11  1  0  0  0  0
 11 12  1  0  0  0  0
 12 13  1  0  0  0  0
 12 15  1  0  0  0  0
 14 13  1  0  0  0  0
 15 16  2  0  0  0  0
 15 19  1  0  0  0  0
 16 17  1  0  0  0  0
 17 18  2  0  0  0  0
 18 20  1  0  0  0  0
 19 18  1  0  0  0  0
 21  6  1  0  0  0  0
 21 26  1  0  0  0  0
 22 21  2  0  0  0  0
 23 22  1  0  0  0  0
 23 24  2  0  0  0  0
 24 25  1  0  0  0  0
 25 26  2  0  0  0  0
M  END
>  <Pose>
1

>  <Score>
-6.841

$$$$
