MODEL 1
REMARK VINA RESULT:    -5.885      0.000      0.000
REMARK INTER + INTRA:          -7.690
REMARK INTER:                  -7.089
REMARK INTRA:                  -0.601
REMARK UNBOUND:                -0.601
REMARK  4 active torsions:
REMARK  status: ('A' for Active; 'I' for Inactive)
REMARK    1  A    between atoms: C_7  and  C_9 
REMARK       I    between atoms: C_9  and  N_11 
REMARK    2  A    between atoms: N_17  and  C_20 
REMARK    3  A    between atoms: C_20  and  C_21 
REMARK    4  A    between atoms: C_21  and  O_22 
ROOT
ATOM      1  C   UNK d   1      92.186  99.422 -44.886  0.00  0.00     0.274 C 
ATOM      2  O   UNK d   1      92.946  99.831 -43.933  0.00  0.00    -0.266 OA
ATOM      3  N   UNK d   1      91.259  98.450 -44.563  0.00  0.00    -0.341 N 
ATOM      4  C   UNK d   1      90.323  97.884 -45.504  0.00  0.00     0.131 C 
ATOM      5  C   UNK d   1      90.658  96.437 -45.797  0.00  0.00     0.066 C 
ATOM      6  C   UNK d   1      91.148  95.776 -44.541  0.00  0.00     0.039 A 
ATOM      7  C   UNK d   1      91.376  96.421 -43.356  0.00  0.00     0.056 A 
ATOM      8  N   UNK d   1      91.805  95.460 -42.497  0.00  0.00    -0.297 N 
ATOM      9  N   UNK d   1      91.849  94.288 -43.089  0.00  0.00    -0.255 N 
ATOM     10  C   UNK d   1      91.453  94.417 -44.361  0.00  0.00     0.270 A 
ATOM     11  O   UNK d   1      91.359  93.514 -45.254  0.00  0.00    -0.266 OA
ATOM     12  C   UNK d   1      91.150  97.886 -43.195  0.00  0.00     0.185 C 
ATOM     13  H   UNK d   1      92.056  95.679 -41.503  0.00  0.00     0.187 HD
ENDROOT
BRANCH   1  14
ATOM     14  C   UNK d   1      92.387 100.025 -46.193  0.00  0.00     0.142 A 
ATOM     15  N   UNK d   1      92.908  99.479 -47.292  0.00  0.00    -0.224 NA
ATOM     16  C   UNK d   1      92.909 100.388 -48.280  0.00  0.00     0.134 A 
ATOM     17  N   UNK d   1      92.385 101.528 -47.815  0.00  0.00    -0.313 N 
ATOM     18  C   UNK d   1      93.362 100.250 -49.603  0.00  0.00     0.052 A 
ATOM     19  C   UNK d   1      92.280 102.605 -48.643  0.00  0.00     0.122 A 
ATOM     20  C   UNK d   1      92.050 101.345 -46.531  0.00  0.00     0.135 A 
ATOM     21  C   UNK d   1      92.717 102.497 -49.944  0.00  0.00     0.050 A 
ATOM     22 Cl   UNK d   1      92.602 103.856 -51.046  0.00  0.00    -0.083 Cl
ATOM     23  C   UNK d   1      93.260 101.322 -50.434  0.00  0.00     0.029 A 
ENDBRANCH   1  14
BRANCH   9  24
ATOM     24  C   UNK d   1      92.259  93.001 -42.508  0.00  0.00     0.178 C 
BRANCH  24  25
ATOM     25  C   UNK d   1      93.634  93.105 -41.891  0.00  0.00     0.186 C 
BRANCH  25  26
ATOM     26  O   UNK d   1      93.700  94.089 -40.913  0.00  0.00    -0.399 OA
ATOM     27  H   UNK d   1      94.067  94.952 -41.271  0.00  0.00     0.209 HD
ENDBRANCH  25  26
ENDBRANCH  24  25
ENDBRANCH   9  24
TORSDOF 4
ENDMDL
