MODEL 1
REMARK VINA RESULT:    -6.470      0.000      0.000
REMARK INTER + INTRA:          -8.717
REMARK INTER:                  -7.983
REMARK INTRA:                  -0.734
REMARK UNBOUND:                -0.734
REMARK  4 active torsions:
REMARK  status: ('A' for Active; 'I' for Inactive)
REMARK    1  A    between atoms: C_4  and  C_8 
REMARK    2  A    between atoms: C_8  and  C_9 
REMARK    3  A    between atoms: C_9  and  N_10 
REMARK       I    between atoms: N_17  and  C_19 
REMARK    4  A    between atoms: C_19  and  C_21 
ROOT
ATOM      1  N   UNK d   1      91.423  98.917 -43.654  0.00  0.00    -0.319 N 
ATOM      2  C   UNK d   1      90.844 100.119 -43.116  0.00  0.00     0.138 C 
ATOM      3  C   UNK d   1      91.233 101.138 -44.169  0.00  0.00     0.176 C 
ATOM      4  O   UNK d   1      92.584 100.764 -44.410  0.00  0.00    -0.295 OA
ATOM      5  C   UNK d   1      92.539  99.355 -44.421  0.00  0.00     0.363 C 
ATOM      6  O   UNK d   1      93.390  98.638 -45.036  0.00  0.00    -0.238 OA
ATOM      7  C   UNK d   1      91.073 102.384 -43.377  0.00  0.00     0.161 C 
ATOM      8  N   UNK d   1      91.863 102.054 -42.169  0.00  0.00    -0.342 N 
ATOM      9  C   UNK d   1      91.682 100.654 -41.941  0.00  0.00     0.154 C 
ATOM     10  C   UNK d   1      92.592 103.042 -41.500  0.00  0.00     0.272 C 
ATOM     11  O   UNK d   1      92.583 104.262 -41.945  0.00  0.00    -0.266 OA
ENDROOT
BRANCH   1  12
ATOM     12  C   UNK d   1      91.045  97.530 -43.511  0.00  0.00     0.133 C 
BRANCH  12  13
ATOM     13  C   UNK d   1      91.489  96.913 -42.213  0.00  0.00     0.058 C 
BRANCH  13  14
ATOM     14  C   UNK d   1      91.881  95.493 -42.372  0.00  0.00    -0.055 A 
ATOM     15  C   UNK d   1      91.629  94.813 -43.564  0.00  0.00     0.031 A 
ATOM     16  C   UNK d   1      91.990  93.496 -43.726  0.00  0.00     0.034 A 
ATOM     17 Cl   UNK d   1      91.650  92.677 -45.253  0.00  0.00    -0.084 Cl
ATOM     18  C   UNK d   1      92.614  92.782 -42.726  0.00  0.00     0.024 A 
ATOM     19  C   UNK d   1      92.865  93.450 -41.546  0.00  0.00     0.002 A 
ATOM     20  C   UNK d   1      92.507  94.775 -41.374  0.00  0.00     0.007 A 
ENDBRANCH  13  14
ENDBRANCH  12  13
ENDBRANCH   1  12
BRANCH  10  21
ATOM     21  C   UNK d   1      93.398 102.856 -40.308  0.00  0.00     0.121 A 
ATOM     22  N   UNK d   1      92.957 102.794 -39.023  0.00  0.00    -0.340 N 
ATOM     23  C   UNK d   1      94.004 102.610 -38.222  0.00  0.00     0.209 A 
ATOM     24  C   UNK d   1      91.580 102.912 -38.620  0.00  0.00     0.157 C 
ATOM     25  N   UNK d   1      95.111 102.551 -38.964  0.00  0.00    -0.253 NA
ATOM     26  C   UNK d   1      94.752 102.701 -40.259  0.00  0.00     0.153 A 
ENDBRANCH  10  21
TORSDOF 4
ENDMDL
