MODEL 1
REMARK VINA RESULT:    -6.115      0.000      0.000
REMARK INTER + INTRA:          -9.155
REMARK INTER:                  -7.545
REMARK INTRA:                  -1.610
REMARK UNBOUND:                -1.610
REMARK  4 active torsions:
REMARK  status: ('A' for Active; 'I' for Inactive)
REMARK    1  A    between atoms: C_4  and  C_8 
REMARK    2  A    between atoms: C_8  and  N_9 
REMARK    3  A    between atoms: C_13  and  N_14 
REMARK       I    between atoms: N_17  and  C_20 
REMARK    4  A    between atoms: C_20  and  C_22 
ROOT
ATOM      1  N   UNK d   1      90.776  97.706 -44.508  0.00  0.00    -0.168 N 
ATOM      2  C   UNK d   1      91.092  96.399 -44.397  0.00  0.00     0.167 A 
ATOM      3  C   UNK d   1      91.474  96.188 -43.094  0.00  0.00     0.185 A 
ATOM      4  N   UNK d   1      91.382  97.344 -42.466  0.00  0.00    -0.044 NA
ATOM      5  C   UNK d   1      90.949  98.301 -43.324  0.00  0.00     0.707 A 
ATOM      6  N   UNK d   1      91.842  94.926 -42.734  0.00  0.00    -0.286 N 
ATOM      7  C   UNK d   1      91.836  93.914 -43.610  0.00  0.00     0.330 A 
ATOM      8  O   UNK d   1      92.185  92.763 -43.228  0.00  0.00    -0.246 OA
ATOM      9  N   UNK d   1      91.470  94.076 -44.888  0.00  0.00    -0.273 N 
ATOM     10  C   UNK d   1      91.099  95.320 -45.275  0.00  0.00     0.280 A 
ATOM     11  O   UNK d   1      90.756  95.477 -46.467  0.00  0.00    -0.265 OA
ATOM     12  C   UNK d   1      92.247  94.680 -41.352  0.00  0.00     0.163 C 
ATOM     13  H   UNK d   1      91.480  93.260 -45.539  0.00  0.00     0.173 HD
ENDROOT
BRANCH   5  14
ATOM     14  N   UNK d   1      90.675  99.659 -42.950  0.00  0.00    -0.212 N 
ATOM     15  C   UNK d   1      91.750 100.655 -43.141  0.00  0.00     0.161 C 
ATOM     16  C   UNK d   1      91.305 101.796 -43.997  0.00  0.00     0.146 C 
ATOM     17  N   UNK d   1      89.867 101.940 -43.973  0.00  0.00    -0.349 N 
ATOM     18  C   UNK d   1      89.184 101.587 -42.746  0.00  0.00     0.146 C 
ATOM     19  C   UNK d   1      89.163 102.419 -45.111  0.00  0.00     0.219 C 
ATOM     20  C   UNK d   1      89.446 100.128 -42.419  0.00  0.00     0.161 C 
ATOM     21  O   UNK d   1      89.782 102.737 -46.150  0.00  0.00    -0.273 OA
BRANCH  19  22
ATOM     22  C   UNK d   1      87.687 102.554 -45.102  0.00  0.00     0.098 C 
ATOM     23  C   UNK d   1      87.133 101.510 -46.068  0.00  0.00     0.014 C 
ENDBRANCH  19  22
ENDBRANCH   5  14
BRANCH   1  24
ATOM     24  C   UNK d   1      90.283  98.283 -45.718  0.00  0.00     0.186 C 
BRANCH  24  25
ATOM     25  C   UNK d   1      88.825  98.155 -45.952  0.00  0.00    -0.038 A 
ATOM     26  C   UNK d   1      87.933  98.031 -44.925  0.00  0.00     0.032 A 
ATOM     27  C   UNK d   1      86.587  97.871 -45.229  0.00  0.00     0.034 A 
ATOM     28 Cl   UNK d   1      85.460  97.718 -43.882  0.00  0.00    -0.084 Cl
ATOM     29  C   UNK d   1      86.104  97.831 -46.518  0.00  0.00     0.024 A 
ATOM     30  C   UNK d   1      87.021  97.957 -47.547  0.00  0.00     0.002 A 
ATOM     31  C   UNK d   1      88.350  98.116 -47.277  0.00  0.00     0.009 A 
ENDBRANCH  24  25
ENDBRANCH   1  24
TORSDOF 4
ENDMDL
