MODEL 1
REMARK VINA RESULT:    -6.790      0.000      0.000
REMARK INTER + INTRA:          -8.371
REMARK INTER:                  -7.584
REMARK INTRA:                  -0.787
REMARK UNBOUND:                -0.787
REMARK  2 active torsions:
REMARK  status: ('A' for Active; 'I' for Inactive)
REMARK    1  A    between atoms: C_3  and  C_13 
REMARK    2  A    between atoms: C_5  and  N_8 
REMARK       I    between atoms: C_13  and  N_15 
ROOT
ATOM      1  C   UNK d   1      89.786  98.045 -44.917  0.00  0.00     0.255 C 
ATOM      2  O   UNK d   1      88.632  98.167 -44.431  0.00  0.00    -0.267 OA
ATOM      3  N   UNK d   1      90.596  99.166 -45.243  0.00  0.00    -0.348 N 
ATOM      4  C   UNK d   1      90.072 100.494 -45.005  0.00  0.00     0.129 C 
ATOM      5  C   UNK d   1      91.266 101.406 -44.790  0.00  0.00     0.061 C 
ATOM      6  C   UNK d   1      92.391 100.704 -44.063  0.00  0.00     0.119 C 
ATOM      7  N   UNK d   1      93.369 101.710 -43.717  0.00  0.00    -0.324 N 
ATOM      8  C   UNK d   1      92.997 102.285 -42.474  0.00  0.00     0.325 C 
ATOM      9  O   UNK d   1      93.360 103.402 -41.988  0.00  0.00    -0.247 OA
ATOM     10  N   UNK d   1      92.112 101.345 -41.857  0.00  0.00    -0.272 N 
ATOM     11  C   UNK d   1      91.961 100.222 -42.725  0.00  0.00     0.256 C 
ATOM     12  O   UNK d   1      91.546  99.080 -42.386  0.00  0.00    -0.270 OA
ATOM     13  C   UNK d   1      91.449 101.465 -40.556  0.00  0.00     0.164 C 
ATOM     14  C   UNK d   1      92.977  99.583 -44.870  0.00  0.00     0.061 C 
ATOM     15  C   UNK d   1      91.924  99.068 -45.803  0.00  0.00     0.129 C 
ATOM     16  H   UNK d   1      94.194 101.953 -44.297  0.00  0.00     0.165 HD
ENDROOT
BRANCH   1  17
ATOM     17  C   UNK d   1      90.252  96.672 -45.131  0.00  0.00     0.056 A 
ATOM     18  C   UNK d   1      89.925  95.995 -46.287  0.00  0.00     0.050 A 
ATOM     19 Cl   UNK d   1      88.935  96.818 -47.500  0.00  0.00    -0.083 Cl
ATOM     20  C   UNK d   1      90.349  94.702 -46.516  0.00  0.00     0.027 A 
ATOM     21  C   UNK d   1      91.116  94.109 -45.540  0.00  0.00     0.033 A 
ATOM     22  C   UNK d   1      91.469  94.751 -44.364  0.00  0.00     0.059 A 
ATOM     23  C   UNK d   1      91.022  96.042 -44.179  0.00  0.00     0.050 A 
BRANCH  22  24
ATOM     24  N   UNK d   1      92.268  94.078 -43.392  0.00  0.00    -0.245 N 
ATOM     25  N   UNK d   1      93.169  93.145 -43.578  0.00  0.00    -0.180 NA
ATOM     26  C   UNK d   1      93.699  92.773 -42.376  0.00  0.00     0.140 A 
ATOM     27  C   UNK d   1      93.090  93.521 -41.393  0.00  0.00     0.040 A 
ATOM     28  C   UNK d   1      92.186  94.339 -42.076  0.00  0.00     0.120 A 
ENDBRANCH  22  24
ENDBRANCH   1  17
TORSDOF 2
ENDMDL
