MODEL 1
REMARK VINA RESULT:    -7.339      0.000      0.000
REMARK INTER + INTRA:         -11.372
REMARK INTER:                  -9.914
REMARK INTRA:                  -1.459
REMARK UNBOUND:                -1.459
REMARK  6 active torsions:
REMARK  status: ('A' for Active; 'I' for Inactive)
REMARK    1  A    between atoms: C_10  and  C_27 
REMARK    2  A    between atoms: N_15  and  C_18 
REMARK    3  A    between atoms: C_18  and  C_19 
REMARK    4  A    between atoms: C_20  and  O_25 
REMARK    5  A    between atoms: C_27  and  C_28 
REMARK    6  A    between atoms: C_28  and  C_29 
REMARK       I    between atoms: C_29  and  N_31 
ROOT
ATOM      1 Cl   UNK d   1      93.009  93.891 -41.294  0.00  0.00    -0.084 Cl
ATOM      2  C   UNK d   1      92.192  95.025 -42.380  0.00  0.00     0.042 A 
ATOM      3  C   UNK d   1      91.808  94.620 -43.635  0.00  0.00    -0.013 A 
ATOM      4  C   UNK d   1      91.166  95.507 -44.489  0.00  0.00     0.051 A 
ATOM      5  C   UNK d   1      90.882  96.802 -44.150  0.00  0.00     0.018 A 
ATOM      6  C   UNK d   1      91.285  97.188 -42.862  0.00  0.00     0.014 A 
ATOM      7  C   UNK d   1      91.922  96.316 -42.007  0.00  0.00     0.025 A 
ATOM      8  C   UNK d   1      90.212  97.459 -45.260  0.00  0.00     0.279 A 
ATOM      9  N   UNK d   1      88.875  97.840 -44.815  0.00  0.00     0.113 N 
ATOM     10  C   UNK d   1      88.994  99.256 -44.599  0.00  0.00     0.237 C 
ATOM     11  C   UNK d   1      89.774  99.694 -45.818  0.00  0.00     0.128 C 
ATOM     12  C   UNK d   1      90.886  98.668 -45.811  0.00  0.00     0.147 C 
ATOM     13  C   UNK d   1      91.934  99.270 -45.013  0.00  0.00     0.235 C 
ATOM     14  O   UNK d   1      92.920  98.688 -44.508  0.00  0.00    -0.272 OA
ATOM     15  N   UNK d   1      91.676 100.661 -44.879  0.00  0.00    -0.283 N 
ATOM     16  C   UNK d   1      90.476 100.982 -45.585  0.00  0.00     0.234 C 
ATOM     17  O   UNK d   1      90.041 102.096 -45.962  0.00  0.00    -0.272 OA
ATOM     18  C   UNK d   1      90.109  96.423 -46.315  0.00  0.00     0.267 A 
ATOM     19  O   UNK d   1      89.591  96.534 -47.465  0.00  0.00    -0.270 OA
ATOM     20  N   UNK d   1      90.704  95.249 -45.809  0.00  0.00    -0.323 N 
ATOM     21  C   UNK d   1      92.095  93.219 -44.052  0.00  0.00     0.052 C 
ATOM     22  H   UNK d   1      88.618  97.291 -43.967  0.00  0.00     0.318 HD
ATOM     23  H   UNK d   1      90.784  94.339 -46.337  0.00  0.00     0.169 HD
ENDROOT
BRANCH  10  24
ATOM     24  C   UNK d   1      87.638  99.921 -44.522  0.00  0.00     0.045 C 
BRANCH  24  25
ATOM     25  C   UNK d   1      86.840  99.165 -43.481  0.00  0.00     0.105 C 
BRANCH  25  26
ATOM     26  C   UNK d   1      85.568  98.640 -44.036  0.00  0.00     0.215 C 
ATOM     27  O   UNK d   1      85.203  98.996 -45.192  0.00  0.00    -0.274 OA
ATOM     28  N   UNK d   1      84.818  97.750 -43.221  0.00  0.00    -0.370 N 
ATOM     29  H   UNK d   1      85.334  97.073 -42.635  0.00  0.00     0.159 HD
ATOM     30  H   UNK d   1      83.771  97.832 -43.263  0.00  0.00     0.159 HD
ENDBRANCH  25  26
ENDBRANCH  24  25
ENDBRANCH  10  24
BRANCH  15  31
ATOM     31  C   UNK d   1      92.445 101.664 -44.168  0.00  0.00     0.176 C 
BRANCH  31  32
ATOM     32  C   UNK d   1      92.165 101.660 -42.721  0.00  0.00    -0.006 A 
ATOM     33  C   UNK d   1      93.221 101.861 -41.859  0.00  0.00     0.076 A 
ATOM     34  C   UNK d   1      92.950 101.855 -40.497  0.00  0.00     0.037 A 
ATOM     35  C   UNK d   1      91.685 101.658 -40.020  0.00  0.00     0.003 A 
ATOM     36  C   UNK d   1      90.658 101.462 -40.913  0.00  0.00     0.001 A 
ATOM     37  C   UNK d   1      90.862 101.456 -42.275  0.00  0.00     0.011 A 
BRANCH  33  38
ATOM     38  O   UNK d   1      94.490 102.058 -42.363  0.00  0.00    -0.355 OA
ATOM     39  C   UNK d   1      95.264 103.197 -42.153  0.00  0.00     0.210 C 
ENDBRANCH  33  38
ENDBRANCH  31  32
ENDBRANCH  15  31
TORSDOF 6
ENDMDL
