/Users/jonathanwahrer/Desktop/Msc/3_Semester/Drug_Design_Praktikum/waehrer_HTS_screening/HTS_experiment/out/docking_results/vina_output/4agl/1630_docked.pdbqt
 OpenBabel03212200283D

 39 43  0  0  1  0  0  0  0  0999 V2000
   93.0090   93.8910  -41.2940 Cl  0  0  0  0  0  0  0  0  0  0  0  0
   92.1920   95.0250  -42.3800 C   0  0  0  0  0  0  0  0  0  0  0  0
   91.8080   94.6200  -43.6350 C   0  0  0  0  0  0  0  0  0  0  0  0
   91.1660   95.5070  -44.4890 C   0  0  0  0  0  0  0  0  0  0  0  0
   90.8820   96.8020  -44.1500 C   0  0  0  0  0  0  0  0  0  0  0  0
   91.2850   97.1880  -42.8620 C   0  0  0  0  0  3  0  0  0  0  0  0
   91.9220   96.3160  -42.0070 C   0  0  0  0  0  3  0  0  0  0  0  0
   90.2120   97.4590  -45.2600 C   0  0  1  0  0  0  0  0  0  0  0  0
   88.8750   97.8400  -44.8150 N   0  0  0  0  0  0  0  0  0  0  0  0
   88.9940   99.2560  -44.5990 C   0  0  1  0  0  3  0  0  0  0  0  0
   89.7740   99.6940  -45.8180 C   0  0  2  0  0  3  0  0  0  0  0  0
   90.8860   98.6680  -45.8110 C   0  0  1  0  0  3  0  0  0  0  0  0
   91.9340   99.2700  -45.0130 C   0  0  0  0  0  0  0  0  0  0  0  0
   92.9200   98.6880  -44.5080 O   0  0  0  0  0  0  0  0  0  0  0  0
   91.6760  100.6610  -44.8790 N   0  0  0  0  0  0  0  0  0  0  0  0
   90.4760  100.9820  -45.5850 C   0  0  0  0  0  0  0  0  0  0  0  0
   90.0410  102.0960  -45.9620 O   0  0  0  0  0  0  0  0  0  0  0  0
   90.1090   96.4230  -46.3150 C   0  0  0  0  0  0  0  0  0  0  0  0
   89.5910   96.5340  -47.4650 O   0  0  0  0  0  0  0  0  0  0  0  0
   90.7040   95.2490  -45.8090 N   0  0  0  0  0  0  0  0  0  0  0  0
   92.0950   93.2190  -44.0520 C   0  0  0  0  0  1  0  0  0  0  0  0
   88.6180   97.2910  -43.9670 H   0  0  0  0  0  0  0  0  0  0  0  0
   90.7840   94.3390  -46.3370 H   0  0  0  0  0  0  0  0  0  0  0  0
   87.6380   99.9210  -44.5220 C   0  0  0  0  0  2  0  0  0  0  0  0
   86.8400   99.1650  -43.4810 C   0  0  0  0  0  2  0  0  0  0  0  0
   85.5680   98.6400  -44.0360 C   0  0  0  0  0  0  0  0  0  0  0  0
   85.2030   98.9960  -45.1920 O   0  0  0  0  0  0  0  0  0  0  0  0
   84.8180   97.7500  -43.2210 N   0  0  0  0  0  0  0  0  0  0  0  0
   85.3340   97.0730  -42.6350 H   0  0  0  0  0  0  0  0  0  0  0  0
   83.7710   97.8320  -43.2630 H   0  0  0  0  0  0  0  0  0  0  0  0
   92.4450  101.6640  -44.1680 C   0  0  0  0  0  2  0  0  0  0  0  0
   92.1650  101.6600  -42.7210 C   0  0  0  0  0  0  0  0  0  0  0  0
   93.2210  101.8610  -41.8590 C   0  0  0  0  0  0  0  0  0  0  0  0
   92.9500  101.8550  -40.4970 C   0  0  0  0  0  3  0  0  0  0  0  0
   91.6850  101.6580  -40.0200 C   0  0  0  0  0  3  0  0  0  0  0  0
   90.6580  101.4620  -40.9130 C   0  0  0  0  0  3  0  0  0  0  0  0
   90.8620  101.4560  -42.2750 C   0  0  0  0  0  3  0  0  0  0  0  0
   94.4900  102.0580  -42.3630 O   0  0  0  0  0  0  0  0  0  0  0  0
   95.2640  103.1970  -42.1530 C   0  0  0  0  0  1  0  0  0  0  0  0
  2  7  1  0  0  0  0
  2  1  1  0  0  0  0
  3  2  2  0  0  0  0
  4  5  2  0  0  0  0
  4  3  1  0  0  0  0
  5  6  1  0  0  0  0
  6  7  2  0  0  0  0
  8 18  1  6  0  0  0
  8  9  1  0  0  0  0
  8  5  1  0  0  0  0
  9 10  1  0  0  0  0
  9 22  1  0  0  0  0
 10 24  1  6  0  0  0
 11 12  1  0  0  0  0
 11 16  1  1  0  0  0
 11 10  1  0  0  0  0
 12  8  1  0  0  0  0
 12 13  1  1  0  0  0
 13 15  1  0  0  0  0
 13 14  2  0  0  0  0
 15 31  1  0  0  0  0
 16 15  1  0  0  0  0
 17 16  2  0  0  0  0
 18 20  1  0  0  0  0
 19 18  2  0  0  0  0
 20  4  1  0  0  0  0
 21  3  1  0  0  0  0
 23 20  1  0  0  0  0
 24 25  1  0  0  0  0
 26 25  1  0  0  0  0
 26 28  1  0  0  0  0
 27 26  2  0  0  0  0
 28 29  1  0  0  0  0
 30 28  1  0  0  0  0
 31 32  1  0  0  0  0
 32 37  2  0  0  0  0
 32 33  1  0  0  0  0
 33 34  2  0  0  0  0
 34 35  1  0  0  0  0
 36 35  2  0  0  0  0
 37 36  1  0  0  0  0
 38 39  1  0  0  0  0
 38 33  1  0  0  0  0
M  END
>  <Pose>
1

>  <Score>
-7.339

$$$$
