MODEL 1
REMARK VINA RESULT:    -6.867      0.000      0.000
REMARK INTER + INTRA:          -8.975
REMARK INTER:                  -8.071
REMARK INTRA:                  -0.904
REMARK UNBOUND:                -0.904
REMARK  3 active torsions:
REMARK  status: ('A' for Active; 'I' for Inactive)
REMARK    1  A    between atoms: C_4  and  C_8 
REMARK    2  A    between atoms: N_9  and  C_23 
REMARK    3  A    between atoms: C_15  and  C_17 
ROOT
ATOM      1  C   UNK d   1      90.671  97.474 -45.393  0.00  0.00     0.185 C 
ATOM      2  N   UNK d   1      89.269  97.577 -45.682  0.00  0.00    -0.128 N 
ATOM      3  C   UNK d   1      88.568  98.133 -44.575  0.00  0.00     0.314 C 
ATOM      4  O   UNK d   1      87.320  98.115 -44.367  0.00  0.00    -0.263 OA
ATOM      5  C   UNK d   1      89.567  98.755 -43.681  0.00  0.00     0.251 C 
ATOM      6  O   UNK d   1      89.306  99.338 -42.604  0.00  0.00    -0.282 OA
ATOM      7  C   UNK d   1      90.850  98.525 -44.332  0.00  0.00     0.063 C 
ATOM      8  C   UNK d   1      91.966  99.133 -43.990  0.00  0.00     0.130 C 
ATOM      9  O   UNK d   1      93.135  98.762 -44.685  0.00  0.00    -0.190 OA
ENDROOT
BRANCH   1  10
ATOM     10  C   UNK d   1      91.088  96.132 -44.915  0.00  0.00    -0.028 A 
ATOM     11  C   UNK d   1      91.403  95.897 -43.582  0.00  0.00     0.033 A 
ATOM     12  C   UNK d   1      91.792  94.671 -43.098  0.00  0.00     0.034 A 
ATOM     13 Cl   UNK d   1      92.178  94.412 -41.411  0.00  0.00    -0.084 Cl
ATOM     14  C   UNK d   1      91.872  93.624 -43.990  0.00  0.00     0.024 A 
ATOM     15  C   UNK d   1      91.570  93.808 -45.323  0.00  0.00     0.002 A 
ATOM     16  C   UNK d   1      91.182  95.047 -45.781  0.00  0.00     0.010 A 
ENDBRANCH   1  10
BRANCH   8  17
ATOM     17  C   UNK d   1      92.064 100.155 -42.957  0.00  0.00     0.001 A 
ATOM     18  C   UNK d   1      91.868 101.501 -43.295  0.00  0.00     0.014 A 
ATOM     19  C   UNK d   1      91.927 102.486 -42.333  0.00  0.00     0.001 A 
ATOM     20  C   UNK d   1      92.176 102.206 -41.006  0.00  0.00     0.000 A 
ATOM     21  C   UNK d   1      92.370 100.890 -40.653  0.00  0.00     0.001 A 
ATOM     22  C   UNK d   1      92.311  99.894 -41.629  0.00  0.00     0.014 A 
ENDBRANCH   8  17
BRANCH   2  23
ATOM     23  C   UNK d   1      88.652  97.182 -46.889  0.00  0.00     0.710 A 
ATOM     24  N   UNK d   1      87.404  96.656 -46.775  0.00  0.00    -0.200 N 
ATOM     25  C   UNK d   1      86.715  96.247 -47.839  0.00  0.00     0.107 A 
ATOM     26  H   UNK d   1      86.944  96.560 -45.827  0.00  0.00     0.183 HD
ATOM     27  C   UNK d   1      87.301  96.372 -49.078  0.00  0.00     0.037 A 
ATOM     28  C   UNK d   1      88.567  96.909 -49.170  0.00  0.00     0.138 A 
ATOM     29  N   UNK d   1      89.256  97.318 -48.090  0.00  0.00    -0.077 NA
ENDBRANCH   2  23
TORSDOF 3
ENDMDL
