/Users/jonathanwahrer/Desktop/Msc/3_Semester/Drug_Design_Praktikum/waehrer_HTS_screening/HTS_experiment/out/docking_results/vina_output/4agl/1637_docked.pdbqt
 OpenBabel03212200293D

 29 32  0  0  0  0  0  0  0  0999 V2000
   92.7000  103.0240  -42.8100 C   0  0  0  0  0  0  0  0  0  0  0  0
   91.6790  102.8400  -43.6550 N   0  0  0  0  0  0  0  0  0  0  0  0
   90.6960  101.9650  -43.4640 C   0  0  0  0  0  0  0  0  0  0  0  0
   90.7530  101.1830  -42.2990 C   0  0  0  0  0  0  0  0  0  0  0  0
   91.7860  101.3730  -41.4510 C   0  0  0  0  0  0  0  0  0  0  0  0
   92.7540  102.2960  -41.7100 N   0  0  0  0  0  0  0  0  0  0  0  0
   89.7300  100.1390  -42.2050 C   0  0  0  0  0  2  0  0  0  0  0  0
   89.7760   99.4410  -43.4530 N   0  0  0  0  0  0  0  0  0  0  0  0
   88.9820  100.3640  -44.3790 C   0  0  0  0  0  2  0  0  0  0  0  0
   89.5640  101.7330  -44.4000 C   0  0  0  0  0  2  0  0  0  0  0  0
   91.0970   99.4250  -44.1790 C   0  0  0  0  0  2  0  0  0  0  0  0
   91.1520   97.9380  -44.5400 C   0  0  0  0  0  0  0  0  0  0  0  0
   91.4960   96.9410  -43.7120 C   0  0  0  0  0  0  0  0  0  0  0  0
   91.5310   95.5720  -44.0910 C   0  0  0  0  0  0  0  0  0  0  0  0
   91.8640   97.3340  -42.0670 Cl  0  0  0  0  0  0  0  0  0  0  0  0
   91.1670   95.3300  -45.4190 C   0  0  0  0  0  0  0  0  0  0  0  0
   91.8740   94.5350  -43.2920 C   0  0  0  0  0  3  0  0  0  0  0  0
   91.1820   94.0330  -45.8400 C   0  0  0  0  0  3  0  0  0  0  0  0
   90.8240   96.2810  -46.2180 O   0  0  0  0  0  0  0  0  0  0  0  0
   91.5390   92.9360  -45.0250 C   0  0  0  0  0  3  0  0  0  0  0  0
   91.8930   93.2290  -43.6950 C   0  0  0  0  0  3  0  0  0  0  0  0
   90.8020   97.5670  -45.8360 C   0  0  0  0  0  0  0  0  0  0  0  0
   90.4670   98.5080  -46.6530 O   0  0  0  0  0  0  0  0  0  0  0  0
   91.8380  100.6110  -40.2930 O   0  0  0  0  0  0  0  0  0  0  0  0
   91.3920  100.8820  -39.4110 H   0  0  0  0  0  0  0  0  0  0  0  0
   93.9780  104.1640  -43.2710 S   0  0  0  0  0  0  0  0  0  0  0  0
   93.6900  105.5170  -42.8490 O   0  0  0  0  0  0  0  0  0  0  0  0
   94.1240  104.0580  -44.7600 O   0  0  0  0  0  0  0  0  0  0  0  0
   95.4950  103.5040  -42.5360 C   0  0  0  0  0  1  0  0  0  0  0  0
  1  6  1  0  0  0  0
  2  3  1  0  0  0  0
  2  1  2  0  0  0  0
  3  4  2  0  0  0  0
  4  7  1  0  0  0  0
  4  5  1  0  0  0  0
  5 24  1  0  0  0  0
  6  5  2  0  0  0  0
  8  7  1  0  0  0  0
  9  8  1  0  0  0  0
 10  9  1  0  0  0  0
 10  3  1  0  0  0  0
 11  8  1  0  0  0  0
 12 11  1  0  0  0  0
 12 13  2  0  0  0  0
 13 15  1  0  0  0  0
 14 13  1  0  0  0  0
 14 17  1  0  0  0  0
 16 14  2  0  0  0  0
 18 16  1  0  0  0  0
 18 20  2  0  0  0  0
 19 22  1  0  0  0  0
 19 16  1  0  0  0  0
 20 21  1  0  0  0  0
 21 17  2  0  0  0  0
 22 12  1  0  0  0  0
 23 22  2  0  0  0  0
 24 25  1  0  0  0  0
 26 27  2  0  0  0  0
 26  1  1  0  0  0  0
 26 29  1  0  0  0  0
 28 26  2  0  0  0  0
M  END
>  <Pose>
1

>  <Score>
-6.462

$$$$
