MODEL 1
REMARK VINA RESULT:    -6.021      0.000      0.000
REMARK INTER + INTRA:          -9.467
REMARK INTER:                  -8.309
REMARK INTRA:                  -1.157
REMARK UNBOUND:                -1.157
REMARK  7 active torsions:
REMARK  status: ('A' for Active; 'I' for Inactive)
REMARK    1  A    between atoms: S_1  and  C_4 
REMARK    2  A    between atoms: S_1  and  C_26 
REMARK    3  A    between atoms: C_5  and  N_25 
REMARK    4  A    between atoms: C_7  and  N_10 
REMARK    5  A    between atoms: C_13  and  N_16 
REMARK    6  A    between atoms: C_13  and  C_22 
REMARK       I    between atoms: C_22  and  N_24 
REMARK    7  A    between atoms: C_27  and  O_33 
ROOT
ATOM      1  C   UNK d   1      90.863  99.332 -43.855  0.00  0.00     0.128 A 
ATOM      2  C   UNK d   1      92.112  99.840 -43.526  0.00  0.00     0.164 A 
ATOM      3  N   UNK d   1      92.226 100.749 -42.520  0.00  0.00    -0.044 NA
ATOM      4  C   UNK d   1      91.174 101.188 -41.817  0.00  0.00     0.726 A 
ATOM      5  N   UNK d   1      89.961 100.700 -42.131  0.00  0.00    -0.073 NA
ATOM      6  C   UNK d   1      89.798  99.801 -43.116  0.00  0.00     0.164 A 
ENDROOT
BRANCH   4   7
ATOM      7  N   UNK d   1      91.295 102.137 -40.760  0.00  0.00    -0.214 N 
ATOM      8  C   UNK d   1      91.825 101.783 -39.466  0.00  0.00     0.144 C 
ATOM      9  C   UNK d   1      92.976 102.638 -39.012  0.00  0.00     0.072 C 
ATOM     10  C   UNK d   1      92.965 104.010 -39.666  0.00  0.00     0.241 C 
ATOM     11  C   UNK d   1      91.466 104.319 -39.825  0.00  0.00     0.072 C 
ATOM     12  C   UNK d   1      90.883 103.517 -40.939  0.00  0.00     0.144 C 
BRANCH  10  13
ATOM     13  N   UNK d   1      93.574 104.077 -40.907  0.00  0.00     0.107 N 
ATOM     14  C   UNK d   1      94.766 103.380 -41.195  0.00  0.00     0.274 C 
ATOM     15  C   UNK d   1      94.722 102.996 -42.684  0.00  0.00     0.030 C 
ATOM     16  C   UNK d   1      93.794 103.953 -43.381  0.00  0.00     0.003 C 
ATOM     17  C   UNK d   1      93.934 105.366 -42.875  0.00  0.00     0.030 C 
ATOM     18  C   UNK d   1      93.756 105.426 -41.367  0.00  0.00     0.274 C 
ENDBRANCH  10  13
BRANCH  10  19
ATOM     19  C   UNK d   1      93.473 104.986 -38.676  0.00  0.00     0.255 C 
ATOM     20  O   UNK d   1      94.621 104.832 -38.137  0.00  0.00    -0.271 OA
ATOM     21  N   UNK d   1      92.754 106.116 -38.269  0.00  0.00    -0.368 N 
ATOM     22  H   UNK d   1      92.306 106.104 -37.312  0.00  0.00     0.159 HD
ATOM     23  H   UNK d   1      92.612 106.992 -38.810  0.00  0.00     0.159 HD
ENDBRANCH  10  19
ENDBRANCH   4   7
BRANCH   2  24
ATOM     24  N   UNK d   1      93.215  99.376 -44.266  0.00  0.00    -0.382 N 
ATOM     25  H   UNK d   1      93.244  99.357 -45.306  0.00  0.00     0.157 HD
ATOM     26  H   UNK d   1      94.055  99.030 -43.759  0.00  0.00     0.157 HD
ENDBRANCH   2  24
BRANCH   1  27
ATOM     27  S   UNK d   1      90.666  98.159 -45.141  0.00  0.00     0.214 S 
ATOM     28  O   UNK d   1      89.266  98.139 -45.663  0.00  0.00    -0.217 OA
ATOM     29  O   UNK d   1      91.664  98.499 -46.219  0.00  0.00    -0.217 OA
BRANCH  27  30
ATOM     30  C   UNK d   1      91.100  96.571 -44.490  0.00  0.00     0.099 A 
ATOM     31  C   UNK d   1      91.080  95.461 -45.309  0.00  0.00     0.090 A 
ATOM     32  C   UNK d   1      91.427  94.244 -44.760  0.00  0.00     0.040 A 
ATOM     33  C   UNK d   1      91.787  94.123 -43.422  0.00  0.00     0.026 A 
ATOM     34  C   UNK d   1      91.795  95.256 -42.637  0.00  0.00     0.035 A 
ATOM     35  C   UNK d   1      91.454  96.487 -43.157  0.00  0.00     0.050 A 
ATOM     36 Cl   UNK d   1      92.251  95.121 -40.933  0.00  0.00    -0.084 Cl
BRANCH  31  37
ATOM     37  O   UNK d   1      90.720  95.618 -46.619  0.00  0.00    -0.354 OA
ATOM     38  C   UNK d   1      89.566  95.092 -47.212  0.00  0.00     0.210 C 
ENDBRANCH  31  37
ENDBRANCH  27  30
ENDBRANCH   1  27
TORSDOF 7
ENDMDL
