/Users/jonathanwahrer/Desktop/Msc/3_Semester/Drug_Design_Praktikum/waehrer_HTS_screening/HTS_experiment/out/docking_results/vina_output/4agl/1651_docked.pdbqt
 OpenBabel03212200303D

 23 26  0  0  1  0  0  0  0  0999 V2000
   91.6090   92.0890  -47.0000 Cl  0  0  0  0  0  0  0  0  0  0  0  0
   91.6320   93.2470  -45.6670 C   0  0  0  0  0  0  0  0  0  0  0  0
   91.4810   94.5960  -45.8790 C   0  0  0  0  0  3  0  0  0  0  0  0
   91.5030   95.4960  -44.8030 C   0  0  0  0  0  0  0  0  0  0  0  0
   91.6730   95.0660  -43.5180 C   0  0  0  0  0  0  0  0  0  0  0  0
   91.8280   93.6860  -43.2910 C   0  0  0  0  0  3  0  0  0  0  0  0
   91.8020   92.8330  -44.3670 C   0  0  0  0  0  3  0  0  0  0  0  0
   91.6630   96.1370  -42.5880 N   0  0  0  0  0  0  0  0  0  0  0  0
   91.4740   97.3210  -43.3430 C   0  0  0  0  0  0  0  0  0  0  0  0
   91.4140   98.4790  -42.8350 O   0  0  0  0  0  0  0  0  0  0  0  0
   91.3630   96.9730  -44.7770 C   0  0  1  0  0  0  0  0  0  0  0  0
   92.5180   97.6520  -45.4820 C   0  0  0  0  0  2  0  0  0  0  0  0
   92.1780   99.1150  -45.4680 C   0  0  0  0  0  0  0  0  0  0  0  0
   92.9450   99.9890  -45.0250 O   0  0  0  0  0  0  0  0  0  0  0  0
   90.8970   99.4700  -46.0010 N   0  0  0  0  0  0  0  0  0  0  0  0
   89.8250   98.5400  -45.9220 C   0  0  0  0  0  0  0  0  0  0  0  0
   88.5290   98.5830  -46.3350 N   0  0  0  0  0  0  0  0  0  0  0  0
   87.9610   97.4430  -46.0210 N   0  0  0  0  0  0  0  0  0  0  0  0
   88.8300   96.6250  -45.4070 C   0  0  0  0  0  3  0  0  0  0  0  0
   90.0440   97.3200  -45.3340 C   0  0  0  0  0  0  0  0  0  0  0  0
   91.8200   96.0200  -41.1350 C   0  0  0  0  0  1  0  0  0  0  0  0
   90.7380  100.4000  -46.4460 H   0  0  0  0  0  0  0  0  0  0  0  0
   88.1120   99.4130  -46.8170 H   0  0  0  0  0  0  0  0  0  0  0  0
  1  2  1  0  0  0  0
  2  7  1  0  0  0  0
  3  2  2  0  0  0  0
  3  4  1  0  0  0  0
  4 11  1  0  0  0  0
  4  5  2  0  0  0  0
  5  6  1  0  0  0  0
  5  8  1  0  0  0  0
  7  6  2  0  0  0  0
  8 21  1  0  0  0  0
  9 10  2  0  0  0  0
  9  8  1  0  0  0  0
 11 12  1  6  0  0  0
 11  9  1  0  0  0  0
 12 13  1  0  0  0  0
 13 14  2  0  0  0  0
 15 16  1  0  0  0  0
 15 13  1  0  0  0  0
 16 20  2  0  0  0  0
 17 18  1  0  0  0  0
 17 16  1  0  0  0  0
 18 19  2  0  0  0  0
 19 20  1  0  0  0  0
 20 11  1  0  0  0  0
 22 15  1  0  0  0  0
 23 17  1  0  0  0  0
M  END
>  <Pose>
1

>  <Score>
-6.572

$$$$
