MODEL 1
REMARK VINA RESULT:    -6.572      0.000      0.000
REMARK INTER + INTRA:          -6.572
REMARK INTER:                  -6.572
REMARK INTRA:                   0.000
REMARK UNBOUND:                 0.000
REMARK  0 active torsions:
REMARK  status: ('A' for Active; 'I' for Inactive)
ROOT
ATOM      1 Cl   UNK d   1      91.609  92.089 -47.000  0.00  0.00    -0.084 Cl
ATOM      2  C   UNK d   1      91.632  93.247 -45.667  0.00  0.00     0.034 A 
ATOM      3  C   UNK d   1      91.481  94.596 -45.879  0.00  0.00     0.034 A 
ATOM      4  C   UNK d   1      91.503  95.496 -44.803  0.00  0.00    -0.006 A 
ATOM      5  C   UNK d   1      91.673  95.066 -43.518  0.00  0.00     0.044 A 
ATOM      6  C   UNK d   1      91.828  93.686 -43.291  0.00  0.00     0.032 A 
ATOM      7  C   UNK d   1      91.802  92.833 -44.367  0.00  0.00     0.026 A 
ATOM      8  N   UNK d   1      91.663  96.137 -42.588  0.00  0.00    -0.321 N 
ATOM      9  C   UNK d   1      91.474  97.321 -43.343  0.00  0.00     0.242 A 
ATOM     10  O   UNK d   1      91.414  98.479 -42.835  0.00  0.00    -0.271 OA
ATOM     11  C   UNK d   1      91.363  96.973 -44.777  0.00  0.00     0.111 A 
ATOM     12  C   UNK d   1      92.518  97.652 -45.482  0.00  0.00     0.132 C 
ATOM     13  C   UNK d   1      92.178  99.115 -45.468  0.00  0.00     0.225 C 
ATOM     14  O   UNK d   1      92.945  99.989 -45.025  0.00  0.00    -0.273 OA
ATOM     15  N   UNK d   1      90.897  99.470 -46.001  0.00  0.00    -0.311 N 
ATOM     16  C   UNK d   1      89.825  98.540 -45.922  0.00  0.00     0.133 A 
ATOM     17  N   UNK d   1      88.529  98.583 -46.335  0.00  0.00    -0.262 N 
ATOM     18  N   UNK d   1      87.961  97.443 -46.021  0.00  0.00    -0.185 NA
ATOM     19  C   UNK d   1      88.830  96.625 -45.407  0.00  0.00     0.151 A 
ATOM     20  C   UNK d   1      90.044  97.320 -45.334  0.00  0.00     0.030 A 
ATOM     21  C   UNK d   1      91.820  96.020 -41.135  0.00  0.00     0.159 C 
ATOM     22  H   UNK d   1      90.738 100.400 -46.446  0.00  0.00     0.170 HD
ATOM     23  H   UNK d   1      88.112  99.413 -46.817  0.00  0.00     0.191 HD
ENDROOT
TORSDOF 0
ENDMDL
