/Users/jonathanwahrer/Desktop/Msc/3_Semester/Drug_Design_Praktikum/waehrer_HTS_screening/HTS_experiment/out/docking_results/vina_output/4agl/1657_docked.pdbqt
 OpenBabel03212200303D

 33 36  0  0  1  0  0  0  0  0999 V2000
   87.9720   95.0370  -49.6040 Cl  0  0  0  0  0  0  0  0  0  0  0  0
   88.5620   95.7650  -48.1060 C   0  0  0  0  0  0  0  0  0  0  0  0
   89.5820   95.1660  -47.3980 C   0  0  0  0  0  3  0  0  0  0  0  0
   90.0340   95.7290  -46.2490 C   0  0  0  0  0  0  0  0  0  0  0  0
   89.4690   96.9200  -45.7720 C   0  0  0  0  0  0  0  0  0  0  0  0
   88.4530   97.4990  -46.4940 C   0  0  0  0  0  3  0  0  0  0  0  0
   87.9790   96.9370  -47.6720 C   0  0  0  0  0  3  0  0  0  0  0  0
   89.9390   97.5170  -44.5680 N   0  0  0  0  0  0  0  0  0  0  0  0
   91.3080   97.2650  -44.1450 C   0  0  2  0  0  0  0  0  0  0  0  0
   91.5080   95.8380  -44.2420 N   0  0  0  0  0  0  0  0  0  0  0  0
   91.1080   95.1730  -45.4290 C   0  0  0  0  0  0  0  0  0  0  0  0
   91.6360   94.1030  -45.8290 O   0  0  0  0  0  0  0  0  0  0  0  0
   91.4560   97.7120  -42.7300 C   0  0  0  0  0  2  0  0  0  0  0  0
   91.8080   99.1760  -42.5960 C   0  0  0  0  0  2  0  0  0  0  0  0
   90.9640  100.0150  -43.4200 N   0  0  0  0  0  0  0  0  0  0  0  0
   90.9120   99.9060  -44.8640 C   0  0  0  0  0  0  0  0  0  0  0  0
   90.0310  100.6020  -45.4200 O   0  0  0  0  0  0  0  0  0  0  0  0
   91.7330   99.1010  -45.7840 C   0  0  0  0  0  2  0  0  0  0  0  0
   92.3040   97.8970  -45.0980 C   0  0  0  0  0  2  0  0  0  0  0  0
   89.2670   98.1140  -44.0430 H   0  0  0  0  0  0  0  0  0  0  0  0
   91.9330   95.2690  -43.4840 H   0  0  0  0  0  0  0  0  0  0  0  0
   90.1190  100.9820  -42.8470 C   0  0  0  0  0  2  0  0  0  0  0  0
   90.5520  102.3390  -42.6020 C   0  0  0  0  0  0  0  0  0  0  0  0
   89.5640  103.0710  -42.0850 O   0  0  0  0  0  0  0  0  0  0  0  0
   91.7670  102.9530  -42.8070 N   0  0  0  0  0  0  0  0  0  0  0  0
   91.9050  104.3890  -42.4500 C   0  0  0  0  0  2  0  0  0  0  0  0
   92.9480  102.3710  -43.3120 C   0  0  0  0  0  2  0  0  0  0  0  0
   93.2450  104.4580  -41.7010 C   0  0  0  0  0  2  0  0  0  0  0  0
   93.6160  103.1860  -41.1790 N   0  0  0  0  0  0  0  0  0  0  0  0
   93.9620  102.1900  -42.1480 C   0  0  0  0  0  2  0  0  0  0  0  0
   94.4380  103.2000  -40.0170 C   0  0  0  0  0  3  0  0  0  0  0  0
   94.5400  104.5600  -39.3570 C   0  0  0  0  0  1  0  0  0  0  0  0
   94.0400  102.1800  -38.9850 C   0  0  0  0  0  1  0  0  0  0  0  0
  1  2  1  0  0  0  0
  2  7  2  0  0  0  0
  2  3  1  0  0  0  0
  3  4  2  0  0  0  0
  4  5  1  0  0  0  0
  4 11  1  0  0  0  0
  5  8  1  0  0  0  0
  6  5  2  0  0  0  0
  7  6  1  0  0  0  0
  8  9  1  0  0  0  0
  8 20  1  0  0  0  0
  9 19  1  6  0  0  0
  9 13  1  0  0  0  0
 10  9  1  0  0  0  0
 10 21  1  0  0  0  0
 11 10  1  0  0  0  0
 12 11  2  0  0  0  0
 13 14  1  0  0  0  0
 15 22  1  0  0  0  0
 15 14  1  0  0  0  0
 16 15  1  0  0  0  0
 17 16  2  0  0  0  0
 18 19  1  0  0  0  0
 18 16  1  0  0  0  0
 22 23  1  0  0  0  0
 23 24  2  0  0  0  0
 25 23  1  0  0  0  0
 25 26  1  0  0  0  0
 26 28  1  0  0  0  0
 27 25  1  0  0  0  0
 27 30  1  0  0  0  0
 28 29  1  0  0  0  0
 29 31  1  0  0  0  0
 30 29  1  0  0  0  0
 31 32  1  0  0  0  0
 31 33  1  0  0  0  0
M  END
>  <Pose>
1

>  <Score>
-6.395

$$$$
