MODEL 1
REMARK VINA RESULT:    -6.395      0.000      0.000
REMARK INTER + INTRA:          -7.621
REMARK INTER:                  -7.143
REMARK INTRA:                  -0.478
REMARK UNBOUND:                -0.478
REMARK  2 active torsions:
REMARK  status: ('A' for Active; 'I' for Inactive)
REMARK    1  A    between atoms: N_15  and  C_20 
REMARK       I    between atoms: C_21  and  N_23 
REMARK    2  A    between atoms: N_26  and  C_29 
ROOT
ATOM      1 Cl   UNK d   1      87.972  95.037 -49.604  0.00  0.00    -0.084 Cl
ATOM      2  C   UNK d   1      88.562  95.765 -48.106  0.00  0.00     0.035 A 
ATOM      3  C   UNK d   1      89.582  95.166 -47.398  0.00  0.00     0.043 A 
ATOM      4  C   UNK d   1      90.034  95.729 -46.249  0.00  0.00     0.060 A 
ATOM      5  C   UNK d   1      89.469  96.920 -45.772  0.00  0.00     0.045 A 
ATOM      6  C   UNK d   1      88.453  97.499 -46.494  0.00  0.00     0.032 A 
ATOM      7  C   UNK d   1      87.979  96.937 -47.672  0.00  0.00     0.026 A 
ATOM      8  N   UNK d   1      89.939  97.517 -44.568  0.00  0.00    -0.363 N 
ATOM      9  C   UNK d   1      91.308  97.265 -44.145  0.00  0.00     0.108 C 
ATOM     10  N   UNK d   1      91.508  95.838 -44.242  0.00  0.00    -0.330 N 
ATOM     11  C   UNK d   1      91.108  95.173 -45.429  0.00  0.00     0.255 C 
ATOM     12  O   UNK d   1      91.636  94.103 -45.829  0.00  0.00    -0.268 OA
ATOM     13  C   UNK d   1      91.456  97.712 -42.730  0.00  0.00     0.074 C 
ATOM     14  C   UNK d   1      91.808  99.176 -42.596  0.00  0.00     0.130 C 
ATOM     15  N   UNK d   1      90.964 100.015 -43.420  0.00  0.00    -0.344 N 
ATOM     16  C   UNK d   1      90.912  99.906 -44.864  0.00  0.00     0.220 C 
ATOM     17  O   UNK d   1      90.031 100.602 -45.420  0.00  0.00    -0.273 OA
ATOM     18  C   UNK d   1      91.733  99.101 -45.784  0.00  0.00     0.107 C 
ATOM     19  C   UNK d   1      92.304  97.897 -45.098  0.00  0.00     0.063 C 
ATOM     20  H   UNK d   1      89.267  98.114 -44.043  0.00  0.00     0.162 HD
ATOM     21  H   UNK d   1      91.933  95.269 -43.484  0.00  0.00     0.165 HD
ENDROOT
BRANCH  15  22
ATOM     22  C   UNK d   1      90.119 100.982 -42.847  0.00  0.00     0.212 C 
ATOM     23  C   UNK d   1      90.552 102.339 -42.602  0.00  0.00     0.171 C 
ATOM     24  O   UNK d   1      89.564 103.071 -42.085  0.00  0.00    -0.175 OA
ATOM     25  N   UNK d   1      91.767 102.953 -42.807  0.00  0.00    -0.359 N 
ATOM     26  C   UNK d   1      91.905 104.389 -42.450  0.00  0.00     0.144 C 
ATOM     27  C   UNK d   1      92.948 102.371 -43.312  0.00  0.00     0.144 C 
ATOM     28  C   UNK d   1      93.245 104.458 -41.701  0.00  0.00     0.137 C 
ATOM     29  N   UNK d   1      93.616 103.186 -41.179  0.00  0.00    -0.406 N 
ATOM     30  C   UNK d   1      93.962 102.190 -42.148  0.00  0.00     0.137 C 
BRANCH  29  31
ATOM     31  C   UNK d   1      94.438 103.200 -40.017  0.00  0.00     0.071 C 
ATOM     32  C   UNK d   1      94.540 104.560 -39.357  0.00  0.00     0.031 C 
ATOM     33  C   UNK d   1      94.040 102.180 -38.985  0.00  0.00     0.031 C 
ENDBRANCH  29  31
ENDBRANCH  15  22
TORSDOF 2
ENDMDL
