MODEL 1
REMARK VINA RESULT:    -6.557      0.000      0.000
REMARK INTER + INTRA:          -9.484
REMARK INTER:                  -8.474
REMARK INTRA:                  -1.010
REMARK UNBOUND:                -1.010
REMARK  5 active torsions:
REMARK  status: ('A' for Active; 'I' for Inactive)
REMARK    1  A    between atoms: C_5  and  N_8 
REMARK    2  A    between atoms: N_15  and  C_18 
REMARK    3  A    between atoms: C_18  and  C_19 
REMARK       I    between atoms: C_19  and  N_21 
REMARK       I    between atoms: N_24  and  C_27 
REMARK    4  A    between atoms: C_27  and  O_29 
REMARK    5  A    between atoms: O_29  and  C_30 
ROOT
ATOM      1  N   UNK d   1      91.621  93.309 -45.075  0.00  0.00    -0.215 N 
ATOM      2  N   UNK d   1      91.871  92.907 -43.858  0.00  0.00    -0.177 NA
ATOM      3  C   UNK d   1      91.863  93.909 -42.973  0.00  0.00     0.160 A 
ATOM      4  C   UNK d   1      91.581  95.067 -43.684  0.00  0.00     0.099 A 
ATOM      5  C   UNK d   1      91.436  94.647 -45.002  0.00  0.00     0.169 A 
ATOM      6  N   UNK d   1      91.160  95.598 -45.899  0.00  0.00    -0.223 NA
ATOM      7  C   UNK d   1      91.029  96.894 -45.541  0.00  0.00     0.215 A 
ATOM      8  N   UNK d   1      91.164  97.330 -44.279  0.00  0.00    -0.299 N 
ATOM      9  C   UNK d   1      91.445  96.392 -43.338  0.00  0.00     0.264 A 
ATOM     10  O   UNK d   1      91.582  96.752 -42.142  0.00  0.00    -0.267 OA
ENDROOT
BRANCH   8  11
ATOM     11  C   UNK d   1      91.009  98.733 -43.884  0.00  0.00     0.236 C 
BRANCH  11  12
ATOM     12  C   UNK d   1      89.604  99.075 -43.598  0.00  0.00     0.238 C 
ATOM     13  O   UNK d   1      89.318  99.155 -42.351  0.00  0.00    -0.272 OA
ATOM     14  N   UNK d   1      88.592  99.315 -44.524  0.00  0.00    -0.348 N 
ATOM     15  C   UNK d   1      87.213  99.586 -44.089  0.00  0.00     0.145 C 
ATOM     16  C   UNK d   1      88.818  99.345 -45.952  0.00  0.00     0.145 C 
ATOM     17  C   UNK d   1      86.411  98.389 -44.617  0.00  0.00     0.148 C 
ATOM     18  N   UNK d   1      86.656  98.203 -46.023  0.00  0.00    -0.325 N 
ATOM     19  C   UNK d   1      87.514  99.167 -46.686  0.00  0.00     0.148 C 
ATOM     20  C   UNK d   1      86.105  97.111 -46.728  0.00  0.00     0.362 C 
ATOM     21  O   UNK d   1      85.402  96.267 -46.057  0.00  0.00    -0.238 OA
BRANCH  20  22
ATOM     22  O   UNK d   1      86.244  96.857 -48.074  0.00  0.00    -0.304 OA
BRANCH  22  23
ATOM     23  C   UNK d   1      86.878  95.649 -48.535  0.00  0.00     0.176 C 
ATOM     24  C   UNK d   1      88.353  95.793 -48.206  0.00  0.00     0.034 C 
ENDBRANCH  22  23
ENDBRANCH  20  22
ENDBRANCH  11  12
ENDBRANCH   8  11
BRANCH   1  25
ATOM     25  C   UNK d   1      91.536  92.512 -46.245  0.00  0.00     0.060 A 
ATOM     26  C   UNK d   1      90.678  92.733 -47.291  0.00  0.00     0.033 A 
ATOM     27  C   UNK d   1      90.657  91.872 -48.371  0.00  0.00     0.026 A 
ATOM     28  C   UNK d   1      91.471  90.766 -48.468  0.00  0.00     0.034 A 
ATOM     29 Cl   UNK d   1      91.460  89.667 -49.810  0.00  0.00    -0.084 Cl
ATOM     30  C   UNK d   1      92.344  90.527 -47.422  0.00  0.00     0.026 A 
ATOM     31  C   UNK d   1      92.350  91.397 -46.354  0.00  0.00     0.033 A 
ENDBRANCH   1  25
TORSDOF 5
ENDMDL
