MODEL 1
REMARK VINA RESULT:    -5.857      0.000      0.000
REMARK INTER + INTRA:          -8.809
REMARK INTER:                  -7.569
REMARK INTRA:                  -1.240
REMARK UNBOUND:                -1.240
REMARK  5 active torsions:
REMARK  status: ('A' for Active; 'I' for Inactive)
REMARK    1  A    between atoms: S_1  and  N_4 
REMARK    2  A    between atoms: S_1  and  C_24 
REMARK    3  A    between atoms: N_7  and  C_10 
REMARK    4  A    between atoms: C_10  and  C_11 
REMARK    5  A    between atoms: C_11  and  N_12 
ROOT
ATOM      1  N   UNK d   1      92.130  99.071 -43.967  0.00  0.00    -0.303 N 
ATOM      2  C   UNK d   1      92.962  98.798 -45.110  0.00  0.00     0.165 C 
ATOM      3  C   UNK d   1      92.591  99.668 -46.289  0.00  0.00     0.293 C 
ATOM      4  N   UNK d   1      91.145  99.521 -46.593  0.00  0.00     0.093 N 
ATOM      5  C   UNK d   1      90.404 100.036 -45.451  0.00  0.00     0.293 C 
ATOM      6  C   UNK d   1      91.257 100.180 -44.202  0.00  0.00     0.165 C 
ENDROOT
BRANCH   4   7
ATOM      7  C   UNK d   1      90.945 100.392 -47.732  0.00  0.00     0.293 C 
BRANCH   7   8
ATOM      8  C   UNK d   1      89.626 100.384 -48.380  0.00  0.00     0.165 C 
BRANCH   8   9
ATOM      9  N   UNK d   1      88.959  99.149 -48.614  0.00  0.00    -0.286 N 
ATOM     10  C   UNK d   1      87.836  98.561 -47.966  0.00  0.00     0.232 C 
ATOM     11  O   UNK d   1      87.479  98.792 -46.802  0.00  0.00    -0.272 OA
ATOM     12  C   UNK d   1      87.171  97.634 -48.912  0.00  0.00     0.100 C 
ATOM     13  C   UNK d   1      88.381  97.190 -49.765  0.00  0.00     0.100 C 
ATOM     14  C   UNK d   1      86.839  96.355 -48.231  0.00  0.00     0.022 C 
ATOM     15  C   UNK d   1      88.798  95.879 -49.213  0.00  0.00     0.022 C 
ATOM     16  C   UNK d   1      89.358  98.267 -49.687  0.00  0.00     0.232 C 
ATOM     17  C   UNK d   1      88.250  95.943 -47.777  0.00  0.00     0.018 C 
ATOM     18  C   UNK d   1      87.804  94.863 -49.737  0.00  0.00    -0.025 C 
ATOM     19  C   UNK d   1      86.632  95.331 -49.310  0.00  0.00    -0.025 C 
ATOM     20  O   UNK d   1      90.360  98.378 -50.436  0.00  0.00    -0.272 OA
ENDBRANCH   8   9
ENDBRANCH   7   8
ENDBRANCH   4   7
BRANCH   1  21
ATOM     21  S   UNK d   1      91.506  97.741 -43.154  0.00  0.00     0.260 S 
ATOM     22  O   UNK d   1      92.220  97.635 -41.812  0.00  0.00    -0.200 OA
ATOM     23  O   UNK d   1      90.061  98.068 -42.772  0.00  0.00    -0.200 OA
BRANCH  21  24
ATOM     24  C   UNK d   1      91.485  96.240 -43.988  0.00  0.00     0.079 A 
ATOM     25  C   UNK d   1      91.111  96.174 -45.308  0.00  0.00     0.026 A 
ATOM     26  C   UNK d   1      91.116  94.949 -45.951  0.00  0.00     0.020 A 
ATOM     27  C   UNK d   1      91.484  93.777 -45.314  0.00  0.00     0.011 A 
ATOM     28  C   UNK d   1      91.859  93.849 -43.989  0.00  0.00     0.020 A 
ATOM     29 Br   UNK d   1      91.490  92.088 -46.197  0.00  0.00    -0.051 Br
ATOM     30  C   UNK d   1      91.854  95.081 -43.344  0.00  0.00     0.026 A 
ENDBRANCH  21  24
ENDBRANCH   1  21
TORSDOF 5
ENDMDL
