/Users/jonathanwahrer/Desktop/Msc/3_Semester/Drug_Design_Praktikum/waehrer_HTS_screening/HTS_experiment/out/docking_results/vina_output/4agl/1673_docked.pdbqt
 OpenBabel03212200313D

 35 38  0  0  1  0  0  0  0  0999 V2000
   90.6160   97.5250  -43.8090 C   0  0  2  0  0  3  0  0  0  0  0  0
   89.7270   98.6410  -44.2880 C   0  0  1  0  0  3  0  0  0  0  0  0
   90.4580   99.8230  -44.1760 N   0  0  0  0  0  0  0  0  0  0  0  0
   91.1640   99.6220  -42.8870 C   0  0  0  0  0  0  0  0  0  0  0  0
   91.4760  100.5070  -42.0450 O   0  0  0  0  0  0  0  0  0  0  0  0
   91.4350   98.1980  -42.7760 C   0  0  0  0  0  0  0  0  0  0  0  0
   92.2220   97.6610  -41.9450 O   0  0  0  0  0  0  0  0  0  0  0  0
   88.7970   98.3000  -45.3350 C   0  0  0  0  0  0  0  0  0  0  0  0
   88.8940   98.6780  -46.6370 C   0  0  0  0  0  3  0  0  0  0  0  0
   87.9530   98.2810  -47.5730 C   0  0  0  0  0  0  0  0  0  0  0  0
   86.8810   97.4740  -47.1650 C   0  0  0  0  0  0  0  0  0  0  0  0
   86.7840   97.0950  -45.8560 C   0  0  0  0  0  3  0  0  0  0  0  0
   87.7090   97.4850  -44.9390 C   0  0  0  0  0  3  0  0  0  0  0  0
   85.9160   97.0500  -48.0570 O   0  0  0  0  0  1  0  0  0  0  0  0
   91.4570   96.9200  -44.8410 C   0  0  0  0  0  0  0  0  0  0  0  0
   92.3200   97.6410  -45.4520 O   0  0  0  0  0  0  0  0  0  0  0  0
   91.4210   95.5270  -45.2650 C   0  0  0  0  0  0  0  0  0  0  0  0
   92.1200   94.5440  -44.6010 C   0  0  0  0  0  3  0  0  0  0  0  0
   92.0550   93.2440  -45.0910 C   0  0  0  0  0  3  0  0  0  0  0  0
   91.3320   92.8860  -46.1990 C   0  0  0  0  0  0  0  0  0  0  0  0
   91.2900   91.0610  -46.8200 Br  0  0  0  0  0  0  0  0  0  0  0  0
   90.6300   93.8670  -46.8670 C   0  0  0  0  0  3  0  0  0  0  0  0
   90.6930   95.1520  -46.3840 C   0  0  0  0  0  3  0  0  0  0  0  0
   90.6270  101.1040  -44.7880 C   0  0  0  0  0  2  0  0  0  0  0  0
   91.8330  101.3040  -45.6240 C   0  0  0  0  0  2  0  0  0  0  0  0
   91.8420  102.1490  -46.7420 N   0  0  0  0  0  4  0  0  0  0  0  0
   93.1330  102.1610  -47.4400 C   0  0  0  0  0  2  0  0  0  0  0  0
   93.4900  100.8320  -48.0180 C   0  0  0  0  0  2  0  0  0  0  0  0
   92.4200   99.9740  -47.9070 O   0  0  0  0  0  0  0  0  0  0  0  0
   91.3160  100.5850  -48.5250 C   0  0  0  0  0  2  0  0  0  0  0  0
   90.7920  101.7330  -47.6890 C   0  0  0  0  0  2  0  0  0  0  0  0
   91.6340  103.1170  -46.5070 H   0  0  0  0  0  0  0  0  0  0  0  0
   88.0250   98.6400  -48.8810 O   0  0  0  0  0  0  0  0  0  0  0  0
   88.9340   98.1100  -49.7900 C   0  0  0  0  0  2  0  0  0  0  0  0
   88.9460   96.5920  -49.8290 C   0  0  0  0  0  1  0  0  0  0  0  0
  1 15  1  6  0  0  0
  1  6  1  0  0  0  0
  2  8  1  6  0  0  0
  2  3  1  0  0  0  0
  2  1  1  0  0  0  0
  3  4  1  0  0  0  0
  4  6  1  0  0  0  0
  4  5  2  0  0  0  0
  6  7  2  0  0  0  0
  8 13  1  0  0  0  0
  9  8  2  0  0  0  0
 10 11  2  0  0  0  0
 10  9  1  0  0  0  0
 11 12  1  0  0  0  0
 12 13  2  0  0  0  0
 14 11  1  0  0  0  0
 16 15  2  0  0  0  0
 17 15  1  0  0  0  0
 17 18  1  0  0  0  0
 19 18  2  0  0  0  0
 20 19  1  0  0  0  0
 21 20  1  0  0  0  0
 22 23  1  0  0  0  0
 22 20  2  0  0  0  0
 23 17  2  0  0  0  0
 24  3  1  0  0  0  0
 25 24  1  0  0  0  0
 26 32  1  0  0  0  0
 26 25  1  0  0  0  0
 27 26  1  0  0  0  0
 28 29  1  0  0  0  0
 28 27  1  0  0  0  0
 30 29  1  0  0  0  0
 30 31  1  0  0  0  0
 31 26  1  0  0  0  0
 33 10  1  0  0  0  0
 34 33  1  0  0  0  0
 35 34  1  0  0  0  0
M  END
>  <Pose>
1

>  <Score>
-5.766

$$$$
