MODEL 1
REMARK VINA RESULT:    -6.779      0.000      0.000
REMARK INTER + INTRA:          -8.655
REMARK INTER:                  -7.968
REMARK INTRA:                  -0.688
REMARK UNBOUND:                -0.688
REMARK  3 active torsions:
REMARK  status: ('A' for Active; 'I' for Inactive)
REMARK    1  A    between atoms: C_9  and  C_11 
REMARK       I    between atoms: C_11  and  N_13 
REMARK    2  A    between atoms: N_13  and  C_14 
REMARK    3  A    between atoms: C_14  and  C_15 
ROOT
ATOM      1  C   UNK d   1      91.240  96.903 -45.153  0.00  0.00     0.254 C 
ATOM      2  O   UNK d   1      92.196  97.531 -45.647  0.00  0.00    -0.268 OA
ATOM      3  N   UNK d   1      90.003  97.572 -44.974  0.00  0.00    -0.350 N 
ATOM      4  H   UNK d   1      89.202  97.063 -44.566  0.00  0.00     0.163 HD
ENDROOT
BRANCH   1   5
ATOM      5  C   UNK d   1      91.438  95.507 -44.781  0.00  0.00     0.063 A 
ATOM      6  C   UNK d   1      91.643  95.206 -43.446  0.00  0.00     0.098 A 
ATOM      7  C   UNK d   1      91.833  93.899 -43.071  0.00  0.00     0.111 A 
ATOM      8  N   UNK d   1      91.705  95.972 -42.323  0.00  0.00    -0.257 N 
ATOM      9  C   UNK d   1      91.816  92.912 -44.029  0.00  0.00     0.055 A 
ATOM     10  N   UNK d   1      92.005  93.907 -41.727  0.00  0.00    -0.130 NA
ATOM     11  C   UNK d   1      91.614  93.205 -45.360  0.00  0.00     0.014 A 
ATOM     12 Br   UNK d   1      91.596  91.813 -46.670  0.00  0.00    -0.051 Br
ATOM     13  C   UNK d   1      91.423  94.507 -45.743  0.00  0.00     0.038 A 
ATOM     14  N   UNK d   1      91.921  95.162 -41.325  0.00  0.00    -0.067 NA
ATOM     15  H   UNK d   1      91.588  97.005 -42.365  0.00  0.00     0.191 HD
ENDBRANCH   1   5
BRANCH   3  16
ATOM     16  C   UNK d   1      89.836  98.954 -45.351  0.00  0.00     0.203 C 
BRANCH  16  17
ATOM     17  C   UNK d   1      89.540  99.763 -44.117  0.00  0.00     0.148 A 
ATOM     18  N   UNK d   1      90.423 100.197 -43.203  0.00  0.00    -0.319 N 
ATOM     19  C   UNK d   1      89.798 100.894 -42.230  0.00  0.00     0.130 A 
ATOM     20  C   UNK d   1      91.857 100.059 -43.076  0.00  0.00     0.132 C 
ATOM     21  N   UNK d   1      88.499 100.891 -42.551  0.00  0.00    -0.135 NA
ATOM     22  C   UNK d   1      90.663 101.436 -41.146  0.00  0.00     0.081 C 
ATOM     23  N   UNK d   1      88.340 100.206 -43.694  0.00  0.00    -0.133 NA
ATOM     24  C   UNK d   1      91.744 102.244 -41.879  0.00  0.00     0.009 C 
ATOM     25  C   UNK d   1      92.455 101.440 -42.918  0.00  0.00     0.021 C 
ENDBRANCH  16  17
ENDBRANCH   3  16
TORSDOF 3
ENDMDL
