/Users/jonathanwahrer/Desktop/Msc/3_Semester/Drug_Design_Praktikum/waehrer_HTS_screening/HTS_experiment/out/docking_results/vina_output/4agl/1687_docked.pdbqt
 OpenBabel03212200313D

 27 30  0  0  0  0  0  0  0  0999 V2000
   91.0700   97.0170  -44.1560 N   0  0  0  0  0  0  0  0  0  0  0  0
   90.9090   96.1970  -45.2190 C   0  0  0  0  0  2  0  0  0  0  0  0
   91.1720   94.8460  -45.1490 C   0  0  0  0  0  0  0  0  0  0  0  0
   91.6380   94.2690  -43.8940 C   0  0  0  0  0  0  0  0  0  0  0  0
   91.8070   92.9590  -44.1230 N   0  0  0  0  0  2  0  0  0  0  0  0
   91.4920   92.6640  -45.3940 N   0  0  0  0  0  0  0  0  0  0  0  0
   91.1080   93.7850  -46.0250 C   0  0  0  0  0  0  0  0  0  0  0  0
   90.7540   93.8280  -47.2250 O   0  0  0  0  0  0  0  0  0  0  0  0
   91.7920   95.1380  -42.8270 C   0  0  0  0  0  0  0  0  0  0  0  0
   91.4990   96.4610  -43.0150 C   0  0  0  0  0  3  0  0  0  0  0  0
   91.5570   91.6870  -45.7770 H   0  0  0  0  0  0  0  0  0  0  0  0
   90.7820   98.4430  -44.2660 C   0  0  0  0  0  2  0  0  0  0  0  0
   91.0310   99.0740  -42.9130 C   0  0  0  0  0  2  0  0  0  0  0  0
   91.8920  100.2330  -43.0110 N   0  0  0  0  0  0  0  0  0  0  0  0
   92.2040  100.8890  -44.1490 C   0  0  0  0  0  3  0  0  0  0  0  0
   93.0260  101.9180  -43.8780 N   0  0  0  0  0  0  0  0  0  0  0  0
   93.2670  101.9510  -42.5390 C   0  0  0  0  0  0  0  0  0  0  0  0
   94.0240  102.7790  -41.7350 C   0  0  0  0  0  3  0  0  0  0  0  0
   92.5450  100.8880  -42.0350 C   0  0  0  0  0  0  0  0  0  0  0  0
   94.0710  102.5510  -40.3760 C   0  0  0  0  0  0  0  0  0  0  0  0
   95.0160  103.5680  -39.2880 Cl  0  0  0  0  0  0  0  0  0  0  0  0
   93.3450  101.4840  -39.8830 C   0  0  0  0  0  3  0  0  0  0  0  0
   92.5860  100.6510  -40.6810 C   0  0  0  0  0  3  0  0  0  0  0  0
   92.2560   94.5970  -41.5550 C   0  0  0  0  0  0  0  0  0  0  0  0
   91.4250   94.4090  -40.6310 O   0  0  0  0  0  0  0  0  0  0  0  0
   93.5740   94.2890  -41.3400 O   0  0  0  0  0  0  0  0  0  0  0  0
   94.0370   92.9490  -41.3590 C   0  0  0  0  0  1  0  0  0  0  0  0
  1 10  1  0  0  0  0
  2  3  1  0  0  0  0
  2  1  1  0  0  0  0
  3  4  2  0  0  0  0
  4  9  1  0  0  0  0
  5  4  1  0  0  0  0
  6  5  1  0  0  0  0
  7  6  1  0  0  0  0
  7  3  1  0  0  0  0
  8  7  2  0  0  0  0
  9 24  1  0  0  0  0
 10  9  2  0  0  0  0
 11  6  1  0  0  0  0
 12  1  1  0  0  0  0
 12 13  1  0  0  0  0
 14 13  1  0  0  0  0
 14 19  1  0  0  0  0
 15 16  2  0  0  0  0
 15 14  1  0  0  0  0
 16 17  1  0  0  0  0
 17 19  2  0  0  0  0
 17 18  1  0  0  0  0
 18 20  2  0  0  0  0
 19 23  1  0  0  0  0
 20 22  1  0  0  0  0
 20 21  1  0  0  0  0
 23 22  2  0  0  0  0
 24 26  1  0  0  0  0
 24 25  2  0  0  0  0
 27 26  1  0  0  0  0
M  END
>  <Pose>
1

>  <Score>
-6.444

$$$$
