/Users/jonathanwahrer/Desktop/Msc/3_Semester/Drug_Design_Praktikum/waehrer_HTS_screening/HTS_experiment/out/docking_results/vina_output/4agl/1689_docked.pdbqt
 OpenBabel03212200323D

 32 35  0  0  1  0  0  0  0  0999 V2000
   88.3500   98.7310  -44.1020 C   0  0  0  0  0  0  0  0  0  0  0  0
   87.1400   98.7970  -44.4320 O   0  0  0  0  0  0  0  0  0  0  0  0
   89.2540   98.1070  -44.9870 N   0  0  0  0  0  0  0  0  0  0  0  0
   90.6800   97.8770  -44.8750 C   0  0  0  0  0  2  0  0  0  0  0  0
   90.8520   96.5330  -45.4260 C   0  0  2  0  0  3  0  0  0  0  0  0
   89.5370   96.1510  -46.1090 C   0  0  1  0  0  3  0  0  0  0  0  0
   88.8960   97.5460  -46.2640 C   0  0  0  0  0  2  0  0  0  0  0  0
   88.7540   99.3110  -42.8050 C   0  0  0  0  0  2  0  0  0  0  0  0
   89.1630  100.7420  -42.9750 C   0  0  0  0  0  2  0  0  0  0  0  0
   90.2040  101.1250  -42.0030 C   0  0  0  0  0  0  0  0  0  0  0  0
   90.0460  102.0120  -40.9830 N   0  0  0  0  0  0  0  0  0  0  0  0
   91.1820  102.1550  -40.2820 C   0  0  0  0  0  0  0  0  0  0  0  0
   89.1760  102.5420  -40.7290 H   0  0  0  0  0  0  0  0  0  0  0  0
   91.5590  102.9050  -39.1810 C   0  0  0  0  0  3  0  0  0  0  0  0
   92.1050  101.3280  -40.8750 C   0  0  0  0  0  0  0  0  0  0  0  0
   92.8520  102.8270  -38.6780 C   0  0  0  0  0  0  0  0  0  0  0  0
   93.3080  103.7840  -37.2890 Cl  0  0  0  0  0  0  0  0  0  0  0  0
   93.7810  101.9990  -39.2700 C   0  0  0  0  0  3  0  0  0  0  0  0
   93.3860  101.2550  -40.3720 C   0  0  0  0  0  3  0  0  0  0  0  0
   91.4990  100.7210  -41.9040 N   0  0  0  0  0  0  0  0  0  0  0  0
   91.3570   95.4720  -44.6460 N   0  0  0  0  0  0  0  0  0  0  0  0
   91.4240   95.6590  -43.3000 C   0  0  0  0  0  3  0  0  0  0  0  0
   91.8980   94.6830  -42.4520 C   0  0  0  0  0  0  0  0  0  0  0  0
   92.3210   93.4750  -42.9550 C   0  0  0  0  0  0  0  0  0  0  0  0
   91.9650   94.9050  -40.9710 C   0  0  0  0  0  1  0  0  0  0  0  0
   92.7610   92.5590  -42.1970 O   0  0  0  0  0  0  0  0  0  0  0  0
   92.2540   93.2900  -44.2820 N   0  0  0  0  0  0  0  0  0  0  0  0
   91.7850   94.2730  -45.0540 C   0  0  0  0  0  0  0  0  0  0  0  0
   92.5780   92.3620  -44.6980 H   0  0  0  0  0  0  0  0  0  0  0  0
   91.7430   94.0450  -46.2800 O   0  0  0  0  0  0  0  0  0  0  0  0
   89.7170   95.5560  -47.3320 O   0  0  0  0  0  0  0  0  0  0  0  0
   88.8300   95.4560  -47.7610 H   0  0  0  0  0  0  0  0  0  0  0  0
  1  8  1  0  0  0  0
  2  1  2  0  0  0  0
  3  4  1  0  0  0  0
  3  1  1  0  0  0  0
  5  4  1  1  0  0  0
  5 21  1  0  0  0  0
  6 31  1  6  0  0  0
  6  5  1  0  0  0  0
  7  6  1  0  0  0  0
  7  3  1  0  0  0  0
  9  8  1  0  0  0  0
  9 10  1  0  0  0  0
 10 20  2  0  0  0  0
 10 11  1  0  0  0  0
 11 13  1  0  0  0  0
 11 12  1  0  0  0  0
 12 14  1  0  0  0  0
 14 16  2  0  0  0  0
 15 19  1  0  0  0  0
 15 12  2  0  0  0  0
 16 17  1  0  0  0  0
 18 16  1  0  0  0  0
 19 18  2  0  0  0  0
 20 15  1  0  0  0  0
 21 22  1  0  0  0  0
 22 23  2  0  0  0  0
 23 25  1  0  0  0  0
 24 23  1  0  0  0  0
 24 26  2  0  0  0  0
 27 24  1  0  0  0  0
 28 21  1  0  0  0  0
 28 27  1  0  0  0  0
 29 27  1  0  0  0  0
 30 28  2  0  0  0  0
 32 31  1  0  0  0  0
M  END
>  <Pose>
1

>  <Score>
-7.055

$$$$
