MODEL 1
REMARK VINA RESULT:    -7.191      0.000      0.000
REMARK INTER + INTRA:          -9.990
REMARK INTER:                  -9.083
REMARK INTRA:                  -0.908
REMARK UNBOUND:                -0.908
REMARK  5 active torsions:
REMARK  status: ('A' for Active; 'I' for Inactive)
REMARK    1  A    between atoms: C_6  and  C_11 
REMARK    2  A    between atoms: C_11  and  C_12 
REMARK    3  A    between atoms: C_12  and  C_13 
REMARK       I    between atoms: C_13  and  N_15 
REMARK    4  A    between atoms: C_17  and  O_30 
REMARK    5  A    between atoms: C_18  and  N_21 
ROOT
ATOM      1  C   UNK d   1      87.432  98.064 -45.414  0.00  0.00     0.220 C 
ATOM      2  O   UNK d   1      86.713  97.207 -44.840  0.00  0.00    -0.273 OA
ATOM      3  N   UNK d   1      87.648  99.348 -44.832  0.00  0.00    -0.349 N 
ATOM      4  C   UNK d   1      88.460 100.382 -45.434  0.00  0.00     0.165 C 
ATOM      5  C   UNK d   1      89.231 101.157 -44.352  0.00  0.00     0.091 C 
ATOM      6  C   UNK d   1      89.394 100.222 -43.202  0.00  0.00     0.131 C 
ATOM      7  C   UNK d   1      88.058 100.034 -42.520  0.00  0.00     0.049 C 
ATOM      8  C   UNK d   1      87.025  99.652 -43.561  0.00  0.00     0.128 C 
ATOM      9  C   UNK d   1      88.447 102.398 -44.064  0.00  0.00     0.050 C 
ENDROOT
BRANCH   1  10
ATOM     10  C   UNK d   1      88.069  97.765 -46.708  0.00  0.00     0.110 C 
BRANCH  10  11
ATOM     11  C   UNK d   1      89.552  97.976 -46.598  0.00  0.00     0.087 C 
BRANCH  11  12
ATOM     12  C   UNK d   1      90.168  96.758 -46.020  0.00  0.00     0.105 A 
ATOM     13  N   UNK d   1      90.711  96.680 -44.774  0.00  0.00    -0.343 N 
ATOM     14  C   UNK d   1      91.198  95.453 -44.549  0.00  0.00     0.064 A 
ATOM     15  H   UNK d   1      90.730  97.496 -44.103  0.00  0.00     0.167 HD
ATOM     16  C   UNK d   1      91.830  94.869 -43.477  0.00  0.00     0.055 A 
ATOM     17  C   UNK d   1      90.955  94.727 -45.689  0.00  0.00     0.085 A 
ATOM     18  C   UNK d   1      92.244  93.548 -43.500  0.00  0.00     0.036 A 
ATOM     19 Cl   UNK d   1      93.049  92.795 -42.143  0.00  0.00    -0.084 Cl
ATOM     20  C   UNK d   1      91.996  92.823 -44.652  0.00  0.00     0.026 A 
ATOM     21  C   UNK d   1      91.356  93.411 -45.737  0.00  0.00     0.036 A 
ATOM     22  N   UNK d   1      90.337  95.551 -46.540  0.00  0.00    -0.233 NA
ENDBRANCH  11  12
ENDBRANCH  10  11
ENDBRANCH   1  10
BRANCH   5  23
ATOM     23  O   UNK d   1      90.456 101.494 -44.945  0.00  0.00    -0.386 OA
ATOM     24  H   UNK d   1      90.350 102.371 -45.434  0.00  0.00     0.210 HD
ENDBRANCH   5  23
BRANCH   6  25
ATOM     25  N   UNK d   1      90.452 100.516 -42.302  0.00  0.00    -0.301 N 
ATOM     26  C   UNK d   1      90.366 101.432 -41.325  0.00  0.00     0.108 A 
ATOM     27  C   UNK d   1      91.423 101.693 -40.462  0.00  0.00     0.022 A 
ATOM     28  C   UNK d   1      92.596 100.992 -40.612  0.00  0.00     0.256 A 
ATOM     29  C   UNK d   1      91.266 102.730 -39.385  0.00  0.00     0.056 C 
ATOM     30  O   UNK d   1      93.566 101.227 -39.825  0.00  0.00    -0.267 OA
ATOM     31  N   UNK d   1      92.680 100.078 -41.590  0.00  0.00    -0.275 N 
ATOM     32  C   UNK d   1      91.628  99.862 -42.398  0.00  0.00     0.329 A 
ATOM     33  H   UNK d   1      93.563  99.540 -41.713  0.00  0.00     0.173 HD
ATOM     34  O   UNK d   1      91.713  98.987 -43.331  0.00  0.00    -0.246 OA
ENDBRANCH   6  25
TORSDOF 5
ENDMDL
