MODEL 1
REMARK VINA RESULT:    -7.118      0.000      0.000
REMARK INTER + INTRA:         -10.410
REMARK INTER:                  -8.991
REMARK INTRA:                  -1.419
REMARK UNBOUND:                -1.419
REMARK  5 active torsions:
REMARK  status: ('A' for Active; 'I' for Inactive)
REMARK    1  A    between atoms: C_6  and  C_11 
REMARK    2  A    between atoms: C_11  and  C_12 
REMARK    3  A    between atoms: C_12  and  C_13 
REMARK       I    between atoms: C_13  and  N_15 
REMARK    4  A    between atoms: C_17  and  N_21 
REMARK    5  A    between atoms: C_18  and  O_20 
ROOT
ATOM      1  C   UNK d   1      87.357  99.492 -44.455  0.00  0.00     0.220 C 
ATOM      2  O   UNK d   1      86.633  98.708 -43.812  0.00  0.00    -0.273 OA
ATOM      3  N   UNK d   1      88.305  98.994 -45.363  0.00  0.00    -0.348 N 
ATOM      4  C   UNK d   1      88.656  97.660 -45.735  0.00  0.00     0.154 C 
ATOM      5  C   UNK d   1      90.200  97.680 -45.836  0.00  0.00     0.140 C 
ATOM      6  C   UNK d   1      90.400  99.061 -46.352  0.00  0.00     0.161 C 
ATOM      7  C   UNK d   1      89.151  99.855 -46.167  0.00  0.00     0.159 C 
ENDROOT
BRANCH   1   8
ATOM      8  C   UNK d   1      87.209 100.942 -44.252  0.00  0.00     0.110 C 
BRANCH   8   9
ATOM      9  C   UNK d   1      87.433 101.299 -42.800  0.00  0.00     0.087 C 
BRANCH   9  10
ATOM     10  C   UNK d   1      88.904 101.475 -42.563  0.00  0.00     0.105 A 
ATOM     11  N   UNK d   1      89.539 101.143 -41.426  0.00  0.00    -0.343 N 
ATOM     12  C   UNK d   1      90.852 101.415 -41.512  0.00  0.00     0.064 A 
ATOM     13  H   UNK d   1      89.098 100.722 -40.564  0.00  0.00     0.167 HD
ATOM     14  C   UNK d   1      91.922 101.263 -40.630  0.00  0.00     0.055 A 
ATOM     15  C   UNK d   1      91.046 101.947 -42.769  0.00  0.00     0.085 A 
ATOM     16  C   UNK d   1      93.186 101.646 -41.012  0.00  0.00     0.036 A 
ATOM     17 Cl   UNK d   1      94.569 101.474 -39.937  0.00  0.00    -0.084 Cl
ATOM     18  C   UNK d   1      93.375 102.171 -42.260  0.00  0.00     0.026 A 
ATOM     19  C   UNK d   1      92.314 102.329 -43.152  0.00  0.00     0.036 A 
ATOM     20  N   UNK d   1      89.841 101.965 -43.375  0.00  0.00    -0.233 NA
ENDBRANCH   9  10
ENDBRANCH   8   9
ENDBRANCH   1   8
BRANCH   5  21
ATOM     21  N   UNK d   1      90.748  97.448 -44.530  0.00  0.00    -0.316 N 
ATOM     22  C   UNK d   1      91.200  96.293 -44.014  0.00  0.00     0.149 A 
ATOM     23  C   UNK d   1      91.648  96.532 -42.699  0.00  0.00     0.170 A 
ATOM     24  N   UNK d   1      91.283  95.048 -44.522  0.00  0.00    -0.287 N 
ATOM     25  N   UNK d   1      91.444  97.840 -42.470  0.00  0.00    -0.234 NA
ATOM     26  C   UNK d   1      92.167  95.519 -41.925  0.00  0.00     0.283 A 
ATOM     27  C   UNK d   1      90.908  98.401 -43.551  0.00  0.00     0.212 A 
ATOM     28  O   UNK d   1      92.560  95.764 -40.753  0.00  0.00    -0.265 OA
ATOM     29  N   UNK d   1      92.233  94.297 -42.466  0.00  0.00    -0.269 N 
ATOM     30  C   UNK d   1      91.807  94.079 -43.711  0.00  0.00     0.332 A 
ATOM     31  C   UNK d   1      92.781  93.197 -41.668  0.00  0.00     0.164 C 
ATOM     32  O   UNK d   1      91.875  92.922 -44.205  0.00  0.00    -0.246 OA
ATOM     33  C   UNK d   1      90.844  94.742 -45.847  0.00  0.00     0.163 C 
ENDBRANCH   5  21
BRANCH   6  34
ATOM     34  O   UNK d   1      90.710  99.103 -47.711  0.00  0.00    -0.392 OA
ATOM     35  H   UNK d   1      90.154  98.461 -48.235  0.00  0.00     0.210 HD
ENDBRANCH   6  34
TORSDOF 5
ENDMDL
