MODEL 1
REMARK VINA RESULT:    -7.268      0.000      0.000
REMARK INTER + INTRA:          -7.268
REMARK INTER:                  -7.268
REMARK INTRA:                   0.000
REMARK UNBOUND:                 0.000
REMARK  0 active torsions:
REMARK  status: ('A' for Active; 'I' for Inactive)
ROOT
ATOM      1  F   UNK d   1      92.152  92.760 -43.587  0.00  0.00    -0.202 F 
ATOM      2  C   UNK d   1      91.733  93.988 -44.042  0.00  0.00     0.165 A 
ATOM      3  C   UNK d   1      91.827  95.089 -43.181  0.00  0.00     0.086 A 
ATOM      4  C   UNK d   1      91.417  96.315 -43.612  0.00  0.00     0.030 A 
ATOM      5  C   UNK d   1      90.906  96.473 -44.908  0.00  0.00     0.016 A 
ATOM      6  C   UNK d   1      90.825  95.381 -45.727  0.00  0.00     0.028 A 
ATOM      7  C   UNK d   1      91.232  94.136 -45.312  0.00  0.00     0.074 A 
ATOM      8 Cl   UNK d   1      91.127  92.727 -46.377  0.00  0.00    -0.081 Cl
ATOM      9  C   UNK d   1      91.623  97.297 -42.516  0.00  0.00     0.222 A 
ATOM     10  N   UNK d   1      90.372  97.897 -42.177  0.00  0.00    -0.336 N 
ATOM     11  C   UNK d   1      89.902  99.037 -42.862  0.00  0.00     0.141 A 
ATOM     12  N   UNK d   1      88.602  99.429 -42.803  0.00  0.00    -0.243 NA
ATOM     13  C   UNK d   1      88.106 100.499 -43.433  0.00  0.00     0.119 A 
ATOM     14  C   UNK d   1      88.955 101.284 -44.206  0.00  0.00     0.020 A 
ATOM     15  C   UNK d   1      90.277 100.958 -44.318  0.00  0.00     0.022 A 
ATOM     16  C   UNK d   1      90.720  99.842 -43.642  0.00  0.00     0.077 A 
ATOM     17  C   UNK d   1      92.120  99.408 -43.698  0.00  0.00     0.258 C 
ATOM     18  O   UNK d   1      92.911 100.120 -44.405  0.00  0.00    -0.267 OA
ATOM     19  N   UNK d   1      92.581  98.271 -43.011  0.00  0.00    -0.318 N 
ATOM     20  C   UNK d   1      92.189  96.507 -41.417  0.00  0.00     0.277 A 
ATOM     21  O   UNK d   1      92.532  96.930 -40.252  0.00  0.00    -0.268 OA
ATOM     22  N   UNK d   1      92.309  95.171 -41.833  0.00  0.00    -0.320 N 
ATOM     23  H   UNK d   1      89.770  97.508 -41.411  0.00  0.00     0.164 HD
ATOM     24  H   UNK d   1      93.614  98.170 -42.884  0.00  0.00     0.166 HD
ATOM     25  H   UNK d   1      92.675  94.337 -41.302  0.00  0.00     0.169 HD
ENDROOT
TORSDOF 0
ENDMDL
