MODEL 1
REMARK VINA RESULT:    -7.122      0.000      0.000
REMARK INTER + INTRA:          -9.751
REMARK INTER:                  -8.788
REMARK INTRA:                  -0.963
REMARK UNBOUND:                -0.963
REMARK  4 active torsions:
REMARK  status: ('A' for Active; 'I' for Inactive)
REMARK    1  A    between atoms: S_1  and  N_4 
REMARK    2  A    between atoms: S_1  and  C_24 
REMARK       I    between atoms: N_7  and  C_10 
REMARK    3  A    between atoms: C_10  and  C_12 
REMARK    4  A    between atoms: C_12  and  N_13 
ROOT
ATOM      1  N   UNK d   1      91.526 102.200 -43.279  0.00  0.00    -0.304 N 
ATOM      2  C   UNK d   1      92.674 102.065 -44.106  0.00  0.00     0.155 C 
ATOM      3  C   UNK d   1      92.400 101.331 -45.394  0.00  0.00     0.146 C 
ATOM      4  N   UNK d   1      91.381 100.324 -45.250  0.00  0.00    -0.348 N 
ATOM      5  C   UNK d   1      90.130 100.670 -44.620  0.00  0.00     0.146 C 
ATOM      6  C   UNK d   1      90.288 101.993 -43.936  0.00  0.00     0.155 C 
ATOM      7  C   UNK d   1      91.561  98.995 -45.708  0.00  0.00     0.238 C 
ATOM      8  O   UNK d   1      92.639  98.688 -46.253  0.00  0.00    -0.272 OA
ENDROOT
BRANCH   7   9
ATOM      9  C   UNK d   1      90.509  97.965 -45.556  0.00  0.00     0.238 C 
BRANCH   9  10
ATOM     10  N   UNK d   1      90.975  96.859 -44.771  0.00  0.00    -0.271 N 
ATOM     11  C   UNK d   1      91.315  95.539 -45.173  0.00  0.00     0.262 A 
ATOM     12  O   UNK d   1      91.254  95.126 -46.352  0.00  0.00    -0.267 OA
ATOM     13  C   UNK d   1      91.733  94.795 -43.997  0.00  0.00     0.048 A 
ATOM     14  C   UNK d   1      91.658  95.615 -42.896  0.00  0.00     0.048 A 
ATOM     15  C   UNK d   1      92.157  93.501 -43.830  0.00  0.00     0.018 A 
ATOM     16  C   UNK d   1      92.011  95.117 -41.649  0.00  0.00     0.018 A 
ATOM     17  C   UNK d   1      91.185  96.915 -43.356  0.00  0.00     0.262 A 
ATOM     18  C   UNK d   1      92.432  93.827 -41.486  0.00  0.00     0.001 A 
ATOM     19  C   UNK d   1      92.513  92.983 -42.593  0.00  0.00     0.001 A 
ATOM     20  O   UNK d   1      91.013  97.887 -42.574  0.00  0.00    -0.267 OA
ENDBRANCH   9  10
ENDBRANCH   7   9
BRANCH   1  21
ATOM     21  S   UNK d   1      91.666 101.657 -41.697  0.00  0.00     0.260 S 
ATOM     22  O   UNK d   1      90.272 101.365 -41.159  0.00  0.00    -0.200 OA
ATOM     23  O   UNK d   1      92.372 100.314 -41.709  0.00  0.00    -0.200 OA
BRANCH  21  24
ATOM     24  C   UNK d   1      92.531 102.690 -40.622  0.00  0.00     0.079 A 
ATOM     25  C   UNK d   1      93.227 102.146 -39.555  0.00  0.00     0.026 A 
ATOM     26  C   UNK d   1      93.935 102.928 -38.666  0.00  0.00     0.020 A 
ATOM     27  C   UNK d   1      93.938 104.296 -38.865  0.00  0.00     0.011 A 
ATOM     28  C   UNK d   1      93.240 104.823 -39.932  0.00  0.00     0.020 A 
ATOM     29 Br   UNK d   1      94.908 105.445 -37.661  0.00  0.00    -0.051 Br
ATOM     30  C   UNK d   1      92.527 104.055 -40.829  0.00  0.00     0.026 A 
ENDBRANCH  21  24
ENDBRANCH   1  21
TORSDOF 4
ENDMDL
