/Users/jonathanwahrer/Desktop/Msc/3_Semester/Drug_Design_Praktikum/waehrer_HTS_screening/HTS_experiment/out/docking_results/vina_output/4agl/1718_docked.pdbqt
 OpenBabel03212200343D

 34 38  0  0  1  0  0  0  0  0999 V2000
   91.8270   92.8920  -44.5980 Cl  0  0  0  0  0  0  0  0  0  0  0  0
   91.8100   94.2570  -43.5040 C   0  0  0  0  0  0  0  0  0  0  0  0
   91.3700   95.4780  -44.0170 C   0  0  0  0  0  0  0  0  0  0  0  0
   91.3420   96.5770  -43.1870 C   0  0  0  0  0  0  0  0  0  0  0  0
   91.7590   96.4110  -41.8650 C   0  0  0  0  0  3  0  0  0  0  0  0
   92.1920   95.2010  -41.3680 C   0  0  0  0  0  3  0  0  0  0  0  0
   92.2190   94.1010  -42.1990 C   0  0  0  0  0  3  0  0  0  0  0  0
   90.8570   97.7570  -43.9040 C   0  0  1  0  0  0  0  0  0  0  0  0
   89.6940   98.3590  -43.2780 N   0  0  0  0  0  0  0  0  0  0  0  0
   89.6710   99.7330  -43.7620 C   0  0  2  0  0  3  0  0  0  0  0  0
   91.1070  100.1420  -43.9380 C   0  0  1  0  0  3  0  0  0  0  0  0
   91.8910   98.8550  -44.0030 C   0  0  2  0  0  3  0  0  0  0  0  0
   92.5640   98.8560  -45.3270 C   0  0  0  0  0  0  0  0  0  0  0  0
   93.1960   97.8470  -45.7480 O   0  0  0  0  0  0  0  0  0  0  0  0
   92.3660  100.1090  -45.9590 N   0  0  0  0  0  0  0  0  0  0  0  0
   91.2710  100.7370  -45.3090 C   0  0  0  0  0  0  0  0  0  0  0  0
   90.5150  101.6500  -45.7480 O   0  0  0  0  0  0  0  0  0  0  0  0
   90.5770   97.2750  -45.2660 C   0  0  0  0  0  0  0  0  0  0  0  0
   90.1220   97.9560  -46.2560 O   0  0  0  0  0  0  0  0  0  0  0  0
   90.9030   95.8970  -45.2930 N   0  0  0  0  0  0  0  0  0  0  0  0
   89.7470   98.3210  -42.2360 H   0  0  0  0  0  0  0  0  0  0  0  0
   90.8160   95.2610  -46.1320 H   0  0  0  0  0  0  0  0  0  0  0  0
   88.9510  100.5890  -42.7620 C   0  0  0  0  0  2  0  0  0  0  0  0
   87.4840  100.4150  -43.0100 C   0  0  0  0  0  0  0  0  0  0  0  0
   87.1600   99.6940  -43.9880 O   0  0  0  0  0  0  0  0  0  0  0  0
   86.4940  101.0240  -42.1970 N   0  0  0  0  0  0  0  0  0  0  0  0
   86.3310  100.6310  -41.2490 H   0  0  0  0  0  0  0  0  0  0  0  0
   85.9210  101.8400  -42.4880 H   0  0  0  0  0  0  0  0  0  0  0  0
   93.1230  100.6380  -47.0340 C   0  0  0  0  0  2  0  0  0  0  0  0
   92.5760  100.4730  -48.3960 C   0  0  2  0  0  3  0  0  0  0  0  0
   93.3660   99.7390  -49.2670 O   0  0  0  0  0  0  0  0  0  0  0  0
   92.5390   99.6750  -50.3890 C   0  0  0  0  0  2  0  0  0  0  0  0
   92.0060  101.1030  -50.5610 C   0  0  0  0  0  2  0  0  0  0  0  0
   92.2820  101.7030  -49.1720 C   0  0  0  0  0  2  0  0  0  0  0  0
  1  2  1  0  0  0  0
  2  7  1  0  0  0  0
  3  2  2  0  0  0  0
  3  4  1  0  0  0  0
  4  5  2  0  0  0  0
  5  6  1  0  0  0  0
  7  6  2  0  0  0  0
  8 18  1  6  0  0  0
  8  9  1  0  0  0  0
  8  4  1  0  0  0  0
  9 21  1  0  0  0  0
 10  9  1  0  0  0  0
 10 23  1  1  0  0  0
 11 16  1  6  0  0  0
 11 10  1  0  0  0  0
 12 13  1  6  0  0  0
 12 11  1  0  0  0  0
 12  8  1  0  0  0  0
 14 13  2  0  0  0  0
 15 13  1  0  0  0  0
 15 16  1  0  0  0  0
 17 16  2  0  0  0  0
 19 18  2  0  0  0  0
 20 18  1  0  0  0  0
 20  3  1  0  0  0  0
 22 20  1  0  0  0  0
 24 23  1  0  0  0  0
 24 26  1  0  0  0  0
 25 24  2  0  0  0  0
 26 27  1  0  0  0  0
 28 26  1  0  0  0  0
 29 15  1  0  0  0  0
 30 29  1  1  0  0  0
 31 30  1  0  0  0  0
 32 31  1  0  0  0  0
 33 32  1  0  0  0  0
 33 34  1  0  0  0  0
 34 30  1  0  0  0  0
M  END
>  <Pose>
1

>  <Score>
-7.265

$$$$
