MODEL 1
REMARK VINA RESULT:    -7.265      0.000      0.000
REMARK INTER + INTRA:          -9.864
REMARK INTER:                  -8.964
REMARK INTRA:                  -0.900
REMARK UNBOUND:                -0.900
REMARK  4 active torsions:
REMARK  status: ('A' for Active; 'I' for Inactive)
REMARK    1  A    between atoms: C_10  and  C_24 
REMARK    2  A    between atoms: N_15  and  C_18 
REMARK    3  A    between atoms: C_18  and  C_19 
REMARK    4  A    between atoms: C_24  and  C_25 
REMARK       I    between atoms: C_25  and  N_27 
ROOT
ATOM      1 Cl   UNK d   1      91.827  92.892 -44.598  0.00  0.00    -0.082 Cl
ATOM      2  C   UNK d   1      91.810  94.257 -43.504  0.00  0.00     0.061 A 
ATOM      3  C   UNK d   1      91.370  95.478 -44.017  0.00  0.00     0.066 A 
ATOM      4  C   UNK d   1      91.342  96.577 -43.187  0.00  0.00     0.019 A 
ATOM      5  C   UNK d   1      91.759  96.411 -41.865  0.00  0.00     0.013 A 
ATOM      6  C   UNK d   1      92.192  95.201 -41.368  0.00  0.00     0.002 A 
ATOM      7  C   UNK d   1      92.219  94.101 -42.199  0.00  0.00     0.026 A 
ATOM      8  C   UNK d   1      90.857  97.757 -43.904  0.00  0.00     0.279 A 
ATOM      9  N   UNK d   1      89.694  98.359 -43.278  0.00  0.00     0.114 N 
ATOM     10  C   UNK d   1      89.671  99.733 -43.762  0.00  0.00     0.245 C 
ATOM     11  C   UNK d   1      91.107 100.142 -43.938  0.00  0.00     0.128 C 
ATOM     12  C   UNK d   1      91.891  98.855 -44.003  0.00  0.00     0.147 C 
ATOM     13  C   UNK d   1      92.564  98.856 -45.327  0.00  0.00     0.235 C 
ATOM     14  O   UNK d   1      93.196  97.847 -45.748  0.00  0.00    -0.272 OA
ATOM     15  N   UNK d   1      92.366 100.109 -45.959  0.00  0.00    -0.285 N 
ATOM     16  C   UNK d   1      91.271 100.737 -45.309  0.00  0.00     0.233 C 
ATOM     17  O   UNK d   1      90.515 101.650 -45.748  0.00  0.00    -0.272 OA
ATOM     18  C   UNK d   1      90.577  97.275 -45.266  0.00  0.00     0.267 A 
ATOM     19  O   UNK d   1      90.122  97.956 -46.256  0.00  0.00    -0.270 OA
ATOM     20  N   UNK d   1      90.903  95.897 -45.293  0.00  0.00    -0.323 N 
ATOM     21  H   UNK d   1      89.747  98.321 -42.236  0.00  0.00     0.318 HD
ATOM     22  H   UNK d   1      90.816  95.261 -46.132  0.00  0.00     0.169 HD
ENDROOT
BRANCH  10  23
ATOM     23  C   UNK d   1      88.951 100.589 -42.762  0.00  0.00     0.139 C 
BRANCH  23  24
ATOM     24  C   UNK d   1      87.484 100.415 -43.010  0.00  0.00     0.217 C 
ATOM     25  O   UNK d   1      87.160  99.694 -43.988  0.00  0.00    -0.274 OA
ATOM     26  N   UNK d   1      86.494 101.024 -42.197  0.00  0.00    -0.370 N 
ATOM     27  H   UNK d   1      86.331 100.631 -41.249  0.00  0.00     0.159 HD
ATOM     28  H   UNK d   1      85.921 101.840 -42.488  0.00  0.00     0.159 HD
ENDBRANCH  23  24
ENDBRANCH  10  23
BRANCH  15  29
ATOM     29  C   UNK d   1      93.123 100.638 -47.034  0.00  0.00     0.166 C 
BRANCH  29  30
ATOM     30  C   UNK d   1      92.576 100.473 -48.396  0.00  0.00     0.140 C 
ATOM     31  O   UNK d   1      93.366  99.739 -49.267  0.00  0.00    -0.384 OA
ATOM     32  C   UNK d   1      92.539  99.675 -50.389  0.00  0.00     0.168 C 
ATOM     33  C   UNK d   1      92.006 101.103 -50.561  0.00  0.00     0.029 C 
ATOM     34  C   UNK d   1      92.282 101.703 -49.172  0.00  0.00     0.035 C 
ENDBRANCH  29  30
ENDBRANCH  15  29
TORSDOF 4
ENDMDL
