MODEL 1
REMARK VINA RESULT:    -6.177      0.000      0.000
REMARK INTER + INTRA:          -9.217
REMARK INTER:                  -8.164
REMARK INTRA:                  -1.053
REMARK UNBOUND:                -1.053
REMARK  6 active torsions:
REMARK  status: ('A' for Active; 'I' for Inactive)
REMARK    1  A    between atoms: C_3  and  O_10 
REMARK    2  A    between atoms: O_10  and  C_11 
REMARK    3  A    between atoms: C_11  and  C_12 
REMARK    4  A    between atoms: C_12  and  O_13 
REMARK    5  A    between atoms: C_12  and  C_14 
REMARK    6  A    between atoms: C_14  and  N_15 
ROOT
ATOM      1  N   UNK d   1      89.811 100.175 -42.658  0.00  0.00    -0.068 N 
ATOM      2  C   UNK d   1      89.566 101.358 -43.414  0.00  0.00     0.241 C 
ATOM      3  C   UNK d   1      88.269 101.384 -44.160  0.00  0.00     0.031 C 
ATOM      4  C   UNK d   1      88.224 100.496 -45.352  0.00  0.00     0.138 C 
ATOM      5  N   UNK d   1      87.315  99.388 -45.249  0.00  0.00    -0.317 N 
ATOM      6  C   UNK d   1      86.877  98.864 -44.089  0.00  0.00     0.020 A 
ATOM      7  C   UNK d   1      86.014  97.811 -43.991  0.00  0.00     0.026 A 
ATOM      8  C   UNK d   1      85.545  97.229 -45.151  0.00  0.00     0.007 A 
ATOM      9  C   UNK d   1      85.988  97.759 -46.340  0.00  0.00     0.074 A 
ATOM     10  C   UNK d   1      86.859  98.820 -46.402  0.00  0.00     0.247 A 
ATOM     11  O   UNK d   1      87.243  99.278 -47.510  0.00  0.00    -0.268 OA
ATOM     12  C   UNK d   1      87.428  99.546 -42.857  0.00  0.00     0.062 C 
ATOM     13  C   UNK d   1      88.846  99.148 -42.741  0.00  0.00     0.245 C 
ATOM     14  C   UNK d   1      87.203 101.014 -43.122  0.00  0.00     0.020 C 
ATOM     15  H   UNK d   1      89.887 100.464 -41.636  0.00  0.00     0.280 HD
ENDROOT
BRANCH   1  16
ATOM     16  C   UNK d   1      91.136  99.706 -43.013  0.00  0.00     0.268 C 
BRANCH  16  17
ATOM     17  C   UNK d   1      91.653  98.622 -42.123  0.00  0.00     0.168 C 
BRANCH  17  18
ATOM     18  C   UNK d   1      92.267  97.561 -43.037  0.00  0.00     0.209 C 
BRANCH  18  19
ATOM     19  O   UNK d   1      91.345  96.512 -43.108  0.00  0.00    -0.346 OA
BRANCH  19  20
ATOM     20  C   UNK d   1      91.379  95.428 -43.919  0.00  0.00     0.103 A 
ATOM     21  C   UNK d   1      90.910  95.510 -45.210  0.00  0.00     0.046 A 
ATOM     22 Br   UNK d   1      90.220  97.178 -45.819  0.00  0.00    -0.048 Br
ATOM     23  C   UNK d   1      90.927  94.417 -46.074  0.00  0.00     0.028 A 
ATOM     24  C   UNK d   1      91.421  93.223 -45.638  0.00  0.00    -0.059 A 
ATOM     25  C   UNK d   1      91.899  93.108 -44.347  0.00  0.00     0.028 A 
ATOM     26  C   UNK d   1      91.436  92.053 -46.571  0.00  0.00     0.048 C 
ATOM     27  C   UNK d   1      91.875  94.215 -43.493  0.00  0.00     0.046 A 
ATOM     28 Br   UNK d   1      92.531  94.068 -41.713  0.00  0.00    -0.048 Br
ENDBRANCH  19  20
ENDBRANCH  18  19
ENDBRANCH  17  18
BRANCH  17  29
ATOM     29  O   UNK d   1      92.601  99.143 -41.244  0.00  0.00    -0.392 OA
ATOM     30  H   UNK d   1      92.118  99.821 -40.692  0.00  0.00     0.210 HD
ENDBRANCH  17  29
ENDBRANCH  16  17
ENDBRANCH   1  16
TORSDOF 6
ENDMDL
