/Users/jonathanwahrer/Desktop/Msc/3_Semester/Drug_Design_Praktikum/waehrer_HTS_screening/HTS_experiment/out/docking_results/vina_output/4agl/1726_docked.pdbqt
 OpenBabel03212200343D

 30 33  0  0  1  0  0  0  0  0999 V2000
   89.8110  100.1750  -42.6580 N   0  0  0  0  0  4  0  0  0  0  0  0
   89.5660  101.3580  -43.4140 C   0  0  0  0  0  2  0  0  0  0  0  0
   88.2690  101.3840  -44.1600 C   0  0  1  0  0  3  0  0  0  0  0  0
   88.2240  100.4960  -45.3520 C   0  0  0  0  0  2  0  0  0  0  0  0
   87.3150   99.3880  -45.2490 N   0  0  0  0  0  0  0  0  0  0  0  0
   86.8770   98.8640  -44.0890 C   0  0  0  0  0  0  0  0  0  0  0  0
   86.0140   97.8110  -43.9910 C   0  0  0  0  0  3  0  0  0  0  0  0
   85.5450   97.2290  -45.1510 C   0  0  0  0  0  3  0  0  0  0  0  0
   85.9880   97.7590  -46.3400 C   0  0  0  0  0  3  0  0  0  0  0  0
   86.8590   98.8200  -46.4020 C   0  0  0  0  0  0  0  0  0  0  0  0
   87.2430   99.2780  -47.5100 O   0  0  0  0  0  0  0  0  0  0  0  0
   87.4280   99.5460  -42.8570 C   0  0  1  0  0  3  0  0  0  0  0  0
   88.8460   99.1480  -42.7410 C   0  0  0  0  0  2  0  0  0  0  0  0
   87.2030  101.0140  -43.1220 C   0  0  0  0  0  2  0  0  0  0  0  0
   89.8870  100.4640  -41.6360 H   0  0  0  0  0  0  0  0  0  0  0  0
   91.1360   99.7060  -43.0130 C   0  0  0  0  0  2  0  0  0  0  0  0
   91.6530   98.6220  -42.1230 C   0  0  1  0  0  3  0  0  0  0  0  0
   92.2670   97.5610  -43.0370 C   0  0  0  0  0  2  0  0  0  0  0  0
   91.3450   96.5120  -43.1080 O   0  0  0  0  0  0  0  0  0  0  0  0
   91.3790   95.4280  -43.9190 C   0  0  0  0  0  0  0  0  0  0  0  0
   90.9100   95.5100  -45.2100 C   0  0  0  0  0  0  0  0  0  0  0  0
   90.2200   97.1780  -45.8190 Br  0  0  0  0  0  0  0  0  0  0  0  0
   90.9270   94.4170  -46.0740 C   0  0  0  0  0  3  0  0  0  0  0  0
   91.4210   93.2230  -45.6380 C   0  0  0  0  0  0  0  0  0  0  0  0
   91.8990   93.1080  -44.3470 C   0  0  0  0  0  3  0  0  0  0  0  0
   91.4360   92.0530  -46.5710 C   0  0  0  0  0  1  0  0  0  0  0  0
   91.8750   94.2150  -43.4930 C   0  0  0  0  0  0  0  0  0  0  0  0
   92.5310   94.0680  -41.7130 Br  0  0  0  0  0  0  0  0  0  0  0  0
   92.6010   99.1430  -41.2440 O   0  0  0  0  0  0  0  0  0  0  0  0
   92.1180   99.8210  -40.6920 H   0  0  0  0  0  0  0  0  0  0  0  0
  1 15  1  0  0  0  0
  2  1  1  0  0  0  0
  3  4  1  6  0  0  0
  3  2  1  0  0  0  0
  3 14  1  0  0  0  0
  4  5  1  0  0  0  0
  5  6  1  0  0  0  0
  6  7  2  0  0  0  0
  6 12  1  0  0  0  0
  8  7  1  0  0  0  0
  9  8  2  0  0  0  0
 10  9  1  0  0  0  0
 10  5  1  0  0  0  0
 11 10  2  0  0  0  0
 12 14  1  6  0  0  0
 12 13  1  0  0  0  0
 13  1  1  0  0  0  0
 16  1  1  0  0  0  0
 16 17  1  0  0  0  0
 17 18  1  6  0  0  0
 17 29  1  0  0  0  0
 19 18  1  0  0  0  0
 20 27  1  0  0  0  0
 20 19  1  0  0  0  0
 21 20  2  0  0  0  0
 22 21  1  0  0  0  0
 23 24  2  0  0  0  0
 23 21  1  0  0  0  0
 24 25  1  0  0  0  0
 25 27  2  0  0  0  0
 26 24  1  0  0  0  0
 27 28  1  0  0  0  0
 29 30  1  0  0  0  0
M  END
>  <Pose>
1

>  <Score>
-6.177

$$$$
