MODEL 1
REMARK VINA RESULT:    -6.373      0.000      0.000
REMARK INTER + INTRA:          -9.367
REMARK INTER:                  -8.050
REMARK INTRA:                  -1.317
REMARK UNBOUND:                -1.317
REMARK  5 active torsions:
REMARK  status: ('A' for Active; 'I' for Inactive)
REMARK    1  A    between atoms: C_13  and  C_30 
REMARK    2  A    between atoms: N_18  and  C_21 
REMARK    3  A    between atoms: C_21  and  C_22 
REMARK    4  A    between atoms: C_23  and  O_28 
REMARK    5  A    between atoms: C_30  and  O_31 
ROOT
ATOM      1 Cl   UNK d   1      89.234 102.845 -46.949  0.00  0.00    -0.084 Cl
ATOM      2  C   UNK d   1      88.144 102.009 -45.832  0.00  0.00     0.034 A 
ATOM      3  C   UNK d   1      87.865 100.674 -45.986  0.00  0.00     0.036 A 
ATOM      4  C   UNK d   1      87.021 100.034 -45.117  0.00  0.00     0.019 A 
ATOM      5  C   UNK d   1      86.455 100.742 -44.087  0.00  0.00     0.044 A 
ATOM      6  C   UNK d   1      86.720 102.099 -43.904  0.00  0.00     0.032 A 
ATOM      7  C   UNK d   1      87.572 102.713 -44.795  0.00  0.00     0.026 A 
ATOM      8  N   UNK d   1      85.615  99.918 -43.301  0.00  0.00    -0.324 N 
ATOM      9  C   UNK d   1      85.664  98.622 -43.879  0.00  0.00     0.267 A 
ATOM     10  O   UNK d   1      85.046  97.617 -43.467  0.00  0.00    -0.270 OA
ATOM     11  C   UNK d   1      86.559  98.629 -45.052  0.00  0.00     0.279 A 
ATOM     12  N   UNK d   1      85.891  98.215 -46.261  0.00  0.00     0.116 N 
ATOM     13  C   UNK d   1      86.823  97.460 -47.038  0.00  0.00     0.264 C 
ATOM     14  C   UNK d   1      87.726  96.740 -46.063  0.00  0.00     0.130 C 
ATOM     15  C   UNK d   1      87.656  97.647 -44.861  0.00  0.00     0.147 C 
ATOM     16  C   UNK d   1      89.003  98.251 -44.712  0.00  0.00     0.235 C 
ATOM     17  O   UNK d   1      89.338  99.297 -44.100  0.00  0.00    -0.272 OA
ATOM     18  N   UNK d   1      89.904  97.383 -45.428  0.00  0.00    -0.283 N 
ATOM     19  C   UNK d   1      89.152  96.739 -46.477  0.00  0.00     0.234 C 
ATOM     20  O   UNK d   1      89.599  96.258 -47.551  0.00  0.00    -0.272 OA
ATOM     21  H   UNK d   1      85.043 100.172 -42.443  0.00  0.00     0.169 HD
ATOM     22  H   UNK d   1      85.525  99.029 -46.764  0.00  0.00     0.318 HD
ENDROOT
BRANCH  13  23
ATOM     23  C   UNK d   1      86.127  96.495 -47.973  0.00  0.00     0.148 C 
ATOM     24  C   UNK d   1      84.853  97.189 -48.442  0.00  0.00     0.041 C 
BRANCH  23  25
ATOM     25  O   UNK d   1      86.931  96.348 -49.100  0.00  0.00    -0.394 OA
ATOM     26  H   UNK d   1      86.662  97.002 -49.784  0.00  0.00     0.210 HD
ENDBRANCH  23  25
ENDBRANCH  13  23
BRANCH  18  27
ATOM     27  C   UNK d   1      91.312  97.179 -45.160  0.00  0.00     0.176 C 
BRANCH  27  28
ATOM     28  C   UNK d   1      91.484  96.323 -43.949  0.00  0.00    -0.006 A 
ATOM     29  C   UNK d   1      91.532  94.949 -44.056  0.00  0.00     0.076 A 
ATOM     30  C   UNK d   1      91.693  94.177 -42.918  0.00  0.00     0.037 A 
ATOM     31  C   UNK d   1      91.809  94.741 -41.662  0.00  0.00     0.003 A 
ATOM     32  C   UNK d   1      91.762  96.112 -41.544  0.00  0.00     0.001 A 
ATOM     33  C   UNK d   1      91.602  96.868 -42.683  0.00  0.00     0.011 A 
BRANCH  29  34
ATOM     34  O   UNK d   1      91.414  94.380 -45.328  0.00  0.00    -0.355 OA
ATOM     35  C   UNK d   1      91.699  92.985 -45.477  0.00  0.00     0.210 C 
ENDBRANCH  29  34
ENDBRANCH  27  28
ENDBRANCH  18  27
TORSDOF 5
ENDMDL
