/Users/jonathanwahrer/Desktop/Msc/3_Semester/Drug_Design_Praktikum/waehrer_HTS_screening/HTS_experiment/out/docking_results/vina_output/4agl/1741_docked.pdbqt
 OpenBabel03212200353D

 28 31  0  0  0  0  0  0  0  0999 V2000
   90.7480   98.6620  -43.0040 C   0  0  0  0  0  0  0  0  0  0  0  0
   89.6130   98.4080  -42.5540 O   0  0  0  0  0  0  0  0  0  0  0  0
   90.8960   99.4880  -44.1280 N   0  0  0  0  0  0  0  0  0  0  0  0
   89.7820  100.0930  -44.8230 C   0  0  0  0  0  2  0  0  0  0  0  0
   90.0780  101.5800  -44.9220 C   0  0  0  0  0  2  0  0  0  0  0  0
   91.2210  101.9330  -44.1890 N   0  0  0  0  0  0  0  0  0  0  0  0
   92.4480  101.2980  -44.4460 C   0  0  0  0  0  2  0  0  0  0  0  0
   92.2150   99.8120  -44.6930 C   0  0  0  0  0  2  0  0  0  0  0  0
   91.9440   98.0660  -42.3180 C   0  0  0  0  0  2  0  0  0  0  0  0
   91.8630   96.6220  -42.2550 N   0  0  0  0  0  0  0  0  0  0  0  0
   91.7590   95.7910  -43.3310 C   0  0  0  0  0  0  0  0  0  0  0  0
   91.6990   94.4800  -42.9190 C   0  0  0  0  0  0  0  0  0  0  0  0
   91.7120   96.0830  -44.6750 C   0  0  0  0  0  3  0  0  0  0  0  0
   91.5900   93.4280  -43.8220 C   0  0  0  0  0  3  0  0  0  0  0  0
   91.7670   94.4930  -41.5420 C   0  0  0  0  0  3  0  0  0  0  0  0
   91.5420   93.7170  -45.1870 C   0  0  0  0  0  0  0  0  0  0  0  0
   91.3930   92.2890  -46.4590 Br  0  0  0  0  0  0  0  0  0  0  0  0
   91.6030   95.0350  -45.5840 C   0  0  0  0  0  3  0  0  0  0  0  0
   91.8670   95.8220  -41.1820 C   0  0  0  0  0  3  0  0  0  0  0  0
   91.1010  102.7920  -43.0850 C   0  0  0  0  0  2  0  0  0  0  0  0
   91.4040  102.1570  -41.7750 C   0  0  0  0  0  0  0  0  0  0  0  0
   90.5120  101.4170  -41.2900 O   0  0  0  0  0  0  0  0  0  0  0  0
   92.6070  102.3410  -41.0760 N   0  0  0  0  0  0  0  0  0  0  0  0
   92.8190  101.6910  -39.7980 C   0  0  0  0  0  2  0  0  0  0  0  0
   93.7010  103.1660  -41.5500 C   0  0  0  0  0  2  0  0  0  0  0  0
   94.1190  100.9210  -39.9000 C   0  0  0  0  0  2  0  0  0  0  0  0
   95.1190  101.8930  -40.0480 O   0  0  0  0  0  0  0  0  0  0  0  0
   95.0210  102.5430  -41.2550 C   0  0  0  0  0  2  0  0  0  0  0  0
  1  2  2  0  0  0  0
  1  9  1  0  0  0  0
  3  1  1  0  0  0  0
  4  3  1  0  0  0  0
  5  4  1  0  0  0  0
  5  6  1  0  0  0  0
  6 20  1  0  0  0  0
  7  6  1  0  0  0  0
  8  7  1  0  0  0  0
  8  3  1  0  0  0  0
  9 10  1  0  0  0  0
 10 19  1  0  0  0  0
 11 12  1  0  0  0  0
 11 10  1  0  0  0  0
 12 15  1  0  0  0  0
 13 11  2  0  0  0  0
 14 12  2  0  0  0  0
 15 19  2  0  0  0  0
 16 14  1  0  0  0  0
 17 16  1  0  0  0  0
 18 16  2  0  0  0  0
 18 13  1  0  0  0  0
 20 21  1  0  0  0  0
 21 22  2  0  0  0  0
 21 23  1  0  0  0  0
 23 24  1  0  0  0  0
 25 28  1  0  0  0  0
 25 23  1  0  0  0  0
 26 24  1  0  0  0  0
 27 26  1  0  0  0  0
 28 27  1  0  0  0  0
M  END
>  <Pose>
1

>  <Score>
-6.886

$$$$
