MODEL 1
REMARK VINA RESULT:    -6.886      0.000      0.000
REMARK INTER + INTRA:          -9.436
REMARK INTER:                  -8.496
REMARK INTRA:                  -0.940
REMARK UNBOUND:                -0.940
REMARK  4 active torsions:
REMARK  status: ('A' for Active; 'I' for Inactive)
REMARK    1  A    between atoms: N_6  and  C_9 
REMARK    2  A    between atoms: C_9  and  C_10 
REMARK       I    between atoms: C_10  and  N_12 
REMARK    3  A    between atoms: N_15  and  C_18 
REMARK    4  A    between atoms: C_18  and  C_19 
REMARK       I    between atoms: C_19  and  N_21 
ROOT
ATOM      1  C   UNK d   1      90.748  98.662 -43.004  0.00  0.00     0.238 C 
ATOM      2  O   UNK d   1      89.613  98.408 -42.554  0.00  0.00    -0.272 OA
ATOM      3  N   UNK d   1      90.896  99.488 -44.128  0.00  0.00    -0.348 N 
ATOM      4  C   UNK d   1      89.782 100.093 -44.823  0.00  0.00     0.145 C 
ATOM      5  C   UNK d   1      90.078 101.580 -44.922  0.00  0.00     0.137 C 
ATOM      6  N   UNK d   1      91.221 101.933 -44.189  0.00  0.00    -0.401 N 
ATOM      7  C   UNK d   1      92.448 101.298 -44.446  0.00  0.00     0.137 C 
ATOM      8  C   UNK d   1      92.215  99.812 -44.693  0.00  0.00     0.145 C 
ENDROOT
BRANCH   1   9
ATOM      9  C   UNK d   1      91.944  98.066 -42.318  0.00  0.00     0.231 C 
BRANCH   9  10
ATOM     10  N   UNK d   1      91.863  96.622 -42.255  0.00  0.00    -0.347 N 
ATOM     11  C   UNK d   1      91.759  95.791 -43.331  0.00  0.00     0.045 A 
ATOM     12  C   UNK d   1      91.699  94.480 -42.919  0.00  0.00    -0.007 A 
ATOM     13  C   UNK d   1      91.712  96.083 -44.675  0.00  0.00     0.032 A 
ATOM     14  C   UNK d   1      91.590  93.428 -43.822  0.00  0.00     0.032 A 
ATOM     15  C   UNK d   1      91.767  94.493 -41.542  0.00  0.00     0.031 A 
ATOM     16  C   UNK d   1      91.542  93.717 -45.187  0.00  0.00     0.011 A 
ATOM     17 Br   UNK d   1      91.393  92.289 -46.459  0.00  0.00    -0.051 Br
ATOM     18  C   UNK d   1      91.603  95.035 -45.584  0.00  0.00     0.021 A 
ATOM     19  C   UNK d   1      91.867  95.822 -41.182  0.00  0.00     0.092 A 
ENDBRANCH   9  10
ENDBRANCH   1   9
BRANCH   6  20
ATOM     20  C   UNK d   1      91.101 102.792 -43.085  0.00  0.00     0.220 C 
BRANCH  20  21
ATOM     21  C   UNK d   1      91.404 102.157 -41.775  0.00  0.00     0.237 C 
ATOM     22  O   UNK d   1      90.512 101.417 -41.290  0.00  0.00    -0.272 OA
ATOM     23  N   UNK d   1      92.607 102.341 -41.076  0.00  0.00    -0.347 N 
ATOM     24  C   UNK d   1      92.819 101.691 -39.798  0.00  0.00     0.152 C 
ATOM     25  C   UNK d   1      93.701 103.166 -41.550  0.00  0.00     0.152 C 
ATOM     26  C   UNK d   1      94.119 100.921 -39.900  0.00  0.00     0.187 C 
ATOM     27  O   UNK d   1      95.119 101.893 -40.048  0.00  0.00    -0.388 OA
ATOM     28  C   UNK d   1      95.021 102.543 -41.255  0.00  0.00     0.187 C 
ENDBRANCH  20  21
ENDBRANCH   6  20
TORSDOF 4
ENDMDL
