MODEL 1
REMARK VINA RESULT:    -6.810      0.000      0.000
REMARK INTER + INTRA:          -9.653
REMARK INTER:                  -8.601
REMARK INTRA:                  -1.052
REMARK UNBOUND:                -1.052
REMARK  5 active torsions:
REMARK  status: ('A' for Active; 'I' for Inactive)
REMARK    1  A    between atoms: C_4  and  N_8 
REMARK    2  A    between atoms: C_14  and  C_17 
REMARK    3  A    between atoms: C_19  and  C_22 
REMARK    4  A    between atoms: C_24  and  O_30 
REMARK    5  A    between atoms: C_25  and  O_28 
ROOT
ATOM      1  N   UNK d   1      91.418  98.626 -43.812  0.00  0.00    -0.233 N 
ATOM      2  C   UNK d   1      92.479  99.072 -44.655  0.00  0.00     0.336 C 
ATOM      3  O   UNK d   1      93.569  98.463 -44.783  0.00  0.00    -0.246 OA
ATOM      4  N   UNK d   1      92.291 100.277 -45.394  0.00  0.00    -0.277 N 
ATOM      5  C   UNK d   1      91.054 100.996 -45.268  0.00  0.00     0.244 C 
ATOM      6  O   UNK d   1      90.860 101.920 -46.127  0.00  0.00    -0.272 OA
ATOM      7  C   UNK d   1      90.063 100.695 -44.219  0.00  0.00     0.221 C 
ATOM      8  C   UNK d   1      90.184  99.319 -43.678  0.00  0.00     0.251 C 
ATOM      9  O   UNK d   1      89.184  98.811 -43.113  0.00  0.00    -0.271 OA
ATOM     10  H   UNK d   1      93.032 100.664 -46.034  0.00  0.00     0.173 HD
ENDROOT
BRANCH   7  11
ATOM     11  C   UNK d   1      90.159 101.700 -43.096  0.00  0.00     0.041 C 
ATOM     12  C   UNK d   1      90.814 102.844 -43.179  0.00  0.00     0.026 C 
ATOM     13  C   UNK d   1      90.640 103.489 -41.859  0.00  0.00     0.134 C 
ATOM     14  N   UNK d   1      89.363 102.948 -41.428  0.00  0.00    -0.228 NA
ATOM     15  N   UNK d   1      89.553 101.597 -41.807  0.00  0.00    -0.323 N 
ATOM     16  H   UNK d   1      89.146 103.076 -40.436  0.00  0.00     0.147 HD
ATOM     17  H   UNK d   1      89.340 100.715 -41.341  0.00  0.00     0.180 HD
BRANCH  13  18
ATOM     18  C   UNK d   1      91.727 103.082 -40.925  0.00  0.00    -0.032 A 
ATOM     19  C   UNK d   1      92.939 102.580 -41.304  0.00  0.00     0.048 A 
ATOM     20  C   UNK d   1      93.929 102.254 -40.399  0.00  0.00     0.099 A 
ATOM     21  C   UNK d   1      93.720 102.430 -39.043  0.00  0.00     0.101 A 
ATOM     22  C   UNK d   1      92.472 102.947 -38.660  0.00  0.00     0.040 A 
ATOM     23  C   UNK d   1      91.497 103.265 -39.575  0.00  0.00     0.012 A 
BRANCH  20  24
ATOM     24  O   UNK d   1      95.160 101.738 -40.841  0.00  0.00    -0.358 OA
ATOM     25  H   UNK d   1      95.973 101.872 -40.249  0.00  0.00     0.217 HD
ENDBRANCH  20  24
BRANCH  21  26
ATOM     26  O   UNK d   1      94.683 102.121 -38.113  0.00  0.00    -0.353 OA
ATOM     27  C   UNK d   1      94.571 102.519 -36.762  0.00  0.00     0.210 C 
ENDBRANCH  21  26
ENDBRANCH  13  18
ENDBRANCH   7  11
BRANCH   1  28
ATOM     28  C   UNK d   1      91.634  97.431 -43.071  0.00  0.00     0.048 A 
ATOM     29  C   UNK d   1      91.477  96.184 -43.652  0.00  0.00     0.054 A 
ATOM     30  C   UNK d   1      91.692  95.012 -42.971  0.00  0.00     0.036 A 
ATOM     31 Cl   UNK d   1      91.475  93.465 -43.744  0.00  0.00    -0.084 Cl
ATOM     32  C   UNK d   1      92.081  95.104 -41.646  0.00  0.00     0.024 A 
ATOM     33  C   UNK d   1      92.248  96.327 -41.030  0.00  0.00     0.004 A 
ATOM     34  C   UNK d   1      92.017  97.485 -41.765  0.00  0.00     0.030 A 
ENDBRANCH   1  28
TORSDOF 5
ENDMDL
