MODEL 1
REMARK VINA RESULT:    -5.852      0.000      0.000
REMARK INTER + INTRA:          -7.783
REMARK INTER:                  -6.878
REMARK INTRA:                  -0.905
REMARK UNBOUND:                -0.905
REMARK  3 active torsions:
REMARK  status: ('A' for Active; 'I' for Inactive)
REMARK    1  A    between atoms: S_1  and  N_4 
REMARK    2  A    between atoms: S_1  and  N_22 
REMARK       I    between atoms: N_7  and  C_10 
REMARK    3  A    between atoms: C_10  and  C_12 
ROOT
ATOM      1  N   UNK d   1      85.184  98.629 -46.162  0.00  0.00    -0.295 N 
ATOM      2  C   UNK d   1      85.273  97.220 -46.391  0.00  0.00     0.156 C 
ATOM      3  C   UNK d   1      86.707  96.729 -46.452  0.00  0.00     0.147 C 
ATOM      4  N   UNK d   1      87.458  97.587 -47.329  0.00  0.00    -0.344 N 
ATOM      5  C   UNK d   1      86.741  98.615 -48.057  0.00  0.00     0.147 C 
ATOM      6  C   UNK d   1      85.967  99.428 -47.042  0.00  0.00     0.156 C 
ATOM      7  C   UNK d   1      88.866  97.468 -47.509  0.00  0.00     0.274 C 
ATOM      8  O   UNK d   1      89.498  98.229 -48.278  0.00  0.00    -0.266 OA
ENDROOT
BRANCH   7   9
ATOM      9  C   UNK d   1      89.624  96.440 -46.792  0.00  0.00     0.142 A 
ATOM     10  N   UNK d   1      89.872  95.172 -47.222  0.00  0.00    -0.224 NA
ATOM     11  C   UNK d   1      90.597  94.530 -46.293  0.00  0.00     0.134 A 
ATOM     12  N   UNK d   1      90.800  95.386 -45.292  0.00  0.00    -0.313 N 
ATOM     13  C   UNK d   1      91.115  93.247 -46.215  0.00  0.00     0.052 A 
ATOM     14  C   UNK d   1      90.217  96.559 -45.571  0.00  0.00     0.135 A 
ATOM     15  C   UNK d   1      91.511  94.976 -44.223  0.00  0.00     0.122 A 
ATOM     16  C   UNK d   1      92.045  93.724 -44.094  0.00  0.00     0.050 A 
ATOM     17  C   UNK d   1      91.843  92.817 -45.128  0.00  0.00     0.029 A 
ATOM     18 Cl   UNK d   1      92.969  93.223 -42.681  0.00  0.00    -0.083 Cl
ENDBRANCH   7   9
BRANCH   1  19
ATOM     19  S   UNK d   1      85.209  99.109 -44.542  0.00  0.00     0.301 S 
ATOM     20  O   UNK d   1      84.132 100.113 -44.289  0.00  0.00    -0.188 OA
ATOM     21  O   UNK d   1      84.947  97.906 -43.681  0.00  0.00    -0.188 OA
BRANCH  19  22
ATOM     22  N   UNK d   1      86.708  99.782 -44.038  0.00  0.00    -0.189 NA
ATOM     23  C   UNK d   1      87.604  98.783 -43.488  0.00  0.00     0.135 C 
ATOM     24  C   UNK d   1      88.577  99.504 -42.586  0.00  0.00     0.183 C 
ATOM     25  O   UNK d   1      88.869 100.779 -43.058  0.00  0.00    -0.389 OA
ATOM     26  C   UNK d   1      87.776 101.640 -42.992  0.00  0.00     0.183 C 
ATOM     27  C   UNK d   1      86.526 100.783 -43.004  0.00  0.00     0.135 C 
ENDBRANCH  19  22
ENDBRANCH   1  19
TORSDOF 3
ENDMDL
