MODEL 1
REMARK VINA RESULT:    -6.181      0.000      0.000
REMARK INTER + INTRA:          -8.657
REMARK INTER:                  -7.626
REMARK INTRA:                  -1.031
REMARK UNBOUND:                -1.031
REMARK  4 active torsions:
REMARK  status: ('A' for Active; 'I' for Inactive)
REMARK    1  A    between atoms: C_5  and  N_8 
REMARK    2  A    between atoms: C_12  and  C_13 
REMARK    3  A    between atoms: C_13  and  N_14 
REMARK    4  A    between atoms: N_14  and  C_15 
ROOT
ATOM      1  N   UNK d   1      91.131  97.492 -44.258  0.00  0.00    -0.220 N 
ATOM      2  N   UNK d   1      90.158  97.964 -43.500  0.00  0.00    -0.291 N 
ATOM      3  C   UNK d   1      90.337  99.269 -43.210  0.00  0.00     0.056 A 
ATOM      4  C   UNK d   1      89.586 100.069 -42.491  0.00  0.00     0.045 C 
ATOM      5  C   UNK d   1      91.510  99.648 -43.832  0.00  0.00     0.076 A 
ATOM      6  C   UNK d   1      91.972  98.518 -44.471  0.00  0.00     0.280 A 
ATOM      7  O   UNK d   1      93.024  98.449 -45.155  0.00  0.00    -0.265 OA
ATOM      8  H   UNK d   1      89.338  97.411 -43.154  0.00  0.00     0.187 HD
ENDROOT
BRANCH   5   9
ATOM      9  C   UNK d   1      92.062 100.871 -43.803  0.00  0.00     0.103 C 
BRANCH   9  10
ATOM     10  N   UNK d   1      93.310 100.985 -43.131  0.00  0.00    -0.384 N 
ATOM     11  H   UNK d   1      94.176 100.492 -43.424  0.00  0.00     0.159 HD
BRANCH  10  12
ATOM     12  C   UNK d   1      93.395 101.843 -41.960  0.00  0.00     0.109 C 
ATOM     13  C   UNK d   1      92.502 103.061 -42.144  0.00  0.00     0.311 C 
ATOM     14  N   UNK d   1      92.552 103.864 -40.954  0.00  0.00     0.147 N 
ATOM     15  C   UNK d   1      93.937 104.286 -40.771  0.00  0.00     0.547 C 
ATOM     16  C   UNK d   1      92.099 103.065 -39.839  0.00  0.00     0.547 C 
ATOM     17  N   UNK d   1      94.805 103.163 -40.550  0.00  0.00     0.147 N 
ATOM     18  C   UNK d   1      94.346 102.377 -39.427  0.00  0.00     0.547 C 
ATOM     19  C   UNK d   1      94.792 102.335 -41.729  0.00  0.00     0.311 C 
ATOM     20  N   UNK d   1      92.988 101.933 -39.597  0.00  0.00     0.147 N 
ATOM     21  C   UNK d   1      92.915 101.068 -40.752  0.00  0.00     0.311 C 
ENDBRANCH  10  12
ENDBRANCH   9  10
ENDBRANCH   5   9
BRANCH   1  22
ATOM     22  C   UNK d   1      91.260  96.146 -44.755  0.00  0.00     0.060 A 
ATOM     23  C   UNK d   1      92.021  95.195 -44.153  0.00  0.00     0.033 A 
ATOM     24  C   UNK d   1      92.081  93.918 -44.712  0.00  0.00     0.020 A 
ATOM     25  C   UNK d   1      91.389  93.593 -45.861  0.00  0.00     0.006 A 
ATOM     26  I   UNK d   1      91.484  91.665 -46.701  0.00  0.00    -0.045 I 
ATOM     27  C   UNK d   1      90.617  94.554 -46.474  0.00  0.00     0.020 A 
ATOM     28  C   UNK d   1      90.570  95.808 -45.906  0.00  0.00     0.033 A 
ENDBRANCH   1  22
TORSDOF 4
ENDMDL
