/Users/jonathanwahrer/Desktop/Msc/3_Semester/Drug_Design_Praktikum/waehrer_HTS_screening/HTS_experiment/out/docking_results/vina_output/4agl/1758_docked.pdbqt
 OpenBabel03212200363D

 28 32  0  0  1  0  0  0  0  0999 V2000
   91.1310   97.4920  -44.2580 N   0  0  0  0  0  0  0  0  0  0  0  0
   90.1580   97.9640  -43.5000 N   0  0  0  0  0  0  0  0  0  0  0  0
   90.3370   99.2690  -43.2100 C   0  0  0  0  0  0  0  0  0  0  0  0
   89.5860  100.0690  -42.4910 C   0  0  0  0  0  1  0  0  0  0  0  0
   91.5100   99.6480  -43.8320 C   0  0  0  0  0  0  0  0  0  0  0  0
   91.9720   98.5180  -44.4710 C   0  0  0  0  0  0  0  0  0  0  0  0
   93.0240   98.4490  -45.1550 O   0  0  0  0  0  0  0  0  0  0  0  0
   89.3380   97.4110  -43.1540 H   0  0  0  0  0  0  0  0  0  0  0  0
   92.0620  100.8710  -43.8030 C   0  0  0  0  0  2  0  0  0  0  0  0
   93.3100  100.9850  -43.1310 N   0  0  0  0  0  0  0  0  0  0  0  0
   94.1760  100.4920  -43.4240 H   0  0  0  0  0  0  0  0  0  0  0  0
   93.3950  101.8430  -41.9600 C   0  0  2  0  0  0  0  0  0  0  0  0
   92.5020  103.0610  -42.1440 C   0  0  0  0  0  2  0  0  0  0  0  0
   92.5520  103.8640  -40.9540 N   0  0  2  0  0  0  0  0  0  0  0  0
   93.9370  104.2860  -40.7710 C   0  0  0  0  0  2  0  0  0  0  0  0
   92.0990  103.0650  -39.8390 C   0  0  0  0  0  2  0  0  0  0  0  0
   94.8050  103.1630  -40.5500 N   0  0  1  0  0  0  0  0  0  0  0  0
   94.3460  102.3770  -39.4270 C   0  0  0  0  0  2  0  0  0  0  0  0
   94.7920  102.3350  -41.7290 C   0  0  0  0  0  2  0  0  0  0  0  0
   92.9880  101.9330  -39.5970 N   0  0  2  0  0  0  0  0  0  0  0  0
   92.9150  101.0680  -40.7520 C   0  0  0  0  0  2  0  0  0  0  0  0
   91.2600   96.1460  -44.7550 C   0  0  0  0  0  0  0  0  0  0  0  0
   92.0210   95.1950  -44.1530 C   0  0  0  0  0  3  0  0  0  0  0  0
   92.0810   93.9180  -44.7120 C   0  0  0  0  0  3  0  0  0  0  0  0
   91.3890   93.5930  -45.8610 C   0  0  0  0  0  0  0  0  0  0  0  0
   91.4840   91.6650  -46.7010 I   0  0  0  0  0  0  0  0  0  0  0  0
   90.6170   94.5540  -46.4740 C   0  0  0  0  0  3  0  0  0  0  0  0
   90.5700   95.8080  -45.9060 C   0  0  0  0  0  3  0  0  0  0  0  0
  1  2  1  0  0  0  0
  2  3  1  0  0  0  0
  2  8  1  0  0  0  0
  3  4  1  0  0  0  0
  5  9  1  0  0  0  0
  5  3  2  0  0  0  0
  6  1  1  0  0  0  0
  6  5  1  0  0  0  0
  7  6  2  0  0  0  0
  9 10  1  0  0  0  0
 11 10  1  0  0  0  0
 12 10  1  6  0  0  0
 12 19  1  0  0  0  0
 12 21  1  0  0  0  0
 13 12  1  0  0  0  0
 14 13  1  6  0  0  0
 14 15  1  0  0  0  0
 14 16  1  0  0  0  0
 15 17  1  0  0  0  0
 16 20  1  0  0  0  0
 17 19  1  6  0  0  0
 17 18  1  0  0  0  0
 20 21  1  6  0  0  0
 20 18  1  0  0  0  0
 22  1  1  0  0  0  0
 22 23  1  0  0  0  0
 24 23  2  0  0  0  0
 25 24  1  0  0  0  0
 26 25  1  0  0  0  0
 27 28  1  0  0  0  0
 27 25  2  0  0  0  0
 28 22  2  0  0  0  0
M  END
>  <Pose>
1

>  <Score>
-6.181

$$$$
