/Users/jonathanwahrer/Desktop/Msc/3_Semester/Drug_Design_Praktikum/waehrer_HTS_screening/HTS_experiment/out/docking_results/vina_output/4agl/1764_docked.pdbqt
 OpenBabel03212200373D

 34 37  0  0  1  0  0  0  0  0999 V2000
   90.4280   99.8290  -44.8760 N   0  0  0  0  0  0  0  0  0  0  0  0
   91.5730  100.5610  -45.1260 C   0  0  1  0  0  3  0  0  0  0  0  0
   91.0860  101.9270  -45.6300 C   0  0  0  0  0  2  0  0  0  0  0  0
   89.8500  102.1390  -44.7840 C   0  0  0  0  0  2  0  0  0  0  0  0
   89.3540  100.7420  -44.4960 C   0  0  0  0  0  2  0  0  0  0  0  0
   89.9190   98.5040  -45.7360 S   0  0  0  0  0  0  0  0  0  0  0  0
   90.2550   98.6020  -47.2230 O   0  0  0  0  0  0  0  0  0  0  0  0
   88.3890   98.4770  -45.7180 O   0  0  0  0  0  0  0  0  0  0  0  0
   90.4630   96.9680  -45.1300 C   0  0  0  0  0  0  0  0  0  0  0  0
   91.0750   96.9190  -43.8670 C   0  0  0  0  0  3  0  0  0  0  0  0
   91.5950   95.7820  -43.3180 C   0  0  0  0  0  0  0  0  0  0  0  0
   91.5030   94.6220  -44.0640 C   0  0  0  0  0  0  0  0  0  0  0  0
   92.1970   95.7400  -42.0700 O   0  0  0  0  0  0  0  0  0  0  0  0
   90.9210   94.5970  -45.2960 C   0  0  0  0  0  3  0  0  0  0  0  0
   92.0400   93.4170  -43.4970 N   0  0  0  0  0  0  0  0  0  0  0  0
   90.4080   95.7830  -45.8080 C   0  0  0  0  0  0  0  0  0  0  0  0
   89.5850   95.6490  -47.3460 Cl  0  0  0  0  0  0  0  0  0  0  0  0
   92.6390   93.4560  -42.2040 C   0  0  0  0  0  0  0  0  0  0  0  0
   91.9770   92.5280  -44.0520 H   0  0  0  0  0  0  0  0  0  0  0  0
   93.4800   92.5990  -41.8800 O   0  0  0  0  0  0  0  0  0  0  0  0
   92.2150   94.5470  -41.2900 C   0  0  0  0  0  2  0  0  0  0  0  0
   92.3060  100.7730  -43.8120 C   0  0  0  0  0  0  0  0  0  0  0  0
   91.9820  100.0160  -42.8880 O   0  0  0  0  0  0  0  0  0  0  0  0
   93.2810  101.7810  -43.7170 N   0  0  0  0  0  0  0  0  0  0  0  0
   93.5200  102.4100  -44.5100 H   0  0  0  0  0  0  0  0  0  0  0  0
   93.9930  101.9880  -42.4800 C   0  0  0  0  0  2  0  0  0  0  0  0
   93.8360  103.3250  -41.8620 C   0  0  0  0  0  2  0  0  0  0  0  0
   93.3150  103.3570  -40.5420 N   0  0  0  0  0  0  0  0  0  0  0  0
   93.5710  102.2010  -39.7460 C   0  0  0  0  0  2  0  0  0  0  0  0
   93.8740  102.6660  -38.3360 C   0  0  0  0  0  2  0  0  0  0  0  0
   92.7650  103.5910  -37.8780 C   0  0  0  0  0  2  0  0  0  0  0  0
   91.4450  102.9510  -38.2170 C   0  0  0  0  0  2  0  0  0  0  0  0
   91.0290  103.1040  -39.6320 C   0  0  0  0  0  2  0  0  0  0  0  0
   91.9710  103.8340  -40.5140 C   0  0  0  0  0  2  0  0  0  0  0  0
  1  5  1  0  0  0  0
  2  1  1  0  0  0  0
  2 22  1  1  0  0  0
  3  2  1  0  0  0  0
  3  4  1  0  0  0  0
  4  5  1  0  0  0  0
  6  8  2  0  0  0  0
  6  9  1  0  0  0  0
  6  1  1  0  0  0  0
  7  6  2  0  0  0  0
  9 10  1  0  0  0  0
 10 11  2  0  0  0  0
 11 13  1  0  0  0  0
 12 15  1  0  0  0  0
 12 11  1  0  0  0  0
 13 21  1  0  0  0  0
 14 12  2  0  0  0  0
 15 18  1  0  0  0  0
 16 14  1  0  0  0  0
 16  9  2  0  0  0  0
 17 16  1  0  0  0  0
 18 20  2  0  0  0  0
 18 21  1  0  0  0  0
 19 15  1  0  0  0  0
 22 24  1  0  0  0  0
 22 23  2  0  0  0  0
 24 26  1  0  0  0  0
 25 24  1  0  0  0  0
 26 27  1  0  0  0  0
 27 28  1  0  0  0  0
 28 34  1  0  0  0  0
 28 29  1  0  0  0  0
 29 30  1  0  0  0  0
 30 31  1  0  0  0  0
 32 31  1  0  0  0  0
 33 32  1  0  0  0  0
 34 33  1  0  0  0  0
M  END
>  <Pose>
1

>  <Score>
-6.383

$$$$
