MODEL 1
REMARK VINA RESULT:    -6.383      0.000      0.000
REMARK INTER + INTRA:          -9.479
REMARK INTER:                  -8.622
REMARK INTRA:                  -0.856
REMARK UNBOUND:                -0.856
REMARK  6 active torsions:
REMARK  status: ('A' for Active; 'I' for Inactive)
REMARK    1  A    between atoms: S_1  and  N_4 
REMARK    2  A    between atoms: S_1  and  C_21 
REMARK    3  A    between atoms: C_5  and  C_9 
REMARK       I    between atoms: C_9  and  N_11 
REMARK    4  A    between atoms: N_11  and  C_12 
REMARK    5  A    between atoms: C_12  and  C_13 
REMARK    6  A    between atoms: C_13  and  N_14 
ROOT
ATOM      1  N   UNK d   1      90.428  99.829 -44.876  0.00  0.00    -0.293 N 
ATOM      2  C   UNK d   1      91.573 100.561 -45.126  0.00  0.00     0.188 C 
ATOM      3  C   UNK d   1      91.086 101.927 -45.630  0.00  0.00     0.037 C 
ATOM      4  C   UNK d   1      89.850 102.139 -44.784  0.00  0.00     0.023 C 
ATOM      5  C   UNK d   1      89.354 100.742 -44.496  0.00  0.00     0.136 C 
ENDROOT
BRANCH   1   6
ATOM      6  S   UNK d   1      89.919  98.504 -45.736  0.00  0.00     0.263 S 
ATOM      7  O   UNK d   1      90.255  98.602 -47.223  0.00  0.00    -0.200 OA
ATOM      8  O   UNK d   1      88.389  98.477 -45.718  0.00  0.00    -0.200 OA
BRANCH   6   9
ATOM      9  C   UNK d   1      90.463  96.968 -45.130  0.00  0.00     0.104 A 
ATOM     10  C   UNK d   1      91.075  96.919 -43.867  0.00  0.00     0.066 A 
ATOM     11  C   UNK d   1      91.595  95.782 -43.318  0.00  0.00     0.097 A 
ATOM     12  C   UNK d   1      91.503  94.622 -44.064  0.00  0.00     0.070 A 
ATOM     13  O   UNK d   1      92.197  95.740 -42.070  0.00  0.00    -0.340 OA
ATOM     14  C   UNK d   1      90.921  94.597 -45.296  0.00  0.00     0.058 A 
ATOM     15  N   UNK d   1      92.040  93.417 -43.497  0.00  0.00    -0.323 N 
ATOM     16  C   UNK d   1      90.408  95.783 -45.808  0.00  0.00     0.059 A 
ATOM     17 Cl   UNK d   1      89.585  95.649 -47.346  0.00  0.00    -0.083 Cl
ATOM     18  C   UNK d   1      92.639  93.456 -42.204  0.00  0.00     0.246 C 
ATOM     19  H   UNK d   1      91.977  92.528 -44.052  0.00  0.00     0.169 HD
ATOM     20  O   UNK d   1      93.480  92.599 -41.880  0.00  0.00    -0.271 OA
ATOM     21  C   UNK d   1      92.215  94.547 -41.290  0.00  0.00     0.278 C 
ENDBRANCH   6   9
ENDBRANCH   1   6
BRANCH   2  22
ATOM     22  C   UNK d   1      92.306 100.773 -43.812  0.00  0.00     0.241 C 
ATOM     23  O   UNK d   1      91.982 100.016 -42.888  0.00  0.00    -0.271 OA
ATOM     24  N   UNK d   1      93.281 101.781 -43.717  0.00  0.00    -0.358 N 
ATOM     25  H   UNK d   1      93.520 102.410 -44.510  0.00  0.00     0.162 HD
BRANCH  24  26
ATOM     26  C   UNK d   1      93.993 101.988 -42.480  0.00  0.00     0.152 C 
BRANCH  26  27
ATOM     27  C   UNK d   1      93.836 103.325 -41.862  0.00  0.00     0.292 C 
BRANCH  27  28
ATOM     28  N   UNK d   1      93.315 103.357 -40.542  0.00  0.00     0.090 N 
ATOM     29  C   UNK d   1      93.571 102.201 -39.746  0.00  0.00     0.272 C 
ATOM     30  C   UNK d   1      93.874 102.666 -38.336  0.00  0.00     0.030 C 
ATOM     31  C   UNK d   1      92.765 103.591 -37.878  0.00  0.00     0.002 C 
ATOM     32  C   UNK d   1      91.445 102.951 -38.217  0.00  0.00     0.002 C 
ATOM     33  C   UNK d   1      91.029 103.104 -39.632  0.00  0.00     0.030 C 
ATOM     34  C   UNK d   1      91.971 103.834 -40.514  0.00  0.00     0.272 C 
ENDBRANCH  27  28
ENDBRANCH  26  27
ENDBRANCH  24  26
ENDBRANCH   2  22
TORSDOF 6
ENDMDL
