MODEL 1
REMARK VINA RESULT:    -6.463      0.000      0.000
REMARK INTER + INTRA:          -7.728
REMARK INTER:                  -7.219
REMARK INTRA:                  -0.509
REMARK UNBOUND:                -0.509
REMARK  2 active torsions:
REMARK  status: ('A' for Active; 'I' for Inactive)
REMARK    1  A    between atoms: C_5  and  C_8 
REMARK       I    between atoms: C_8  and  N_10 
REMARK    2  A    between atoms: N_13  and  C_16 
ROOT
ATOM      1  C   UNK d   1      92.072 101.347 -42.912  0.00  0.00     0.187 C 
ATOM      2  O   UNK d   1      93.340 101.443 -43.223  0.00  0.00    -0.171 OA
ATOM      3  N   UNK d   1      91.306 100.621 -43.811  0.00  0.00    -0.356 N 
ATOM      4  C   UNK d   1      89.909 100.347 -43.853  0.00  0.00     0.145 C 
ATOM      5  C   UNK d   1      89.768  98.911 -43.307  0.00  0.00     0.144 C 
ATOM      6  N   UNK d   1      90.874  98.122 -43.879  0.00  0.00    -0.361 N 
ATOM      7  C   UNK d   1      91.437  98.562 -45.123  0.00  0.00     0.144 C 
ATOM      8  C   UNK d   1      92.045  99.939 -44.927  0.00  0.00     0.145 C 
ENDROOT
BRANCH   1   9
ATOM      9  C   UNK d   1      91.726 102.017 -41.691  0.00  0.00     0.018 A 
ATOM     10  C   UNK d   1      92.373 101.665 -40.500  0.00  0.00     0.017 A 
ATOM     11  C   UNK d   1      92.075 102.227 -39.280  0.00  0.00     0.025 A 
ATOM     12  C   UNK d   1      91.102 103.188 -39.168  0.00  0.00     0.034 A 
ATOM     13 Cl   UNK d   1      90.716 103.915 -37.602  0.00  0.00    -0.084 Cl
ATOM     14  C   UNK d   1      90.441 103.566 -40.308  0.00  0.00     0.025 A 
ATOM     15  C   UNK d   1      90.755 102.982 -41.549  0.00  0.00     0.017 A 
ENDBRANCH   1   9
BRANCH   6  16
ATOM     16  C   UNK d   1      91.336  96.963 -43.191  0.00  0.00     0.146 A 
ATOM     17  N   UNK d   1      91.411  95.765 -43.811  0.00  0.00    -0.147 NA
ATOM     18  N   UNK d   1      91.832  94.669 -43.204  0.00  0.00    -0.204 N 
ATOM     19  C   UNK d   1      92.220  94.662 -41.921  0.00  0.00     0.174 A 
ATOM     20  C   UNK d   1      91.985  93.383 -43.629  0.00  0.00     0.261 A 
ATOM     21  N   UNK d   1      92.603  93.415 -41.553  0.00  0.00    -0.129 NA
ATOM     22  C   UNK d   1      92.172  95.853 -41.216  0.00  0.00     0.058 A 
ATOM     23  N   UNK d   1      92.454  92.640 -42.611  0.00  0.00    -0.141 NA
ATOM     24  C   UNK d   1      91.729  96.979 -41.871  0.00  0.00     0.056 A 
ENDBRANCH   6  16
TORSDOF 2
ENDMDL
