/Users/jonathanwahrer/Desktop/Msc/3_Semester/Drug_Design_Praktikum/waehrer_HTS_screening/HTS_experiment/out/docking_results/vina_output/4agl/1781_docked.pdbqt
 OpenBabel03212200373D

 24 27  0  0  0  0  0  0  0  0999 V2000
   92.0720  101.3470  -42.9120 C   0  0  0  0  0  0  0  0  0  0  0  0
   93.3400  101.4430  -43.2230 O   0  0  0  0  0  0  0  0  0  0  0  0
   91.3060  100.6210  -43.8110 N   0  0  0  0  0  0  0  0  0  0  0  0
   89.9090  100.3470  -43.8530 C   0  0  0  0  0  2  0  0  0  0  0  0
   89.7680   98.9110  -43.3070 C   0  0  0  0  0  2  0  0  0  0  0  0
   90.8740   98.1220  -43.8790 N   0  0  0  0  0  0  0  0  0  0  0  0
   91.4370   98.5620  -45.1230 C   0  0  0  0  0  2  0  0  0  0  0  0
   92.0450   99.9390  -44.9270 C   0  0  0  0  0  2  0  0  0  0  0  0
   91.7260  102.0170  -41.6910 C   0  0  0  0  0  0  0  0  0  0  0  0
   92.3730  101.6650  -40.5000 C   0  0  0  0  0  3  0  0  0  0  0  0
   92.0750  102.2270  -39.2800 C   0  0  0  0  0  3  0  0  0  0  0  0
   91.1020  103.1880  -39.1680 C   0  0  0  0  0  0  0  0  0  0  0  0
   90.7160  103.9150  -37.6020 Cl  0  0  0  0  0  0  0  0  0  0  0  0
   90.4410  103.5660  -40.3080 C   0  0  0  0  0  3  0  0  0  0  0  0
   90.7550  102.9820  -41.5490 C   0  0  0  0  0  3  0  0  0  0  0  0
   91.3360   96.9630  -43.1910 C   0  0  0  0  0  0  0  0  0  0  0  0
   91.4110   95.7650  -43.8110 N   0  0  0  0  0  0  0  0  0  0  0  0
   91.8320   94.6690  -43.2040 N   0  0  0  0  0  0  0  0  0  0  0  0
   92.2200   94.6620  -41.9210 C   0  0  0  0  0  0  0  0  0  0  0  0
   91.9850   93.3830  -43.6290 C   0  0  0  0  0  3  0  0  0  0  0  0
   92.6030   93.4150  -41.5530 N   0  0  0  0  0  0  0  0  0  0  0  0
   92.1720   95.8530  -41.2160 C   0  0  0  0  0  3  0  0  0  0  0  0
   92.4540   92.6400  -42.6110 N   0  0  0  0  0  0  0  0  0  0  0  0
   91.7290   96.9790  -41.8710 C   0  0  0  0  0  3  0  0  0  0  0  0
  1  9  1  0  0  0  0
  2  1  2  0  0  0  0
  3  1  1  0  0  0  0
  4  3  1  0  0  0  0
  4  5  1  0  0  0  0
  6  5  1  0  0  0  0
  6 16  1  0  0  0  0
  7  8  1  0  0  0  0
  7  6  1  0  0  0  0
  8  3  1  0  0  0  0
  9 15  2  0  0  0  0
  9 10  1  0  0  0  0
 10 11  2  0  0  0  0
 11 12  1  0  0  0  0
 12 13  1  0  0  0  0
 14 12  2  0  0  0  0
 15 14  1  0  0  0  0
 16 24  1  0  0  0  0
 17 18  1  0  0  0  0
 17 16  2  0  0  0  0
 18 19  1  0  0  0  0
 19 21  2  0  0  0  0
 19 22  1  0  0  0  0
 20 18  1  0  0  0  0
 20 23  2  0  0  0  0
 23 21  1  0  0  0  0
 24 22  2  0  0  0  0
M  END
>  <Pose>
1

>  <Score>
-6.463

$$$$
