MODEL 1
REMARK VINA RESULT:    -6.824      0.000      0.000
REMARK INTER + INTRA:          -8.898
REMARK INTER:                  -8.420
REMARK INTRA:                  -0.478
REMARK UNBOUND:                -0.478
REMARK  4 active torsions:
REMARK  status: ('A' for Active; 'I' for Inactive)
REMARK    1  A    between atoms: C_5  and  N_8 
REMARK    2  A    between atoms: N_15  and  C_18 
REMARK    3  A    between atoms: C_20  and  O_26 
REMARK    4  A    between atoms: C_21  and  O_24 
ROOT
ATOM      1  N   UNK d   1      91.712  92.783 -44.868  0.00  0.00    -0.234 N 
ATOM      2  N   UNK d   1      91.898  92.090 -43.770  0.00  0.00    -0.234 N 
ATOM      3  N   UNK d   1      91.940  92.964 -42.769  0.00  0.00    -0.278 N 
ATOM      4  C   UNK d   1      91.779  94.222 -43.224  0.00  0.00     0.152 A 
ATOM      5  C   UNK d   1      91.636  94.087 -44.547  0.00  0.00     0.160 A 
ATOM      6  C   UNK d   1      91.472  95.382 -45.019  0.00  0.00     0.286 A 
ATOM      7  O   UNK d   1      91.306  95.668 -46.226  0.00  0.00    -0.265 OA
ATOM      8  N   UNK d   1      91.509  96.285 -44.028  0.00  0.00    -0.241 N 
ATOM      9  C   UNK d   1      91.701  95.563 -42.908  0.00  0.00     0.286 A 
ATOM     10  O   UNK d   1      91.796  96.042 -41.739  0.00  0.00    -0.265 OA
ATOM     11  H   UNK d   1      91.998  91.035 -43.688  0.00  0.00     0.209 HD
ATOM     12  H   UNK d   1      92.080  92.680 -41.770  0.00  0.00     0.189 HD
ENDROOT
BRANCH   8  13
ATOM     13  C   UNK d   1      91.379  97.702 -44.095  0.00  0.00     0.049 A 
ATOM     14  C   UNK d   1      90.180  98.357 -43.894  0.00  0.00     0.069 A 
ATOM     15  C   UNK d   1      90.063  99.730 -43.960  0.00  0.00     0.103 A 
ATOM     16  C   UNK d   1      91.157 100.522 -44.238  0.00  0.00     0.101 A 
ATOM     17  C   UNK d   1      92.362  99.882 -44.442  0.00  0.00     0.042 A 
ATOM     18  C   UNK d   1      92.469  98.505 -44.372  0.00  0.00     0.033 A 
BRANCH  15  19
ATOM     19  O   UNK d   1      88.855 100.389 -43.758  0.00  0.00    -0.353 OA
ATOM     20  C   UNK d   1      88.248 100.257 -42.486  0.00  0.00     0.210 C 
ENDBRANCH  15  19
BRANCH  16  21
ATOM     21  O   UNK d   1      91.029 101.907 -44.304  0.00  0.00    -0.353 OA
ATOM     22  C   UNK d   1      91.637 102.784 -43.406  0.00  0.00     0.210 C 
ENDBRANCH  16  21
ENDBRANCH   8  13
BRANCH   1  23
ATOM     23  C   UNK d   1      91.606  92.244 -46.168  0.00  0.00     0.058 A 
ATOM     24  C   UNK d   1      90.685  92.767 -47.070  0.00  0.00     0.033 A 
ATOM     25  C   UNK d   1      90.638  92.190 -48.322  0.00  0.00     0.026 A 
ATOM     26  C   UNK d   1      91.429  91.151 -48.722  0.00  0.00     0.034 A 
ATOM     27 Cl   UNK d   1      91.331  90.446 -50.337  0.00  0.00    -0.084 Cl
ATOM     28  C   UNK d   1      92.335  90.642 -47.825  0.00  0.00     0.026 A 
ATOM     29  C   UNK d   1      92.421  91.178 -46.571  0.00  0.00     0.033 A 
ENDBRANCH   1  23
TORSDOF 4
ENDMDL
