/Users/jonathanwahrer/Desktop/Msc/3_Semester/Drug_Design_Praktikum/waehrer_HTS_screening/HTS_experiment/out/docking_results/vina_output/4agl/1801_docked.pdbqt
 OpenBabel03212200383D

 26 29  0  0  0  0  0  0  0  0999 V2000
   90.4120   92.0540  -48.9570 Cl  0  0  0  0  0  0  0  0  0  0  0  0
   90.9060   92.5360  -47.3340 C   0  0  0  0  0  0  0  0  0  0  0  0
   90.6960   93.8310  -46.8950 C   0  0  0  0  0  3  0  0  0  0  0  0
   91.0740   94.2180  -45.6390 C   0  0  0  0  0  0  0  0  0  0  0  0
   91.6660   93.2660  -44.8450 C   0  0  0  0  0  0  0  0  0  0  0  0
   91.8860   91.9760  -45.2550 C   0  0  0  0  0  3  0  0  0  0  0  0
   91.4980   91.5980  -46.5290 C   0  0  0  0  0  3  0  0  0  0  0  0
   92.0880   93.6470  -43.4830 C   0  0  0  0  0  0  0  0  0  0  0  0
   92.6540   92.9990  -42.5260 N   0  0  0  0  0  0  0  0  0  0  0  0
   92.8670   93.8190  -41.3680 C   0  0  0  0  0  3  0  0  0  0  0  0
   92.3240   95.1590  -41.7430 C   0  0  0  0  0  3  0  0  0  0  0  0
   91.8450   94.9890  -43.0940 N   0  0  0  0  0  0  0  0  0  0  0  0
   91.2210   95.9430  -43.9650 C   0  0  0  0  0  0  0  0  0  0  0  0
   90.8990   97.2360  -43.8140 N   0  0  0  0  0  0  0  0  0  0  0  0
   90.3310   97.6940  -44.9160 N   0  0  0  0  0  0  0  0  0  0  0  0
   90.3050   96.6550  -45.7680 C   0  0  0  0  0  0  0  0  0  0  0  0
   89.8320   96.7130  -46.9290 O   0  0  0  0  0  0  0  0  0  0  0  0
   90.8550   95.5490  -45.1970 N   0  0  0  0  0  0  0  0  0  0  0  0
   89.8310   99.0390  -45.1810 C   0  0  0  0  0  2  0  0  0  0  0  0
   90.6180  100.0090  -44.3830 C   0  0  0  0  0  0  0  0  0  0  0  0
   91.4200  100.7790  -44.9820 O   0  0  0  0  0  0  0  0  0  0  0  0
   90.5080  100.1110  -42.9720 N   0  0  0  0  0  0  0  0  0  0  0  0
   89.8420   99.4690  -42.4950 H   0  0  0  0  0  0  0  0  0  0  0  0
   91.2970  101.0720  -42.2360 C   0  0  0  0  0  3  0  0  0  0  0  0
   90.4110  101.8750  -41.2800 C   0  0  0  0  0  1  0  0  0  0  0  0
   92.2440  100.2740  -41.3500 C   0  0  0  0  0  1  0  0  0  0  0  0
  1  2  1  0  0  0  0
  2  3  2  0  0  0  0
  2  7  1  0  0  0  0
  3  4  1  0  0  0  0
  4 18  1  0  0  0  0
  4  5  2  0  0  0  0
  5  8  1  0  0  0  0
  6  5  1  0  0  0  0
  7  6  2  0  0  0  0
  8 12  1  0  0  0  0
  8  9  2  0  0  0  0
  9 10  1  0  0  0  0
 11 10  2  0  0  0  0
 12 11  1  0  0  0  0
 13 14  2  0  0  0  0
 13 12  1  0  0  0  0
 15 14  1  0  0  0  0
 16 18  1  0  0  0  0
 16 15  1  0  0  0  0
 17 16  2  0  0  0  0
 18 13  1  0  0  0  0
 19 15  1  0  0  0  0
 19 20  1  0  0  0  0
 20 22  1  0  0  0  0
 21 20  2  0  0  0  0
 22 23  1  0  0  0  0
 22 24  1  0  0  0  0
 24 26  1  0  0  0  0
 24 25  1  0  0  0  0
M  END
>  <Pose>
1

>  <Score>
-6.384

$$$$
