MODEL 1
REMARK VINA RESULT:    -6.023      0.000      0.000
REMARK INTER + INTRA:          -8.497
REMARK INTER:                  -7.784
REMARK INTRA:                  -0.713
REMARK UNBOUND:                -0.713
REMARK  5 active torsions:
REMARK  status: ('A' for Active; 'I' for Inactive)
REMARK    1  A    between atoms: N_15  and  C_19 
REMARK    2  A    between atoms: C_19  and  C_20 
REMARK       I    between atoms: C_20  and  N_22 
REMARK    3  A    between atoms: N_22  and  C_23 
REMARK    4  A    between atoms: C_23  and  C_24 
REMARK    5  A    between atoms: C_24  and  O_25 
ROOT
ATOM      1 Cl   UNK d   1      93.341  92.805 -42.596  0.00  0.00    -0.084 Cl
ATOM      2  C   UNK d   1      92.325  93.582 -43.814  0.00  0.00     0.036 A 
ATOM      3  C   UNK d   1      91.909  94.896 -43.586  0.00  0.00     0.055 A 
ATOM      4  C   UNK d   1      91.121  95.567 -44.499  0.00  0.00     0.077 A 
ATOM      5  C   UNK d   1      90.768  94.872 -45.639  0.00  0.00     0.038 A 
ATOM      6  C   UNK d   1      91.149  93.598 -45.899  0.00  0.00     0.019 A 
ATOM      7  C   UNK d   1      91.951  92.925 -44.964  0.00  0.00     0.025 A 
ATOM      8  C   UNK d   1      89.924  95.610 -46.612  0.00  0.00     0.153 A 
ATOM      9  N   UNK d   1      89.427  95.257 -47.759  0.00  0.00    -0.270 NA
ATOM     10  C   UNK d   1      88.664  96.339 -48.337  0.00  0.00     0.172 A 
ATOM     11  C   UNK d   1      88.749  97.497 -47.373  0.00  0.00     0.171 A 
ATOM     12  N   UNK d   1      89.555  96.930 -46.304  0.00  0.00    -0.160 N 
ATOM     13  C   UNK d   1      89.962  97.578 -45.100  0.00  0.00     0.736 A 
ATOM     14  N   UNK d   1      89.731  98.818 -44.622  0.00  0.00     0.025 NA
ATOM     15  N   UNK d   1      90.342  98.952 -43.447  0.00  0.00    -0.194 N 
ATOM     16  C   UNK d   1      90.940  97.784 -43.226  0.00  0.00     0.365 A 
ATOM     17  O   UNK d   1      91.632  97.506 -42.207  0.00  0.00    -0.244 OA
ATOM     18  N   UNK d   1      90.720  96.902 -44.241  0.00  0.00    -0.090 N 
ENDROOT
BRANCH  15  19
ATOM     19  C   UNK d   1      90.353 100.149 -42.601  0.00  0.00     0.259 C 
BRANCH  19  20
ATOM     20  C   UNK d   1      91.722 100.806 -42.960  0.00  0.00     0.237 C 
ATOM     21  O   UNK d   1      92.271 101.190 -41.868  0.00  0.00    -0.272 OA
ATOM     22  N   UNK d   1      92.127 100.895 -44.234  0.00  0.00    -0.358 N 
ATOM     23  H   UNK d   1      93.312 101.415 -43.823  0.00  0.00     0.162 HD
BRANCH  22  24
ATOM     24  C   UNK d   1      92.544 100.987 -45.544  0.00  0.00     0.148 C 
BRANCH  24  25
ATOM     25  C   UNK d   1      92.880  99.619 -46.150  0.00  0.00     0.186 C 
BRANCH  25  26
ATOM     26  O   UNK d   1      92.716  99.620 -47.515  0.00  0.00    -0.394 OA
ATOM     27  C   UNK d   1      91.646 100.329 -47.978  0.00  0.00     0.201 C 
ENDBRANCH  25  26
ENDBRANCH  24  25
ENDBRANCH  22  24
ENDBRANCH  19  20
ENDBRANCH  15  19
TORSDOF 5
ENDMDL
