/Users/jonathanwahrer/Desktop/Msc/3_Semester/Drug_Design_Praktikum/waehrer_HTS_screening/HTS_experiment/out/docking_results/vina_output/4agl/1804_docked.pdbqt
 OpenBabel03212200383D

 26 30  0  0  0  0  0  0  0  0999 V2000
   93.5100   92.7210  -41.9130 Cl  0  0  0  0  0  0  0  0  0  0  0  0
   92.5580   93.5630  -43.1160 C   0  0  0  0  0  0  0  0  0  0  0  0
   92.2080   94.8980  -43.0010 C   0  0  0  0  0  3  0  0  0  0  0  0
   91.4600   95.5490  -43.9540 C   0  0  0  0  0  0  0  0  0  0  0  0
   91.0680   94.8070  -45.0420 C   0  0  0  0  0  0  0  0  0  0  0  0
   91.3870   93.4800  -45.2080 C   0  0  0  0  0  3  0  0  0  0  0  0
   92.1480   92.8480  -44.2220 C   0  0  0  0  0  3  0  0  0  0  0  0
   90.2630   95.4710  -46.0850 C   0  0  0  0  0  0  0  0  0  0  0  0
   89.7690   95.0350  -47.1860 N   0  0  0  0  0  0  0  0  0  0  0  0
   89.0450   96.0550  -47.8960 C   0  0  0  0  0  3  0  0  0  0  0  0
   89.1630   97.2670  -47.0290 C   0  0  0  0  0  3  0  0  0  0  0  0
   89.9440   96.8350  -45.9000 N   0  0  0  0  0  0  0  0  0  0  0  0
   90.3840   97.5640  -44.7350 C   0  0  0  0  0  0  0  0  0  0  0  0
   90.2060   98.8420  -44.3480 N   0  0  0  0  0  0  0  0  0  0  0  0
   90.8100   99.0360  -43.1880 N   0  0  0  0  0  0  0  0  0  0  0  0
   91.3620   97.8540  -42.8680 C   0  0  0  0  0  0  0  0  0  0  0  0
   92.0250   97.6750  -41.8070 O   0  0  0  0  0  0  0  0  0  0  0  0
   91.1140   96.9200  -43.8100 N   0  0  0  0  0  0  0  0  0  0  0  0
   90.8710  100.2790  -42.4040 C   0  0  0  0  0  2  0  0  0  0  0  0
   92.1470  100.9680  -42.7300 C   0  0  0  0  0  0  0  0  0  0  0  0
   92.4460  101.0540  -43.9480 O   0  0  0  0  0  0  0  0  0  0  0  0
   92.9930  101.5040  -41.7220 N   0  0  0  0  0  0  0  0  0  0  0  0
   94.2480  102.1850  -41.9780 C   0  0  0  0  0  2  0  0  0  0  0  0
   92.7680  101.4760  -40.2960 C   0  0  0  0  0  2  0  0  0  0  0  0
   94.8920  102.4060  -40.6360 C   0  0  0  0  0  2  0  0  0  0  0  0
   94.2070  101.3590  -39.7820 C   0  0  0  0  0  2  0  0  0  0  0  0
  2  3  1  0  0  0  0
  2  1  1  0  0  0  0
  4 18  1  0  0  0  0
  4  3  2  0  0  0  0
  5  4  1  0  0  0  0
  6  5  2  0  0  0  0
  6  7  1  0  0  0  0
  7  2  2  0  0  0  0
  8 12  1  0  0  0  0
  8  5  1  0  0  0  0
  9  8  2  0  0  0  0
 10  9  1  0  0  0  0
 10 11  2  0  0  0  0
 11 12  1  0  0  0  0
 12 13  1  0  0  0  0
 13 14  2  0  0  0  0
 13 18  1  0  0  0  0
 14 15  1  0  0  0  0
 15 16  1  0  0  0  0
 15 19  1  0  0  0  0
 16 17  2  0  0  0  0
 18 16  1  0  0  0  0
 20 19  1  0  0  0  0
 20 22  1  0  0  0  0
 21 20  2  0  0  0  0
 22 24  1  0  0  0  0
 23 22  1  0  0  0  0
 23 25  1  0  0  0  0
 24 26  1  0  0  0  0
 25 26  1  0  0  0  0
M  END
>  <Pose>
1

>  <Score>
-7.093

$$$$
