MODEL 1
REMARK VINA RESULT:    -6.852      0.000      0.000
REMARK INTER + INTRA:          -9.231
REMARK INTER:                  -8.054
REMARK INTRA:                  -1.177
REMARK UNBOUND:                -1.177
REMARK  3 active torsions:
REMARK  status: ('A' for Active; 'I' for Inactive)
REMARK    1  A    between atoms: C_10  and  N_11 
REMARK    2  A    between atoms: N_14  and  C_17 
REMARK    3  A    between atoms: C_22  and  C_23 
REMARK       I    between atoms: C_23  and  N_25 
ROOT
ATOM      1  N   UNK d   1      91.428  99.409 -42.804  0.00  0.00    -0.384 N 
ATOM      2  C   UNK d   1      92.359 100.026 -43.726  0.00  0.00     0.142 C 
ATOM      3  C   UNK d   1      91.558 100.445 -44.969  0.00  0.00     0.144 C 
ATOM      4  N   UNK d   1      90.219  99.964 -44.930  0.00  0.00    -0.362 N 
ATOM      5  C   UNK d   1      89.426 100.480 -43.815  0.00  0.00     0.144 C 
ATOM      6  C   UNK d   1      90.172 100.093 -42.561  0.00  0.00     0.142 C 
ENDROOT
BRANCH   1   7
ATOM      7  C   UNK d   1      91.698  98.197 -42.114  0.00  0.00     0.134 C 
ATOM      8  C   UNK d   1      91.718  96.987 -42.622  0.00  0.00     0.124 A 
ATOM      9  N   UNK d   1      91.459  96.724 -43.987  0.00  0.00    -0.340 N 
ATOM     10  N   UNK d   1      92.014  95.862 -41.765  0.00  0.00    -0.308 N 
ATOM     11  C   UNK d   1      91.492  95.375 -44.506  0.00  0.00     0.049 A 
ATOM     12  H   UNK d   1      91.244  97.502 -44.635  0.00  0.00     0.167 HD
ATOM     13  C   UNK d   1      91.770  94.293 -43.710  0.00  0.00     0.060 A 
ATOM     14  C   UNK d   1      91.235  95.164 -45.836  0.00  0.00     0.032 A 
ATOM     15  C   UNK d   1      91.792  93.018 -44.238  0.00  0.00     0.043 A 
ATOM     16  C   UNK d   1      92.037  94.552 -42.302  0.00  0.00     0.259 A 
ATOM     17  C   UNK d   1      91.537  92.811 -45.559  0.00  0.00     0.035 A 
ATOM     18 Cl   UNK d   1      91.551  91.207 -46.289  0.00  0.00    -0.084 Cl
ATOM     19  C   UNK d   1      91.256  93.888 -46.369  0.00  0.00     0.026 A 
ATOM     20  O   UNK d   1      92.297  93.541 -41.563  0.00  0.00    -0.267 OA
ATOM     21  H   UNK d   1      92.208  96.018 -40.756  0.00  0.00     0.170 HD
ENDBRANCH   1   7
BRANCH   4  22
ATOM     22  C   UNK d   1      89.568  99.055 -45.800  0.00  0.00     0.141 A 
ATOM     23  N   UNK d   1      88.865  98.004 -45.235  0.00  0.00    -0.242 NA
ATOM     24  C   UNK d   1      88.223  97.075 -45.941  0.00  0.00     0.119 A 
ATOM     25  C   UNK d   1      88.258  97.162 -47.305  0.00  0.00     0.020 A 
ATOM     26  C   UNK d   1      88.941  98.187 -47.897  0.00  0.00     0.022 A 
ATOM     27  C   UNK d   1      89.622  99.173 -47.156  0.00  0.00     0.077 A 
BRANCH  27  28
ATOM     28  C   UNK d   1      90.301 100.250 -47.809  0.00  0.00     0.253 C 
ATOM     29  O   UNK d   1      89.896 101.407 -47.897  0.00  0.00    -0.268 OA
ATOM     30  N   UNK d   1      91.558  99.986 -48.420  0.00  0.00    -0.366 N 
ATOM     31  H   UNK d   1      92.397  99.759 -47.839  0.00  0.00     0.159 HD
ATOM     32  H   UNK d   1      91.714 100.003 -49.452  0.00  0.00     0.159 HD
ENDBRANCH  27  28
ENDBRANCH   4  22
TORSDOF 3
ENDMDL
