MODEL 1
REMARK VINA RESULT:    -6.250      0.000      0.000
REMARK INTER + INTRA:          -9.177
REMARK INTER:                  -8.076
REMARK INTRA:                  -1.100
REMARK UNBOUND:                -1.100
REMARK  5 active torsions:
REMARK  status: ('A' for Active; 'I' for Inactive)
REMARK    1  A    between atoms: S_1  and  N_4 
REMARK    2  A    between atoms: S_1  and  C_26 
REMARK       I    between atoms: N_7  and  C_10 
REMARK    3  A    between atoms: C_10  and  C_12 
REMARK    4  A    between atoms: N_14  and  C_18 
REMARK    5  A    between atoms: C_18  and  C_19 
ROOT
ATOM      1  N   UNK d   1      85.769  98.145 -45.956  0.00  0.00    -0.203 NA
ATOM      2  C   UNK d   1      85.384  97.602 -44.677  0.00  0.00     0.127 C 
ATOM      3  C   UNK d   1      85.889  98.541 -43.607  0.00  0.00     0.141 C 
ATOM      4  N   UNK d   1      86.319  99.773 -44.216  0.00  0.00    -0.349 N 
ATOM      5  C   UNK d   1      85.558 100.404 -45.288  0.00  0.00     0.141 C 
ATOM      6  C   UNK d   1      84.962  99.324 -46.194  0.00  0.00     0.127 C 
ATOM      7  C   UNK d   1      87.507 100.389 -43.783  0.00  0.00     0.226 C 
ATOM      8  O   UNK d   1      87.854 101.504 -44.307  0.00  0.00    -0.273 OA
ENDROOT
BRANCH   7   9
ATOM      9  C   UNK d   1      88.351  99.754 -42.735  0.00  0.00     0.105 C 
ATOM     10  C   UNK d   1      89.151  98.594 -43.257  0.00  0.00     0.140 C 
ATOM     11  N   UNK d   1      90.514  99.095 -43.402  0.00  0.00    -0.347 N 
ATOM     12  C   UNK d   1      90.555 100.472 -43.077  0.00  0.00     0.221 C 
ATOM     13  O   UNK d   1      91.436 101.272 -43.475  0.00  0.00    -0.273 OA
ATOM     14  C   UNK d   1      89.383 100.713 -42.208  0.00  0.00     0.118 C 
BRANCH  11  15
ATOM     15  C   UNK d   1      91.641  98.294 -43.823  0.00  0.00     0.166 C 
BRANCH  15  16
ATOM     16  C   UNK d   1      91.755  97.045 -43.034  0.00  0.00    -0.018 A 
ATOM     17  C   UNK d   1      91.566  95.825 -43.667  0.00  0.00     0.042 A 
ATOM     18  C   UNK d   1      91.655  94.618 -42.996  0.00  0.00     0.024 A 
ATOM     19 Cl   UNK d   1      91.204  95.832 -45.371  0.00  0.00    -0.084 Cl
ATOM     20  C   UNK d   1      91.943  94.666 -41.647  0.00  0.00     0.002 A 
ATOM     21  C   UNK d   1      92.138  95.865 -40.984  0.00  0.00     0.001 A 
ATOM     22  C   UNK d   1      92.043  97.066 -41.686  0.00  0.00     0.010 A 
ENDBRANCH  15  16
ENDBRANCH  11  15
ENDBRANCH   7   9
BRANCH   1  23
ATOM     23  S   UNK d   1      85.599  96.980 -47.208  0.00  0.00     0.248 S 
ATOM     24  O   UNK d   1      84.668  97.457 -48.287  0.00  0.00    -0.206 OA
ATOM     25  O   UNK d   1      84.928  95.772 -46.590  0.00  0.00    -0.206 OA
BRANCH  23  26
ATOM     26  C   UNK d   1      87.139  96.498 -47.850  0.00  0.00     0.132 A 
ATOM     27  C   UNK d   1      88.399  97.017 -47.654  0.00  0.00     0.083 A 
ATOM     28  N   UNK d   1      89.273  96.274 -48.401  0.00  0.00    -0.132 NA
ATOM     29  C   UNK d   1      88.722  98.163 -46.783  0.00  0.00     0.074 C 
ATOM     30  O   UNK d   1      88.597  95.372 -49.005  0.00  0.00    -0.216 OA
ATOM     31  C   UNK d   1      87.317  95.443 -48.725  0.00  0.00     0.100 A 
ATOM     32  C   UNK d   1      86.305  94.521 -49.285  0.00  0.00     0.081 C 
ENDBRANCH  23  26
ENDBRANCH   1  23
TORSDOF 5
ENDMDL
