/Users/jonathanwahrer/Desktop/Msc/3_Semester/Drug_Design_Praktikum/waehrer_HTS_screening/HTS_experiment/out/docking_results/vina_output/4agl/1810_docked.pdbqt
 OpenBabel03212200393D

 32 35  0  0  1  0  0  0  0  0999 V2000
   85.7690   98.1450  -45.9560 N   0  0  0  0  0  0  0  0  0  0  0  0
   85.3840   97.6020  -44.6770 C   0  0  0  0  0  2  0  0  0  0  0  0
   85.8890   98.5410  -43.6070 C   0  0  0  0  0  2  0  0  0  0  0  0
   86.3190   99.7730  -44.2160 N   0  0  0  0  0  0  0  0  0  0  0  0
   85.5580  100.4040  -45.2880 C   0  0  0  0  0  2  0  0  0  0  0  0
   84.9620   99.3240  -46.1940 C   0  0  0  0  0  2  0  0  0  0  0  0
   87.5070  100.3890  -43.7830 C   0  0  0  0  0  0  0  0  0  0  0  0
   87.8540  101.5040  -44.3070 O   0  0  0  0  0  0  0  0  0  0  0  0
   88.3510   99.7540  -42.7350 C   0  0  1  0  0  3  0  0  0  0  0  0
   89.1510   98.5940  -43.2570 C   0  0  0  0  0  2  0  0  0  0  0  0
   90.5140   99.0950  -43.4020 N   0  0  0  0  0  0  0  0  0  0  0  0
   90.5550  100.4720  -43.0770 C   0  0  0  0  0  0  0  0  0  0  0  0
   91.4360  101.2720  -43.4750 O   0  0  0  0  0  0  0  0  0  0  0  0
   89.3830  100.7130  -42.2080 C   0  0  0  0  0  2  0  0  0  0  0  0
   91.6410   98.2940  -43.8230 C   0  0  0  0  0  2  0  0  0  0  0  0
   91.7550   97.0450  -43.0340 C   0  0  0  0  0  0  0  0  0  0  0  0
   91.5660   95.8250  -43.6670 C   0  0  0  0  0  0  0  0  0  0  0  0
   91.6550   94.6180  -42.9960 C   0  0  0  0  0  3  0  0  0  0  0  0
   91.2040   95.8320  -45.3710 Cl  0  0  0  0  0  0  0  0  0  0  0  0
   91.9430   94.6660  -41.6470 C   0  0  0  0  0  3  0  0  0  0  0  0
   92.1380   95.8650  -40.9840 C   0  0  0  0  0  3  0  0  0  0  0  0
   92.0430   97.0660  -41.6860 C   0  0  0  0  0  3  0  0  0  0  0  0
   85.5990   96.9800  -47.2080 S   0  0  0  0  0  0  0  0  0  0  0  0
   84.6680   97.4570  -48.2870 O   0  0  0  0  0  0  0  0  0  0  0  0
   84.9280   95.7720  -46.5900 O   0  0  0  0  0  0  0  0  0  0  0  0
   87.1390   96.4980  -47.8500 C   0  0  0  0  0  0  0  0  0  0  0  0
   88.3990   97.0170  -47.6540 C   0  0  0  0  0  0  0  0  0  0  0  0
   89.2730   96.2740  -48.4010 N   0  0  0  0  0  0  0  0  0  0  0  0
   88.7220   98.1630  -46.7830 C   0  0  0  0  0  1  0  0  0  0  0  0
   88.5970   95.3720  -49.0050 O   0  0  0  0  0  0  0  0  0  0  0  0
   87.3170   95.4430  -48.7250 C   0  0  0  0  0  0  0  0  0  0  0  0
   86.3050   94.5210  -49.2850 C   0  0  0  0  0  1  0  0  0  0  0  0
  1  2  1  0  0  0  0
  2  3  1  0  0  0  0
  4  7  1  0  0  0  0
  4  3  1  0  0  0  0
  5  4  1  0  0  0  0
  6  1  1  0  0  0  0
  6  5  1  0  0  0  0
  8  7  2  0  0  0  0
  9  7  1  6  0  0  0
  9 14  1  0  0  0  0
 10  9  1  0  0  0  0
 11 10  1  0  0  0  0
 11 12  1  0  0  0  0
 12 14  1  0  0  0  0
 13 12  2  0  0  0  0
 15 11  1  0  0  0  0
 15 16  1  0  0  0  0
 16 22  1  0  0  0  0
 17 16  2  0  0  0  0
 17 18  1  0  0  0  0
 18 20  2  0  0  0  0
 19 17  1  0  0  0  0
 20 21  1  0  0  0  0
 22 21  2  0  0  0  0
 23 25  2  0  0  0  0
 23  1  1  0  0  0  0
 24 23  2  0  0  0  0
 26 27  1  0  0  0  0
 26 23  1  0  0  0  0
 27 29  1  0  0  0  0
 28 27  2  0  0  0  0
 30 31  1  0  0  0  0
 30 28  1  0  0  0  0
 31 26  2  0  0  0  0
 32 31  1  0  0  0  0
M  END
>  <Pose>
1

>  <Score>
-6.250

$$$$
