/Users/jonathanwahrer/Desktop/Msc/3_Semester/Drug_Design_Praktikum/waehrer_HTS_screening/HTS_experiment/out/docking_results/vina_output/4agl/1816_docked.pdbqt
 OpenBabel03212200393D

 36 39  0  0  0  0  0  0  0  0999 V2000
   91.7210   96.6180  -44.9590 C   0  0  0  0  0  0  0  0  0  0  0  0
   92.6610   96.4350  -45.8080 O   0  0  0  0  0  0  0  0  0  0  0  0
   91.3560   97.9220  -44.6770 N   0  0  0  0  0  0  0  0  0  0  0  0
   91.9740   99.0600  -45.2820 C   0  0  0  0  0  2  0  0  0  0  0  0
   92.5790   99.9140  -44.1670 C   0  0  0  0  0  2  0  0  0  0  0  0
   91.5690  100.2400  -43.2170 N   0  0  0  0  0  0  0  0  0  0  0  0
   90.2220   99.6870  -43.4710 C   0  0  0  0  0  2  0  0  0  0  0  0
   90.3010   98.1990  -43.7290 C   0  0  0  0  0  2  0  0  0  0  0  0
   91.7490  101.0320  -42.0640 C   0  0  0  0  0  0  0  0  0  0  0  0
   90.6370  101.1890  -41.3530 O   0  0  0  0  0  0  0  0  0  0  0  0
   91.1060   95.4060  -44.3500 C   0  0  0  0  0  2  0  0  0  0  0  0
   91.3030   94.2130  -45.2050 C   0  0  0  0  0  0  0  0  0  0  0  0
   92.1550   93.1910  -44.7910 C   0  0  0  0  0  0  0  0  0  0  0  0
   92.3660   92.1120  -45.5060 O   0  0  0  0  0  0  0  0  0  0  0  0
   92.7300   93.3550  -43.6630 O   0  0  0  0  0  0  0  0  0  0  0  0
   91.7950   91.9070  -46.6680 C   0  0  0  0  0  0  0  0  0  0  0  0
   90.9340   92.8550  -47.1700 C   0  0  0  0  0  0  0  0  0  0  0  0
   92.0410   90.7440  -47.4090 C   0  0  0  0  0  3  0  0  0  0  0  0
   90.3420   92.6250  -48.3890 C   0  0  0  0  0  3  0  0  0  0  0  0
   90.6940   94.0120  -46.4230 C   0  0  0  0  0  0  0  0  0  0  0  0
   90.5900   91.4690  -49.1220 C   0  0  0  0  0  0  0  0  0  0  0  0
   89.8400   91.1750  -50.6750 Cl  0  0  0  0  0  0  0  0  0  0  0  0
   91.4500   90.5140  -48.6300 C   0  0  0  0  0  0  0  0  0  0  0  0
   89.7760   95.0100  -46.9630 C   0  0  0  0  0  1  0  0  0  0  0  0
   91.7040   89.3430  -49.3680 O   0  0  0  0  0  0  0  0  0  0  0  0
   90.8610   88.2200  -49.2950 C   0  0  0  0  0  1  0  0  0  0  0  0
   92.9010  101.6910  -41.5260 C   0  0  0  0  0  0  0  0  0  0  0  0
   93.1650  101.6040  -40.1350 C   0  0  0  0  0  3  0  0  0  0  0  0
   94.2520  102.2240  -39.5810 C   0  0  0  0  0  0  0  0  0  0  0  0
   94.4640  102.1320  -38.3430 O   0  0  0  0  0  0  0  0  0  0  0  0
   95.1220  102.9420  -40.3040 N   0  0  0  0  0  0  0  0  0  0  0  0
   94.8740  103.0240  -41.6110 C   0  0  0  0  0  0  0  0  0  0  0  0
   96.2620  103.5910  -39.6990 C   0  0  0  0  0  1  0  0  0  0  0  0
   95.6720  103.6960  -42.3440 O   0  0  0  0  0  0  0  0  0  0  0  0
   93.7880  102.4120  -42.2010 N   0  0  0  0  0  0  0  0  0  0  0  0
   93.6880  102.5340  -43.2280 H   0  0  0  0  0  0  0  0  0  0  0  0
  1  3  1  0  0  0  0
  1 11  1  0  0  0  0
  2  1  2  0  0  0  0
  3  8  1  0  0  0  0
  4  3  1  0  0  0  0
  4  5  1  0  0  0  0
  5  6  1  0  0  0  0
  6  9  1  0  0  0  0
  7  6  1  0  0  0  0
  8  7  1  0  0  0  0
  9 27  1  0  0  0  0
  9 10  2  0  0  0  0
 12 13  1  0  0  0  0
 12 11  1  0  0  0  0
 13 15  2  0  0  0  0
 14 13  1  0  0  0  0
 16 14  1  0  0  0  0
 17 16  1  0  0  0  0
 17 20  1  0  0  0  0
 18 16  2  0  0  0  0
 19 17  2  0  0  0  0
 20 12  2  0  0  0  0
 21 23  2  0  0  0  0
 21 19  1  0  0  0  0
 22 21  1  0  0  0  0
 23 18  1  0  0  0  0
 24 20  1  0  0  0  0
 25 26  1  0  0  0  0
 25 23  1  0  0  0  0
 27 28  2  0  0  0  0
 28 29  1  0  0  0  0
 29 30  2  0  0  0  0
 31 33  1  0  0  0  0
 31 29  1  0  0  0  0
 32 31  1  0  0  0  0
 34 32  2  0  0  0  0
 35 32  1  0  0  0  0
 35 27  1  0  0  0  0
 36 35  1  0  0  0  0
M  END
>  <Pose>
1

>  <Score>
-7.768

$$$$
