MODEL 1
REMARK VINA RESULT:    -7.768      0.000      0.000
REMARK INTER + INTRA:          -9.745
REMARK INTER:                  -9.584
REMARK INTRA:                  -0.161
REMARK UNBOUND:                -0.161
REMARK  4 active torsions:
REMARK  status: ('A' for Active; 'I' for Inactive)
REMARK    1  A    between atoms: C_7  and  O_8 
REMARK    2  A    between atoms: C_13  and  C_16 
REMARK    3  A    between atoms: C_16  and  C_17 
REMARK       I    between atoms: C_17  and  N_19 
REMARK       I    between atoms: N_22  and  C_25 
REMARK    4  A    between atoms: C_25  and  C_27 
ROOT
ATOM      1  C   UNK d   1      91.721  96.618 -44.959  0.00  0.00     0.224 C 
ATOM      2  O   UNK d   1      92.661  96.435 -45.808  0.00  0.00    -0.273 OA
ATOM      3  N   UNK d   1      91.356  97.922 -44.677  0.00  0.00    -0.349 N 
ATOM      4  C   UNK d   1      91.974  99.060 -45.282  0.00  0.00     0.145 C 
ATOM      5  C   UNK d   1      92.579  99.914 -44.167  0.00  0.00     0.145 C 
ATOM      6  N   UNK d   1      91.569 100.240 -43.217  0.00  0.00    -0.355 N 
ATOM      7  C   UNK d   1      90.222  99.687 -43.471  0.00  0.00     0.145 C 
ATOM      8  C   UNK d   1      90.301  98.199 -43.729  0.00  0.00     0.145 C 
ATOM      9  C   UNK d   1      91.749 101.032 -42.064  0.00  0.00     0.204 C 
ATOM     10  O   UNK d   1      90.637 101.189 -41.353  0.00  0.00    -0.170 OA
ENDROOT
BRANCH   1  11
ATOM     11  C   UNK d   1      91.106  95.406 -44.350  0.00  0.00     0.148 C 
BRANCH  11  12
ATOM     12  C   UNK d   1      91.303  94.213 -45.205  0.00  0.00     0.033 A 
ATOM     13  C   UNK d   1      92.155  93.191 -44.791  0.00  0.00     0.295 A 
ATOM     14  O   UNK d   1      92.366  92.112 -45.506  0.00  0.00    -0.274 OA
ATOM     15  O   UNK d   1      92.730  93.355 -43.663  0.00  0.00    -0.259 OA
ATOM     16  C   UNK d   1      91.795  91.907 -46.668  0.00  0.00     0.093 A 
ATOM     17  C   UNK d   1      90.934  92.855 -47.170  0.00  0.00     0.006 A 
ATOM     18  C   UNK d   1      92.041  90.744 -47.409  0.00  0.00     0.076 A 
ATOM     19  C   UNK d   1      90.342  92.625 -48.389  0.00  0.00     0.041 A 
ATOM     20  C   UNK d   1      90.694  94.012 -46.423  0.00  0.00    -0.036 A 
ATOM     21  C   UNK d   1      90.590  91.469 -49.122  0.00  0.00     0.068 A 
ATOM     22 Cl   UNK d   1      89.840  91.175 -50.675  0.00  0.00    -0.081 Cl
ATOM     23  C   UNK d   1      91.450  90.514 -48.630  0.00  0.00     0.092 A 
ATOM     24  C   UNK d   1      89.776  95.010 -46.963  0.00  0.00     0.050 C 
BRANCH  23  25
ATOM     25  O   UNK d   1      91.704  89.343 -49.368  0.00  0.00    -0.354 OA
ATOM     26  C   UNK d   1      90.861  88.220 -49.295  0.00  0.00     0.210 C 
ENDBRANCH  23  25
ENDBRANCH  11  12
ENDBRANCH   1  11
BRANCH   9  27
ATOM     27  C   UNK d   1      92.901 101.691 -41.526  0.00  0.00     0.095 A 
ATOM     28  C   UNK d   1      93.165 101.604 -40.135  0.00  0.00     0.108 A 
ATOM     29  C   UNK d   1      94.252 102.224 -39.581  0.00  0.00     0.253 A 
ATOM     30  O   UNK d   1      94.464 102.132 -38.343  0.00  0.00    -0.268 OA
ATOM     31  N   UNK d   1      95.122 102.942 -40.304  0.00  0.00    -0.271 N 
ATOM     32  C   UNK d   1      94.874 103.024 -41.611  0.00  0.00     0.329 A 
ATOM     33  C   UNK d   1      96.262 103.591 -39.699  0.00  0.00     0.164 C 
ATOM     34  O   UNK d   1      95.672 103.696 -42.344  0.00  0.00    -0.246 OA
ATOM     35  N   UNK d   1      93.788 102.412 -42.201  0.00  0.00    -0.304 N 
ATOM     36  H   UNK d   1      93.688 102.534 -43.228  0.00  0.00     0.171 HD
ENDBRANCH   9  27
TORSDOF 4
ENDMDL
