MODEL 1
REMARK VINA RESULT:    -6.605      0.000      0.000
REMARK INTER + INTRA:          -7.129
REMARK INTER:                  -6.991
REMARK INTRA:                  -0.137
REMARK UNBOUND:                -0.137
REMARK  1 active torsions:
REMARK  status: ('A' for Active; 'I' for Inactive)
REMARK    1  A    between atoms: C_8  and  N_10 
ROOT
ATOM      1 Cl   UNK d   1      92.172  95.293 -41.047  0.00  0.00    -0.076 Cl
ATOM      2  C   UNK d   1      91.823  95.031 -42.752  0.00  0.00     0.127 A 
ATOM      3  C   UNK d   1      91.476  96.116 -43.524  0.00  0.00     0.050 A 
ATOM      4  N   UNK d   1      91.212  95.905 -44.823  0.00  0.00    -0.190 N 
ATOM      5  C   UNK d   1      91.276  94.674 -45.394  0.00  0.00     0.747 A 
ATOM      6  N   UNK d   1      91.615  93.607 -44.651  0.00  0.00    -0.005 N 
ATOM      7  N   UNK d   1      91.607  92.527 -45.426  0.00  0.00     0.046 NA
ATOM      8  C   UNK d   1      91.267  92.862 -46.686  0.00  0.00     0.772 A 
ATOM      9  N   UNK d   1      91.066  94.203 -46.637  0.00  0.00     0.133 NA
ATOM     10  C   UNK d   1      91.887  93.784 -43.335  0.00  0.00     0.308 A 
ATOM     11  O   UNK d   1      92.208  92.776 -42.629  0.00  0.00    -0.264 OA
ATOM     12  C   UNK d   1      91.400  97.484 -42.908  0.00  0.00     0.071 C 
ATOM     13  H   UNK d   1      90.946  96.727 -45.416  0.00  0.00     0.184 HD
ENDROOT
BRANCH   8  14
ATOM     14  N   UNK d   1      91.142  92.004 -47.817  0.00  0.00    -0.076 N 
ATOM     15  C   UNK d   1      91.846  90.786 -48.021  0.00  0.00     0.251 C 
ATOM     16  O   UNK d   1      92.422  90.067 -47.165  0.00  0.00    -0.272 OA
ATOM     17  C   UNK d   1      91.815  90.439 -49.483  0.00  0.00     0.096 C 
ATOM     18  C   UNK d   1      90.802  91.345 -50.087  0.00  0.00     0.096 C 
ATOM     19  C   UNK d   1      91.399  88.992 -49.631  0.00  0.00     0.042 C 
ATOM     20  C   UNK d   1      89.586  90.636 -50.656  0.00  0.00     0.042 C 
ATOM     21  C   UNK d   1      90.316  92.163 -48.960  0.00  0.00     0.251 C 
ATOM     22  C   UNK d   1      89.103  89.700 -49.591  0.00  0.00    -0.030 C 
ATOM     23  C   UNK d   1      90.021  88.891 -49.093  0.00  0.00    -0.030 C 
ATOM     24  O   UNK d   1      89.291  92.919 -48.991  0.00  0.00    -0.272 OA
ENDBRANCH   8  14
TORSDOF 1
ENDMDL
