/Users/jonathanwahrer/Desktop/Msc/3_Semester/Drug_Design_Praktikum/waehrer_HTS_screening/HTS_experiment/out/docking_results/vina_output/4agl/1822_docked.pdbqt
 OpenBabel03212200393D

 24 27  0  0  1  0  0  0  0  0999 V2000
   92.1720   95.2930  -41.0470 Cl  0  0  0  0  0  0  0  0  0  0  0  0
   91.8230   95.0310  -42.7520 C   0  0  0  0  0  0  0  0  0  0  0  0
   91.4760   96.1160  -43.5240 C   0  0  0  0  0  0  0  0  0  0  0  0
   91.2120   95.9050  -44.8230 N   0  0  0  0  0  0  0  0  0  0  0  0
   91.2760   94.6740  -45.3940 C   0  0  0  0  0  0  0  0  0  0  0  0
   91.6150   93.6070  -44.6510 N   0  0  0  0  0  0  0  0  0  0  0  0
   91.6070   92.5270  -45.4260 N   0  0  0  0  0  0  0  0  0  0  0  0
   91.2670   92.8620  -46.6860 C   0  0  0  0  0  0  0  0  0  0  0  0
   91.0660   94.2030  -46.6370 N   0  0  0  0  0  0  0  0  0  0  0  0
   91.8870   93.7840  -43.3350 C   0  0  0  0  0  0  0  0  0  0  0  0
   92.2080   92.7760  -42.6290 O   0  0  0  0  0  0  0  0  0  0  0  0
   91.4000   97.4840  -42.9080 C   0  0  0  0  0  1  0  0  0  0  0  0
   90.9460   96.7270  -45.4160 H   0  0  0  0  0  0  0  0  0  0  0  0
   91.1420   92.0040  -47.8170 N   0  0  0  0  0  0  0  0  0  0  0  0
   91.8460   90.7860  -48.0210 C   0  0  0  0  0  0  0  0  0  0  0  0
   92.4220   90.0670  -47.1650 O   0  0  0  0  0  0  0  0  0  0  0  0
   91.8150   90.4390  -49.4830 C   0  0  2  0  0  3  0  0  0  0  0  0
   90.8020   91.3450  -50.0870 C   0  0  1  0  0  3  0  0  0  0  0  0
   91.3990   88.9920  -49.6310 C   0  0  0  0  0  2  0  0  0  0  0  0
   89.5860   90.6360  -50.6560 C   0  0  0  0  0  2  0  0  0  0  0  0
   90.3160   92.1630  -48.9600 C   0  0  0  0  0  0  0  0  0  0  0  0
   89.1030   89.7000  -49.5910 C   0  0  0  0  0  3  0  0  0  0  0  0
   90.0210   88.8910  -49.0930 C   0  0  0  0  0  3  0  0  0  0  0  0
   89.2910   92.9190  -48.9910 O   0  0  0  0  0  0  0  0  0  0  0  0
  2  1  1  0  0  0  0
  3 12  1  0  0  0  0
  3  2  2  0  0  0  0
  4  3  1  0  0  0  0
  5  4  1  0  0  0  0
  5  6  1  0  0  0  0
  6 10  1  0  0  0  0
  7  6  1  0  0  0  0
  8  9  1  0  0  0  0
  8  7  2  0  0  0  0
  9  5  2  0  0  0  0
 10  2  1  0  0  0  0
 10 11  2  0  0  0  0
 13  4  1  0  0  0  0
 14  8  1  0  0  0  0
 15 14  1  0  0  0  0
 15 16  2  0  0  0  0
 17 19  1  1  0  0  0
 17 15  1  0  0  0  0
 18 20  1  1  0  0  0
 18 17  1  0  0  0  0
 18 21  1  0  0  0  0
 19 23  1  0  0  0  0
 20 22  1  0  0  0  0
 21 14  1  0  0  0  0
 22 23  2  0  0  0  0
 24 21  2  0  0  0  0
M  END
>  <Pose>
1

>  <Score>
-6.605

$$$$
