/Users/jonathanwahrer/Desktop/Msc/3_Semester/Drug_Design_Praktikum/waehrer_HTS_screening/HTS_experiment/out/docking_results/vina_output/4agl/1837_docked.pdbqt
 OpenBabel03212200403D

 29 32  0  0  0  0  0  0  0  0999 V2000
   90.8570   99.1830  -45.3340 N   0  0  0  0  0  0  0  0  0  0  0  0
   91.8730   99.9670  -44.6000 C   0  0  0  0  0  2  0  0  0  0  0  0
   92.4680   98.9130  -43.6430 C   0  0  0  0  0  2  0  0  0  0  0  0
   91.3000   98.0920  -43.2910 N   0  0  0  0  0  0  0  0  0  0  0  0
   90.0860   98.8210  -43.1000 C   0  0  0  0  0  2  0  0  0  0  0  0
   89.6360   99.2700  -44.4990 C   0  0  0  0  0  2  0  0  0  0  0  0
   90.5820   99.7870  -46.6250 C   0  0  0  0  0  2  0  0  0  0  0  0
   89.4770   98.9670  -47.2510 C   0  0  0  0  0  0  0  0  0  0  0  0
   89.5300   97.5710  -47.3010 N   0  0  0  0  0  0  0  0  0  0  0  0
   90.4140   97.1200  -46.9050 H   0  0  0  0  0  0  0  0  0  0  0  0
   88.4910   99.5740  -47.7390 O   0  0  0  0  0  0  0  0  0  0  0  0
   88.5780   96.6780  -47.8370 C   0  0  0  0  0  0  0  0  0  0  0  0
   87.2560   96.6880  -47.3680 C   0  0  0  0  0  3  0  0  0  0  0  0
   86.2890   95.8500  -47.8610 C   0  0  0  0  0  3  0  0  0  0  0  0
   86.5970   94.9430  -48.8650 C   0  0  0  0  0  0  0  0  0  0  0  0
   85.3870   93.8590  -49.5180 Cl  0  0  0  0  0  0  0  0  0  0  0  0
   87.8870   94.9210  -49.3350 C   0  0  0  0  0  3  0  0  0  0  0  0
   88.8560   95.7770  -48.8270 C   0  0  0  0  0  3  0  0  0  0  0  0
   91.4580   96.7030  -43.1890 C   0  0  0  0  0  0  0  0  0  0  0  0
   91.6710   96.1180  -41.9700 N   0  0  0  0  0  0  0  0  0  0  0  0
   91.8440   94.8090  -41.7950 C   0  0  0  0  0  3  0  0  0  0  0  0
   91.8130   93.9930  -42.8540 N   0  0  0  0  0  0  0  0  0  0  0  0
   91.6130   94.4420  -44.0890 C   0  0  0  0  0  0  0  0  0  0  0  0
   91.5420   93.8550  -45.3010 N   0  0  0  0  0  0  0  0  0  0  0  0
   91.4340   95.8180  -44.2590 C   0  0  0  0  0  0  0  0  0  0  0  0
   91.3280   94.8130  -46.1670 N   0  0  0  0  0  0  0  0  0  0  0  0
   91.2620   95.9870  -45.5570 N   0  0  0  0  0  0  0  0  0  0  0  0
   91.6700   92.4500  -45.6350 C   0  0  0  0  0  2  0  0  0  0  0  0
   91.1420   92.1620  -47.0230 C   0  0  0  0  0  1  0  0  0  0  0  0
  1  2  1  0  0  0  0
  1  6  1  0  0  0  0
  2  3  1  0  0  0  0
  3  4  1  0  0  0  0
  4 19  1  0  0  0  0
  4  5  1  0  0  0  0
  6  5  1  0  0  0  0
  7  1  1  0  0  0  0
  8  7  1  0  0  0  0
  9  8  1  0  0  0  0
  9 10  1  0  0  0  0
 11  8  2  0  0  0  0
 12 13  1  0  0  0  0
 12  9  1  0  0  0  0
 14 13  2  0  0  0  0
 15 14  1  0  0  0  0
 16 15  1  0  0  0  0
 17 15  2  0  0  0  0
 17 18  1  0  0  0  0
 18 12  2  0  0  0  0
 19 20  1  0  0  0  0
 20 21  2  0  0  0  0
 22 21  1  0  0  0  0
 23 22  2  0  0  0  0
 24 23  1  0  0  0  0
 25 23  1  0  0  0  0
 25 19  2  0  0  0  0
 26 27  2  0  0  0  0
 26 24  1  0  0  0  0
 27 25  1  0  0  0  0
 28 24  1  0  0  0  0
 29 28  1  0  0  0  0
M  END
>  <Pose>
1

>  <Score>
-6.377

$$$$
