MODEL 1
REMARK VINA RESULT:    -6.610      0.000      0.000
REMARK INTER + INTRA:          -9.053
REMARK INTER:                  -8.542
REMARK INTRA:                  -0.511
REMARK UNBOUND:                -0.511
REMARK  5 active torsions:
REMARK  status: ('A' for Active; 'I' for Inactive)
REMARK    1  A    between atoms: C_3  and  O_29 
REMARK    2  A    between atoms: C_6  and  N_8 
REMARK       I    between atoms: N_8  and  C_9 
REMARK    3  A    between atoms: C_9  and  C_11 
REMARK    4  A    between atoms: C_11  and  N_12 
REMARK    5  A    between atoms: C_17  and  N_23 
ROOT
ATOM      1  N   UNK d   1      91.375  95.742 -43.989  0.00  0.00    -0.299 N 
ATOM      2  C   UNK d   1      90.882  96.266 -45.133  0.00  0.00     0.215 A 
ATOM      3  N   UNK d   1      90.713  95.491 -46.224  0.00  0.00    -0.223 NA
ATOM      4  C   UNK d   1      91.015  94.187 -46.243  0.00  0.00     0.186 A 
ATOM      5  N   UNK d   1      90.850  93.407 -47.324  0.00  0.00    -0.042 NA
ATOM      6  C   UNK d   1      91.146  92.097 -47.370  0.00  0.00     0.726 A 
ATOM      7  N   UNK d   1      91.644  91.549 -46.228  0.00  0.00    -0.074 NA
ATOM      8  C   UNK d   1      91.824  92.293 -45.125  0.00  0.00     0.157 A 
ATOM      9  C   UNK d   1      91.518  93.637 -45.089  0.00  0.00     0.099 A 
ATOM     10  C   UNK d   1      91.696  94.418 -43.966  0.00  0.00     0.264 A 
ATOM     11  O   UNK d   1      92.159  93.857 -42.942  0.00  0.00    -0.267 OA
ENDROOT
BRANCH   1  12
ATOM     12  C   UNK d   1      91.585  96.492 -42.792  0.00  0.00     0.236 C 
BRANCH  12  13
ATOM     13  C   UNK d   1      91.425  97.972 -43.005  0.00  0.00     0.240 C 
ATOM     14  N   UNK d   1      92.517  98.775 -43.371  0.00  0.00    -0.326 N 
ATOM     15  H   UNK d   1      93.475  98.304 -43.494  0.00  0.00     0.169 HD
ATOM     16  O   UNK d   1      90.282  98.426 -42.840  0.00  0.00    -0.271 OA
BRANCH  14  17
ATOM     17  C   UNK d   1      92.426 100.168 -43.580  0.00  0.00     0.036 A 
ATOM     18  C   UNK d   1      92.222 100.785 -44.788  0.00  0.00     0.032 A 
ATOM     19  C   UNK d   1      92.165 102.177 -44.872  0.00  0.00     0.041 A 
ATOM     20  C   UNK d   1      92.304 103.005 -43.785  0.00  0.00     0.090 A 
ATOM     21  C   UNK d   1      92.508 102.397 -42.570  0.00  0.00     0.069 A 
ATOM     22 Cl   UNK d   1      92.696 103.361 -41.120  0.00  0.00    -0.081 Cl
ATOM     23  C   UNK d   1      92.566 101.029 -42.476  0.00  0.00     0.056 A 
BRANCH  20  24
ATOM     24  O   UNK d   1      92.240 104.400 -43.909  0.00  0.00    -0.354 OA
ATOM     25  C   UNK d   1      93.103 105.066 -44.802  0.00  0.00     0.210 C 
ENDBRANCH  20  24
ENDBRANCH  14  17
ENDBRANCH  12  13
ENDBRANCH   1  12
BRANCH   6  26
ATOM     26  N   UNK d   1      90.958  91.310 -48.530  0.00  0.00    -0.210 N 
ATOM     27  C   UNK d   1      91.807  90.157 -48.725  0.00  0.00     0.167 C 
ATOM     28  C   UNK d   1      90.966  89.017 -49.296  0.00  0.00     0.188 C 
ATOM     29  O   UNK d   1      90.197  89.436 -50.380  0.00  0.00    -0.388 OA
ATOM     30  C   UNK d   1      89.229  90.302 -49.871  0.00  0.00     0.188 C 
ATOM     31  C   UNK d   1      89.958  91.602 -49.531  0.00  0.00     0.167 C 
ENDBRANCH   6  26
TORSDOF 5
ENDMDL
