MODEL 1
REMARK VINA RESULT:    -6.684      0.000      0.000
REMARK INTER + INTRA:          -8.420
REMARK INTER:                  -7.856
REMARK INTRA:                  -0.564
REMARK UNBOUND:                -0.564
REMARK  3 active torsions:
REMARK  status: ('A' for Active; 'I' for Inactive)
REMARK       I    between atoms: N_9  and  C_12 
REMARK    1  A    between atoms: C_12  and  C_14 
REMARK    2  A    between atoms: C_14  and  O_15 
REMARK    3  A    between atoms: O_15  and  C_16 
ROOT
ATOM      1 Cl   UNK d   1      91.653  92.809 -45.120  0.00  0.00    -0.084 Cl
ATOM      2  C   UNK d   1      91.867  93.788 -43.675  0.00  0.00     0.041 A 
ATOM      3  C   UNK d   1      91.675  95.154 -43.719  0.00  0.00    -0.027 A 
ATOM      4  C   UNK d   1      91.841  95.915 -42.597  0.00  0.00    -0.032 A 
ATOM      5  C   UNK d   1      92.204  95.286 -41.428  0.00  0.00     0.009 A 
ATOM      6  C   UNK d   1      92.402  93.924 -41.361  0.00  0.00     0.002 A 
ATOM      7  C   UNK d   1      92.231  93.164 -42.501  0.00  0.00     0.024 A 
ATOM      8  C   UNK d   1      91.653  97.385 -42.565  0.00  0.00     0.165 C 
ATOM      9  N   UNK d   1      91.095  97.771 -43.838  0.00  0.00    -0.346 N 
ATOM     10  C   UNK d   1      91.708  97.204 -45.015  0.00  0.00     0.131 C 
ATOM     11  C   UNK d   1      91.284  95.731 -45.038  0.00  0.00     0.061 C 
ATOM     12  C   UNK d   1      90.000  98.660 -43.956  0.00  0.00     0.244 C 
ATOM     13  O   UNK d   1      89.560  98.956 -45.098  0.00  0.00    -0.271 OA
ENDROOT
BRANCH  12  14
ATOM     14  C   UNK d   1      89.324  99.278 -42.792  0.00  0.00     0.280 C 
BRANCH  14  15
ATOM     15  O   UNK d   1      89.689 100.612 -42.617  0.00  0.00    -0.324 OA
BRANCH  15  16
ATOM     16  C   UNK d   1      90.996 101.046 -42.440  0.00  0.00     0.184 A 
ATOM     17  N   UNK d   1      91.564 100.943 -41.223  0.00  0.00    -0.139 NA
ATOM     18  N   UNK d   1      92.812 101.340 -40.989  0.00  0.00    -0.203 N 
ATOM     19  C   UNK d   1      93.587 101.868 -41.946  0.00  0.00     0.174 A 
ATOM     20  C   UNK d   1      93.543 101.320 -39.860  0.00  0.00     0.261 A 
ATOM     21  N   UNK d   1      94.790 102.174 -41.421  0.00  0.00    -0.129 NA
ATOM     22  C   UNK d   1      93.034 101.989 -43.215  0.00  0.00     0.059 A 
ATOM     23  N   UNK d   1      94.747 101.836 -40.155  0.00  0.00    -0.141 NA
ATOM     24  C   UNK d   1      91.745 101.580 -43.459  0.00  0.00     0.063 A 
ENDBRANCH  15  16
ENDBRANCH  14  15
ENDBRANCH  12  14
TORSDOF 3
ENDMDL
