/Users/jonathanwahrer/Desktop/Msc/3_Semester/Drug_Design_Praktikum/waehrer_HTS_screening/HTS_experiment/out/docking_results/vina_output/4agl/1865_docked.pdbqt
 OpenBabel03212200423D

 29 32  0  0  1  0  0  0  0  0999 V2000
   90.2490   97.5050  -44.8740 N   0  0  0  0  0  0  0  0  0  0  0  0
   89.0610   97.3260  -45.6600 C   0  0  0  0  0  0  0  0  0  0  0  0
   88.9870   96.6090  -46.7120 O   0  0  0  0  0  0  0  0  0  0  0  0
   87.9980   98.0720  -45.0730 N   0  0  0  0  0  0  0  0  0  0  0  0
   88.6350   99.0800  -44.2550 C   0  0  1  0  0  0  0  0  0  0  0  0
   89.0860  100.1870  -45.1890 C   0  0  0  0  0  2  0  0  0  0  0  0
   90.1170  101.0000  -44.4150 C   0  0  0  0  0  2  0  0  0  0  0  0
   89.6090  101.3160  -43.0930 N   0  0  0  0  0  0  0  0  0  0  0  0
   88.2530  100.9790  -42.7510 C   0  0  0  0  0  2  0  0  0  0  0  0
   87.8060   99.6170  -43.1680 C   0  0  0  0  0  2  0  0  0  0  0  0
   90.4520  101.9590  -42.1490 C   0  0  0  0  0  0  0  0  0  0  0  0
   90.0020  102.2290  -40.9900 O   0  0  0  0  0  0  0  0  0  0  0  0
   89.8630   98.3730  -43.8110 C   0  0  0  0  0  0  0  0  0  0  0  0
   90.5000   98.4640  -42.7280 O   0  0  0  0  0  0  0  0  0  0  0  0
   86.9790   97.9270  -45.2030 H   0  0  0  0  0  0  0  0  0  0  0  0
   91.5590   96.9390  -45.0930 C   0  0  0  0  0  2  0  0  0  0  0  0
   91.6590   95.5350  -44.6420 C   0  0  0  0  0  0  0  0  0  0  0  0
   91.6170   94.4890  -45.5350 C   0  0  0  0  0  3  0  0  0  0  0  0
   91.7060   93.1660  -45.1520 C   0  0  0  0  0  0  0  0  0  0  0  0
   91.6510   91.8390  -46.2950 Cl  0  0  0  0  0  0  0  0  0  0  0  0
   91.8450   92.9140  -43.8020 C   0  0  0  0  0  3  0  0  0  0  0  0
   91.8890   93.9530  -42.8950 C   0  0  0  0  0  3  0  0  0  0  0  0
   91.7970   95.2740  -43.2980 C   0  0  0  0  0  3  0  0  0  0  0  0
   91.8260  102.3380  -42.4280 C   0  0  0  0  0  0  0  0  0  0  0  0
   92.1480  103.4480  -43.1220 N   0  0  0  0  0  0  0  0  0  0  0  0
   93.4420  103.7390  -43.3440 C   0  0  0  0  0  3  0  0  0  0  0  0
   94.4680  102.9410  -42.8860 C   0  0  0  0  0  3  0  0  0  0  0  0
   94.1520  101.8350  -42.1950 N   0  0  0  0  0  0  0  0  0  0  0  0
   92.8450  101.5370  -41.9680 C   0  0  0  0  0  3  0  0  0  0  0  0
  1 13  1  0  0  0  0
  2  4  1  0  0  0  0
  2  1  1  0  0  0  0
  3  2  2  0  0  0  0
  4  5  1  0  0  0  0
  5  6  1  6  0  0  0
  5 13  1  0  0  0  0
  5 10  1  0  0  0  0
  6  7  1  0  0  0  0
  7  8  1  0  0  0  0
  8  9  1  0  0  0  0
  8 11  1  0  0  0  0
 10  9  1  0  0  0  0
 11 12  2  0  0  0  0
 13 14  2  0  0  0  0
 15  4  1  0  0  0  0
 16  1  1  0  0  0  0
 16 17  1  0  0  0  0
 17 23  1  0  0  0  0
 18 19  1  0  0  0  0
 18 17  2  0  0  0  0
 19 21  2  0  0  0  0
 20 19  1  0  0  0  0
 21 22  1  0  0  0  0
 23 22  2  0  0  0  0
 24 11  1  0  0  0  0
 24 29  1  0  0  0  0
 25 24  2  0  0  0  0
 26 25  1  0  0  0  0
 26 27  2  0  0  0  0
 27 28  1  0  0  0  0
 28 29  2  0  0  0  0
M  END
>  <Pose>
1

>  <Score>
-6.362

$$$$
