/Users/jonathanwahrer/Desktop/Msc/3_Semester/Drug_Design_Praktikum/waehrer_HTS_screening/HTS_experiment/out/docking_results/vina_output/4agl/1871_docked.pdbqt
 OpenBabel03212200423D

 28 31  0  0  1  0  0  0  0  0999 V2000
   89.8360   97.8970  -46.0890 C   0  0  2  0  0  0  0  0  0  0  0  0
   91.0140   98.0640  -45.3310 N   0  0  0  0  0  4  0  0  0  0  0  0
   91.3430   99.4220  -45.2240 C   0  0  0  0  0  0  0  0  0  0  0  0
   92.2860  100.2160  -44.7780 C   0  0  0  0  0  3  0  0  0  0  0  0
   92.1820  101.6750  -44.8930 C   0  0  0  0  0  3  0  0  0  0  0  0
   90.8970  102.3020  -45.1800 C   0  0  0  0  0  3  0  0  0  0  0  0
   89.7640  101.3500  -45.4740 C   0  0  0  0  0  2  0  0  0  0  0  0
   90.2480  100.0900  -45.9120 N   0  0  0  0  0  0  0  0  0  0  0  0
   89.9340   99.1480  -46.9780 C   0  0  2  0  0  3  0  0  0  0  0  0
   88.6990   99.5340  -47.6790 C   0  0  0  0  0  1  0  0  0  0  0  0
   91.7930   97.7420  -46.0660 H   0  0  0  0  0  0  0  0  0  0  0  0
   88.5490   97.8910  -45.3980 C   0  0  0  0  0  0  0  0  0  0  0  0
   87.5280   97.1050  -45.8650 C   0  0  0  0  0  3  0  0  0  0  0  0
   86.2760   97.0790  -45.2530 C   0  0  0  0  0  3  0  0  0  0  0  0
   86.0700   97.8800  -44.1390 C   0  0  0  0  0  0  0  0  0  0  0  0
   84.5310   97.9190  -43.3000 Cl  0  0  0  0  0  0  0  0  0  0  0  0
   87.1090   98.6660  -43.6800 C   0  0  0  0  0  3  0  0  0  0  0  0
   88.3490   98.6910  -44.2860 C   0  0  0  0  0  3  0  0  0  0  0  0
   89.9760   96.8280  -46.9450 O   0  0  0  0  0  0  0  0  0  0  0  0
   90.8700   96.6500  -47.2870 H   0  0  0  0  0  0  0  0  0  0  0  0
   91.2680   97.1560  -44.3080 C   0  0  0  0  0  0  0  0  0  0  0  0
   91.4540   95.8320  -44.6710 C   0  0  0  0  0  3  0  0  0  0  0  0
   91.7000   94.8350  -43.7580 C   0  0  0  0  0  3  0  0  0  0  0  0
   91.7810   95.0950  -42.3860 C   0  0  0  0  0  0  0  0  0  0  0  0
   91.5920   96.4140  -42.0550 C   0  0  0  0  0  3  0  0  0  0  0  0
   91.3460   97.4050  -42.9740 C   0  0  0  0  0  3  0  0  0  0  0  0
   92.0330   94.0860  -41.4770 O   0  0  0  0  0  0  0  0  0  0  0  0
   93.1980   93.3110  -41.6060 C   0  0  0  0  0  1  0  0  0  0  0  0
  1 19  1  6  0  0  0
  1 12  1  0  0  0  0
  1  2  1  0  0  0  0
  2  3  1  0  0  0  0
  2 21  1  0  0  0  0
  3  4  2  0  0  0  0
  5  4  1  0  0  0  0
  6  5  2  0  0  0  0
  7  6  1  0  0  0  0
  8  7  1  0  0  0  0
  8  3  1  0  0  0  0
  9 10  1  1  0  0  0
  9  1  1  0  0  0  0
  9  8  1  0  0  0  0
 11  2  1  0  0  0  0
 12 18  1  0  0  0  0
 13 12  2  0  0  0  0
 13 14  1  0  0  0  0
 14 15  2  0  0  0  0
 15 17  1  0  0  0  0
 15 16  1  0  0  0  0
 18 17  2  0  0  0  0
 20 19  1  0  0  0  0
 21 26  1  0  0  0  0
 22 21  2  0  0  0  0
 22 23  1  0  0  0  0
 23 24  2  0  0  0  0
 24 25  1  0  0  0  0
 24 27  1  0  0  0  0
 26 25  2  0  0  0  0
 28 27  1  0  0  0  0
M  END
>  <Pose>
1

>  <Score>
-6.329

$$$$
