MODEL 1
REMARK VINA RESULT:    -6.329      0.000      0.000
REMARK INTER + INTRA:          -6.999
REMARK INTER:                  -7.625
REMARK INTRA:                   0.626
REMARK UNBOUND:                 0.626
REMARK  4 active torsions:
REMARK  status: ('A' for Active; 'I' for Inactive)
REMARK    1  A    between atoms: C_5  and  C_8 
REMARK    2  A    between atoms: C_8  and  O_26 
REMARK    3  A    between atoms: N_9  and  C_18 
REMARK    4  A    between atoms: C_21  and  O_24 
ROOT
ATOM      1  C   UNK d   1      89.836  97.897 -46.089  0.00  0.00     0.287 C 
ATOM      2  N   UNK d   1      91.014  98.064 -45.331  0.00  0.00     0.042 N 
ATOM      3  C   UNK d   1      91.343  99.422 -45.224  0.00  0.00     0.210 C 
ATOM      4  C   UNK d   1      92.286 100.216 -44.778  0.00  0.00     0.030 C 
ATOM      5  C   UNK d   1      92.182 101.675 -44.893  0.00  0.00     0.032 C 
ATOM      6  C   UNK d   1      90.897 102.302 -45.180  0.00  0.00     0.024 C 
ATOM      7  C   UNK d   1      89.764 101.350 -45.474  0.00  0.00     0.125 C 
ATOM      8  N   UNK d   1      90.248 100.090 -45.912  0.00  0.00    -0.351 N 
ATOM      9  C   UNK d   1      89.934  99.148 -46.978  0.00  0.00     0.151 C 
ATOM     10  C   UNK d   1      88.699  99.534 -47.679  0.00  0.00     0.038 C 
ATOM     11  H   UNK d   1      91.793  97.742 -46.066  0.00  0.00     0.299 HD
ENDROOT
BRANCH   1  12
ATOM     12  C   UNK d   1      88.549  97.891 -45.398  0.00  0.00     0.008 A 
ATOM     13  C   UNK d   1      87.528  97.105 -45.865  0.00  0.00     0.014 A 
ATOM     14  C   UNK d   1      86.276  97.079 -45.253  0.00  0.00     0.024 A 
ATOM     15  C   UNK d   1      86.070  97.880 -44.139  0.00  0.00     0.034 A 
ATOM     16 Cl   UNK d   1      84.531  97.919 -43.300  0.00  0.00    -0.084 Cl
ATOM     17  C   UNK d   1      87.109  98.666 -43.680  0.00  0.00     0.024 A 
ATOM     18  C   UNK d   1      88.349  98.691 -44.286  0.00  0.00     0.014 A 
ENDBRANCH   1  12
BRANCH   1  19
ATOM     19  O   UNK d   1      89.976  96.828 -46.945  0.00  0.00    -0.359 OA
ATOM     20  H   UNK d   1      90.870  96.650 -47.287  0.00  0.00     0.213 HD
ENDBRANCH   1  19
BRANCH   2  21
ATOM     21  C   UNK d   1      91.268  97.156 -44.308  0.00  0.00     0.146 A 
ATOM     22  C   UNK d   1      91.454  95.832 -44.671  0.00  0.00     0.041 A 
ATOM     23  C   UNK d   1      91.700  94.835 -43.758  0.00  0.00     0.039 A 
ATOM     24  C   UNK d   1      91.781  95.095 -42.386  0.00  0.00     0.068 A 
ATOM     25  C   UNK d   1      91.592  96.414 -42.055  0.00  0.00     0.039 A 
ATOM     26  C   UNK d   1      91.346  97.405 -42.974  0.00  0.00     0.041 A 
BRANCH  24  27
ATOM     27  O   UNK d   1      92.033  94.086 -41.477  0.00  0.00    -0.356 OA
ATOM     28  C   UNK d   1      93.198  93.311 -41.606  0.00  0.00     0.210 C 
ENDBRANCH  24  27
ENDBRANCH   2  21
TORSDOF 4
ENDMDL
