MODEL 1
REMARK VINA RESULT:    -6.781      0.000      0.000
REMARK INTER + INTRA:          -9.159
REMARK INTER:                  -8.367
REMARK INTRA:                  -0.793
REMARK UNBOUND:                -0.793
REMARK  4 active torsions:
REMARK  status: ('A' for Active; 'I' for Inactive)
REMARK    1  A    between atoms: C_5  and  N_8 
REMARK    2  A    between atoms: N_15  and  C_16 
REMARK    3  A    between atoms: C_16  and  C_17 
REMARK    4  A    between atoms: C_19  and  O_23 
ROOT
ATOM      1  N   UNK d   1      91.679 100.894 -42.608  0.00  0.00    -0.241 N 
ATOM      2  C   UNK d   1      90.995  99.801 -43.021  0.00  0.00     0.286 A 
ATOM      3  O   UNK d   1      89.933  99.392 -42.484  0.00  0.00    -0.265 OA
ATOM      4  C   UNK d   1      91.621  99.205 -44.103  0.00  0.00     0.154 A 
ATOM      5  C   UNK d   1      92.695  99.938 -44.353  0.00  0.00     0.152 A 
ATOM      6  N   UNK d   1      93.302  99.354 -45.408  0.00  0.00    -0.279 N 
ATOM      7  N   UNK d   1      92.589  98.281 -45.777  0.00  0.00    -0.239 N 
ATOM      8  N   UNK d   1      91.543  98.181 -44.973  0.00  0.00    -0.266 N 
ATOM      9  C   UNK d   1      92.732 100.971 -43.440  0.00  0.00     0.286 A 
ATOM     10  O   UNK d   1      93.631 101.841 -43.415  0.00  0.00    -0.265 OA
ATOM     11  H   UNK d   1      94.177  99.687 -45.852  0.00  0.00     0.189 HD
ATOM     12  H   UNK d   1      92.784  97.614 -46.554  0.00  0.00     0.208 HD
ENDROOT
BRANCH   8  13
ATOM     13  C   UNK d   1      90.509  97.169 -45.014  0.00  0.00     0.189 C 
BRANCH  13  14
ATOM     14  C   UNK d   1      91.021  95.804 -44.738  0.00  0.00    -0.036 A 
ATOM     15  C   UNK d   1      91.456  95.377 -43.503  0.00  0.00     0.045 A 
ATOM     16  C   UNK d   1      91.930  94.105 -43.251  0.00  0.00     0.068 A 
ATOM     17  C   UNK d   1      91.978  93.200 -44.283  0.00  0.00     0.037 A 
ATOM     18  C   UNK d   1      91.553  93.584 -45.533  0.00  0.00     0.003 A 
ATOM     19  C   UNK d   1      91.082  94.866 -45.759  0.00  0.00     0.009 A 
BRANCH  16  20
ATOM     20  O   UNK d   1      92.350  93.774 -41.956  0.00  0.00    -0.356 OA
ATOM     21  C   UNK d   1      93.568  93.095 -41.725  0.00  0.00     0.210 C 
ENDBRANCH  16  20
ENDBRANCH  13  14
ENDBRANCH   8  13
BRANCH   1  22
ATOM     22  C   UNK d   1      91.344 101.749 -41.537  0.00  0.00     0.046 A 
ATOM     23  C   UNK d   1      90.485 102.816 -41.703  0.00  0.00     0.032 A 
ATOM     24  C   UNK d   1      90.141 103.668 -40.670  0.00  0.00     0.026 A 
ATOM     25  C   UNK d   1      90.684 103.436 -39.423  0.00  0.00     0.034 A 
ATOM     26 Cl   UNK d   1      90.292 104.482 -38.053  0.00  0.00    -0.084 Cl
ATOM     27  C   UNK d   1      91.549 102.383 -39.206  0.00  0.00     0.026 A 
ATOM     28  C   UNK d   1      91.867 101.550 -40.275  0.00  0.00     0.032 A 
ENDBRANCH   1  22
TORSDOF 4
ENDMDL
