MODEL 1
REMARK VINA RESULT:    -7.360      0.000      0.000
REMARK INTER + INTRA:          -8.765
REMARK INTER:                  -8.651
REMARK INTRA:                  -0.114
REMARK UNBOUND:                -0.114
REMARK  3 active torsions:
REMARK  status: ('A' for Active; 'I' for Inactive)
REMARK    1  A    between atoms: C_5  and  N_8 
REMARK    2  A    between atoms: N_15  and  C_16 
REMARK    3  A    between atoms: C_16  and  C_17 
ROOT
ATOM      1  N   UNK d   1      91.458  96.217 -43.975  0.00  0.00    -0.241 N 
ATOM      2  C   UNK d   1      91.243  95.597 -45.157  0.00  0.00     0.286 A 
ATOM      3  O   UNK d   1      90.962  96.192 -46.219  0.00  0.00    -0.265 OA
ATOM      4  C   UNK d   1      91.378  94.225 -45.030  0.00  0.00     0.154 A 
ATOM      5  C   UNK d   1      91.681  94.006 -43.742  0.00  0.00     0.152 A 
ATOM      6  N   UNK d   1      91.811  92.672 -43.629  0.00  0.00    -0.279 N 
ATOM      7  N   UNK d   1      91.596  92.105 -44.802  0.00  0.00    -0.239 N 
ATOM      8  N   UNK d   1      91.327  93.050 -45.678  0.00  0.00    -0.266 N 
ATOM      9  C   UNK d   1      91.726  95.231 -43.110  0.00  0.00     0.286 A 
ATOM     10  O   UNK d   1      91.985  95.397 -41.887  0.00  0.00    -0.265 OA
ATOM     11  H   UNK d   1      92.045  92.136 -42.768  0.00  0.00     0.189 HD
ATOM     12  H   UNK d   1      91.631  91.064 -45.013  0.00  0.00     0.208 HD
ENDROOT
BRANCH   1  13
ATOM     13  C   UNK d   1      91.408  97.617 -43.707  0.00  0.00     0.046 A 
ATOM     14  C   UNK d   1      92.434  98.457 -44.084  0.00  0.00     0.032 A 
ATOM     15  C   UNK d   1      92.394  99.815 -43.829  0.00  0.00     0.026 A 
ATOM     16  C   UNK d   1      91.320 100.389 -43.182  0.00  0.00     0.034 A 
ATOM     17 Cl   UNK d   1      91.272 102.120 -42.857  0.00  0.00    -0.084 Cl
ATOM     18  C   UNK d   1      90.288  99.558 -42.798  0.00  0.00     0.026 A 
ATOM     19  C   UNK d   1      90.336  98.202 -43.058  0.00  0.00     0.032 A 
ENDBRANCH   1  13
BRANCH   8  20
ATOM     20  C   UNK d   1      91.024  92.877 -47.079  0.00  0.00     0.189 C 
BRANCH  20  21
ATOM     21  C   UNK d   1      91.485  91.587 -47.634  0.00  0.00    -0.038 A 
ATOM     22  C   UNK d   1      90.659  90.869 -48.464  0.00  0.00     0.009 A 
ATOM     23  C   UNK d   1      91.107  89.669 -48.967  0.00  0.00     0.001 A 
ATOM     24  C   UNK d   1      92.362  89.178 -48.654  0.00  0.00     0.000 A 
ATOM     25  C   UNK d   1      93.191  89.896 -47.822  0.00  0.00     0.001 A 
ATOM     26  C   UNK d   1      92.731  91.087 -47.331  0.00  0.00     0.009 A 
ENDBRANCH  20  21
ENDBRANCH   8  20
TORSDOF 3
ENDMDL
