/Users/jonathanwahrer/Desktop/Msc/3_Semester/Drug_Design_Praktikum/waehrer_HTS_screening/HTS_experiment/out/docking_results/vina_output/4agl/1895_docked.pdbqt
 OpenBabel03212200433D

 32 35  0  0  1  0  0  0  0  0999 V2000
   92.6040  102.2840  -39.8740 N   0  0  0  0  0  0  0  0  0  0  0  0
   92.2120  101.3420  -40.8490 C   0  0  0  0  0  2  0  0  0  0  0  0
   90.6800  101.4460  -40.9980 C   0  0  0  0  0  2  0  0  0  0  0  0
   90.4940  102.7300  -41.6240 N   0  0  0  0  0  0  0  0  0  0  0  0
   90.8830  103.8470  -40.7370 C   0  0  0  0  0  2  0  0  0  0  0  0
   92.0890  103.5870  -39.9300 C   0  0  0  0  0  2  0  0  0  0  0  0
   90.0160  103.0330  -42.8980 C   0  0  0  0  0  0  0  0  0  0  0  0
   89.9890  104.3300  -43.1400 O   0  0  0  0  0  0  0  0  0  0  0  0
   89.5470  102.2570  -44.0160 C   0  0  0  0  0  2  0  0  0  0  0  0
   89.5050  100.8320  -43.8870 N   0  0  0  0  0  0  0  0  0  0  0  0
   88.3590  100.0640  -43.5170 C   0  0  0  0  0  0  0  0  0  0  0  0
   87.2230  100.5780  -43.2370 O   0  0  0  0  0  0  0  0  0  0  0  0
   88.7210   98.6990  -43.5260 N   0  0  0  0  0  0  0  0  0  0  0  0
   89.9600   98.5640  -44.2760 C   0  0  1  0  0  0  0  0  0  0  0  0
   88.2130   97.9160  -43.0870 H   0  0  0  0  0  0  0  0  0  0  0  0
   90.8960   97.5420  -43.7320 C   0  0  1  0  0  3  0  0  0  0  0  0
   89.5760   98.2970  -45.7140 C   0  0  0  0  0  2  0  0  0  0  0  0
   90.5760   99.9160  -44.1220 C   0  0  0  0  0  0  0  0  0  0  0  0
   91.6470   96.9260  -44.9170 C   0  0  0  0  0  2  0  0  0  0  0  0
   91.9540   98.1020  -42.8100 C   0  0  0  0  0  1  0  0  0  0  0  0
   90.6480   96.0320  -45.6260 C   0  0  0  0  0  2  0  0  0  0  0  0
   89.3630   96.7950  -45.8360 C   0  0  0  0  0  2  0  0  0  0  0  0
   91.7890  100.1970  -44.1860 O   0  0  0  0  0  0  0  0  0  0  0  0
   94.2310  102.1600  -39.3710 S   0  0  0  0  0  0  0  0  0  0  0  0
   94.4720  102.5660  -37.9710 O   0  0  0  0  0  0  0  0  0  0  0  0
   94.6640  100.7230  -39.5380 O   0  0  0  0  0  0  0  0  0  0  0  0
   95.1970  103.1650  -40.4650 C   0  0  0  0  0  0  0  0  0  0  0  0
   95.2260  103.2090  -42.1670 S   0  0  0  0  0  0  0  0  0  0  0  0
   96.4010  104.4200  -42.3900 C   0  0  0  0  0  0  0  0  0  0  0  0
   96.7440  104.7630  -41.1080 C   0  0  0  0  0  3  0  0  0  0  0  0
   97.0280  105.0790  -43.9090 Cl  0  0  0  0  0  0  0  0  0  0  0  0
   96.1170  104.1090  -40.1150 C   0  0  0  0  0  3  0  0  0  0  0  0
  1 24  1  0  0  0  0
  2  1  1  0  0  0  0
  3  2  1  0  0  0  0
  4  3  1  0  0  0  0
  4  5  1  0  0  0  0
  5  6  1  0  0  0  0
  6  1  1  0  0  0  0
  7  4  1  0  0  0  0
  8  7  2  0  0  0  0
  9 10  1  0  0  0  0
  9  7  1  0  0  0  0
 10 11  1  0  0  0  0
 11 12  2  0  0  0  0
 13 11  1  0  0  0  0
 13 15  1  0  0  0  0
 14 17  1  6  0  0  0
 14 18  1  0  0  0  0
 14 16  1  0  0  0  0
 14 13  1  0  0  0  0
 16 20  1  1  0  0  0
 18 10  1  0  0  0  0
 19 16  1  0  0  0  0
 21 19  1  0  0  0  0
 22 17  1  0  0  0  0
 22 21  1  0  0  0  0
 23 18  2  0  0  0  0
 24 25  2  0  0  0  0
 26 24  2  0  0  0  0
 27 32  2  0  0  0  0
 27 24  1  0  0  0  0
 28 27  1  0  0  0  0
 29 28  1  0  0  0  0
 29 30  2  0  0  0  0
 30 32  1  0  0  0  0
 31 29  1  0  0  0  0
M  END
>  <Pose>
1

>  <Score>
-5.942

$$$$
