/Users/jonathanwahrer/Desktop/Msc/3_Semester/Drug_Design_Praktikum/waehrer_HTS_screening/HTS_experiment/out/docking_results/vina_output/4agl/1906_docked.pdbqt
 OpenBabel03212200433D

 33 36  0  0  1  0  0  0  0  0999 V2000
   90.6240   99.4720  -43.6770 C   0  0  1  0  0  0  0  0  0  0  0  0
   90.6270  100.4950  -42.7160 O   0  0  0  0  0  0  0  0  0  0  0  0
   91.8690  100.8480  -42.2640 C   0  0  0  0  0  2  0  0  0  0  0  0
   92.7140  101.5820  -43.2860 C   0  0  0  0  0  2  0  0  0  0  0  0
   92.4040  100.8930  -44.5650 N   0  0  0  0  0  0  0  0  0  0  0  0
   91.9690   99.5570  -44.4220 C   0  0  0  0  0  2  0  0  0  0  0  0
   92.5650  101.5980  -45.7390 C   0  0  0  0  0  0  0  0  0  0  0  0
   92.9790  102.8300  -45.7120 O   0  0  0  0  0  0  0  0  0  0  0  0
   90.6680   98.1850  -42.9040 C   0  0  0  0  0  2  0  0  0  0  0  0
   91.1350   97.0820  -43.4430 O   0  0  0  0  0  0  0  0  0  0  0  0
   91.4590   95.8240  -43.3830 C   0  0  0  0  0  0  0  0  0  0  0  0
   91.4570   94.9530  -44.4430 C   0  0  0  0  0  3  0  0  0  0  0  0
   91.8140   93.6430  -44.2710 C   0  0  0  0  0  0  0  0  0  0  0  0
   91.8000   92.5520  -45.6570 Cl  0  0  0  0  0  0  0  0  0  0  0  0
   92.1900   93.1480  -43.0360 C   0  0  0  0  0  3  0  0  0  0  0  0
   92.1950   94.0160  -41.9760 C   0  0  0  0  0  3  0  0  0  0  0  0
   91.8440   95.3160  -42.1270 C   0  0  0  0  0  3  0  0  0  0  0  0
   89.4810   99.6740  -44.5610 C   0  0  0  0  0  2  0  0  0  0  0  0
   88.1580   99.2400  -44.1080 C   0  0  0  0  0  0  0  0  0  0  0  0
   87.5460   99.8660  -43.2220 O   0  0  0  0  0  0  0  0  0  0  0  0
   87.5250   98.0900  -44.6600 N   0  0  0  0  0  0  0  0  0  0  0  0
   88.1660   97.2920  -45.7000 C   0  0  0  0  0  2  0  0  0  0  0  0
   86.2170   97.6540  -44.2140 C   0  0  0  0  0  2  0  0  0  0  0  0
   87.1320   97.0600  -46.7820 C   0  0  0  0  0  2  0  0  0  0  0  0
   86.0230   96.4220  -46.2170 O   0  0  0  0  0  0  0  0  0  0  0  0
   85.3590   97.3310  -45.3940 C   0  0  0  0  0  2  0  0  0  0  0  0
   92.3090  101.0830  -47.0500 C   0  0  0  0  0  0  0  0  0  0  0  0
   91.1400  101.2030  -47.6790 N   0  0  0  0  0  0  0  0  0  0  0  0
   90.8920  100.7210  -48.9130 C   0  0  0  0  0  3  0  0  0  0  0  0
   91.8960  100.0540  -49.5960 C   0  0  0  0  0  0  0  0  0  0  0  0
   93.0710   99.9160  -49.0030 N   0  0  0  0  0  0  0  0  0  0  0  0
   91.5680   99.5440  -50.9500 C   0  0  0  0  0  1  0  0  0  0  0  0
   93.2960  100.4040  -47.7720 C   0  0  0  0  0  3  0  0  0  0  0  0
  1 18  1  6  0  0  0
  1  9  1  0  0  0  0
  1  2  1  0  0  0  0
  2  3  1  0  0  0  0
  4  3  1  0  0  0  0
  5  6  1  0  0  0  0
  5  4  1  0  0  0  0
  6  1  1  0  0  0  0
  7  8  2  0  0  0  0
  7  5  1  0  0  0  0
 10 11  1  0  0  0  0
 10  9  1  0  0  0  0
 11 17  1  0  0  0  0
 12 13  1  0  0  0  0
 12 11  2  0  0  0  0
 13 15  2  0  0  0  0
 14 13  1  0  0  0  0
 15 16  1  0  0  0  0
 17 16  2  0  0  0  0
 18 19  1  0  0  0  0
 19 20  2  0  0  0  0
 21 23  1  0  0  0  0
 21 19  1  0  0  0  0
 22 21  1  0  0  0  0
 24 25  1  0  0  0  0
 24 22  1  0  0  0  0
 25 26  1  0  0  0  0
 26 23  1  0  0  0  0
 27  7  1  0  0  0  0
 28 27  1  0  0  0  0
 29 28  2  0  0  0  0
 30 31  2  0  0  0  0
 30 29  1  0  0  0  0
 31 33  1  0  0  0  0
 32 30  1  0  0  0  0
 33 27  2  0  0  0  0
M  END
>  <Pose>
1

>  <Score>
-6.319

$$$$
