MODEL 1
REMARK VINA RESULT:    -8.483      0.000      0.000
REMARK INTER + INTRA:         -11.513
REMARK INTER:                 -10.715
REMARK INTRA:                  -0.798
REMARK UNBOUND:                -0.798
REMARK  5 active torsions:
REMARK  status: ('A' for Active; 'I' for Inactive)
REMARK    1  A    between atoms: C_5  and  C_8 
REMARK    2  A    between atoms: C_8  and  O_32 
REMARK       I    between atoms: N_11  and  C_14 
REMARK    3  A    between atoms: C_14  and  C_16 
REMARK    4  A    between atoms: C_16  and  N_17 
REMARK       I    between atoms: N_17  and  C_18 
REMARK    5  A    between atoms: C_18  and  C_20 
ROOT
ATOM      1  C   UNK d   1      91.417  95.422 -44.978  0.00  0.00     0.210 C 
ENDROOT
BRANCH   1   2
ATOM      2  C   UNK d   1      91.032  96.836 -45.102  0.00  0.00     0.171 C 
ATOM      3  N   UNK d   1      90.954  97.852 -44.158  0.00  0.00    -0.361 N 
ATOM      4  C   UNK d   1      91.029  97.696 -42.748  0.00  0.00     0.128 C 
ATOM      5  C   UNK d   1      90.793  99.246 -44.648  0.00  0.00     0.128 C 
ATOM      6  C   UNK d   1      92.178  98.511 -42.190  0.00  0.00     0.062 C 
ATOM      7  C   UNK d   1      91.734  99.957 -42.400  0.00  0.00     0.088 C 
ATOM      8  C   UNK d   1      91.526 100.259 -43.837  0.00  0.00     0.062 C 
ATOM      9  O   UNK d   1      90.701  97.166 -46.324  0.00  0.00    -0.175 OA
BRANCH   7  10
ATOM     10  C   UNK d   1      92.593 100.863 -41.659  0.00  0.00    -0.024 A 
ATOM     11  C   UNK d   1      93.441 101.700 -42.397  0.00  0.00     0.012 A 
ATOM     12  C   UNK d   1      94.329 102.582 -41.782  0.00  0.00     0.024 A 
ATOM     13  C   UNK d   1      94.406 102.665 -40.413  0.00  0.00     0.034 A 
ATOM     14 Cl   UNK d   1      95.548 103.784 -39.623  0.00  0.00    -0.084 Cl
ATOM     15  C   UNK d   1      93.573 101.844 -39.671  0.00  0.00     0.024 A 
ATOM     16  C   UNK d   1      92.698 100.974 -40.293  0.00  0.00     0.012 A 
ENDBRANCH   7  10
BRANCH   7  17
ATOM     17  O   UNK d   1      90.444  99.995 -41.782  0.00  0.00    -0.385 OA
ATOM     18  H   UNK d   1      89.923  99.255 -42.182  0.00  0.00     0.211 HD
ENDBRANCH   7  17
ENDBRANCH   1   2
BRANCH   1  19
ATOM     19  N   UNK d   1      91.064  94.554 -46.014  0.00  0.00    -0.350 N 
ATOM     20  C   UNK d   1      91.423  93.173 -46.086  0.00  0.00     0.243 C 
ATOM     21  O   UNK d   1      92.132  92.759 -45.131  0.00  0.00    -0.269 OA
ATOM     22  H   UNK d   1      90.428  94.863 -46.797  0.00  0.00     0.163 HD
BRANCH  20  23
ATOM     23  C   UNK d   1      90.989  92.346 -47.178  0.00  0.00     0.105 C 
ATOM     24  C   UNK d   1      91.435  91.217 -47.620  0.00  0.00     0.064 A 
ATOM     25  N   UNK d   1      92.553  90.536 -47.045  0.00  0.00    -0.297 N 
ATOM     26  C   UNK d   1      90.778  90.531 -48.761  0.00  0.00     0.008 A 
ATOM     27  N   UNK d   1      93.004  89.291 -47.533  0.00  0.00    -0.265 N 
ATOM     28  H   UNK d   1      93.076  90.947 -46.236  0.00  0.00     0.187 HD
ATOM     29  C   UNK d   1      92.363  88.661 -48.619  0.00  0.00     0.271 A 
ATOM     30  H   UNK d   1      93.823  88.815 -47.088  0.00  0.00     0.190 HD
ATOM     31  O   UNK d   1      92.799  87.544 -49.024  0.00  0.00    -0.266 OA
ATOM     32  C   UNK d   1      91.224  89.317 -49.231  0.00  0.00     0.046 A 
ATOM     33  C   UNK d   1      90.615  88.648 -50.272  0.00  0.00     0.018 A 
ATOM     34  C   UNK d   1      89.501  89.238 -50.864  0.00  0.00     0.001 A 
ATOM     35  C   UNK d   1      89.018  90.443 -50.433  0.00  0.00     0.001 A 
ATOM     36  C   UNK d   1      89.683  91.071 -49.373  0.00  0.00     0.015 A 
ENDBRANCH  20  23
ENDBRANCH   1  19
TORSDOF 5
ENDMDL
