/Users/jonathanwahrer/Desktop/Msc/3_Semester/Drug_Design_Praktikum/waehrer_HTS_screening/HTS_experiment/out/docking_results/vina_output/4agl/1927_docked.pdbqt
 OpenBabel03212200443D

 36 39  0  0  1  0  0  0  0  0999 V2000
   91.4170   95.4220  -44.9780 C   0  0  0  0  0  2  0  0  0  0  0  0
   91.0320   96.8360  -45.1020 C   0  0  0  0  0  0  0  0  0  0  0  0
   90.9540   97.8520  -44.1580 N   0  0  0  0  0  0  0  0  0  0  0  0
   91.0290   97.6960  -42.7480 C   0  0  0  0  0  2  0  0  0  0  0  0
   90.7930   99.2460  -44.6480 C   0  0  0  0  0  2  0  0  0  0  0  0
   92.1780   98.5110  -42.1900 C   0  0  0  0  0  2  0  0  0  0  0  0
   91.7340   99.9570  -42.4000 C   0  0  2  0  0  0  0  0  0  0  0  0
   91.5260  100.2590  -43.8370 C   0  0  0  0  0  2  0  0  0  0  0  0
   90.7010   97.1660  -46.3240 O   0  0  0  0  0  0  0  0  0  0  0  0
   92.5930  100.8630  -41.6590 C   0  0  0  0  0  0  0  0  0  0  0  0
   93.4410  101.7000  -42.3970 C   0  0  0  0  0  3  0  0  0  0  0  0
   94.3290  102.5820  -41.7820 C   0  0  0  0  0  3  0  0  0  0  0  0
   94.4060  102.6650  -40.4130 C   0  0  0  0  0  0  0  0  0  0  0  0
   95.5480  103.7840  -39.6230 Cl  0  0  0  0  0  0  0  0  0  0  0  0
   93.5730  101.8440  -39.6710 C   0  0  0  0  0  3  0  0  0  0  0  0
   92.6980  100.9740  -40.2930 C   0  0  0  0  0  3  0  0  0  0  0  0
   90.4440   99.9950  -41.7820 O   0  0  0  0  0  0  0  0  0  0  0  0
   89.9230   99.2550  -42.1820 H   0  0  0  0  0  0  0  0  0  0  0  0
   91.0640   94.5540  -46.0140 N   0  0  0  0  0  0  0  0  0  0  0  0
   91.4230   93.1730  -46.0860 C   0  0  0  0  0  0  0  0  0  0  0  0
   92.1320   92.7590  -45.1310 O   0  0  0  0  0  0  0  0  0  0  0  0
   90.4280   94.8630  -46.7970 H   0  0  0  0  0  0  0  0  0  0  0  0
   90.9890   92.3460  -47.1780 C   0  0  0  0  0  3  0  0  0  0  0  0
   91.4350   91.2170  -47.6200 C   0  0  0  0  0  0  0  0  0  0  0  0
   92.5530   90.5360  -47.0450 N   0  0  0  0  0  0  0  0  0  0  0  0
   90.7780   90.5310  -48.7610 C   0  0  0  0  0  0  0  0  0  0  0  0
   93.0040   89.2910  -47.5330 N   0  0  0  0  0  0  0  0  0  0  0  0
   93.0760   90.9470  -46.2360 H   0  0  0  0  0  0  0  0  0  0  0  0
   92.3630   88.6610  -48.6190 C   0  0  0  0  0  0  0  0  0  0  0  0
   93.8230   88.8150  -47.0880 H   0  0  0  0  0  0  0  0  0  0  0  0
   92.7990   87.5440  -49.0240 O   0  0  0  0  0  0  0  0  0  0  0  0
   91.2240   89.3170  -49.2310 C   0  0  0  0  0  0  0  0  0  0  0  0
   90.6150   88.6480  -50.2720 C   0  0  0  0  0  3  0  0  0  0  0  0
   89.5010   89.2380  -50.8640 C   0  0  0  0  0  3  0  0  0  0  0  0
   89.0180   90.4430  -50.4330 C   0  0  0  0  0  3  0  0  0  0  0  0
   89.6830   91.0710  -49.3730 C   0  0  0  0  0  3  0  0  0  0  0  0
  2  1  1  0  0  0  0
  2  3  1  0  0  0  0
  3  4  1  0  0  0  0
  4  6  1  0  0  0  0
  5  3  1  0  0  0  0
  5  8  1  0  0  0  0
  7  6  1  0  0  0  0
  7 17  1  1  0  0  0
  7 10  1  0  0  0  0
  8  7  1  0  0  0  0
  9  2  2  0  0  0  0
 10 16  1  0  0  0  0
 11 12  1  0  0  0  0
 11 10  2  0  0  0  0
 12 13  2  0  0  0  0
 13 15  1  0  0  0  0
 13 14  1  0  0  0  0
 16 15  2  0  0  0  0
 18 17  1  0  0  0  0
 19  1  1  0  0  0  0
 20 19  1  0  0  0  0
 20 21  2  0  0  0  0
 22 19  1  0  0  0  0
 23 20  1  0  0  0  0
 24 23  2  0  0  0  0
 24 25  1  0  0  0  0
 25 28  1  0  0  0  0
 26 24  1  0  0  0  0
 27 30  1  0  0  0  0
 27 25  1  0  0  0  0
 29 27  1  0  0  0  0
 31 29  2  0  0  0  0
 32 26  1  0  0  0  0
 32 29  1  0  0  0  0
 33 32  2  0  0  0  0
 34 35  2  0  0  0  0
 34 33  1  0  0  0  0
 35 36  1  0  0  0  0
 36 26  2  0  0  0  0
M  END
>  <Pose>
1

>  <Score>
-8.483

$$$$
