MODEL 1
REMARK VINA RESULT:    -7.108      0.000      0.000
REMARK INTER + INTRA:          -9.366
REMARK INTER:                  -8.977
REMARK INTRA:                  -0.389
REMARK UNBOUND:                -0.389
REMARK  5 active torsions:
REMARK  status: ('A' for Active; 'I' for Inactive)
REMARK    1  A    between atoms: C_6  and  C_12 
REMARK    2  A    between atoms: C_12  and  C_13 
REMARK    3  A    between atoms: C_13  and  C_14 
REMARK       I    between atoms: C_14  and  N_16 
REMARK    4  A    between atoms: C_18  and  N_24 
REMARK    5  A    between atoms: C_19  and  O_22 
ROOT
ATOM      1  C   UNK d   1      91.943  99.275 -43.684  0.00  0.00     0.220 C 
ATOM      2  O   UNK d   1      93.024  99.078 -44.295  0.00  0.00    -0.273 OA
ATOM      3  N   UNK d   1      91.709 100.518 -43.068  0.00  0.00    -0.350 N 
ATOM      4  C   UNK d   1      92.682 101.610 -43.107  0.00  0.00     0.154 C 
ATOM      5  C   UNK d   1      93.114 101.815 -41.669  0.00  0.00     0.146 C 
ATOM      6  C   UNK d   1      91.920 102.071 -40.779  0.00  0.00     0.078 C 
ATOM      7  C   UNK d   1      90.637 102.140 -41.614  0.00  0.00     0.059 C 
ATOM      8  C   UNK d   1      90.485 100.817 -42.346  0.00  0.00     0.129 C 
ATOM      9  C   UNK d   1      92.047 103.303 -39.935  0.00  0.00     0.048 C 
ENDROOT
BRANCH   1  10
ATOM     10  C   UNK d   1      90.941  98.183 -43.630  0.00  0.00     0.110 C 
BRANCH  10  11
ATOM     11  C   UNK d   1      91.460  96.925 -43.012  0.00  0.00     0.088 C 
BRANCH  11  12
ATOM     12  C   UNK d   1      91.415  95.749 -43.916  0.00  0.00     0.107 A 
ATOM     13  N   UNK d   1      91.004  95.674 -45.193  0.00  0.00    -0.233 NA
ATOM     14  C   UNK d   1      91.120  94.422 -45.665  0.00  0.00     0.087 A 
ATOM     15  C   UNK d   1      90.856  93.787 -46.869  0.00  0.00     0.057 A 
ATOM     16  C   UNK d   1      91.633  93.659 -44.637  0.00  0.00     0.064 A 
ATOM     17  C   UNK d   1      91.085  92.449 -47.065  0.00  0.00     0.036 A 
ATOM     18 Cl   UNK d   1      90.754  91.635 -48.586  0.00  0.00    -0.084 Cl
ATOM     19  C   UNK d   1      91.598  91.715 -46.016  0.00  0.00     0.026 A 
ATOM     20  C   UNK d   1      91.878  92.310 -44.791  0.00  0.00     0.034 A 
ATOM     21  N   UNK d   1      91.802  94.481 -43.595  0.00  0.00    -0.338 N 
ATOM     22  C   UNK d   1      92.320  94.143 -42.270  0.00  0.00     0.158 C 
ENDBRANCH  11  12
ENDBRANCH  10  11
ENDBRANCH   1  10
BRANCH   5  23
ATOM     23  N   UNK d   1      94.188 102.729 -41.499  0.00  0.00    -0.300 N 
ATOM     24  C   UNK d   1      94.272 103.878 -42.233  0.00  0.00     0.108 A 
ATOM     25  C   UNK d   1      95.314 104.766 -42.070  0.00  0.00     0.022 A 
ATOM     26  C   UNK d   1      96.298 104.495 -41.146  0.00  0.00     0.256 A 
ATOM     27  C   UNK d   1      95.436 106.022 -42.851  0.00  0.00     0.056 C 
ATOM     28  O   UNK d   1      97.280 105.292 -40.965  0.00  0.00    -0.267 OA
ATOM     29  N   UNK d   1      96.208 103.362 -40.428  0.00  0.00    -0.275 N 
ATOM     30  C   UNK d   1      95.158 102.514 -40.624  0.00  0.00     0.329 A 
ATOM     31  H   UNK d   1      96.947 103.154 -39.730  0.00  0.00     0.173 HD
ATOM     32  O   UNK d   1      95.127 101.475 -39.926  0.00  0.00    -0.246 OA
ENDBRANCH   5  23
BRANCH   6  33
ATOM     33  O   UNK d   1      91.690 101.002 -39.878  0.00  0.00    -0.388 OA
ATOM     34  H   UNK d   1      92.572 100.578 -39.735  0.00  0.00     0.210 HD
ENDBRANCH   6  33
TORSDOF 5
ENDMDL
