/Users/jonathanwahrer/Desktop/Msc/3_Semester/Drug_Design_Praktikum/waehrer_HTS_screening/HTS_experiment/out/docking_results/vina_output/4agl/1940_docked.pdbqt
 OpenBabel03212200463D

 30 33  0  0  1  0  0  0  0  0999 V2000
   90.3010   98.0420  -44.2130 C   0  0  1  0  0  3  0  0  0  0  0  0
   91.5530   98.6220  -43.7100 N   0  0  0  0  0  0  0  0  0  0  0  0
   92.3410   98.8690  -44.8590 C   0  0  0  0  0  0  0  0  0  0  0  0
   93.5940   98.8770  -44.9200 O   0  0  0  0  0  0  0  0  0  0  0  0
   91.4080   99.1160  -45.9740 C   0  0  0  0  0  0  0  0  0  0  0  0
   91.6880   99.3730  -47.1670 O   0  0  0  0  0  0  0  0  0  0  0  0
   90.0840   98.9900  -45.3810 C   0  0  0  0  0  0  0  0  0  0  0  0
   88.9980   99.5650  -45.7640 C   0  0  0  0  0  0  0  0  0  0  0  0
   87.7980   99.3610  -45.0860 O   0  0  0  0  0  1  0  0  0  0  0  0
   91.8860   98.8670  -42.3140 C   0  0  0  0  0  2  0  0  0  0  0  0
   91.9230  100.3160  -41.9360 C   0  0  0  0  0  2  0  0  0  0  0  0
   90.8300  100.7910  -41.1590 N   0  0  0  0  0  4  0  0  0  0  0  0
   90.9890  102.0640  -40.5340 C   0  0  0  0  0  2  0  0  0  0  0  0
   91.1380  103.2070  -41.5120 C   0  0  0  0  0  2  0  0  0  0  0  0
   90.0520  103.2620  -42.3790 O   0  0  0  0  0  0  0  0  0  0  0  0
   89.7960  102.0320  -42.9760 C   0  0  0  0  0  2  0  0  0  0  0  0
   89.6090  100.9160  -41.9810 C   0  0  0  0  0  2  0  0  0  0  0  0
   90.6340  100.0920  -40.4080 H   0  0  0  0  0  0  0  0  0  0  0  0
   90.5510   96.7170  -44.8320 C   0  0  0  0  0  0  0  0  0  0  0  0
   91.4650   95.8300  -44.3220 C   0  0  0  0  0  3  0  0  0  0  0  0
   91.6980   94.5900  -44.8850 C   0  0  0  0  0  3  0  0  0  0  0  0
   90.9910   94.2110  -46.0060 C   0  0  0  0  0  0  0  0  0  0  0  0
   91.2200   92.6630  -46.7800 Cl  0  0  0  0  0  0  0  0  0  0  0  0
   90.0720   95.0820  -46.5330 C   0  0  0  0  0  3  0  0  0  0  0  0
   89.8450   96.3170  -45.9670 C   0  0  0  0  0  3  0  0  0  0  0  0
   88.9910  100.4490  -46.9250 C   0  0  0  0  0  0  0  0  0  0  0  0
   89.3700  101.6670  -47.0830 O   0  0  0  0  0  0  0  0  0  0  0  0
   89.1750  102.0620  -48.3090 C   0  0  0  0  0  3  0  0  0  0  0  0
   88.6240  101.0360  -49.0330 C   0  0  0  0  0  3  0  0  0  0  0  0
   88.5000   99.9940  -48.1560 C   0  0  0  0  0  3  0  0  0  0  0  0
  1 19  1  6  0  0  0
  1  2  1  0  0  0  0
  2 10  1  0  0  0  0
  3  2  1  0  0  0  0
  4  3  2  0  0  0  0
  5  7  1  0  0  0  0
  5  3  1  0  0  0  0
  6  5  2  0  0  0  0
  7  1  1  0  0  0  0
  8  7  2  0  0  0  0
  8  9  1  0  0  0  0
 10 11  1  0  0  0  0
 11 12  1  0  0  0  0
 12 13  1  0  0  0  0
 12 18  1  0  0  0  0
 14 13  1  0  0  0  0
 15 14  1  0  0  0  0
 16 15  1  0  0  0  0
 16 17  1  0  0  0  0
 17 12  1  0  0  0  0
 19 20  1  0  0  0  0
 21 20  2  0  0  0  0
 22 21  1  0  0  0  0
 23 22  1  0  0  0  0
 24 22  2  0  0  0  0
 24 25  1  0  0  0  0
 25 19  2  0  0  0  0
 26  8  1  0  0  0  0
 27 26  1  0  0  0  0
 28 27  1  0  0  0  0
 29 28  2  0  0  0  0
 29 30  1  0  0  0  0
 30 26  2  0  0  0  0
M  END
>  <Pose>
1

>  <Score>
-5.638

$$$$
