MODEL 1
REMARK VINA RESULT:    -5.846      0.000      0.000
REMARK INTER + INTRA:          -6.571
REMARK INTER:                  -6.188
REMARK INTRA:                  -0.382
REMARK UNBOUND:                -0.382
REMARK  1 active torsions:
REMARK  status: ('A' for Active; 'I' for Inactive)
REMARK    1  A    between atoms: C_5  and  N_8 
ROOT
ATOM      1  N   UNK d   1      91.127  97.881 -44.125  0.00  0.00    -0.252 N 
ATOM      2  C   UNK d   1      90.069  98.569 -43.443  0.00  0.00     0.237 C 
ATOM      3  O   UNK d   1      88.837  98.327 -43.692  0.00  0.00    -0.272 OA
ATOM      4  C   UNK d   1      90.643  99.526 -42.484  0.00  0.00     0.104 C 
ATOM      5  C   UNK d   1      92.050  99.717 -42.998  0.00  0.00     0.104 C 
ATOM      6  C   UNK d   1      92.226 101.159 -43.424  0.00  0.00     0.076 C 
ATOM      7  C   UNK d   1      92.154 101.978 -42.126  0.00  0.00     0.091 C 
ATOM      8  C   UNK d   1      90.758 101.780 -41.611  0.00  0.00     0.133 C 
ATOM      9  O   UNK d   1      90.377 102.373 -40.638  0.00  0.00    -0.298 OA
ATOM     10  C   UNK d   1      89.897 100.811 -42.375  0.00  0.00     0.076 C 
ATOM     11  C   UNK d   1      89.709 101.439 -43.761  0.00  0.00     0.091 C 
ATOM     12  C   UNK d   1      91.100 101.627 -44.304  0.00  0.00     0.133 C 
ATOM     13  O   UNK d   1      91.261 102.127 -45.383  0.00  0.00    -0.298 OA
ATOM     14  C   UNK d   1      92.255  98.744 -44.069  0.00  0.00     0.237 C 
ATOM     15  O   UNK d   1      93.259  98.680 -44.814  0.00  0.00    -0.272 OA
ENDROOT
BRANCH   1  16
ATOM     16  C   UNK d   1      91.083  96.597 -44.736  0.00  0.00     0.045 A 
ATOM     17  C   UNK d   1      91.793  95.544 -44.189  0.00  0.00     0.032 A 
ATOM     18  C   UNK d   1      91.779  94.284 -44.743  0.00  0.00     0.026 A 
ATOM     19  C   UNK d   1      91.051  94.016 -45.876  0.00  0.00     0.034 A 
ATOM     20 Cl   UNK d   1      91.028  92.409 -46.591  0.00  0.00    -0.084 Cl
ATOM     21  C   UNK d   1      90.332  95.057 -46.441  0.00  0.00     0.026 A 
ATOM     22  C   UNK d   1      90.359  96.309 -45.872  0.00  0.00     0.032 A 
ENDBRANCH   1  16
TORSDOF 1
ENDMDL
