/Users/jonathanwahrer/Desktop/Msc/3_Semester/Drug_Design_Praktikum/waehrer_HTS_screening/HTS_experiment/out/docking_results/vina_output/4agl/1943_docked.pdbqt
 OpenBabel03212200463D

 34 38  0  0  1  0  0  0  0  0999 V2000
   87.7710   99.7590  -44.5060 N   0  0  0  0  0  0  0  0  0  0  0  0
   88.6400   99.0190  -43.6220 C   0  0  0  0  0  0  0  0  0  0  0  0
   88.7440   99.1820  -42.4030 O   0  0  0  0  0  0  0  0  0  0  0  0
   89.3950   98.0240  -44.3950 C   0  0  2  0  0  3  0  0  0  0  0  0
   90.8780   97.9660  -44.1150 C   0  0  2  0  0  0  0  0  0  0  0  0
   91.5380   98.8420  -45.0510 N   0  0  0  0  0  0  0  0  0  0  0  0
   90.4980   99.6510  -45.6540 C   0  0  2  0  0  3  0  0  0  0  0  0
   89.3760   98.6400  -45.7750 C   0  0  2  0  0  3  0  0  0  0  0  0
   88.0330   99.2480  -45.8240 C   0  0  0  0  0  0  0  0  0  0  0  0
   87.3260   99.2750  -46.8340 O   0  0  0  0  0  0  0  0  0  0  0  0
   91.2560   96.5280  -44.3420 C   0  0  0  0  0  0  0  0  0  0  0  0
   91.5610   95.9850  -43.1260 C   0  0  0  0  0  0  0  0  0  0  0  0
   91.8990   94.6290  -42.9860 C   0  0  0  0  0  3  0  0  0  0  0  0
   91.9330   93.8070  -44.0930 C   0  0  0  0  0  3  0  0  0  0  0  0
   91.6300   94.3510  -45.3120 C   0  0  0  0  0  3  0  0  0  0  0  0
   91.2990   95.6850  -45.4330 C   0  0  0  0  0  3  0  0  0  0  0  0
   91.5630   96.9760  -42.1110 N   0  0  0  0  0  0  0  0  0  0  0  0
   91.2460   98.2110  -42.7350 C   0  0  0  0  0  0  0  0  0  0  0  0
   91.2970   99.3100  -42.1440 O   0  0  0  0  0  0  0  0  0  0  0  0
   92.2190   99.4290  -44.5130 H   0  0  0  0  0  0  0  0  0  0  0  0
   91.7640   96.8220  -41.0760 H   0  0  0  0  0  0  0  0  0  0  0  0
   90.8990  100.1870  -47.0030 C   0  0  0  0  0  2  0  0  0  0  0  0
   92.3400  100.3160  -47.1930 C   0  0  0  0  0  0  0  0  0  0  0  0
   92.9810   99.4370  -47.8010 O   0  0  0  0  0  0  0  0  0  0  0  0
   93.0220  101.4470  -46.6850 N   0  0  0  0  0  0  0  0  0  0  0  0
   92.5720  102.2010  -46.1130 H   0  0  0  0  0  0  0  0  0  0  0  0
   94.0570  101.6140  -46.8480 H   0  0  0  0  0  0  0  0  0  0  0  0
   86.8460  100.7610  -44.1970 C   0  0  0  0  0  0  0  0  0  0  0  0
   87.1320  102.0970  -44.2650 C   0  0  0  0  0  3  0  0  0  0  0  0
   86.2100  103.0920  -43.9600 C   0  0  0  0  0  3  0  0  0  0  0  0
   84.9420  102.7370  -43.5700 C   0  0  0  0  0  0  0  0  0  0  0  0
   83.7640  103.9810  -43.1920 Cl  0  0  0  0  0  0  0  0  0  0  0  0
   84.6220  101.4160  -43.4900 C   0  0  0  0  0  3  0  0  0  0  0  0
   85.5700  100.4360  -43.8030 C   0  0  0  0  0  3  0  0  0  0  0  0
  1 28  1  0  0  0  0
  1  2  1  0  0  0  0
  2  3  2  0  0  0  0
  4  5  1  0  0  0  0
  4  2  1  1  0  0  0
  5 11  1  6  0  0  0
  5 18  1  0  0  0  0
  6 20  1  0  0  0  0
  6  5  1  0  0  0  0
  7 22  1  6  0  0  0
  7  6  1  0  0  0  0
  8  9  1  1  0  0  0
  8  7  1  0  0  0  0
  8  4  1  0  0  0  0
  9  1  1  0  0  0  0
 10  9  2  0  0  0  0
 11 12  1  0  0  0  0
 12 13  2  0  0  0  0
 12 17  1  0  0  0  0
 14 13  1  0  0  0  0
 15 14  2  0  0  0  0
 16 15  1  0  0  0  0
 16 11  2  0  0  0  0
 17 21  1  0  0  0  0
 18 19  2  0  0  0  0
 18 17  1  0  0  0  0
 23 22  1  0  0  0  0
 23 25  1  0  0  0  0
 24 23  2  0  0  0  0
 25 26  1  0  0  0  0
 27 25  1  0  0  0  0
 28 34  1  0  0  0  0
 29 28  2  0  0  0  0
 29 30  1  0  0  0  0
 30 31  2  0  0  0  0
 31 33  1  0  0  0  0
 31 32  1  0  0  0  0
 34 33  2  0  0  0  0
M  END
>  <Pose>
1

>  <Score>
-6.662

$$$$
