MODEL 1
REMARK VINA RESULT:    -6.662      0.000      0.000
REMARK INTER + INTRA:          -8.829
REMARK INTER:                  -7.830
REMARK INTRA:                  -0.999
REMARK UNBOUND:                -0.999
REMARK  3 active torsions:
REMARK  status: ('A' for Active; 'I' for Inactive)
REMARK    1  A    between atoms: C_5  and  N_8 
REMARK    2  A    between atoms: C_14  and  C_18 
REMARK    3  A    between atoms: C_18  and  C_19 
REMARK       I    between atoms: C_19  and  N_21 
ROOT
ATOM      1  N   UNK d   1      87.771  99.759 -44.506  0.00  0.00    -0.252 N 
ATOM      2  C   UNK d   1      88.640  99.019 -43.622  0.00  0.00     0.239 C 
ATOM      3  O   UNK d   1      88.744  99.182 -42.403  0.00  0.00    -0.272 OA
ATOM      4  C   UNK d   1      89.395  98.024 -44.395  0.00  0.00     0.147 C 
ATOM      5  C   UNK d   1      90.878  97.966 -44.115  0.00  0.00     0.279 C 
ATOM      6  N   UNK d   1      91.538  98.842 -45.051  0.00  0.00     0.114 N 
ATOM      7  C   UNK d   1      90.498  99.651 -45.654  0.00  0.00     0.245 C 
ATOM      8  C   UNK d   1      89.376  98.640 -45.775  0.00  0.00     0.129 C 
ATOM      9  C   UNK d   1      88.033  99.248 -45.824  0.00  0.00     0.238 C 
ATOM     10  O   UNK d   1      87.326  99.275 -46.834  0.00  0.00    -0.272 OA
ATOM     11  C   UNK d   1      91.256  96.528 -44.342  0.00  0.00     0.017 A 
ATOM     12  C   UNK d   1      91.561  95.985 -43.126  0.00  0.00     0.044 A 
ATOM     13  C   UNK d   1      91.899  94.629 -42.986  0.00  0.00     0.030 A 
ATOM     14  C   UNK d   1      91.933  93.807 -44.093  0.00  0.00     0.002 A 
ATOM     15  C   UNK d   1      91.630  94.351 -45.312  0.00  0.00     0.001 A 
ATOM     16  C   UNK d   1      91.299  95.685 -45.433  0.00  0.00     0.012 A 
ATOM     17  N   UNK d   1      91.563  96.976 -42.111  0.00  0.00    -0.324 N 
ATOM     18  C   UNK d   1      91.246  98.211 -42.735  0.00  0.00     0.267 C 
ATOM     19  O   UNK d   1      91.297  99.310 -42.144  0.00  0.00    -0.270 OA
ATOM     20  H   UNK d   1      92.219  99.429 -44.513  0.00  0.00     0.318 HD
ATOM     21  H   UNK d   1      91.764  96.822 -41.076  0.00  0.00     0.169 HD
ENDROOT
BRANCH   7  22
ATOM     22  C   UNK d   1      90.899 100.187 -47.003  0.00  0.00     0.139 C 
BRANCH  22  23
ATOM     23  C   UNK d   1      92.340 100.316 -47.193  0.00  0.00     0.217 C 
ATOM     24  O   UNK d   1      92.981  99.437 -47.801  0.00  0.00    -0.274 OA
ATOM     25  N   UNK d   1      93.022 101.447 -46.685  0.00  0.00    -0.370 N 
ATOM     26  H   UNK d   1      92.572 102.201 -46.113  0.00  0.00     0.159 HD
ATOM     27  H   UNK d   1      94.057 101.614 -46.848  0.00  0.00     0.159 HD
ENDBRANCH  22  23
ENDBRANCH   7  22
BRANCH   1  28
ATOM     28  C   UNK d   1      86.846 100.761 -44.197  0.00  0.00     0.045 A 
ATOM     29  C   UNK d   1      87.132 102.097 -44.265  0.00  0.00     0.032 A 
ATOM     30  C   UNK d   1      86.210 103.092 -43.960  0.00  0.00     0.026 A 
ATOM     31  C   UNK d   1      84.942 102.737 -43.570  0.00  0.00     0.034 A 
ATOM     32 Cl   UNK d   1      83.764 103.981 -43.192  0.00  0.00    -0.084 Cl
ATOM     33  C   UNK d   1      84.622 101.416 -43.490  0.00  0.00     0.026 A 
ATOM     34  C   UNK d   1      85.570 100.436 -43.803  0.00  0.00     0.032 A 
ENDBRANCH   1  28
TORSDOF 3
ENDMDL
