MODEL 1
REMARK VINA RESULT:    -6.087      0.000      0.000
REMARK INTER + INTRA:          -7.785
REMARK INTER:                  -7.511
REMARK INTRA:                  -0.274
REMARK UNBOUND:                -0.274
REMARK  4 active torsions:
REMARK  status: ('A' for Active; 'I' for Inactive)
REMARK    1  A    between atoms: N_15  and  C_16 
REMARK    2  A    between atoms: C_16  and  C_17 
REMARK       I    between atoms: C_17  and  N_19 
REMARK    3  A    between atoms: N_19  and  C_20 
REMARK    4  A    between atoms: C_20  and  C_21 
ROOT
ATOM      1 Cl   UNK d   1      92.471  96.456 -40.231  0.00  0.00    -0.084 Cl
ATOM      2  C   UNK d   1      92.206  95.487 -41.667  0.00  0.00     0.036 A 
ATOM      3  C   UNK d   1      91.616  96.008 -42.795  0.00  0.00     0.054 A 
ATOM      4  C   UNK d   1      91.409  95.223 -43.933  0.00  0.00     0.055 A 
ATOM      5  C   UNK d   1      91.817  93.898 -43.899  0.00  0.00     0.037 A 
ATOM      6  C   UNK d   1      92.407  93.363 -42.779  0.00  0.00     0.019 A 
ATOM      7  C   UNK d   1      92.603  94.143 -41.668  0.00  0.00     0.025 A 
ATOM      8  C   UNK d   1      91.620  93.033 -45.076  0.00  0.00     0.141 A 
ATOM      9  N   UNK d   1      91.899  91.795 -45.307  0.00  0.00    -0.270 NA
ATOM     10  C   UNK d   1      91.514  91.381 -46.629  0.00  0.00     0.171 A 
ATOM     11  C   UNK d   1      90.914  92.610 -47.239  0.00  0.00     0.157 A 
ATOM     12  N   UNK d   1      91.011  93.614 -46.212  0.00  0.00    -0.281 N 
ATOM     13  C   UNK d   1      90.604  94.976 -46.216  0.00  0.00     0.331 A 
ATOM     14  O   UNK d   1      90.060  95.514 -47.221  0.00  0.00    -0.246 OA
ATOM     15  N   UNK d   1      90.795  95.823 -45.068  0.00  0.00    -0.290 N 
ENDROOT
BRANCH  15  16
ATOM     16  C   UNK d   1      90.371  97.216 -45.096  0.00  0.00     0.236 C 
BRANCH  16  17
ATOM     17  C   UNK d   1      91.490  98.108 -45.477  0.00  0.00     0.236 C 
ATOM     18  O   UNK d   1      92.553  97.582 -45.888  0.00  0.00    -0.272 OA
ATOM     19  N   UNK d   1      91.415  99.519 -45.402  0.00  0.00    -0.359 N 
ATOM     20  H   UNK d   1      90.527  99.940 -45.061  0.00  0.00     0.162 HD
BRANCH  19  21
ATOM     21  C   UNK d   1      92.520 100.366 -45.781  0.00  0.00     0.127 C 
BRANCH  21  22
ATOM     22  C   UNK d   1      92.309 100.897 -47.174  0.00  0.00     0.003 A 
ATOM     23  C   UNK d   1      93.077 100.311 -48.305  0.00  0.00     0.007 A 
ATOM     24  C   UNK d   1      93.447 101.652 -47.795  0.00  0.00     0.007 A 
ENDBRANCH  21  22
ENDBRANCH  19  21
ENDBRANCH  16  17
ENDBRANCH  15  16
TORSDOF 4
ENDMDL
