MODEL 1
REMARK VINA RESULT:    -6.397      0.000      0.000
REMARK INTER + INTRA:         -10.705
REMARK INTER:                  -9.389
REMARK INTRA:                  -1.317
REMARK UNBOUND:                -1.317
REMARK  8 active torsions:
REMARK  status: ('A' for Active; 'I' for Inactive)
REMARK    1  A    between atoms: C_5  and  C_8 
REMARK    2  A    between atoms: C_10  and  C_24 
REMARK    3  A    between atoms: N_11  and  C_16 
REMARK    4  A    between atoms: C_16  and  C_17 
REMARK    5  A    between atoms: C_17  and  N_18 
REMARK    6  A    between atoms: C_27  and  O_30 
REMARK    7  A    between atoms: O_30  and  C_31 
REMARK    8  A    between atoms: C_31  and  C_32 
ROOT
ATOM      1  C   UNK d   1      88.467  98.415 -44.583  0.00  0.00     0.130 C 
ATOM      2  C   UNK d   1      89.708  98.625 -44.989  0.00  0.00     0.062 C 
ATOM      3  C   UNK d   1      90.891  98.877 -44.088  0.00  0.00     0.161 C 
ATOM      4  N   UNK d   1      91.932  99.360 -44.949  0.00  0.00    -0.331 N 
ATOM      5  C   UNK d   1      91.584  99.170 -46.313  0.00  0.00     0.295 C 
ATOM      6  O   UNK d   1      92.310  99.353 -47.301  0.00  0.00    -0.264 OA
ATOM      7  C   UNK d   1      90.177  98.708 -46.336  0.00  0.00     0.250 C 
ATOM      8  O   UNK d   1      89.537  98.445 -47.381  0.00  0.00    -0.282 OA
ATOM      9  O   UNK d   1      88.260  98.439 -43.183  0.00  0.00    -0.190 OA
ENDROOT
BRANCH   3  10
ATOM     10  C   UNK d   1      91.207  97.577 -43.436  0.00  0.00    -0.030 A 
ATOM     11  C   UNK d   1      91.194  96.424 -44.168  0.00  0.00     0.012 A 
ATOM     12  C   UNK d   1      91.499  95.238 -43.564  0.00  0.00     0.037 A 
ATOM     13  C   UNK d   1      91.822  95.165 -42.227  0.00  0.00     0.068 A 
ATOM     14  C   UNK d   1      91.834  96.331 -41.484  0.00  0.00     0.037 A 
ATOM     15  C   UNK d   1      91.525  97.534 -42.102  0.00  0.00     0.012 A 
BRANCH  13  16
ATOM     16  O   UNK d   1      92.130  93.953 -41.619  0.00  0.00    -0.351 OA
BRANCH  16  17
ATOM     17  C   UNK d   1      93.166  93.149 -42.202  0.00  0.00     0.175 C 
BRANCH  17  18
ATOM     18  C   UNK d   1      94.346  93.095 -41.234  0.00  0.00     0.022 C 
ATOM     19  C   UNK d   1      95.090  91.797 -41.515  0.00  0.00     0.007 C 
ENDBRANCH  17  18
ENDBRANCH  16  17
ENDBRANCH  13  16
ENDBRANCH   3  10
BRANCH   4  20
ATOM     20  C   UNK d   1      93.175  99.977 -44.499  0.00  0.00     0.155 C 
BRANCH  20  21
ATOM     21  C   UNK d   1      92.871 101.206 -43.714  0.00  0.00     0.255 C 
BRANCH  21  22
ATOM     22  N   UNK d   1      93.395 101.112 -42.341  0.00  0.00    -0.066 N 
ATOM     23  C   UNK d   1      92.284 101.161 -41.441  0.00  0.00     0.261 C 
ATOM     24  C   UNK d   1      92.723 101.467 -40.011  0.00  0.00     0.195 C 
ATOM     25  O   UNK d   1      93.407 102.695 -40.067  0.00  0.00    -0.388 OA
ATOM     26  C   UNK d   1      94.602 102.468 -40.717  0.00  0.00     0.195 C 
ATOM     27  C   UNK d   1      94.324 102.210 -42.184  0.00  0.00     0.261 C 
ATOM     28  H   UNK d   1      93.910 100.203 -42.207  0.00  0.00     0.280 HD
ENDBRANCH  21  22
ENDBRANCH  20  21
ENDBRANCH   4  20
BRANCH   1  29
ATOM     29  C   UNK d   1      87.370  98.172 -45.493  0.00  0.00     0.001 A 
ATOM     30  C   UNK d   1      87.062  96.857 -45.870  0.00  0.00     0.016 A 
ATOM     31  C   UNK d   1      86.057  96.558 -46.766  0.00  0.00     0.024 A 
ATOM     32  C   UNK d   1      85.304  97.557 -47.334  0.00  0.00     0.034 A 
ATOM     33 Cl   UNK d   1      84.016  97.246 -48.475  0.00  0.00    -0.084 Cl
ATOM     34  C   UNK d   1      85.580  98.849 -46.989  0.00  0.00     0.024 A 
ATOM     35  C   UNK d   1      86.602  99.150 -46.079  0.00  0.00     0.016 A 
ENDBRANCH   1  29
TORSDOF 8
ENDMDL
