MODEL 1
REMARK VINA RESULT:    -7.085      0.000      0.000
REMARK INTER + INTRA:         -11.134
REMARK INTER:                  -9.777
REMARK INTRA:                  -1.357
REMARK UNBOUND:                -1.357
REMARK  7 active torsions:
REMARK  status: ('A' for Active; 'I' for Inactive)
REMARK    1  A    between atoms: C_5  and  C_8 
REMARK    2  A    between atoms: C_8  and  O_9 
REMARK    3  A    between atoms: C_8  and  C_10 
REMARK    4  A    between atoms: N_17  and  C_20 
REMARK    5  A    between atoms: C_20  and  C_21 
REMARK    6  A    between atoms: C_21  and  C_22 
REMARK    7  A    between atoms: C_22  and  O_23 
ROOT
ATOM      1  C   UNK d   1      91.445  98.178 -43.125  0.00  0.00     0.269 C 
ATOM      2  N   UNK d   1      92.565  98.976 -42.642  0.00  0.00     0.116 N 
ATOM      3  C   UNK d   1      92.119 100.354 -42.625  0.00  0.00     0.279 A 
ATOM      4  C   UNK d   1      90.662 100.222 -42.288  0.00  0.00     0.147 C 
ATOM      5  C   UNK d   1      90.207  98.981 -42.989  0.00  0.00     0.131 C 
ATOM      6  C   UNK d   1      89.648  99.431 -44.294  0.00  0.00     0.233 C 
ATOM      7  O   UNK d   1      89.394  98.709 -45.287  0.00  0.00    -0.272 OA
ATOM      8  N   UNK d   1      89.459 100.859 -44.185  0.00  0.00    -0.287 N 
ATOM      9  C   UNK d   1      89.804 101.265 -42.877  0.00  0.00     0.234 C 
ATOM     10  O   UNK d   1      89.457 102.321 -42.294  0.00  0.00    -0.272 OA
ATOM     11  C   UNK d   1      92.844 101.162 -41.614  0.00  0.00     0.017 A 
ATOM     12  C   UNK d   1      93.511 102.149 -42.301  0.00  0.00     0.044 A 
ATOM     13  C   UNK d   1      94.277 103.061 -41.589  0.00  0.00     0.030 A 
ATOM     14  C   UNK d   1      94.348 102.955 -40.220  0.00  0.00     0.002 A 
ATOM     15  C   UNK d   1      93.680 101.966 -39.519  0.00  0.00     0.001 A 
ATOM     16  C   UNK d   1      92.923 101.065 -40.239  0.00  0.00     0.012 A 
ATOM     17  N   UNK d   1      93.278 102.039 -43.717  0.00  0.00    -0.324 N 
ATOM     18  C   UNK d   1      92.423 100.929 -43.924  0.00  0.00     0.267 A 
ATOM     19  O   UNK d   1      92.034 100.554 -45.042  0.00  0.00    -0.270 OA
ATOM     20  H   UNK d   1      93.388  98.845 -43.241  0.00  0.00     0.318 HD
ATOM     21  H   UNK d   1      93.694 102.695 -44.417  0.00  0.00     0.169 HD
ENDROOT
BRANCH   1  22
ATOM     22  C   UNK d   1      91.462  96.912 -42.312  0.00  0.00     0.185 C 
BRANCH  22  23
ATOM     23  C   UNK d   1      91.560  95.682 -43.148  0.00  0.00    -0.028 A 
ATOM     24  C   UNK d   1      91.388  95.753 -44.529  0.00  0.00     0.011 A 
ATOM     25  C   UNK d   1      91.453  94.633 -45.317  0.00  0.00     0.024 A 
ATOM     26  C   UNK d   1      91.691  93.383 -44.781  0.00  0.00     0.034 A 
ATOM     27 Cl   UNK d   1      91.776  91.940 -45.778  0.00  0.00    -0.084 Cl
ATOM     28  C   UNK d   1      91.856  93.337 -43.415  0.00  0.00     0.024 A 
ATOM     29  C   UNK d   1      91.796  94.444 -42.602  0.00  0.00     0.011 A 
ENDBRANCH  22  23
BRANCH  22  30
ATOM     30  O   UNK d   1      92.440  96.879 -41.352  0.00  0.00    -0.389 OA
ATOM     31  H   UNK d   1      93.240  96.442 -41.742  0.00  0.00     0.210 HD
ENDBRANCH  22  30
ENDBRANCH   1  22
BRANCH   8  32
ATOM     32  C   UNK d   1      89.008 101.715 -45.243  0.00  0.00     0.137 C 
BRANCH  32  33
ATOM     33  C   UNK d   1      87.588 102.137 -45.177  0.00  0.00     0.046 C 
BRANCH  33  34
ATOM     34  C   UNK d   1      86.564 101.060 -45.251  0.00  0.00     0.168 C 
BRANCH  34  35
ATOM     35  O   UNK d   1      86.125 100.630 -44.006  0.00  0.00    -0.396 OA
ATOM     36  C   UNK d   1      85.962  99.229 -44.026  0.00  0.00     0.201 C 
ENDBRANCH  34  35
ENDBRANCH  33  34
ENDBRANCH  32  33
ENDBRANCH   8  32
TORSDOF 7
ENDMDL
