/Users/jonathanwahrer/Desktop/Msc/3_Semester/Drug_Design_Praktikum/waehrer_HTS_screening/HTS_experiment/out/docking_results/vina_output/4agl/1960_docked.pdbqt
 OpenBabel03212200473D

 28 31  0  0  0  0  0  0  0  0999 V2000
   91.9830  100.9200  -42.3870 C   0  0  0  0  0  0  0  0  0  0  0  0
   92.9540  101.2610  -43.1130 O   0  0  0  0  0  0  0  0  0  0  0  0
   90.6800  101.0970  -42.8790 N   0  0  0  0  0  0  0  0  0  0  0  0
   90.4440  101.6700  -44.2160 C   0  0  0  0  0  2  0  0  0  0  0  0
   89.2640  100.9410  -44.8400 C   0  0  0  0  0  2  0  0  0  0  0  0
   89.2350   99.6160  -44.2530 N   0  0  0  0  0  0  0  0  0  0  0  0
   88.7930   99.5590  -42.8700 C   0  0  0  0  0  2  0  0  0  0  0  0
   89.4670  100.7430  -42.1550 C   0  0  0  0  0  2  0  0  0  0  0  0
   89.6290   98.4620  -44.9780 C   0  0  0  0  0  0  0  0  0  0  0  0
   89.2360   98.3030  -46.2940 C   0  0  0  0  0  3  0  0  0  0  0  0
   89.6170   97.1770  -46.9640 N   0  0  0  0  0  0  0  0  0  0  0  0
   90.3470   96.2260  -46.4140 N   0  0  0  0  0  0  0  0  0  0  0  0
   90.7710   96.3190  -45.1150 C   0  0  0  0  0  0  0  0  0  0  0  0
   90.3880   97.4440  -44.4500 C   0  0  0  0  0  3  0  0  0  0  0  0
   91.5470   95.2630  -44.5880 N   0  0  0  0  0  0  0  0  0  0  0  0
   92.0670   94.2170  -45.4490 C   0  0  0  0  0  2  0  0  0  0  0  0
   91.8570   92.8440  -44.8080 C   0  0  0  0  0  2  0  0  0  0  0  0
   92.2450   92.8360  -43.4830 O   0  0  0  0  0  0  0  0  0  0  0  0
   91.4360   93.7260  -42.7940 C   0  0  0  0  0  2  0  0  0  0  0  0
   91.8630   95.1520  -43.1870 C   0  0  0  0  0  2  0  0  0  0  0  0
   92.2920  100.3530  -41.0600 C   0  0  0  0  0  2  0  0  0  0  0  0
   92.6430  101.4170  -40.0820 C   0  0  0  0  0  0  0  0  0  0  0  0
   91.6270  102.1890  -39.5230 C   0  0  0  0  0  3  0  0  0  0  0  0
   91.9120  103.1860  -38.6080 C   0  0  0  0  0  3  0  0  0  0  0  0
   93.2310  103.4390  -38.2250 C   0  0  0  0  0  0  0  0  0  0  0  0
   93.5980  104.6900  -37.0770 Cl  0  0  0  0  0  0  0  0  0  0  0  0
   94.2210  102.6680  -38.7870 C   0  0  0  0  0  3  0  0  0  0  0  0
   93.9350  101.6610  -39.7090 C   0  0  0  0  0  3  0  0  0  0  0  0
  1 21  1  0  0  0  0
  2  1  2  0  0  0  0
  3  1  1  0  0  0  0
  3  8  1  0  0  0  0
  4  3  1  0  0  0  0
  5  6  1  0  0  0  0
  5  4  1  0  0  0  0
  6  7  1  0  0  0  0
  7  8  1  0  0  0  0
  9 14  1  0  0  0  0
  9  6  1  0  0  0  0
 10  9  2  0  0  0  0
 11 12  2  0  0  0  0
 11 10  1  0  0  0  0
 12 13  1  0  0  0  0
 13 15  1  0  0  0  0
 13 14  2  0  0  0  0
 15 20  1  0  0  0  0
 16 17  1  0  0  0  0
 16 15  1  0  0  0  0
 17 18  1  0  0  0  0
 18 19  1  0  0  0  0
 20 19  1  0  0  0  0
 21 22  1  0  0  0  0
 22 28  2  0  0  0  0
 22 23  1  0  0  0  0
 23 24  2  0  0  0  0
 24 25  1  0  0  0  0
 25 26  1  0  0  0  0
 27 25  2  0  0  0  0
 28 27  1  0  0  0  0
M  END
>  <Pose>
1

>  <Score>
-6.495

$$$$
