MODEL 1
REMARK VINA RESULT:    -6.495      0.000      0.000
REMARK INTER + INTRA:          -8.937
REMARK INTER:                  -8.014
REMARK INTRA:                  -0.923
REMARK UNBOUND:                -0.923
REMARK  4 active torsions:
REMARK  status: ('A' for Active; 'I' for Inactive)
REMARK    1  A    between atoms: C_5  and  C_8 
REMARK    2  A    between atoms: C_8  and  C_9 
REMARK       I    between atoms: C_9  and  N_11 
REMARK    3  A    between atoms: N_14  and  C_17 
REMARK    4  A    between atoms: C_21  and  N_23 
ROOT
ATOM      1  C   UNK d   1      91.983 100.920 -42.387  0.00  0.00     0.224 C 
ATOM      2  O   UNK d   1      92.954 101.261 -43.113  0.00  0.00    -0.273 OA
ATOM      3  N   UNK d   1      90.680 101.097 -42.879  0.00  0.00    -0.349 N 
ATOM      4  C   UNK d   1      90.444 101.670 -44.216  0.00  0.00     0.145 C 
ATOM      5  C   UNK d   1      89.264 100.941 -44.840  0.00  0.00     0.143 C 
ATOM      6  N   UNK d   1      89.235  99.616 -44.253  0.00  0.00    -0.376 N 
ATOM      7  C   UNK d   1      88.793  99.559 -42.870  0.00  0.00     0.143 C 
ATOM      8  C   UNK d   1      89.467 100.743 -42.155  0.00  0.00     0.145 C 
ENDROOT
BRANCH   6   9
ATOM      9  C   UNK d   1      89.629  98.462 -44.978  0.00  0.00     0.053 A 
ATOM     10  C   UNK d   1      89.236  98.303 -46.294  0.00  0.00     0.170 A 
ATOM     11  N   UNK d   1      89.617  97.177 -46.964  0.00  0.00    -0.158 NA
ATOM     12  N   UNK d   1      90.347  96.226 -46.414  0.00  0.00    -0.132 NA
ATOM     13  C   UNK d   1      90.771  96.319 -45.115  0.00  0.00     0.150 A 
ATOM     14  C   UNK d   1      90.388  97.444 -44.450  0.00  0.00     0.083 A 
BRANCH  13  15
ATOM     15  N   UNK d   1      91.547  95.263 -44.588  0.00  0.00    -0.360 N 
ATOM     16  C   UNK d   1      92.067  94.217 -45.449  0.00  0.00     0.151 C 
ATOM     17  C   UNK d   1      91.857  92.844 -44.808  0.00  0.00     0.187 C 
ATOM     18  O   UNK d   1      92.245  92.836 -43.483  0.00  0.00    -0.388 OA
ATOM     19  C   UNK d   1      91.436  93.726 -42.794  0.00  0.00     0.187 C 
ATOM     20  C   UNK d   1      91.863  95.152 -43.187  0.00  0.00     0.151 C 
ENDBRANCH  13  15
ENDBRANCH   6   9
BRANCH   1  21
ATOM     21  C   UNK d   1      92.292 100.353 -41.060  0.00  0.00     0.141 C 
BRANCH  21  22
ATOM     22  C   UNK d   1      92.643 101.417 -40.082  0.00  0.00    -0.049 A 
ATOM     23  C   UNK d   1      91.627 102.189 -39.523  0.00  0.00     0.009 A 
ATOM     24  C   UNK d   1      91.912 103.186 -38.608  0.00  0.00     0.024 A 
ATOM     25  C   UNK d   1      93.231 103.439 -38.225  0.00  0.00     0.034 A 
ATOM     26 Cl   UNK d   1      93.598 104.690 -37.077  0.00  0.00    -0.084 Cl
ATOM     27  C   UNK d   1      94.221 102.668 -38.787  0.00  0.00     0.024 A 
ATOM     28  C   UNK d   1      93.935 101.661 -39.709  0.00  0.00     0.009 A 
ENDBRANCH  21  22
ENDBRANCH   1  21
TORSDOF 4
ENDMDL
