MODEL 1
REMARK VINA RESULT:    -7.051      0.000      0.000
REMARK INTER + INTRA:          -9.053
REMARK INTER:                  -8.287
REMARK INTRA:                  -0.766
REMARK UNBOUND:                -0.766
REMARK  3 active torsions:
REMARK  status: ('A' for Active; 'I' for Inactive)
REMARK    1  A    between atoms: C_6  and  C_7 
REMARK       I    between atoms: C_7  and  N_9 
REMARK    2  A    between atoms: C_10  and  C_11 
REMARK    3  A    between atoms: N_12  and  C_16 
ROOT
ATOM      1  C   UNK d   1      91.539  94.641 -43.396  0.00  0.00     0.275 C 
ATOM      2  O   UNK d   1      91.488  93.899 -42.339  0.00  0.00    -0.266 OA
ATOM      3  N   UNK d   1      91.655  96.008 -43.372  0.00  0.00    -0.348 N 
ATOM      4  C   UNK d   1      91.769  97.367 -43.348  0.00  0.00     0.205 C 
ATOM      5  H   UNK d   1      91.658  95.999 -42.005  0.00  0.00     0.163 HD
ENDROOT
BRANCH   1   6
ATOM      6  C   UNK d   1      91.457  93.802 -44.621  0.00  0.00     0.183 A 
ATOM      7  C   UNK d   1      90.811  94.062 -45.804  0.00  0.00     0.231 A 
ATOM      8  F   UNK d   1      90.086  95.163 -46.119  0.00  0.00    -0.183 F 
ATOM      9  N   UNK d   1      90.984  93.030 -46.686  0.00  0.00    -0.279 N 
ATOM     10  C   UNK d   1      91.741  92.132 -46.035  0.00  0.00     0.137 A 
ATOM     11  C   UNK d   1      90.554  92.825 -47.942  0.00  0.00     0.125 A 
ATOM     12  N   UNK d   1      92.022  92.593 -44.806  0.00  0.00    -0.220 NA
ATOM     13  C   UNK d   1      92.065  90.979 -46.708  0.00  0.00     0.053 A 
ATOM     14  C   UNK d   1      91.639  90.727 -48.013  0.00  0.00     0.029 A 
ATOM     15  C   UNK d   1      90.869  91.667 -48.644  0.00  0.00     0.050 A 
ATOM     16 Cl   UNK d   1      90.300  91.418 -50.295  0.00  0.00    -0.083 Cl
ENDBRANCH   1   6
BRANCH   4  17
ATOM     17  C   UNK d   1      91.805  98.043 -44.696  0.00  0.00     0.171 A 
ATOM     18  N   UNK d   1      90.757  98.574 -45.331  0.00  0.00    -0.197 N 
ATOM     19  N   UNK d   1      91.190  99.072 -46.477  0.00  0.00    -0.039 NA
ATOM     20  N   UNK d   1      92.485  98.874 -46.592  0.00  0.00    -0.023 NA
ATOM     21  N   UNK d   1      92.859  98.235 -45.483  0.00  0.00    -0.112 NA
BRANCH  18  22
ATOM     22  C   UNK d   1      89.437  98.571 -44.784  0.00  0.00     0.062 A 
ATOM     23  C   UNK d   1      88.463  97.818 -45.430  0.00  0.00     0.032 A 
ATOM     24  C   UNK d   1      87.155  97.786 -44.960  0.00  0.00     0.002 A 
ATOM     25  C   UNK d   1      86.782  98.500 -43.839  0.00  0.00     0.000 A 
ATOM     26  C   UNK d   1      87.754  99.244 -43.204  0.00  0.00     0.002 A 
ATOM     27  C   UNK d   1      89.056  99.279 -43.669  0.00  0.00     0.032 A 
ENDBRANCH  18  22
ENDBRANCH   4  17
TORSDOF 3
ENDMDL
