MODEL 1
REMARK VINA RESULT:    -7.227      0.000      0.000
REMARK INTER + INTRA:          -9.146
REMARK INTER:                  -8.494
REMARK INTRA:                  -0.651
REMARK UNBOUND:                -0.651
REMARK  3 active torsions:
REMARK  status: ('A' for Active; 'I' for Inactive)
REMARK    1  A    between atoms: C_4  and  N_8 
REMARK    2  A    between atoms: C_11  and  C_13 
REMARK    3  A    between atoms: N_18  and  C_21 
ROOT
ATOM      1  C   UNK d   1      91.489  96.020 -44.630  0.00  0.00     0.209 C 
ATOM      2  O   UNK d   1      91.771  96.082 -45.991  0.00  0.00    -0.170 OA
ATOM      3  N   UNK d   1      91.196  97.248 -44.138  0.00  0.00    -0.354 N 
ATOM      4  C   UNK d   1      90.753  97.680 -42.845  0.00  0.00     0.145 C 
ATOM      5  C   UNK d   1      89.978  99.005 -42.990  0.00  0.00     0.161 C 
ATOM      6  N   UNK d   1      89.331  98.891 -44.304  0.00  0.00    -0.211 N 
ATOM      7  C   UNK d   1      90.137  98.980 -45.476  0.00  0.00     0.161 C 
ATOM      8  C   UNK d   1      91.449  98.379 -45.087  0.00  0.00     0.145 C 
ENDROOT
BRANCH   1   9
ATOM      9  C   UNK d   1      91.643  94.604 -44.351  0.00  0.00     0.151 A 
ATOM     10  N   UNK d   1      91.774  93.419 -44.115  0.00  0.00    -0.126 NA
ATOM     11  N   UNK d   1      91.788  92.422 -44.756  0.00  0.00    -0.060 NA
ATOM     12  N   UNK d   1      91.630  92.812 -46.003  0.00  0.00    -0.224 N 
ATOM     13  C   UNK d   1      91.512  94.112 -45.960  0.00  0.00     0.158 A 
BRANCH  12  14
ATOM     14  C   UNK d   1      91.601  91.850 -47.083  0.00  0.00     0.061 A 
ATOM     15  C   UNK d   1      90.660  91.805 -48.053  0.00  0.00     0.055 A 
ATOM     16  C   UNK d   1      90.708  90.854 -49.063  0.00  0.00     0.036 A 
ATOM     17 Cl   UNK d   1      89.534  90.724 -50.335  0.00  0.00    -0.084 Cl
ATOM     18  C   UNK d   1      91.770  89.892 -49.086  0.00  0.00     0.024 A 
ATOM     19  C   UNK d   1      92.704  89.955 -48.110  0.00  0.00     0.004 A 
ATOM     20  C   UNK d   1      92.605  90.906 -47.151  0.00  0.00     0.032 A 
ENDBRANCH  12  14
ENDBRANCH   1   9
BRANCH   6  21
ATOM     21  C   UNK d   1      87.977  98.585 -44.376  0.00  0.00     0.724 A 
ATOM     22  N   UNK d   1      87.519  97.532 -45.176  0.00  0.00    -0.075 NA
ATOM     23  C   UNK d   1      86.296  97.149 -45.295  0.00  0.00     0.138 A 
ATOM     24  C   UNK d   1      85.253  97.771 -44.591  0.00  0.00     0.040 A 
ATOM     25  C   UNK d   1      85.697  98.822 -43.800  0.00  0.00     0.138 A 
ATOM     26  N   UNK d   1      86.930  99.159 -43.728  0.00  0.00    -0.075 NA
ENDBRANCH   6  21
TORSDOF 3
ENDMDL
