/Users/jonathanwahrer/Desktop/Msc/3_Semester/Drug_Design_Praktikum/waehrer_HTS_screening/HTS_experiment/out/docking_results/vina_output/4agl/1971_docked.pdbqt
 OpenBabel03212200483D

 22 25  0  0  1  0  0  0  0  0999 V2000
   91.0900   98.2590  -44.3720 N   0  0  0  0  0  0  0  0  0  0  0  0
   92.1090   99.2520  -44.5870 C   0  0  0  0  0  0  0  0  0  0  0  0
   93.3350   99.0060  -44.6850 O   0  0  0  0  0  0  0  0  0  0  0  0
   91.4980  100.5760  -44.6700 C   0  0  2  0  0  3  0  0  0  0  0  0
   91.7320  101.4630  -43.4920 C   0  0  1  0  0  0  0  0  0  0  0  0
   90.5840  102.2920  -43.5730 O   0  0  0  0  0  0  0  0  0  0  0  0
   89.6260  101.2580  -43.4170 C   0  0  1  0  0  3  0  0  0  0  0  0
   89.9790  100.3580  -44.5750 C   0  0  2  0  0  3  0  0  0  0  0  0
   89.8590   98.9500  -44.1890 C   0  0  0  0  0  0  0  0  0  0  0  0
   88.8170   98.4020  -43.7530 O   0  0  0  0  0  0  0  0  0  0  0  0
   90.1190  100.6170  -42.1800 C   0  0  0  0  0  2  0  0  0  0  0  0
   91.4620  100.7790  -42.2080 C   0  0  0  0  0  2  0  0  0  0  0  0
   91.2330   96.8440  -44.3370 C   0  0  0  0  0  0  0  0  0  0  0  0
   91.5660   96.1640  -43.1770 C   0  0  0  0  0  3  0  0  0  0  0  0
   91.7030   94.7920  -43.1440 C   0  0  0  0  0  0  0  0  0  0  0  0
   92.1260   93.9480  -41.6700 Cl  0  0  0  0  0  0  0  0  0  0  0  0
   91.5110   94.0340  -44.2800 C   0  0  0  0  0  3  0  0  0  0  0  0
   91.1770   94.7020  -45.4410 C   0  0  0  0  0  3  0  0  0  0  0  0
   91.0390   96.0840  -45.4730 C   0  0  0  0  0  3  0  0  0  0  0  0
   92.9920  102.2520  -43.5310 C   0  0  0  0  0  2  0  0  0  0  0  0
   94.0090  101.5270  -42.9240 O   0  0  0  0  0  0  0  0  0  0  0  0
   94.2390  100.7390  -43.4690 H   0  0  0  0  0  0  0  0  0  0  0  0
  1 13  1  0  0  0  0
  1  9  1  0  0  0  0
  2  1  1  0  0  0  0
  3  2  2  0  0  0  0
  4  2  1  1  0  0  0
  4  8  1  0  0  0  0
  4  5  1  0  0  0  0
  5 20  1  6  0  0  0
  5 12  1  0  0  0  0
  6  5  1  0  0  0  0
  6  7  1  0  0  0  0
  7 11  1  1  0  0  0
  8  9  1  1  0  0  0
  8  7  1  0  0  0  0
  9 10  2  0  0  0  0
 12 11  1  0  0  0  0
 13 14  1  0  0  0  0
 14 15  2  0  0  0  0
 15 16  1  0  0  0  0
 17 15  1  0  0  0  0
 18 17  2  0  0  0  0
 19 18  1  0  0  0  0
 19 13  2  0  0  0  0
 20 21  1  0  0  0  0
 22 21  1  0  0  0  0
M  END
>  <Pose>
1

>  <Score>
-5.635

$$$$
