MODEL 1
REMARK VINA RESULT:    -6.177      0.000      0.000
REMARK INTER + INTRA:          -5.531
REMARK INTER:                  -6.538
REMARK INTRA:                   1.007
REMARK UNBOUND:                 1.007
REMARK  1 active torsions:
REMARK  status: ('A' for Active; 'I' for Inactive)
REMARK       I    between atoms: N_10  and  C_13 
REMARK    1  A    between atoms: C_13  and  C_15 
ROOT
ATOM      1 Cl   UNK d   1      91.461  91.307 -46.879  0.00  0.00    -0.083 Cl
ATOM      2  C   UNK d   1      91.484  92.719 -45.824  0.00  0.00     0.050 A 
ATOM      3  C   UNK d   1      90.938  93.927 -46.206  0.00  0.00     0.125 A 
ATOM      4  N   UNK d   1      90.945  95.023 -45.410  0.00  0.00    -0.271 N 
ATOM      5  C   UNK d   1      91.495  94.999 -44.182  0.00  0.00     0.137 A 
ATOM      6  N   UNK d   1      91.513  96.088 -43.369  0.00  0.00    -0.234 NA
ATOM      7  C   UNK d   1      90.982  97.269 -43.734  0.00  0.00     0.051 A 
ATOM      8  C   UNK d   1      90.410  97.310 -45.001  0.00  0.00     0.053 A 
ATOM      9  C   UNK d   1      89.823  98.614 -45.407  0.00  0.00     0.172 C 
ATOM     10  N   UNK d   1      90.821  99.621 -45.026  0.00  0.00    -0.347 N 
ATOM     11  C   UNK d   1      91.142  99.743 -43.632  0.00  0.00     0.132 C 
ATOM     12  C   UNK d   1      90.993  98.466 -42.855  0.00  0.00     0.080 C 
ATOM     13  C   UNK d   1      91.441 100.426 -46.007  0.00  0.00     0.224 C 
ATOM     14  O   UNK d   1      91.096 100.228 -47.221  0.00  0.00    -0.273 OA
ATOM     15  C   UNK d   1      90.406  96.191 -45.804  0.00  0.00     0.263 A 
ATOM     16  O   UNK d   1      89.875  96.255 -46.959  0.00  0.00    -0.267 OA
ATOM     17  C   UNK d   1      92.051  93.796 -43.779  0.00  0.00     0.053 A 
ATOM     18  C   UNK d   1      92.055  92.666 -44.570  0.00  0.00     0.029 A 
ENDROOT
BRANCH  13  19
ATOM     19  C   UNK d   1      92.444 101.463 -45.679  0.00  0.00     0.082 C 
ATOM     20  C   UNK d   1      91.877 102.548 -44.790  0.00  0.00     0.040 C 
ATOM     21  C   UNK d   1      90.488 102.847 -45.338  0.00  0.00     0.168 C 
ATOM     22  O   UNK d   1      90.499 102.796 -46.730  0.00  0.00    -0.391 OA
ATOM     23  C   UNK d   1      91.740 103.193 -47.248  0.00  0.00     0.168 C 
ATOM     24  C   UNK d   1      92.828 102.168 -46.988  0.00  0.00     0.040 C 
ENDBRANCH  13  19
TORSDOF 1
ENDMDL
