/Users/jonathanwahrer/Desktop/Msc/3_Semester/Drug_Design_Praktikum/waehrer_HTS_screening/HTS_experiment/out/docking_results/vina_output/4agl/1973_docked.pdbqt
 OpenBabel03212200483D

 24 27  0  0  1  0  0  0  0  0999 V2000
   91.4610   91.3070  -46.8790 Cl  0  0  0  0  0  0  0  0  0  0  0  0
   91.4840   92.7190  -45.8240 C   0  0  0  0  0  0  0  0  0  0  0  0
   90.9380   93.9270  -46.2060 C   0  0  0  0  0  2  0  0  0  0  0  0
   90.9450   95.0230  -45.4100 N   0  0  0  0  0  0  0  0  0  0  0  0
   91.4950   94.9990  -44.1820 C   0  0  0  0  0  0  0  0  0  0  0  0
   91.5130   96.0880  -43.3690 N   0  0  0  0  0  0  0  0  0  0  0  0
   90.9820   97.2690  -43.7340 C   0  0  0  0  0  0  0  0  0  0  0  0
   90.4100   97.3100  -45.0010 C   0  0  1  0  0  3  0  0  0  0  0  0
   89.8230   98.6140  -45.4070 C   0  0  0  0  0  2  0  0  0  0  0  0
   90.8210   99.6210  -45.0260 N   0  0  0  0  0  0  0  0  0  0  0  0
   91.1420   99.7430  -43.6320 C   0  0  0  0  0  2  0  0  0  0  0  0
   90.9930   98.4660  -42.8550 C   0  0  0  0  0  2  0  0  0  0  0  0
   91.4410  100.4260  -46.0070 C   0  0  0  0  0  0  0  0  0  0  0  0
   91.0960  100.2280  -47.2210 O   0  0  0  0  0  0  0  0  0  0  0  0
   90.4060   96.1910  -45.8040 C   0  0  0  0  0  0  0  0  0  0  0  0
   89.8750   96.2550  -46.9590 O   0  0  0  0  0  0  0  0  0  0  0  0
   92.0510   93.7960  -43.7790 C   0  0  0  0  0  3  0  0  0  0  0  0
   92.0550   92.6660  -44.5700 C   0  0  0  0  0  3  0  0  0  0  0  0
   92.4440  101.4630  -45.6790 C   0  0  0  0  0  3  0  0  0  0  0  0
   91.8770  102.5480  -44.7900 C   0  0  0  0  0  2  0  0  0  0  0  0
   90.4880  102.8470  -45.3380 C   0  0  0  0  0  2  0  0  0  0  0  0
   90.4990  102.7960  -46.7300 O   0  0  0  0  0  0  0  0  0  0  0  0
   91.7400  103.1930  -47.2480 C   0  0  0  0  0  2  0  0  0  0  0  0
   92.8280  102.1680  -46.9880 C   0  0  0  0  0  2  0  0  0  0  0  0
  1  2  1  0  0  0  0
  2 18  2  0  0  0  0
  3  2  1  0  0  0  0
  3  4  1  0  0  0  0
  4  5  1  0  0  0  0
  5 17  2  0  0  0  0
  5  6  1  0  0  0  0
  7  6  2  0  0  0  0
  7 12  1  0  0  0  0
  8  9  1  6  0  0  0
  8  7  1  0  0  0  0
  9 10  1  0  0  0  0
 10 11  1  0  0  0  0
 11 12  1  0  0  0  0
 13 19  1  0  0  0  0
 13 10  1  0  0  0  0
 14 13  2  0  0  0  0
 15  4  1  0  0  0  0
 15  8  1  0  0  0  0
 16 15  2  0  0  0  0
 18 17  1  0  0  0  0
 19 20  1  0  0  0  0
 21 20  1  0  0  0  0
 22 21  1  0  0  0  0
 23 24  1  0  0  0  0
 23 22  1  0  0  0  0
 24 19  1  0  0  0  0
M  END
>  <Pose>
1

>  <Score>
-6.177

$$$$
