/Users/jonathanwahrer/Desktop/Msc/3_Semester/Drug_Design_Praktikum/waehrer_HTS_screening/HTS_experiment/out/docking_results/vina_output/4agl/1974_docked.pdbqt
 OpenBabel03212200483D

 26 29  0  0  0  0  0  0  0  0999 V2000
   92.3930   95.6790  -40.9580 F   0  0  0  0  0  0  0  0  0  0  0  0
   92.1900   94.8890  -42.0400 C   0  0  0  0  0  0  0  0  0  0  0  0
   91.7400   95.4780  -43.2120 C   0  0  0  0  0  0  0  0  0  0  0  0
   91.5120   94.7380  -44.3510 C   0  0  0  0  0  0  0  0  0  0  0  0
   91.7460   93.3750  -44.2890 C   0  0  0  0  0  0  0  0  0  0  0  0
   92.1930   92.7890  -43.1280 C   0  0  0  0  0  3  0  0  0  0  0  0
   92.4190   93.5340  -41.9940 C   0  0  0  0  0  3  0  0  0  0  0  0
   91.4570   92.4280  -45.7380 Cl  0  0  0  0  0  0  0  0  0  0  0  0
   91.0480   95.5750  -45.4380 C   0  0  0  0  0  0  0  0  0  0  0  0
   90.7460   95.2400  -46.6060 O   0  0  0  0  0  0  0  0  0  0  0  0
   90.9980   96.9260  -44.8930 C   0  0  0  0  0  0  0  0  0  0  0  0
   90.6390   97.9630  -45.5330 O   0  0  0  0  0  0  0  0  0  0  0  0
   91.4220   96.8470  -43.5410 N   0  0  0  0  0  0  0  0  0  0  0  0
   91.5320   97.9410  -42.5990 C   0  0  0  0  0  2  0  0  0  0  0  0
   91.0060   99.1910  -43.1060 N   0  0  0  0  0  0  0  0  0  0  0  0
   89.7250   99.4690  -42.5530 C   0  0  0  0  0  2  0  0  0  0  0  0
   89.5070  100.8720  -42.1090 C   0  0  0  0  0  2  0  0  0  0  0  0
   90.6590  101.4670  -41.4840 N   0  0  0  0  0  0  0  0  0  0  0  0
   91.9490  100.8500  -41.6850 C   0  0  0  0  0  2  0  0  0  0  0  0
   91.9380  100.2660  -43.0820 C   0  0  0  0  0  2  0  0  0  0  0  0
   90.5710  102.6300  -40.6850 C   0  0  0  0  0  0  0  0  0  0  0  0
   89.8570  103.6970  -41.0780 N   0  0  0  0  0  0  0  0  0  0  0  0
   89.7590  104.8170  -40.3350 C   0  0  0  0  0  3  0  0  0  0  0  0
   90.4040  104.9060  -39.1170 C   0  0  0  0  0  3  0  0  0  0  0  0
   91.1200  103.8420  -38.7170 N   0  0  0  0  0  0  0  0  0  0  0  0
   91.2190  102.7230  -39.4590 C   0  0  0  0  0  3  0  0  0  0  0  0
  2  7  1  0  0  0  0
  2  1  1  0  0  0  0
  3  2  2  0  0  0  0
  4  5  2  0  0  0  0
  4  3  1  0  0  0  0
  5  6  1  0  0  0  0
  6  7  2  0  0  0  0
  8  5  1  0  0  0  0
  9 11  1  0  0  0  0
  9  4  1  0  0  0  0
 10  9  2  0  0  0  0
 11 13  1  0  0  0  0
 12 11  2  0  0  0  0
 13  3  1  0  0  0  0
 13 14  1  0  0  0  0
 15 20  1  0  0  0  0
 15 14  1  0  0  0  0
 15 16  1  0  0  0  0
 16 17  1  0  0  0  0
 17 18  1  0  0  0  0
 18 21  1  0  0  0  0
 19 18  1  0  0  0  0
 20 19  1  0  0  0  0
 21 26  1  0  0  0  0
 22 21  2  0  0  0  0
 22 23  1  0  0  0  0
 23 24  2  0  0  0  0
 24 25  1  0  0  0  0
 26 25  2  0  0  0  0
M  END
>  <Pose>
1

>  <Score>
-6.930

$$$$
