/Users/jonathanwahrer/Desktop/Msc/3_Semester/Drug_Design_Praktikum/waehrer_HTS_screening/HTS_experiment/out/docking_results/vina_output/4agl/1976_docked.pdbqt
 OpenBabel03212200483D

 26 29  0  0  0  0  0  0  0  0999 V2000
   91.1880   99.0480  -45.0410 C   0  0  0  0  0  0  0  0  0  0  0  0
   91.6520   99.1750  -46.2270 O   0  0  0  0  0  0  0  0  0  0  0  0
   91.2020   97.8010  -44.3630 N   0  0  0  0  0  0  0  0  0  0  0  0
   90.6760   97.7200  -43.0460 C   0  0  0  0  0  2  0  0  0  0  0  0
   91.6960   96.9780  -42.1730 C   0  0  0  0  0  2  0  0  0  0  0  0
   91.7250   95.5990  -42.7970 C   0  0  0  0  0  0  0  0  0  0  0  0
   91.7310   95.4790  -44.1720 C   0  0  0  0  0  0  0  0  0  0  0  0
   91.7440   94.2280  -44.7130 N   0  0  0  0  0  0  0  0  0  0  0  0
   91.7530   93.1130  -43.9640 C   0  0  0  0  0  3  0  0  0  0  0  0
   91.7470   93.2490  -42.6260 N   0  0  0  0  0  0  0  0  0  0  0  0
   91.7340   94.4750  -42.0230 C   0  0  0  0  0  0  0  0  0  0  0  0
   91.7350   96.6700  -45.0440 C   0  0  0  0  0  2  0  0  0  0  0  0
   90.6260  100.2760  -44.3910 C   0  0  0  0  0  2  0  0  0  0  0  0
   91.7030  101.0180  -43.6680 C   0  0  0  0  0  0  0  0  0  0  0  0
   92.4220  102.0410  -44.2550 C   0  0  0  0  0  0  0  0  0  0  0  0
   92.0400  102.4570  -45.9040 Cl  0  0  0  0  0  0  0  0  0  0  0  0
   93.4110  102.7080  -43.5490 C   0  0  0  0  0  3  0  0  0  0  0  0
   93.7260  102.3900  -42.2410 C   0  0  0  0  0  0  0  0  0  0  0  0
   93.0150  101.3680  -41.6400 C   0  0  0  0  0  0  0  0  0  0  0  0
   94.6950  103.0180  -41.4990 O   0  0  0  0  0  0  0  0  0  0  0  0
   92.0320  100.7140  -42.3590 C   0  0  0  0  0  3  0  0  0  0  0  0
   93.3300  101.0520  -40.3350 O   0  0  0  0  0  0  0  0  0  0  0  0
   94.0260  101.8970  -39.4420 C   0  0  0  0  0  2  0  0  0  0  0  0
   94.7640  103.0100  -40.0980 C   0  0  0  0  0  2  0  0  0  0  0  0
   91.7280   94.6170  -40.6480 O   0  0  0  0  0  0  0  0  0  0  0  0
   92.1230   93.8690  -40.0910 H   0  0  0  0  0  0  0  0  0  0  0  0
  1 13  1  0  0  0  0
  1  3  1  0  0  0  0
  2  1  2  0  0  0  0
  3  4  1  0  0  0  0
  4  5  1  0  0  0  0
  6  5  1  0  0  0  0
  6 11  1  0  0  0  0
  7  6  2  0  0  0  0
  8  7  1  0  0  0  0
  8  9  2  0  0  0  0
  9 10  1  0  0  0  0
 10 11  2  0  0  0  0
 11 25  1  0  0  0  0
 12  3  1  0  0  0  0
 12  7  1  0  0  0  0
 13 14  1  0  0  0  0
 14 21  1  0  0  0  0
 15 14  2  0  0  0  0
 15 17  1  0  0  0  0
 16 15  1  0  0  0  0
 17 18  2  0  0  0  0
 18 19  1  0  0  0  0
 18 20  1  0  0  0  0
 19 22  1  0  0  0  0
 20 24  1  0  0  0  0
 21 19  2  0  0  0  0
 22 23  1  0  0  0  0
 24 23  1  0  0  0  0
 25 26  1  0  0  0  0
M  END
>  <Pose>
1

>  <Score>
-6.429

$$$$
