MODEL 1
REMARK VINA RESULT:    -7.009      0.000      0.000
REMARK INTER + INTRA:          -7.001
REMARK INTER:                  -7.419
REMARK INTRA:                   0.418
REMARK UNBOUND:                 0.418
REMARK  1 active torsions:
REMARK  status: ('A' for Active; 'I' for Inactive)
REMARK    1  A    between atoms: C_11  and  C_12 
ROOT
ATOM      1 Cl   UNK d   1      91.553  93.317 -42.478  0.00  0.00    -0.084 Cl
ATOM      2  C   UNK d   1      91.730  95.057 -42.332  0.00  0.00     0.034 A 
ATOM      3  C   UNK d   1      91.430  95.893 -43.389  0.00  0.00     0.034 A 
ATOM      4  C   UNK d   1      91.572  97.282 -43.274  0.00  0.00    -0.009 A 
ATOM      5  C   UNK d   1      92.019  97.758 -42.068  0.00  0.00     0.085 A 
ATOM      6  C   UNK d   1      92.323  96.906 -40.997  0.00  0.00     0.039 A 
ATOM      7  C   UNK d   1      92.180  95.541 -41.121  0.00  0.00     0.026 A 
ATOM      8  O   UNK d   1      92.168  99.135 -41.927  0.00  0.00    -0.292 OA
ATOM      9  C   UNK d   1      91.888 100.036 -42.940  0.00  0.00     0.166 A 
ATOM     10  C   UNK d   1      91.436  99.553 -44.158  0.00  0.00     0.075 A 
ATOM     11  C   UNK d   1      91.239  98.126 -44.437  0.00  0.00     0.107 A 
ATOM     12  C   UNK d   1      91.169 100.491 -45.136  0.00  0.00     0.262 A 
ATOM     13  O   UNK d   1      90.751 100.107 -46.274  0.00  0.00    -0.267 OA
ATOM     14  N   UNK d   1      91.320 101.815 -44.977  0.00  0.00    -0.270 N 
ATOM     15  C   UNK d   1      91.764 102.241 -43.769  0.00  0.00     0.332 A 
ATOM     16  O   UNK d   1      91.899 103.488 -43.642  0.00  0.00    -0.246 OA
ATOM     17  N   UNK d   1      92.037 101.363 -42.787  0.00  0.00    -0.283 N 
ATOM     18  C   UNK d   1      92.508 101.896 -41.525  0.00  0.00     0.163 C 
ATOM     19  C   UNK d   1      91.020 102.767 -46.047  0.00  0.00     0.164 C 
ENDROOT
BRANCH  11  20
ATOM     20  C   UNK d   1      89.807  97.890 -44.814  0.00  0.00     0.078 A 
ATOM     21  C   UNK d   1      89.482  97.152 -45.931  0.00  0.00     0.197 A 
ATOM     22  N   UNK d   1      88.179  96.946 -46.263  0.00  0.00    -0.281 N 
ATOM     23  O   UNK d   1      90.481  96.627 -46.702  0.00  0.00    -0.171 OA
ATOM     24  C   UNK d   1      87.184  97.465 -45.500  0.00  0.00     0.332 A 
ATOM     25  C   UNK d   1      87.901  96.153 -47.457  0.00  0.00     0.163 C 
ATOM     26  O   UNK d   1      85.986  97.253 -45.839  0.00  0.00    -0.246 OA
ATOM     27  N   UNK d   1      87.469  98.188 -44.406  0.00  0.00    -0.270 N 
ATOM     28  C   UNK d   1      88.757  98.395 -44.072  0.00  0.00     0.262 A 
ATOM     29  C   UNK d   1      86.375  98.733 -43.608  0.00  0.00     0.164 C 
ATOM     30  O   UNK d   1      89.004  99.065 -43.059  0.00  0.00    -0.267 OA
ENDBRANCH  11  20
TORSDOF 1
ENDMDL
