MODEL 1
REMARK VINA RESULT:    -6.003      0.000      0.000
REMARK INTER + INTRA:          -7.129
REMARK INTER:                  -7.056
REMARK INTRA:                  -0.073
REMARK UNBOUND:                -0.073
REMARK  3 active torsions:
REMARK  status: ('A' for Active; 'I' for Inactive)
REMARK    1  A    between atoms: S_1  and  N_4 
REMARK    2  A    between atoms: S_1  and  C_16 
REMARK       I    between atoms: N_7  and  C_10 
REMARK    3  A    between atoms: C_10  and  C_12 
ROOT
ATOM      1  S   UNK d   1      91.257  97.599 -44.704  0.00  0.00     0.262 S 
ATOM      2  O   UNK d   1      91.478  96.355 -43.857  0.00  0.00    -0.200 OA
ATOM      3  O   UNK d   1      92.206  97.413 -45.886  0.00  0.00    -0.200 OA
ENDROOT
BRANCH   1   4
ATOM      4  N   UNK d   1      91.679  98.991 -43.875  0.00  0.00    -0.304 N 
ATOM      5  C   UNK d   1      92.731  99.764 -44.371  0.00  0.00     0.155 C 
ATOM      6  C   UNK d   1      92.839 101.135 -43.687  0.00  0.00     0.146 C 
ATOM      7  N   UNK d   1      92.558 101.047 -42.285  0.00  0.00    -0.349 N 
ATOM      8  C   UNK d   1      91.420 100.258 -41.867  0.00  0.00     0.146 C 
ATOM      9  C   UNK d   1      93.369 101.710 -41.356  0.00  0.00     0.224 C 
ATOM     10  C   UNK d   1      91.625  98.868 -42.437  0.00  0.00     0.155 C 
ATOM     11  O   UNK d   1      94.353 102.389 -41.743  0.00  0.00    -0.273 OA
BRANCH   9  12
ATOM     12  C   UNK d   1      93.115 101.648 -39.882  0.00  0.00     0.078 C 
ATOM     13  C   UNK d   1      92.024 102.582 -39.415  0.00  0.00     0.014 C 
ATOM     14  C   UNK d   1      93.112 103.629 -39.183  0.00  0.00     0.002 C 
ATOM     15  C   UNK d   1      94.113 102.472 -39.108  0.00  0.00     0.014 C 
ENDBRANCH   9  12
ENDBRANCH   1   4
BRANCH   1  16
ATOM     16  C   UNK d   1      89.633  97.535 -45.353  0.00  0.00     0.104 A 
ATOM     17  C   UNK d   1      88.742  98.585 -45.054  0.00  0.00     0.066 A 
ATOM     18  C   UNK d   1      87.436  98.562 -45.486  0.00  0.00     0.098 A 
ATOM     19  C   UNK d   1      86.920  97.524 -46.228  0.00  0.00     0.070 A 
ATOM     20  O   UNK d   1      86.575  99.616 -45.177  0.00  0.00    -0.335 OA
ATOM     21  C   UNK d   1      87.784  96.499 -46.523  0.00  0.00     0.058 A 
ATOM     22  N   UNK d   1      85.566  97.561 -46.639  0.00  0.00    -0.323 N 
ATOM     23  C   UNK d   1      89.119  96.504 -46.094  0.00  0.00     0.059 A 
ATOM     24 Cl   UNK d   1      90.175  95.198 -46.576  0.00  0.00    -0.083 Cl
ATOM     25  C   UNK d   1      84.700  98.640 -46.312  0.00  0.00     0.251 C 
ATOM     26  H   UNK d   1      85.179  96.768 -47.203  0.00  0.00     0.169 HD
ATOM     27  O   UNK d   1      83.596  98.857 -46.848  0.00  0.00    -0.270 OA
ATOM     28  C   UNK d   1      85.177  99.562 -45.248  0.00  0.00     0.217 C 
ATOM     29  C   UNK d   1      84.650  99.136 -43.896  0.00  0.00     0.050 C 
ENDBRANCH   1  16
TORSDOF 3
ENDMDL
