MODEL 1
REMARK VINA RESULT:    -6.426      0.000      0.000
REMARK INTER + INTRA:          -7.817
REMARK INTER:                  -7.177
REMARK INTRA:                  -0.639
REMARK UNBOUND:                -0.639
REMARK  2 active torsions:
REMARK  status: ('A' for Active; 'I' for Inactive)
REMARK    1  A    between atoms: C_4  and  N_8 
REMARK    2  A    between atoms: C_14  and  C_18 
ROOT
ATOM      1  N   UNK d   1      88.763  99.549 -43.655  0.00  0.00    -0.246 N 
ATOM      2  C   UNK d   1      89.740 100.029 -42.738  0.00  0.00     0.268 C 
ATOM      3  O   UNK d   1      89.502 100.810 -41.802  0.00  0.00    -0.269 OA
ATOM      4  C   UNK d   1      91.052  99.456 -43.083  0.00  0.00     0.285 C 
ATOM      5  O   UNK d   1      91.899  99.139 -42.070  0.00  0.00    -0.260 OA
ATOM      6  N   UNK d   1      92.521  97.999 -42.543  0.00  0.00    -0.264 N 
ATOM      7  C   UNK d   1      91.544  97.215 -43.234  0.00  0.00     0.083 C 
ATOM      8  C   UNK d   1      90.619  98.105 -43.573  0.00  0.00     0.080 C 
ATOM      9  C   UNK d   1      89.320  98.321 -44.193  0.00  0.00     0.266 C 
ATOM     10  O   UNK d   1      88.816  97.544 -45.043  0.00  0.00    -0.267 OA
ATOM     11  H   UNK d   1      93.524  97.792 -42.407  0.00  0.00     0.194 HD
ENDROOT
BRANCH   1  12
ATOM     12  C   UNK d   1      87.491 100.066 -44.024  0.00  0.00     0.047 A 
ATOM     13  C   UNK d   1      86.324  99.373 -43.799  0.00  0.00     0.054 A 
ATOM     14  C   UNK d   1      85.124  99.960 -44.191  0.00  0.00     0.036 A 
ATOM     15 Cl   UNK d   1      83.597  99.121 -43.934  0.00  0.00    -0.084 Cl
ATOM     16  C   UNK d   1      85.117 101.203 -44.789  0.00  0.00     0.024 A 
ATOM     17  C   UNK d   1      86.293 101.900 -45.012  0.00  0.00     0.004 A 
ATOM     18  C   UNK d   1      87.471 101.332 -44.631  0.00  0.00     0.030 A 
ENDBRANCH   1  12
BRANCH   7  19
ATOM     19  C   UNK d   1      91.571  95.800 -43.546  0.00  0.00     0.036 A 
ATOM     20  C   UNK d   1      91.452  95.334 -44.858  0.00  0.00     0.127 A 
ATOM     21  N   UNK d   1      91.495  93.994 -44.866  0.00  0.00    -0.284 N 
ATOM     22  N   UNK d   1      91.636  93.580 -43.606  0.00  0.00    -0.177 NA
ATOM     23  C   UNK d   1      91.406  93.077 -45.998  0.00  0.00     0.179 C 
ATOM     24  C   UNK d   1      91.683  94.664 -42.797  0.00  0.00     0.065 A 
ATOM     25  C   UNK d   1      91.816  94.633 -41.319  0.00  0.00     0.073 C 
ENDBRANCH   7  19
TORSDOF 2
ENDMDL
