MODEL 1
REMARK VINA RESULT:    -6.562      0.000      0.000
REMARK INTER + INTRA:          -7.934
REMARK INTER:                  -7.329
REMARK INTRA:                  -0.604
REMARK UNBOUND:                -0.604
REMARK  2 active torsions:
REMARK  status: ('A' for Active; 'I' for Inactive)
REMARK    1  A    between atoms: C_4  and  C_10 
REMARK    2  A    between atoms: C_5  and  O_8 
ROOT
ATOM      1  C   UNK d   1      89.851  97.248 -45.888  0.00  0.00     0.188 A 
ATOM      2  N   UNK d   1      90.448  96.181 -45.364  0.00  0.00    -0.107 N 
ATOM      3  C   UNK d   1      90.407  95.143 -46.250  0.00  0.00     0.735 A 
ATOM      4  N   UNK d   1      89.763  95.630 -47.336  0.00  0.00     0.045 NA
ATOM      5  N   UNK d   1      89.427  96.876 -47.136  0.00  0.00    -0.114 NA
ATOM      6  N   UNK d   1      91.008  94.059 -45.737  0.00  0.00    -0.174 N 
ATOM      7  C   UNK d   1      91.455  94.350 -44.521  0.00  0.00     0.165 A 
ATOM      8  C   UNK d   1      91.104  95.690 -44.283  0.00  0.00     0.170 A 
ATOM      9  N   UNK d   1      91.444  96.265 -43.123  0.00  0.00    -0.286 N 
ATOM     10  C   UNK d   1      92.119  95.514 -42.211  0.00  0.00     0.332 A 
ATOM     11  O   UNK d   1      92.427  96.085 -41.119  0.00  0.00    -0.246 OA
ATOM     12  N   UNK d   1      92.473  94.244 -42.386  0.00  0.00    -0.269 N 
ATOM     13  C   UNK d   1      92.139  93.668 -43.542  0.00  0.00     0.282 A 
ATOM     14  O   UNK d   1      92.449  92.468 -43.759  0.00  0.00    -0.265 OA
ATOM     15  C   UNK d   1      93.204  93.500 -41.345  0.00  0.00     0.164 C 
ATOM     16  C   UNK d   1      91.151  97.638 -42.830  0.00  0.00     0.163 C 
ATOM     17  C   UNK d   1      91.159  92.770 -46.381  0.00  0.00     0.176 C 
ENDROOT
BRANCH   1  18
ATOM     18  C   UNK d   1      89.617  98.602 -45.397  0.00  0.00     0.047 A 
ATOM     19  C   UNK d   1      88.454  98.912 -44.697  0.00  0.00     0.037 A 
ATOM     20  C   UNK d   1      88.282 100.165 -44.176  0.00  0.00     0.012 A 
ATOM     21 Br   UNK d   1      86.687 100.609 -43.208  0.00  0.00    -0.051 Br
ATOM     22  C   UNK d   1      89.220 101.174 -44.305  0.00  0.00     0.022 A 
ATOM     23  C   UNK d   1      90.371 100.852 -45.004  0.00  0.00     0.039 A 
ATOM     24  C   UNK d   1      90.553  99.607 -45.528  0.00  0.00     0.082 A 
BRANCH  24  25
ATOM     25  O   UNK d   1      91.723  99.265 -46.242  0.00  0.00    -0.355 OA
ATOM     26  C   UNK d   1      92.975  99.180 -45.587  0.00  0.00     0.210 C 
ENDBRANCH  24  25
ENDBRANCH   1  18
TORSDOF 2
ENDMDL
