MODEL 1
REMARK VINA RESULT:    -6.719      0.000      0.000
REMARK INTER + INTRA:          -7.732
REMARK INTER:                  -7.505
REMARK INTRA:                  -0.227
REMARK UNBOUND:                -0.227
REMARK  2 active torsions:
REMARK  status: ('A' for Active; 'I' for Inactive)
REMARK    1  A    between atoms: C_7  and  C_11 
REMARK    2  A    between atoms: C_11  and  N_12 
ROOT
ATOM      1 Cl   UNK d   1      91.082  91.477 -47.657  0.00  0.00    -0.083 Cl
ATOM      2  C   UNK d   1      91.257  92.718 -46.427  0.00  0.00     0.050 A 
ATOM      3  C   UNK d   1      90.738  93.990 -46.580  0.00  0.00     0.125 A 
ATOM      4  N   UNK d   1      90.880  94.943 -45.623  0.00  0.00    -0.272 N 
ATOM      5  C   UNK d   1      91.529  94.716 -44.468  0.00  0.00     0.137 A 
ATOM      6  N   UNK d   1      91.675  95.654 -43.513  0.00  0.00    -0.233 NA
ATOM      7  C   UNK d   1      91.174  96.894 -43.654  0.00  0.00     0.059 A 
ATOM      8  C   UNK d   1      90.496  97.138 -44.850  0.00  0.00     0.103 A 
ATOM      9  C   UNK d   1      90.354  96.170 -45.821  0.00  0.00     0.255 A 
ATOM     10  O   UNK d   1      89.736  96.399 -46.910  0.00  0.00    -0.268 OA
ATOM     11  C   UNK d   1      92.061  93.446 -44.288  0.00  0.00     0.053 A 
ATOM     12  C   UNK d   1      91.928  92.464 -45.249  0.00  0.00     0.029 A 
ENDROOT
BRANCH   7  13
ATOM     13  C   UNK d   1      91.308  97.961 -42.630  0.00  0.00     0.177 C 
BRANCH  13  14
ATOM     14  N   UNK d   1      91.341  99.223 -43.271  0.00  0.00    -0.401 N 
ATOM     15  C   UNK d   1      92.562  99.639 -43.851  0.00  0.00     0.122 C 
ATOM     16  C   UNK d   1      92.758 101.147 -43.887  0.00  0.00     0.061 C 
ATOM     17  C   UNK d   1      92.463 101.629 -42.512  0.00  0.00    -0.013 A 
ATOM     18  C   UNK d   1      91.298 101.155 -41.947  0.00  0.00     0.061 A 
ATOM     19  C   UNK d   1      93.318 102.492 -41.866  0.00  0.00     0.128 A 
ATOM     20  N   UNK d   1      90.990 101.561 -40.706  0.00  0.00    -0.236 NA
ATOM     21  C   UNK d   1      90.472 100.229 -42.761  0.00  0.00     0.177 C 
ATOM     22  C   UNK d   1      91.815 102.420 -40.032  0.00  0.00     0.122 A 
ATOM     23  N   UNK d   1      92.952 102.864 -40.620  0.00  0.00    -0.245 NA
ATOM     24  C   UNK d   1      91.485 102.876 -38.657  0.00  0.00     0.093 C 
ENDBRANCH  13  14
ENDBRANCH   7  13
TORSDOF 2
ENDMDL
