MODEL 1
REMARK VINA RESULT:    -5.388      0.000      0.000
REMARK INTER + INTRA:          -4.429
REMARK INTER:                  -6.018
REMARK INTRA:                   1.589
REMARK UNBOUND:                 1.589
REMARK  2 active torsions:
REMARK  status: ('A' for Active; 'I' for Inactive)
REMARK    1  A    between atoms: C_4  and  C_10 
REMARK    2  A    between atoms: C_5  and  O_8 
ROOT
ATOM      1  C   UNK d   1      90.218  98.032 -43.957  0.00  0.00     0.048 C 
ATOM      2  C   UNK d   1      90.768  98.659 -45.268  0.00  0.00     0.178 C 
ATOM      3  C   UNK d   1      92.260  98.357 -45.028  0.00  0.00     0.233 C 
ATOM      4  O   UNK d   1      92.992  97.852 -45.859  0.00  0.00    -0.273 OA
ATOM      5  N   UNK d   1      92.651  98.757 -43.694  0.00  0.00    -0.334 N 
ATOM      6  C   UNK d   1      91.737  99.730 -43.069  0.00  0.00     0.105 C 
ATOM      7  N   UNK d   1      91.519 100.718 -44.135  0.00  0.00    -0.334 N 
ATOM      8  C   UNK d   1      90.768 100.154 -45.229  0.00  0.00     0.233 C 
ATOM      9  O   UNK d   1      90.167 100.838 -46.077  0.00  0.00    -0.273 OA
ATOM     10  C   UNK d   1      90.373  99.004 -42.913  0.00  0.00     0.064 C 
ATOM     11  C   UNK d   1      92.195 100.312 -41.805  0.00  0.00     0.063 C 
ATOM     12  H   UNK d   1      93.474  98.393 -43.207  0.00  0.00     0.165 HD
ATOM     13  H   UNK d   1      91.868 101.682 -44.091  0.00  0.00     0.165 HD
ENDROOT
BRANCH   1  14
ATOM     14  C   UNK d   1      90.862  96.724 -43.932  0.00  0.00    -0.018 A 
ATOM     15  C   UNK d   1      90.746  95.940 -45.087  0.00  0.00     0.029 A 
ATOM     16  C   UNK d   1      91.250  94.638 -45.132  0.00  0.00     0.011 A 
ATOM     17 Br   UNK d   1      91.063  93.600 -46.714  0.00  0.00    -0.051 Br
ATOM     18  C   UNK d   1      91.873  94.085 -44.059  0.00  0.00     0.022 A 
ATOM     19  C   UNK d   1      91.994  94.836 -42.924  0.00  0.00     0.038 A 
ATOM     20  C   UNK d   1      91.502  96.128 -42.859  0.00  0.00     0.074 A 
BRANCH  20  21
ATOM     21  O   UNK d   1      91.617  96.909 -41.744  0.00  0.00    -0.355 OA
ATOM     22  C   UNK d   1      92.430  96.494 -40.680  0.00  0.00     0.210 C 
ENDBRANCH  20  21
ENDBRANCH   1  14
TORSDOF 2
ENDMDL
