/Users/jonathanwahrer/Desktop/Msc/3_Semester/Drug_Design_Praktikum/waehrer_HTS_screening/HTS_experiment/out/docking_results/vina_output/4agl/2028_docked.pdbqt
 OpenBabel03212200503D

 31 34  0  0  1  0  0  0  0  0999 V2000
   83.9860  100.5370  -42.8000 Cl  0  0  0  0  0  0  0  0  0  0  0  0
   85.1920   99.9990  -43.9660 C   0  0  0  0  0  0  0  0  0  0  0  0
   86.5480  100.2270  -43.6700 C   0  0  0  0  0  0  0  0  0  0  0  0
   87.4780   99.8050  -44.5730 C   0  0  0  0  0  0  0  0  0  0  0  0
   87.1180   99.1730  -45.7550 C   0  0  0  0  0  3  0  0  0  0  0  0
   85.7840   98.9650  -46.0190 C   0  0  0  0  0  0  0  0  0  0  0  0
   84.8120   99.3710  -45.1320 C   0  0  0  0  0  3  0  0  0  0  0  0
   85.4220   98.2780  -47.3080 C   0  0  0  0  0  1  0  0  0  0  0  0
   88.8220  100.0490  -43.9660 C   0  0  2  0  0  0  0  0  0  0  0  0
   89.8210  100.4620  -44.8680 N   0  0  0  0  0  0  0  0  0  0  0  0
   90.4370   99.2710  -45.3790 C   0  0  2  0  0  3  0  0  0  0  0  0
   89.9760   98.1110  -44.5950 C   0  0  2  0  0  3  0  0  0  0  0  0
   89.3720   98.7930  -43.3650 C   0  0  1  0  0  3  0  0  0  0  0  0
   90.5590   99.0010  -42.5560 C   0  0  0  0  0  0  0  0  0  0  0  0
   90.9380   99.9270  -41.8050 O   0  0  0  0  0  0  0  0  0  0  0  0
   91.3630   97.8100  -42.7680 N   0  0  0  0  0  0  0  0  0  0  0  0
   90.9890   97.2390  -44.0120 C   0  0  0  0  0  0  0  0  0  0  0  0
   91.4540   96.1940  -44.4870 O   0  0  0  0  0  0  0  0  0  0  0  0
   88.5380  100.9870  -42.8830 C   0  0  0  0  0  0  0  0  0  0  0  0
   89.3010  101.7600  -42.2210 O   0  0  0  0  0  0  0  0  0  0  0  0
   87.1570  100.9520  -42.6080 N   0  0  0  0  0  0  0  0  0  0  0  0
   89.4530  101.0680  -45.6410 H   0  0  0  0  0  0  0  0  0  0  0  0
   86.6210  101.3600  -41.8000 H   0  0  0  0  0  0  0  0  0  0  0  0
   91.9410   99.4160  -45.5150 C   0  0  2  0  0  3  0  0  0  0  0  0
   92.3240  100.8390  -45.2700 C   0  0  0  0  0  1  0  0  0  0  0  0
   92.4840   98.8230  -46.6160 O   0  0  0  0  0  0  0  0  0  0  0  0
   92.3190   99.3020  -47.4680 H   0  0  0  0  0  0  0  0  0  0  0  0
   92.3670   97.2530  -41.9000 C   0  0  0  0  0  2  0  0  0  0  0  0
   91.9390   96.0910  -41.0830 C   0  0  0  0  0  2  0  0  0  0  0  0
   92.5380   94.8910  -41.3210 O   0  0  0  0  0  0  0  0  0  0  0  0
   91.7270   93.9290  -41.8860 C   0  0  0  0  0  1  0  0  0  0  0  0
  2  3  1  0  0  0  0
  2  1  1  0  0  0  0
  3 21  1  0  0  0  0
  4  3  2  0  0  0  0
  5  4  1  0  0  0  0
  6  5  2  0  0  0  0
  6  7  1  0  0  0  0
  7  2  2  0  0  0  0
  8  6  1  0  0  0  0
  9  4  1  6  0  0  0
  9 13  1  0  0  0  0
  9 19  1  0  0  0  0
 10  9  1  0  0  0  0
 11 24  1  1  0  0  0
 11 10  1  0  0  0  0
 11 12  1  0  0  0  0
 12 17  1  1  0  0  0
 12 13  1  0  0  0  0
 13 14  1  1  0  0  0
 14 15  2  0  0  0  0
 16 14  1  0  0  0  0
 16 28  1  0  0  0  0
 17 16  1  0  0  0  0
 18 17  2  0  0  0  0
 19 21  1  0  0  0  0
 19 20  2  0  0  0  0
 21 23  1  0  0  0  0
 22 10  1  0  0  0  0
 24 25  1  6  0  0  0
 26 24  1  0  0  0  0
 27 26  1  0  0  0  0
 28 29  1  0  0  0  0
 30 29  1  0  0  0  0
 31 30  1  0  0  0  0
M  END
>  <Pose>
1

>  <Score>
-5.830

$$$$
