MODEL 1
REMARK VINA RESULT:    -6.080      0.000      0.000
REMARK INTER + INTRA:          -9.136
REMARK INTER:                  -7.858
REMARK INTRA:                  -1.278
REMARK UNBOUND:                -1.278
REMARK  5 active torsions:
REMARK  status: ('A' for Active; 'I' for Inactive)
REMARK    1  A    between atoms: C_4  and  C_10 
REMARK    2  A    between atoms: C_5  and  O_8 
REMARK    3  A    between atoms: C_18  and  C_19 
REMARK    4  A    between atoms: C_19  and  N_20 
REMARK    5  A    between atoms: N_23  and  C_26 
ROOT
ATOM      1  C   UNK d   1      91.361  97.098 -44.927  0.00  0.00     0.055 C 
ATOM      2  C   UNK d   1      90.259  97.737 -45.153  0.00  0.00     0.128 A 
ATOM      3  O   UNK d   1      88.999  97.210 -45.179  0.00  0.00    -0.305 OA
ATOM      4  C   UNK d   1      88.085  98.228 -45.447  0.00  0.00     0.101 A 
ATOM      5  C   UNK d   1      88.693  99.432 -45.609  0.00  0.00     0.051 A 
ATOM      6  C   UNK d   1      87.949 100.589 -45.868  0.00  0.00     0.021 A 
ATOM      7  C   UNK d   1      86.583 100.570 -45.974  0.00  0.00     0.041 A 
ATOM      8  C   UNK d   1      86.001  99.300 -45.804  0.00  0.00     0.118 A 
ATOM      9  C   UNK d   1      86.691  98.165 -45.548  0.00  0.00     0.039 A 
ATOM     10  O   UNK d   1      84.597  99.332 -45.941  0.00  0.00    -0.191 OA
ATOM     11  C   UNK d   1      90.124  99.169 -45.427  0.00  0.00     0.218 A 
ATOM     12  O   UNK d   1      91.057 100.021 -45.494  0.00  0.00    -0.284 OA
ENDROOT
BRANCH   1  13
ATOM     13  C   UNK d   1      91.509  95.676 -44.651  0.00  0.00     0.001 A 
ATOM     14  C   UNK d   1      91.458  94.764 -45.673  0.00  0.00     0.033 A 
ATOM     15  C   UNK d   1      91.561  93.386 -45.411  0.00  0.00     0.011 A 
ATOM     16 Br   UNK d   1      91.503  92.092 -46.797  0.00  0.00    -0.051 Br
ATOM     17  C   UNK d   1      91.713  92.958 -44.111  0.00  0.00     0.022 A 
ATOM     18  C   UNK d   1      91.760  93.860 -43.097  0.00  0.00     0.039 A 
ATOM     19  C   UNK d   1      91.659  95.235 -43.357  0.00  0.00     0.078 A 
BRANCH  19  20
ATOM     20  O   UNK d   1      91.698  96.180 -42.391  0.00  0.00    -0.355 OA
ATOM     21  C   UNK d   1      92.067  96.020 -41.065  0.00  0.00     0.210 C 
ENDBRANCH  19  20
ENDBRANCH   1  13
BRANCH   9  22
ATOM     22  C   UNK d   1      86.088  96.825 -45.420  0.00  0.00     0.279 C 
BRANCH  22  23
ATOM     23  N   UNK d   1      85.424  96.423 -46.638  0.00  0.00    -0.064 N 
ATOM     24  C   UNK d   1      84.203  95.712 -46.304  0.00  0.00     0.254 C 
ATOM     25  C   UNK d   1      83.904  94.554 -47.160  0.00  0.00     0.144 C 
ATOM     26  N   UNK d   1      84.355  94.635 -48.512  0.00  0.00    -0.410 N 
ATOM     27  C   UNK d   1      85.198  95.686 -48.863  0.00  0.00     0.144 C 
ATOM     28  C   UNK d   1      86.184  95.976 -47.701  0.00  0.00     0.254 C 
ATOM     29  H   UNK d   1      85.027  97.413 -46.985  0.00  0.00     0.280 HD
BRANCH  26  30
ATOM     30  C   UNK d   1      84.477  93.416 -49.218  0.00  0.00     0.112 C 
ATOM     31  C   UNK d   1      84.216  92.185 -48.424  0.00  0.00     0.026 C 
ENDBRANCH  26  30
ENDBRANCH  22  23
ENDBRANCH   9  22
TORSDOF 5
ENDMDL
