/Users/jonathanwahrer/Desktop/Msc/3_Semester/Drug_Design_Praktikum/waehrer_HTS_screening/HTS_experiment/out/docking_results/vina_output/4agl/2033_docked.pdbqt
 OpenBabel03212200503D

 29 32  0  0  0  0  0  0  0  0999 V2000
   91.6660   98.9610  -42.2260 C   0  0  0  0  0  3  0  0  0  0  0  0
   91.6890   97.7090  -42.5930 C   0  0  0  0  0  0  0  0  0  0  0  0
   91.2760   97.2470  -43.8330 O   0  0  0  0  0  0  0  0  0  0  0  0
   91.4120   95.8760  -43.9420 C   0  0  0  0  0  0  0  0  0  0  0  0
   91.9210   95.3460  -42.7780 C   0  0  0  0  0  0  0  0  0  0  0  0
   92.1360   93.9880  -42.6710 C   0  0  0  0  0  3  0  0  0  0  0  0
   91.8340   93.1680  -43.7380 C   0  0  0  0  0  3  0  0  0  0  0  0
   91.3130   93.7350  -44.9180 C   0  0  0  0  0  0  0  0  0  0  0  0
   91.0940   95.0730  -45.0470 C   0  0  0  0  0  0  0  0  0  0  0  0
   91.0530   92.7820  -45.9150 O   0  0  0  0  0  1  0  0  0  0  0  0
   92.1130   96.4960  -41.8880 C   0  0  0  0  0  0  0  0  0  0  0  0
   92.5610   96.4630  -40.7210 O   0  0  0  0  0  0  0  0  0  0  0  0
   91.2110  100.0860  -43.0260 C   0  0  0  0  0  0  0  0  0  0  0  0
   92.0750  100.9410  -43.6740 C   0  0  0  0  0  3  0  0  0  0  0  0
   91.6700  102.0110  -44.4180 C   0  0  0  0  0  0  0  0  0  0  0  0
   92.8370  103.2130  -45.3260 Br  0  0  0  0  0  0  0  0  0  0  0  0
   90.3010  102.2380  -44.5180 C   0  0  0  0  0  3  0  0  0  0  0  0
   89.3810  101.4090  -43.8860 C   0  0  0  0  0  3  0  0  0  0  0  0
   89.8440  100.3520  -43.1520 C   0  0  0  0  0  0  0  0  0  0  0  0
   88.9570   99.5120  -42.5080 O   0  0  0  0  0  0  0  0  0  0  0  0
   87.7430   99.1600  -43.1180 C   0  0  0  0  0  1  0  0  0  0  0  0
   90.5840   95.7080  -46.2300 C   0  0  0  0  0  2  0  0  0  0  0  0
   89.2100   95.8240  -46.5020 N   0  0  0  0  0  4  0  0  0  0  0  0
   88.5710   97.0130  -46.0060 C   0  0  0  0  0  2  0  0  0  0  0  0
   88.7470   98.2220  -46.8910 C   0  0  0  0  0  2  0  0  0  0  0  0
   89.5980   98.0040  -47.9660 O   0  0  0  0  0  0  0  0  0  0  0  0
   89.0440   96.9600  -48.6980 C   0  0  0  0  0  2  0  0  0  0  0  0
   88.9070   95.6820  -47.9380 C   0  0  0  0  0  2  0  0  0  0  0  0
   88.7100   95.0090  -46.0910 H   0  0  0  0  0  0  0  0  0  0  0  0
  2  1  2  0  0  0  0
  2 11  1  0  0  0  0
  3  2  1  0  0  0  0
  4  3  1  0  0  0  0
  4  5  1  0  0  0  0
  5  6  2  0  0  0  0
  5 11  1  0  0  0  0
  7  6  1  0  0  0  0
  8  7  2  0  0  0  0
  9  8  1  0  0  0  0
  9  4  2  0  0  0  0
 10  8  1  0  0  0  0
 11 12  2  0  0  0  0
 13  1  1  0  0  0  0
 14 13  2  0  0  0  0
 15 14  1  0  0  0  0
 16 15  1  0  0  0  0
 17 15  2  0  0  0  0
 17 18  1  0  0  0  0
 18 19  2  0  0  0  0
 19 13  1  0  0  0  0
 19 20  1  0  0  0  0
 21 20  1  0  0  0  0
 22  9  1  0  0  0  0
 23 22  1  0  0  0  0
 23 29  1  0  0  0  0
 23 24  1  0  0  0  0
 25 24  1  0  0  0  0
 26 25  1  0  0  0  0
 27 26  1  0  0  0  0
 27 28  1  0  0  0  0
 28 23  1  0  0  0  0
M  END
>  <Pose>
1

>  <Score>
-6.096

$$$$
