MODEL 1
REMARK VINA RESULT:    -5.767      0.000      0.000
REMARK INTER + INTRA:          -8.616
REMARK INTER:                  -7.453
REMARK INTRA:                  -1.164
REMARK UNBOUND:                -1.164
REMARK  5 active torsions:
REMARK  status: ('A' for Active; 'I' for Inactive)
REMARK    1  A    between atoms: S_1  and  N_4 
REMARK    2  A    between atoms: S_1  and  C_24 
REMARK       I    between atoms: N_7  and  C_10 
REMARK    3  A    between atoms: C_10  and  C_12 
REMARK    4  A    between atoms: C_12  and  S_13 
REMARK    5  A    between atoms: S_13  and  C_14 
ROOT
ATOM      1  N   UNK d   1      89.999  98.053 -44.198  0.00  0.00    -0.203 NA
ATOM      2  C   UNK d   1      88.620  98.036 -44.641  0.00  0.00     0.127 C 
ATOM      3  C   UNK d   1      87.817  99.112 -43.921  0.00  0.00     0.141 C 
ATOM      4  N   UNK d   1      88.417 100.406 -44.246  0.00  0.00    -0.349 N 
ATOM      5  C   UNK d   1      89.688 100.336 -44.903  0.00  0.00     0.141 C 
ATOM      6  C   UNK d   1      90.552  99.372 -44.133  0.00  0.00     0.127 C 
ATOM      7  C   UNK d   1      87.729 101.579 -43.920  0.00  0.00     0.229 C 
ATOM      8  O   UNK d   1      86.571 101.482 -43.341  0.00  0.00    -0.273 OA
ENDROOT
BRANCH   7   9
ATOM      9  C   UNK d   1      88.136 102.969 -44.146  0.00  0.00     0.183 C 
BRANCH   9  10
ATOM     10  S   UNK d   1      89.129 103.675 -42.837  0.00  0.00    -0.100 SA
BRANCH  10  11
ATOM     11  C   UNK d   1      90.808 103.074 -42.788  0.00  0.00     0.110 A 
ATOM     12  N   UNK d   1      91.566 103.058 -43.877  0.00  0.00    -0.234 NA
ATOM     13  C   UNK d   1      92.833 102.636 -43.889  0.00  0.00     0.236 A 
ATOM     14  N   UNK d   1      93.379 102.195 -42.713  0.00  0.00    -0.222 NA
ATOM     15  C   UNK d   1      92.641 102.199 -41.598  0.00  0.00     0.161 A 
ATOM     16  N   UNK d   1      92.942 101.828 -40.320  0.00  0.00    -0.256 N 
ATOM     17  C   UNK d   1      91.330 102.636 -41.590  0.00  0.00     0.066 A 
ATOM     18  N   UNK d   1      91.878 102.026 -39.570  0.00  0.00    -0.182 NA
ATOM     19  C   UNK d   1      94.207 101.321 -39.874  0.00  0.00     0.182 C 
ATOM     20  C   UNK d   1      90.876 102.517 -40.303  0.00  0.00     0.157 A 
ENDBRANCH  10  11
ENDBRANCH   9  10
ENDBRANCH   7   9
BRANCH   1  21
ATOM     21  S   UNK d   1      90.953  97.032 -45.199  0.00  0.00     0.243 S 
ATOM     22  O   UNK d   1      90.055  96.550 -46.314  0.00  0.00    -0.206 OA
ATOM     23  O   UNK d   1      92.085  97.765 -45.836  0.00  0.00    -0.206 OA
BRANCH  21  24
ATOM     24  C   UNK d   1      91.533  95.672 -44.265  0.00  0.00     0.074 A 
ATOM     25  C   UNK d   1      91.911  94.464 -44.807  0.00  0.00     0.026 A 
ATOM     26  C   UNK d   1      92.350  93.429 -44.018  0.00  0.00     0.025 A 
ATOM     27  C   UNK d   1      92.424  93.587 -42.635  0.00  0.00     0.034 A 
ATOM     28  C   UNK d   1      92.042  94.808 -42.070  0.00  0.00     0.025 A 
ATOM     29 Cl   UNK d   1      92.984  92.264 -41.646  0.00  0.00    -0.084 Cl
ATOM     30  C   UNK d   1      91.606  95.832 -42.882  0.00  0.00     0.026 A 
ENDBRANCH  21  24
ENDBRANCH   1  21
TORSDOF 5
ENDMDL
