MODEL 1
REMARK VINA RESULT:    -5.997      0.000      0.000
REMARK INTER + INTRA:          -8.491
REMARK INTER:                  -7.750
REMARK INTRA:                  -0.741
REMARK UNBOUND:                -0.741
REMARK  5 active torsions:
REMARK  status: ('A' for Active; 'I' for Inactive)
REMARK    1  A    between atoms: C_3  and  N_18 
REMARK    2  A    between atoms: C_5  and  N_8 
REMARK    3  A    between atoms: N_8  and  C_9 
REMARK    4  A    between atoms: C_9  and  C_10 
REMARK       I    between atoms: C_10  and  N_12 
REMARK    5  A    between atoms: C_22  and  C_23 
ROOT
ATOM      1 Cl   UNK d   1      94.288 103.337 -42.548  0.00  0.00    -0.082 Cl
ATOM      2  C   UNK d   1      93.298 101.912 -42.483  0.00  0.00     0.063 A 
ATOM      3  C   UNK d   1      92.969 101.330 -41.285  0.00  0.00     0.086 A 
ATOM      4  C   UNK d   1      92.181 100.201 -41.299  0.00  0.00     0.062 A 
ATOM      5  C   UNK d   1      91.703  99.625 -42.456  0.00  0.00     0.030 A 
ATOM      6  C   UNK d   1      92.043 100.222 -43.649  0.00  0.00     0.031 A 
ATOM      7  C   UNK d   1      92.832 101.352 -43.645  0.00  0.00     0.028 A 
ENDROOT
BRANCH   5   8
ATOM      8  N   UNK d   1      90.874  98.436 -42.440  0.00  0.00    -0.382 N 
ATOM      9  H   UNK d   1      89.929  98.451 -42.044  0.00  0.00     0.160 HD
BRANCH   8  10
ATOM     10  C   UNK d   1      91.443  97.260 -43.002  0.00  0.00     0.207 C 
BRANCH  10  11
ATOM     11  C   UNK d   1      91.901  96.210 -42.098  0.00  0.00     0.171 C 
ATOM     12  O   UNK d   1      92.444  96.691 -41.007  0.00  0.00    -0.175 OA
ATOM     13  N   UNK d   1      91.867  94.840 -42.182  0.00  0.00    -0.358 N 
ATOM     14  C   UNK d   1      91.245  94.070 -43.211  0.00  0.00     0.151 C 
ATOM     15  C   UNK d   1      92.554  94.024 -41.158  0.00  0.00     0.151 C 
ATOM     16  C   UNK d   1      92.309  93.192 -43.865  0.00  0.00     0.187 C 
ATOM     17  O   UNK d   1      92.735  92.322 -42.838  0.00  0.00    -0.388 OA
ATOM     18  C   UNK d   1      93.461  93.054 -41.924  0.00  0.00     0.187 C 
ENDBRANCH  10  11
ENDBRANCH   8  10
ENDBRANCH   5   8
BRANCH   3  19
ATOM     19  N   UNK d   1      93.414 101.836 -40.051  0.00  0.00    -0.196 N 
ATOM     20  N   UNK d   1      94.632 101.682 -39.575  0.00  0.00    -0.039 NA
ATOM     21  N   UNK d   1      94.741 102.280 -38.404  0.00  0.00    -0.023 NA
ATOM     22  N   UNK d   1      93.564 102.815 -38.149  0.00  0.00    -0.113 NA
ATOM     23  C   UNK d   1      92.709 102.547 -39.181  0.00  0.00     0.158 A 
BRANCH  23  24
ATOM     24  C   UNK d   1      91.319 103.001 -39.188  0.00  0.00     0.059 A 
ATOM     25  C   UNK d   1      90.784 104.116 -38.416  0.00  0.00     0.013 A 
ATOM     26  C   UNK d   1      91.084 104.363 -39.904  0.00  0.00     0.013 A 
ENDBRANCH  23  24
ENDBRANCH   3  19
TORSDOF 5
ENDMDL
