MODEL 1
REMARK VINA RESULT:    -6.797      0.000      0.000
REMARK INTER + INTRA:          -9.920
REMARK INTER:                  -9.181
REMARK INTRA:                  -0.739
REMARK UNBOUND:                -0.739
REMARK  8 active torsions:
REMARK  status: ('A' for Active; 'I' for Inactive)
REMARK    1  A    between atoms: C_5  and  C_8 
REMARK    2  A    between atoms: C_15  and  O_17 
REMARK    3  A    between atoms: O_17  and  C_18 
REMARK    4  A    between atoms: C_20  and  C_27 
REMARK    5  A    between atoms: C_21  and  O_26 
REMARK    6  A    between atoms: C_22  and  O_25 
REMARK    7  A    between atoms: C_23  and  O_24 
REMARK    8  A    between atoms: C_27  and  O_28 
ROOT
ATOM      1  C   UNK d   1      91.128  97.819 -43.875  0.00  0.00     0.048 A 
ATOM      2  C   UNK d   1      90.982  97.718 -45.256  0.00  0.00     0.159 A 
ATOM      3  O   UNK d   1      91.100  96.579 -45.897  0.00  0.00    -0.321 OA
ATOM      4  C   UNK d   1      91.365  95.446 -45.291  0.00  0.00     0.091 A 
ATOM      5  C   UNK d   1      91.526  95.446 -43.926  0.00  0.00     0.049 A 
ATOM      6  C   UNK d   1      91.802  94.238 -43.334  0.00  0.00     0.021 A 
ATOM      7  C   UNK d   1      91.920  93.064 -44.033  0.00  0.00     0.038 A 
ATOM      8  C   UNK d   1      91.758  93.041 -45.434  0.00  0.00     0.074 A 
ATOM      9  C   UNK d   1      91.482  94.254 -46.019  0.00  0.00     0.075 A 
ATOM     10  C   UNK d   1      91.409  96.625 -43.221  0.00  0.00     0.197 A 
ATOM     11  O   UNK d   1      91.556  96.627 -41.970  0.00  0.00    -0.286 OA
ENDROOT
BRANCH   8  12
ATOM     12  O   UNK d   1      91.884  91.840 -46.100  0.00  0.00    -0.318 OA
BRANCH  12  13
ATOM     13  C   UNK d   1      91.668  91.620 -47.429  0.00  0.00     0.298 C 
ATOM     14  O   UNK d   1      90.364  91.991 -47.853  0.00  0.00    -0.348 OA
ATOM     15  C   UNK d   1      90.468  92.214 -49.209  0.00  0.00     0.179 C 
ATOM     16  C   UNK d   1      90.825  91.002 -50.012  0.00  0.00     0.180 C 
ATOM     17  C   UNK d   1      91.916  90.182 -49.366  0.00  0.00     0.183 C 
ATOM     18  C   UNK d   1      91.794  90.170 -47.856  0.00  0.00     0.205 C 
BRANCH  15  19
ATOM     19  C   UNK d   1      89.244  92.872 -49.794  0.00  0.00     0.198 C 
BRANCH  19  20
ATOM     20  O   UNK d   1      88.557  92.024 -50.659  0.00  0.00    -0.398 OA
ATOM     21  H   UNK d   1      88.217  92.617 -51.400  0.00  0.00     0.209 HD
ENDBRANCH  19  20
ENDBRANCH  15  19
BRANCH  16  22
ATOM     22  O   UNK d   1      91.337  91.454 -51.239  0.00  0.00    -0.390 OA
ATOM     23  H   UNK d   1      92.234  91.070 -51.406  0.00  0.00     0.210 HD
ENDBRANCH  16  22
BRANCH  17  24
ATOM     24  O   UNK d   1      91.921  88.904 -49.909  0.00  0.00    -0.390 OA
ATOM     25  H   UNK d   1      92.846  88.604 -50.164  0.00  0.00     0.210 HD
ENDBRANCH  17  24
BRANCH  18  26
ATOM     26  O   UNK d   1      92.940  89.578 -47.338  0.00  0.00    -0.388 OA
ATOM     27  H   UNK d   1      93.096  89.870 -46.409  0.00  0.00     0.210 HD
ENDBRANCH  18  26
ENDBRANCH  12  13
ENDBRANCH   8  12
BRANCH   1  28
ATOM     28  C   UNK d   1      90.993  99.087 -43.189  0.00  0.00    -0.020 A 
ATOM     29  C   UNK d   1      92.065  99.906 -42.899  0.00  0.00     0.014 A 
ATOM     30  C   UNK d   1      91.866 101.111 -42.237  0.00  0.00     0.020 A 
ATOM     31  C   UNK d   1      90.617 101.536 -41.847  0.00  0.00     0.011 A 
ATOM     32 Br   UNK d   1      90.359 103.198 -40.936  0.00  0.00    -0.051 Br
ATOM     33  C   UNK d   1      89.539 100.713 -42.137  0.00  0.00     0.020 A 
ATOM     34  C   UNK d   1      89.737  99.516 -42.795  0.00  0.00     0.014 A 
ENDBRANCH   1  28
TORSDOF 8
ENDMDL
