/Users/jonathanwahrer/Desktop/Msc/3_Semester/Drug_Design_Praktikum/waehrer_HTS_screening/HTS_experiment/out/docking_results/vina_output/4agl/2063_docked.pdbqt
 OpenBabel03212200523D

 34 37  0  0  1  0  0  0  0  0999 V2000
   91.1280   97.8190  -43.8750 C   0  0  0  0  0  0  0  0  0  0  0  0
   90.9820   97.7180  -45.2560 C   0  0  0  0  0  3  0  0  0  0  0  0
   91.1000   96.5790  -45.8970 O   0  0  0  0  0  0  0  0  0  0  0  0
   91.3650   95.4460  -45.2910 C   0  0  0  0  0  0  0  0  0  0  0  0
   91.5260   95.4460  -43.9260 C   0  0  0  0  0  0  0  0  0  0  0  0
   91.8020   94.2380  -43.3340 C   0  0  0  0  0  3  0  0  0  0  0  0
   91.9200   93.0640  -44.0330 C   0  0  0  0  0  3  0  0  0  0  0  0
   91.7580   93.0410  -45.4340 C   0  0  0  0  0  0  0  0  0  0  0  0
   91.4820   94.2540  -46.0190 C   0  0  0  0  0  3  0  0  0  0  0  0
   91.4090   96.6250  -43.2210 C   0  0  0  0  0  0  0  0  0  0  0  0
   91.5560   96.6270  -41.9700 O   0  0  0  0  0  0  0  0  0  0  0  0
   91.8840   91.8400  -46.1000 O   0  0  0  0  0  0  0  0  0  0  0  0
   91.6680   91.6200  -47.4290 C   0  0  2  0  0  3  0  0  0  0  0  0
   90.3640   91.9910  -47.8530 O   0  0  0  0  0  0  0  0  0  0  0  0
   90.4680   92.2140  -49.2090 C   0  0  1  0  0  3  0  0  0  0  0  0
   90.8250   91.0020  -50.0120 C   0  0  2  0  0  3  0  0  0  0  0  0
   91.9160   90.1820  -49.3660 C   0  0  1  0  0  3  0  0  0  0  0  0
   91.7940   90.1700  -47.8560 C   0  0  1  0  0  3  0  0  0  0  0  0
   89.2440   92.8720  -49.7940 C   0  0  0  0  0  2  0  0  0  0  0  0
   88.5570   92.0240  -50.6590 O   0  0  0  0  0  0  0  0  0  0  0  0
   88.2170   92.6170  -51.4000 H   0  0  0  0  0  0  0  0  0  0  0  0
   91.3370   91.4540  -51.2390 O   0  0  0  0  0  0  0  0  0  0  0  0
   92.2340   91.0700  -51.4060 H   0  0  0  0  0  0  0  0  0  0  0  0
   91.9210   88.9040  -49.9090 O   0  0  0  0  0  0  0  0  0  0  0  0
   92.8460   88.6040  -50.1640 H   0  0  0  0  0  0  0  0  0  0  0  0
   92.9400   89.5780  -47.3380 O   0  0  0  0  0  0  0  0  0  0  0  0
   93.0960   89.8700  -46.4090 H   0  0  0  0  0  0  0  0  0  0  0  0
   90.9930   99.0870  -43.1890 C   0  0  0  0  0  0  0  0  0  0  0  0
   92.0650   99.9060  -42.8990 C   0  0  0  0  0  3  0  0  0  0  0  0
   91.8660  101.1110  -42.2370 C   0  0  0  0  0  3  0  0  0  0  0  0
   90.6170  101.5360  -41.8470 C   0  0  0  0  0  0  0  0  0  0  0  0
   90.3590  103.1980  -40.9360 Br  0  0  0  0  0  0  0  0  0  0  0  0
   89.5390  100.7130  -42.1370 C   0  0  0  0  0  3  0  0  0  0  0  0
   89.7370   99.5160  -42.7950 C   0  0  0  0  0  3  0  0  0  0  0  0
  1 10  1  0  0  0  0
  1 28  1  0  0  0  0
  2  1  2  0  0  0  0
  3  4  1  0  0  0  0
  3  2  1  0  0  0  0
  4  5  1  0  0  0  0
  5  6  2  0  0  0  0
  5 10  1  0  0  0  0
  7  6  1  0  0  0  0
  8  7  2  0  0  0  0
  9  8  1  0  0  0  0
  9  4  2  0  0  0  0
 10 11  2  0  0  0  0
 12  8  1  0  0  0  0
 13 12  1  1  0  0  0
 14 13  1  0  0  0  0
 15 19  1  6  0  0  0
 15 14  1  0  0  0  0
 16 22  1  6  0  0  0
 16 17  1  0  0  0  0
 16 15  1  0  0  0  0
 17 24  1  6  0  0  0
 17 18  1  0  0  0  0
 18 13  1  0  0  0  0
 18 26  1  1  0  0  0
 20 19  1  0  0  0  0
 21 20  1  0  0  0  0
 23 22  1  0  0  0  0
 25 24  1  0  0  0  0
 26 27  1  0  0  0  0
 28 29  2  0  0  0  0
 28 34  1  0  0  0  0
 29 30  1  0  0  0  0
 30 31  2  0  0  0  0
 31 32  1  0  0  0  0
 33 31  1  0  0  0  0
 34 33  2  0  0  0  0
M  END
>  <Pose>
1

>  <Score>
-6.797

$$$$
