MODEL 1
REMARK VINA RESULT:    -7.263      0.000      0.000
REMARK INTER + INTRA:         -10.764
REMARK INTER:                  -9.599
REMARK INTRA:                  -1.166
REMARK UNBOUND:                -1.166
REMARK  6 active torsions:
REMARK  status: ('A' for Active; 'I' for Inactive)
REMARK    1  A    between atoms: C_5  and  C_8 
REMARK    2  A    between atoms: C_12  and  C_17 
REMARK    3  A    between atoms: C_17  and  N_18 
REMARK    4  A    between atoms: N_21  and  C_24 
REMARK    5  A    between atoms: C_24  and  C_25 
REMARK    6  A    between atoms: C_25  and  O_26 
ROOT
ATOM      1  C   UNK d   1      91.457  93.251 -45.903  0.00  0.00     0.051 A 
ATOM      2  C   UNK d   1      91.962  92.799 -44.706  0.00  0.00     0.032 A 
ATOM      3  C   UNK d   1      92.075  93.700 -43.639  0.00  0.00    -0.000 A 
ATOM      4  C   UNK d   1      91.696  95.018 -43.769  0.00  0.00     0.100 A 
ATOM      5  C   UNK d   1      91.767  95.986 -42.766  0.00  0.00     0.039 A 
ATOM      6  C   UNK d   1      92.274  95.487 -41.539  0.00  0.00     0.118 A 
ATOM      7  C   UNK d   1      92.663  94.162 -41.366  0.00  0.00     0.041 A 
ATOM      8  C   UNK d   1      92.555  93.276 -42.426  0.00  0.00     0.017 A 
ATOM      9  O   UNK d   1      92.423  96.276 -40.415  0.00  0.00    -0.191 OA
ATOM     10  O   UNK d   1      91.234  95.393 -44.893  0.00  0.00    -0.273 OA
ATOM     11  C   UNK d   1      91.086  94.611 -45.965  0.00  0.00     0.299 A 
ATOM     12  O   UNK d   1      90.636  95.045 -47.032  0.00  0.00    -0.259 OA
ENDROOT
BRANCH   5  13
ATOM     13  C   UNK d   1      91.250  97.309 -42.776  0.00  0.00     0.279 C 
BRANCH  13  14
ATOM     14  N   UNK d   1      92.051  98.505 -42.717  0.00  0.00    -0.064 N 
ATOM     15  C   UNK d   1      92.343  99.036 -44.077  0.00  0.00     0.265 C 
ATOM     16  C   UNK d   1      91.137  98.913 -44.939  0.00  0.00     0.300 C 
ATOM     17  N   UNK d   1      89.972  99.632 -44.477  0.00  0.00     0.093 N 
ATOM     18  C   UNK d   1      89.932  99.780 -43.062  0.00  0.00     0.300 C 
ATOM     19  C   UNK d   1      91.138  99.605 -42.266  0.00  0.00     0.265 C 
ATOM     20  H   UNK d   1      92.836  98.559 -42.109  0.00  0.00     0.280 HD
BRANCH  17  21
ATOM     21  C   UNK d   1      88.746  98.974 -44.956  0.00  0.00     0.298 C 
BRANCH  21  22
ATOM     22  C   UNK d   1      89.018  98.030 -46.104  0.00  0.00     0.194 C 
BRANCH  22  23
ATOM     23  O   UNK d   1      88.500  96.762 -45.889  0.00  0.00    -0.399 OA
ATOM     24  H   UNK d   1      88.594  96.548 -44.907  0.00  0.00     0.209 HD
ENDBRANCH  22  23
ENDBRANCH  21  22
ENDBRANCH  17  21
ENDBRANCH  13  14
ENDBRANCH   5  13
BRANCH   1  25
ATOM     25  C   UNK d   1      91.199  92.335 -47.032  0.00  0.00    -0.020 A 
ATOM     26  C   UNK d   1      91.961  91.151 -47.072  0.00  0.00     0.014 A 
ATOM     27  C   UNK d   1      91.738  90.220 -48.070  0.00  0.00     0.024 A 
ATOM     28  C   UNK d   1      90.776  90.410 -49.056  0.00  0.00     0.034 A 
ATOM     29 Cl   UNK d   1      90.411  89.184 -50.294  0.00  0.00    -0.084 Cl
ATOM     30  C   UNK d   1      90.035  91.578 -49.011  0.00  0.00     0.024 A 
ATOM     31  C   UNK d   1      90.278  92.495 -48.004  0.00  0.00     0.014 A 
ENDBRANCH   1  25
TORSDOF 6
ENDMDL
