/Users/jonathanwahrer/Desktop/Msc/3_Semester/Drug_Design_Praktikum/waehrer_HTS_screening/HTS_experiment/out/docking_results/vina_output/4agl/2079_docked.pdbqt
 OpenBabel03212200523D

 31 34  0  0  0  0  0  0  0  0999 V2000
   91.4570   93.2510  -45.9030 C   0  0  0  0  0  0  0  0  0  0  0  0
   91.9620   92.7990  -44.7060 C   0  0  0  0  0  3  0  0  0  0  0  0
   92.0750   93.7000  -43.6390 C   0  0  0  0  0  0  0  0  0  0  0  0
   91.6960   95.0180  -43.7690 C   0  0  0  0  0  0  0  0  0  0  0  0
   91.7670   95.9860  -42.7660 C   0  0  0  0  0  0  0  0  0  0  0  0
   92.2740   95.4870  -41.5390 C   0  0  0  0  0  0  0  0  0  0  0  0
   92.6630   94.1620  -41.3660 C   0  0  0  0  0  3  0  0  0  0  0  0
   92.5550   93.2760  -42.4260 C   0  0  0  0  0  3  0  0  0  0  0  0
   92.4230   96.2760  -40.4150 O   0  0  0  0  0  1  0  0  0  0  0  0
   91.2340   95.3930  -44.8930 O   0  0  0  0  0  0  0  0  0  0  0  0
   91.0860   94.6110  -45.9650 C   0  0  0  0  0  0  0  0  0  0  0  0
   90.6360   95.0450  -47.0320 O   0  0  0  0  0  0  0  0  0  0  0  0
   91.2500   97.3090  -42.7760 C   0  0  0  0  0  2  0  0  0  0  0  0
   92.0510   98.5050  -42.7170 N   0  0  0  0  0  4  0  0  0  0  0  0
   92.3430   99.0360  -44.0770 C   0  0  0  0  0  2  0  0  0  0  0  0
   91.1370   98.9130  -44.9390 C   0  0  0  0  0  2  0  0  0  0  0  0
   89.9720   99.6320  -44.4770 N   0  0  0  0  0  0  0  0  0  0  0  0
   89.9320   99.7800  -43.0620 C   0  0  0  0  0  2  0  0  0  0  0  0
   91.1380   99.6050  -42.2660 C   0  0  0  0  0  2  0  0  0  0  0  0
   92.8360   98.5590  -42.1090 H   0  0  0  0  0  0  0  0  0  0  0  0
   88.7460   98.9740  -44.9560 C   0  0  0  0  0  2  0  0  0  0  0  0
   89.0180   98.0300  -46.1040 C   0  0  0  0  0  2  0  0  0  0  0  0
   88.5000   96.7620  -45.8890 O   0  0  0  0  0  0  0  0  0  0  0  0
   88.5940   96.5480  -44.9070 H   0  0  0  0  0  0  0  0  0  0  0  0
   91.1990   92.3350  -47.0320 C   0  0  0  0  0  0  0  0  0  0  0  0
   91.9610   91.1510  -47.0720 C   0  0  0  0  0  3  0  0  0  0  0  0
   91.7380   90.2200  -48.0700 C   0  0  0  0  0  3  0  0  0  0  0  0
   90.7760   90.4100  -49.0560 C   0  0  0  0  0  0  0  0  0  0  0  0
   90.4110   89.1840  -50.2940 Cl  0  0  0  0  0  0  0  0  0  0  0  0
   90.0350   91.5780  -49.0110 C   0  0  0  0  0  3  0  0  0  0  0  0
   90.2780   92.4950  -48.0040 C   0  0  0  0  0  3  0  0  0  0  0  0
  1  2  2  0  0  0  0
  2  3  1  0  0  0  0
  3  8  1  0  0  0  0
  4  3  2  0  0  0  0
  4  5  1  0  0  0  0
  5  6  2  0  0  0  0
  6  7  1  0  0  0  0
  6  9  1  0  0  0  0
  8  7  2  0  0  0  0
 10  4  1  0  0  0  0
 11  1  1  0  0  0  0
 11 10  1  0  0  0  0
 12 11  2  0  0  0  0
 13  5  1  0  0  0  0
 13 14  1  0  0  0  0
 14 19  1  0  0  0  0
 14 20  1  0  0  0  0
 15 14  1  0  0  0  0
 16 17  1  0  0  0  0
 16 15  1  0  0  0  0
 17 18  1  0  0  0  0
 18 19  1  0  0  0  0
 21 17  1  0  0  0  0
 22 23  1  0  0  0  0
 22 21  1  0  0  0  0
 23 24  1  0  0  0  0
 25  1  1  0  0  0  0
 26 25  1  0  0  0  0
 27 26  2  0  0  0  0
 28 30  2  0  0  0  0
 28 27  1  0  0  0  0
 29 28  1  0  0  0  0
 30 31  1  0  0  0  0
 31 25  2  0  0  0  0
M  END
>  <Pose>
1

>  <Score>
-7.263

$$$$
