/Users/jonathanwahrer/Desktop/Msc/3_Semester/Drug_Design_Praktikum/waehrer_HTS_screening/HTS_experiment/out/docking_results/vina_output/4agl/2091_docked.pdbqt
 OpenBabel03212200533D

 28 31  0  0  0  0  0  0  0  0999 V2000
   90.7990   97.6100  -44.6270 N   0  0  0  0  0  0  0  0  0  0  0  0
   91.1030   96.3190  -44.4270 C   0  0  0  0  0  0  0  0  0  0  0  0
   91.5230   96.1560  -43.1260 C   0  0  0  0  0  0  0  0  0  0  0  0
   91.4610   97.3580  -42.5720 N   0  0  0  0  0  0  0  0  0  0  0  0
   91.0230   98.2620  -43.4600 C   0  0  0  0  0  0  0  0  0  0  0  0
   91.8960   94.9620  -42.6010 N   0  0  0  0  0  0  0  0  0  0  0  0
   91.8400   93.8970  -43.4170 C   0  0  0  0  0  0  0  0  0  0  0  0
   92.1900   92.7990  -42.9150 O   0  0  0  0  0  0  0  0  0  0  0  0
   91.4350   93.9910  -44.6950 N   0  0  0  0  0  0  0  0  0  0  0  0
   91.0640   95.1710  -45.2260 C   0  0  0  0  0  0  0  0  0  0  0  0
   90.6840   95.2910  -46.3990 O   0  0  0  0  0  0  0  0  0  0  0  0
   92.3270   94.8890  -41.2210 C   0  0  0  0  0  1  0  0  0  0  0  0
   91.3920   93.1570  -45.3200 H   0  0  0  0  0  0  0  0  0  0  0  0
   90.3290   98.2050  -45.8550 C   0  0  0  0  0  2  0  0  0  0  0  0
   88.9060   98.4390  -45.9970 C   0  0  0  0  0  0  0  0  0  0  0  0
   87.9320   97.4910  -46.0540 C   0  0  0  0  0  3  0  0  0  0  0  0
   86.5740   97.7880  -46.1510 C   0  0  0  0  0  3  0  0  0  0  0  0
   86.1740   99.1200  -46.1930 C   0  0  0  0  0  0  0  0  0  0  0  0
   84.3380   99.6170  -46.3100 Br  0  0  0  0  0  0  0  0  0  0  0  0
   87.1250  100.1130  -46.1370 C   0  0  0  0  0  3  0  0  0  0  0  0
   88.4540   99.7720  -46.0430 C   0  0  0  0  0  3  0  0  0  0  0  0
   90.8270   99.6640  -43.2340 N   0  0  0  0  0  0  0  0  0  0  0  0
   91.7100  100.5860  -43.9130 C   0  0  0  0  0  2  0  0  0  0  0  0
   92.5310  101.3080  -42.8540 C   0  0  0  0  0  2  0  0  0  0  0  0
   91.9000  101.3220  -41.5770 N   0  0  0  0  0  0  0  0  0  0  0  0
   90.4750  101.3360  -41.5810 C   0  0  0  0  0  2  0  0  0  0  0  0
   92.5350  100.6250  -40.5240 C   0  0  0  0  0  1  0  0  0  0  0  0
   89.8250  100.2280  -42.3690 C   0  0  0  0  0  2  0  0  0  0  0  0
  1  2  1  0  0  0  0
  1  5  1  0  0  0  0
  2  3  2  0  0  0  0
  3  6  1  0  0  0  0
  3  4  1  0  0  0  0
  5 22  1  0  0  0  0
  5  4  2  0  0  0  0
  6 12  1  0  0  0  0
  7  8  2  0  0  0  0
  7  6  1  0  0  0  0
  9  7  1  0  0  0  0
 10  9  1  0  0  0  0
 10  2  1  0  0  0  0
 11 10  2  0  0  0  0
 13  9  1  0  0  0  0
 14  1  1  0  0  0  0
 15 14  1  0  0  0  0
 16 15  2  0  0  0  0
 17 16  1  0  0  0  0
 18 17  2  0  0  0  0
 18 20  1  0  0  0  0
 19 18  1  0  0  0  0
 20 21  2  0  0  0  0
 21 15  1  0  0  0  0
 22 28  1  0  0  0  0
 23 22  1  0  0  0  0
 23 24  1  0  0  0  0
 24 25  1  0  0  0  0
 25 27  1  0  0  0  0
 26 25  1  0  0  0  0
 28 26  1  0  0  0  0
M  END
>  <Pose>
1

>  <Score>
-6.325

$$$$
