/Users/jonathanwahrer/Desktop/Msc/3_Semester/Drug_Design_Praktikum/waehrer_HTS_screening/HTS_experiment/out/docking_results/vina_output/4agl/2103_docked.pdbqt
 OpenBabel03212200533D

 29 32  0  0  0  0  0  0  0  0999 V2000
   91.2300   95.2730  -44.6020 C   0  0  0  0  0  0  0  0  0  0  0  0
   91.7900   94.4680  -43.5470 C   0  0  0  0  0  0  0  0  0  0  0  0
   92.1690   95.0460  -42.3910 C   0  0  0  0  0  0  0  0  0  0  0  0
   92.0280   96.4310  -42.1900 C   0  0  0  0  0  0  0  0  0  0  0  0
   91.4980   97.2140  -43.1870 C   0  0  0  0  0  0  0  0  0  0  0  0
   91.1020   96.6230  -44.3970 C   0  0  0  0  0  0  0  0  0  0  0  0
   90.6160   97.4670  -45.5200 C   0  0  0  0  0  2  0  0  0  0  0  0
   90.9850   98.9400  -45.3810 C   0  0  0  0  0  2  0  0  0  0  0  0
   90.7190   99.4350  -44.0510 N   0  0  0  0  0  0  0  0  0  0  0  0
   91.3040   98.6490  -43.0040 C   0  0  0  0  0  0  0  0  0  0  0  0
   91.6240   99.2590  -41.9630 O   0  0  0  0  0  0  0  0  0  0  0  0
   89.9280  100.6200  -43.7990 C   0  0  0  0  0  1  0  0  0  0  0  0
   92.6700   94.0280  -41.5650 O   0  0  0  0  0  0  0  0  0  0  0  0
   92.3670   92.7660  -42.1200 C   0  0  0  0  0  2  0  0  0  0  0  0
   92.0460   93.0960  -43.4570 O   0  0  0  0  0  0  0  0  0  0  0  0
   90.8770   94.4650  -45.7500 C   0  0  0  0  0  2  0  0  0  0  0  0
   91.4360   93.2280  -46.0800 N   0  0  0  0  0  0  0  0  0  0  0  0
   90.9280   92.6100  -47.3220 C   0  0  0  0  0  0  0  0  0  0  0  0
   90.0630   93.2180  -47.9750 O   0  0  0  0  0  0  0  0  0  0  0  0
   92.1740   92.6510  -45.6510 H   0  0  0  0  0  0  0  0  0  0  0  0
   91.4270   91.3310  -47.7670 C   0  0  0  0  0  0  0  0  0  0  0  0
   92.7180   90.9720  -47.3960 C   0  0  0  0  0  3  0  0  0  0  0  0
   93.2570   89.8040  -47.7730 N   0  0  0  0  0  0  0  0  0  0  0  0
   92.5480   88.9600  -48.5210 C   0  0  0  0  0  3  0  0  0  0  0  0
   91.2820   89.2590  -48.9120 C   0  0  0  0  0  0  0  0  0  0  0  0
   90.2810   88.0360  -49.9840 Br  0  0  0  0  0  0  0  0  0  0  0  0
   90.6880   90.4650  -48.5400 C   0  0  0  0  0  3  0  0  0  0  0  0
   92.4280   96.9310  -41.0070 O   0  0  0  0  0  0  0  0  0  0  0  0
   92.6970   97.8170  -40.7460 H   0  0  0  0  0  0  0  0  0  0  0  0
  1  6  2  0  0  0  0
  1  2  1  0  0  0  0
  2 15  1  0  0  0  0
  2  3  2  0  0  0  0
  3  4  1  0  0  0  0
  3 13  1  0  0  0  0
  4 28  1  0  0  0  0
  5 10  1  0  0  0  0
  5  4  2  0  0  0  0
  6  5  1  0  0  0  0
  7  8  1  0  0  0  0
  7  6  1  0  0  0  0
  8  9  1  0  0  0  0
  9 12  1  0  0  0  0
  9 10  1  0  0  0  0
 10 11  2  0  0  0  0
 14 13  1  0  0  0  0
 15 14  1  0  0  0  0
 16  1  1  0  0  0  0
 17 16  1  0  0  0  0
 17 20  1  0  0  0  0
 18 17  1  0  0  0  0
 19 18  2  0  0  0  0
 21 22  1  0  0  0  0
 21 18  1  0  0  0  0
 23 22  2  0  0  0  0
 24 23  1  0  0  0  0
 25 27  1  0  0  0  0
 25 24  2  0  0  0  0
 26 25  1  0  0  0  0
 27 21  2  0  0  0  0
 28 29  1  0  0  0  0
M  END
>  <Pose>
1

>  <Score>
-6.952

$$$$
