MODEL 1
REMARK VINA RESULT:    -6.952      0.000      0.000
REMARK INTER + INTRA:          -8.903
REMARK INTER:                  -8.374
REMARK INTRA:                  -0.529
REMARK UNBOUND:                -0.529
REMARK  4 active torsions:
REMARK  status: ('A' for Active; 'I' for Inactive)
REMARK    1  A    between atoms: C_6  and  C_8 
REMARK       I    between atoms: C_8  and  N_10 
REMARK    2  A    between atoms: N_10  and  C_11 
REMARK    3  A    between atoms: C_11  and  C_12 
REMARK    4  A    between atoms: C_15  and  O_24 
ROOT
ATOM      1  C   UNK d   1      91.230  95.273 -44.602  0.00  0.00     0.003 A 
ATOM      2  C   UNK d   1      91.790  94.468 -43.547  0.00  0.00     0.116 A 
ATOM      3  C   UNK d   1      92.169  95.046 -42.391  0.00  0.00     0.139 A 
ATOM      4  C   UNK d   1      92.028  96.431 -42.190  0.00  0.00     0.118 A 
ATOM      5  C   UNK d   1      91.498  97.214 -43.187  0.00  0.00     0.075 A 
ATOM      6  C   UNK d   1      91.102  96.623 -44.397  0.00  0.00    -0.027 A 
ATOM      7  C   UNK d   1      90.616  97.467 -45.520  0.00  0.00     0.060 C 
ATOM      8  C   UNK d   1      90.985  98.940 -45.381  0.00  0.00     0.130 C 
ATOM      9  N   UNK d   1      90.719  99.435 -44.051  0.00  0.00    -0.352 N 
ATOM     10  C   UNK d   1      91.304  98.649 -43.004  0.00  0.00     0.256 C 
ATOM     11  O   UNK d   1      91.624  99.259 -41.963  0.00  0.00    -0.267 OA
ATOM     12  C   UNK d   1      89.928 100.620 -43.799  0.00  0.00     0.152 C 
ATOM     13  O   UNK d   1      92.670  94.028 -41.565  0.00  0.00    -0.320 OA
ATOM     14  C   UNK d   1      92.367  92.766 -42.120  0.00  0.00     0.352 C 
ATOM     15  O   UNK d   1      92.046  93.096 -43.457  0.00  0.00    -0.322 OA
ENDROOT
BRANCH   1  16
ATOM     16  C   UNK d   1      90.877  94.465 -45.750  0.00  0.00     0.165 C 
BRANCH  16  17
ATOM     17  N   UNK d   1      91.436  93.228 -46.080  0.00  0.00    -0.352 N 
ATOM     18  C   UNK d   1      90.928  92.610 -47.322  0.00  0.00     0.253 C 
ATOM     19  O   UNK d   1      90.063  93.218 -47.975  0.00  0.00    -0.268 OA
ATOM     20  H   UNK d   1      92.174  92.651 -45.651  0.00  0.00     0.163 HD
BRANCH  18  21
ATOM     21  C   UNK d   1      91.427  91.331 -47.767  0.00  0.00     0.050 A 
ATOM     22  C   UNK d   1      92.718  90.972 -47.396  0.00  0.00     0.133 A 
ATOM     23  N   UNK d   1      93.257  89.804 -47.773  0.00  0.00    -0.271 NA
ATOM     24  C   UNK d   1      92.548  88.960 -48.521  0.00  0.00     0.135 A 
ATOM     25  C   UNK d   1      91.282  89.259 -48.912  0.00  0.00     0.029 A 
ATOM     26 Br   UNK d   1      90.281  88.036 -49.984  0.00  0.00    -0.050 Br
ATOM     27  C   UNK d   1      90.688  90.465 -48.540  0.00  0.00     0.039 A 
ENDBRANCH  18  21
ENDBRANCH  16  17
ENDBRANCH   1  16
BRANCH   4  28
ATOM     28  O   UNK d   1      92.428  96.931 -41.007  0.00  0.00    -0.357 OA
ATOM     29  H   UNK d   1      92.697  97.817 -40.746  0.00  0.00     0.217 HD
ENDBRANCH   4  28
TORSDOF 4
ENDMDL
