MODEL 1
REMARK VINA RESULT:    -6.416      0.000      0.000
REMARK INTER + INTRA:          -6.604
REMARK INTER:                  -6.604
REMARK INTRA:                   0.000
REMARK UNBOUND:                 0.000
REMARK  1 active torsions:
REMARK  status: ('A' for Active; 'I' for Inactive)
REMARK    1  A    between atoms: C_12  and  N_16 
ROOT
ATOM      1 Cl   UNK d   1      88.724 100.166 -48.007  0.00  0.00    -0.082 Cl
ATOM      2  C   UNK d   1      88.679  99.330 -46.469  0.00  0.00     0.061 A 
ATOM      3  C   UNK d   1      89.848  98.825 -45.901  0.00  0.00     0.065 A 
ATOM      4  C   UNK d   1      89.855  98.167 -44.706  0.00  0.00    -0.002 A 
ATOM      5  C   UNK d   1      88.629  98.023 -44.072  0.00  0.00     0.011 A 
ATOM      6  C   UNK d   1      87.464  98.516 -44.616  0.00  0.00     0.002 A 
ATOM      7  C   UNK d   1      87.477  99.176 -45.824  0.00  0.00     0.026 A 
ATOM      8  C   UNK d   1      91.240  97.763 -44.388  0.00  0.00     0.146 A 
ATOM      9  C   UNK d   1      91.343  96.260 -44.325  0.00  0.00     0.071 A 
ATOM     10  C   UNK d   1      91.791  95.612 -43.286  0.00  0.00     0.060 A 
ATOM     11  N   UNK d   1      92.225  96.290 -42.109  0.00  0.00    -0.342 N 
ATOM     12  C   UNK d   1      92.162  97.705 -42.083  0.00  0.00     0.118 A 
ATOM     13  C   UNK d   1      91.712  98.367 -43.124  0.00  0.00     0.093 A 
ATOM     14  C   UNK d   1      91.664  99.821 -43.055  0.00  0.00     0.101 C 
ATOM     15  N   UNK d   1      91.616 100.976 -43.015  0.00  0.00    -0.191 NA
ATOM     16  C   UNK d   1      91.753  94.164 -43.572  0.00  0.00     0.106 A 
ATOM     17  O   UNK d   1      91.251  94.046 -44.845  0.00  0.00    -0.301 OA
ATOM     18  C   UNK d   1      90.983  95.295 -45.357  0.00  0.00     0.294 A 
ATOM     19  O   UNK d   1      90.508  95.588 -46.509  0.00  0.00    -0.259 OA
ATOM     20  C   UNK d   1      90.925  93.474 -42.511  0.00  0.00     0.053 C 
ATOM     21  C   UNK d   1      93.139  93.545 -43.542  0.00  0.00     0.053 C 
ATOM     22  C   UNK d   1      92.041  98.258 -45.533  0.00  0.00     0.246 A 
ATOM     23  O   UNK d   1      93.308  98.133 -45.690  0.00  0.00    -0.271 OA
ATOM     24  N   UNK d   1      91.161  98.896 -46.431  0.00  0.00    -0.324 N 
ATOM     25  H   UNK d   1      92.584  95.779 -41.274  0.00  0.00     0.167 HD
ATOM     26  H   UNK d   1      91.473  99.347 -47.345  0.00  0.00     0.169 HD
ENDROOT
BRANCH  12  27
ATOM     27  N   UNK d   1      92.579  98.455 -40.938  0.00  0.00    -0.384 N 
ATOM     28  H   UNK d   1      93.236  99.241 -41.035  0.00  0.00     0.157 HD
ATOM     29  H   UNK d   1      92.208  98.190 -40.018  0.00  0.00     0.157 HD
ENDBRANCH  12  27
TORSDOF 1
ENDMDL
