MODEL 1
REMARK VINA RESULT:    -6.822      0.000      0.000
REMARK INTER + INTRA:          -7.359
REMARK INTER:                  -7.221
REMARK INTRA:                  -0.138
REMARK UNBOUND:                -0.138
REMARK  1 active torsions:
REMARK  status: ('A' for Active; 'I' for Inactive)
REMARK    1  A    between atoms: C_5  and  N_8 
ROOT
ATOM      1  N   UNK d   1      91.755  96.741 -44.183  0.00  0.00    -0.250 N 
ATOM      2  C   UNK d   1      92.209  97.950 -44.810  0.00  0.00     0.263 C 
ATOM      3  O   UNK d   1      92.612  98.065 -45.995  0.00  0.00    -0.270 OA
ATOM      4  C   UNK d   1      92.141  99.073 -43.848  0.00  0.00     0.259 C 
ATOM      5  O   UNK d   1      91.466 100.175 -44.361  0.00  0.00    -0.266 OA
ATOM      6  N   UNK d   1      90.197  99.838 -44.528  0.00  0.00    -0.288 N 
ATOM      7  C   UNK d   1      89.837  98.785 -43.686  0.00  0.00     0.125 C 
ATOM      8  C   UNK d   1      91.104  98.541 -42.865  0.00  0.00     0.144 C 
ATOM      9  C   UNK d   1      91.457  97.102 -42.835  0.00  0.00     0.240 C 
ATOM     10  O   UNK d   1      91.503  96.300 -41.854  0.00  0.00    -0.272 OA
ATOM     11  C   UNK d   1      88.631  98.904 -42.854  0.00  0.00     0.028 C 
ATOM     12  C   UNK d   1      87.805 100.121 -42.997  0.00  0.00     0.004 C 
ATOM     13  C   UNK d   1      87.862 100.583 -44.437  0.00  0.00     0.022 C 
ATOM     14  C   UNK d   1      89.305 100.905 -44.725  0.00  0.00     0.150 C 
ENDROOT
BRANCH   1  15
ATOM     15  C   UNK d   1      91.622  95.443 -44.765  0.00  0.00     0.045 A 
ATOM     16  C   UNK d   1      92.210  94.314 -44.237  0.00  0.00     0.032 A 
ATOM     17  C   UNK d   1      92.075  93.060 -44.808  0.00  0.00     0.026 A 
ATOM     18  C   UNK d   1      91.327  92.896 -45.955  0.00  0.00     0.034 A 
ATOM     19 Cl   UNK d   1      91.149  91.311 -46.688  0.00  0.00    -0.084 Cl
ATOM     20  C   UNK d   1      90.735  94.019 -46.493  0.00  0.00     0.026 A 
ATOM     21  C   UNK d   1      90.872  95.268 -45.919  0.00  0.00     0.032 A 
ENDBRANCH   1  15
TORSDOF 1
ENDMDL
