/Users/jonathanwahrer/Desktop/Msc/3_Semester/Drug_Design_Praktikum/waehrer_HTS_screening/HTS_experiment/out/docking_results/vina_output/4agl/2116_docked.pdbqt
 OpenBabel03212200543D

 33 36  0  0  0  0  0  0  0  0999 V2000
   90.7230   94.6920  -46.1290 C   0  0  0  0  0  0  0  0  0  0  0  0
   90.9380   93.6790  -46.9540 N   0  0  0  0  0  4  0  0  0  0  0  0
   91.4690   92.5010  -46.5850 C   0  0  0  0  0  0  0  0  0  0  0  0
   91.7950   92.3660  -45.2810 N   0  0  0  0  0  0  0  0  0  0  0  0
   91.5990   93.3690  -44.3850 C   0  0  0  0  0  0  0  0  0  0  0  0
   91.0580   94.5300  -44.8320 N   0  0  0  0  0  2  0  0  0  0  0  0
   90.1860   95.9150  -46.6180 N   0  0  0  0  0  0  0  0  0  0  0  0
   90.3600   96.1880  -47.5930 H   0  0  0  0  0  0  0  0  0  0  0  0
   89.4380   96.7350  -45.7900 N   0  0  0  0  0  0  0  0  0  0  0  0
   89.6130   98.0070  -45.6810 C   0  0  0  0  0  3  0  0  0  0  0  0
   88.8050   98.8220  -44.7980 C   0  0  0  0  0  0  0  0  0  0  0  0
   89.1420   98.9310  -43.4490 C   0  0  0  0  0  0  0  0  0  0  0  0
   88.4060   99.6690  -42.5580 C   0  0  0  0  0  3  0  0  0  0  0  0
   87.2770  100.3570  -42.9600 C   0  0  0  0  0  0  0  0  0  0  0  0
   86.9240  100.2660  -44.2970 C   0  0  0  0  0  0  0  0  0  0  0  0
   85.3800  101.2070  -44.8850 Br  0  0  0  0  0  0  0  0  0  0  0  0
   87.6770   99.5150  -45.1800 C   0  0  0  0  0  3  0  0  0  0  0  0
   90.2840   98.2380  -43.0350 O   0  0  0  0  0  0  0  0  0  0  0  0
   90.4720   97.3300  -43.4490 H   0  0  0  0  0  0  0  0  0  0  0  0
   86.5370  101.1060  -42.0470 O   0  0  0  0  0  0  0  0  0  0  0  0
   86.9240  101.5040  -41.2040 H   0  0  0  0  0  0  0  0  0  0  0  0
   91.6870   91.4310  -47.5190 N   0  0  0  0  0  0  0  0  0  0  0  0
   92.8280   90.5670  -47.4130 C   0  0  0  0  0  2  0  0  0  0  0  0
   92.8250   89.3540  -48.2590 C   0  0  0  0  0  2  0  0  0  0  0  0
   91.9130   89.3820  -49.3050 O   0  0  0  0  0  0  0  0  0  0  0  0
   90.6480   89.7700  -48.8850 C   0  0  0  0  0  2  0  0  0  0  0  0
   90.7290   91.2430  -48.5690 C   0  0  0  0  0  2  0  0  0  0  0  0
   91.9590   93.2200  -43.0310 N   0  0  0  0  0  0  0  0  0  0  0  0
   92.8980   92.2120  -42.6110 C   0  0  0  0  0  2  0  0  0  0  0  0
   93.9640   92.9630  -41.8000 C   0  0  0  0  0  2  0  0  0  0  0  0
   93.3400   93.7030  -40.8170 O   0  0  0  0  0  0  0  0  0  0  0  0
   92.6340   94.7660  -41.3790 C   0  0  0  0  0  2  0  0  0  0  0  0
   91.4050   94.1020  -42.0350 C   0  0  0  0  0  2  0  0  0  0  0  0
  1  6  1  0  0  0  0
  2  3  2  0  0  0  0
  2  1  2  0  0  0  0
  3  4  1  0  0  0  0
  4  5  2  0  0  0  0
  5 28  1  0  0  0  0
  6  5  1  0  0  0  0
  7  1  1  0  0  0  0
  7  9  1  0  0  0  0
  8  7  1  0  0  0  0
  9 10  2  0  0  0  0
 10 11  1  0  0  0  0
 11 12  1  0  0  0  0
 12 18  1  0  0  0  0
 12 13  2  0  0  0  0
 14 13  1  0  0  0  0
 14 20  1  0  0  0  0
 15 14  2  0  0  0  0
 16 15  1  0  0  0  0
 17 11  2  0  0  0  0
 17 15  1  0  0  0  0
 19 18  1  0  0  0  0
 20 21  1  0  0  0  0
 22 23  1  0  0  0  0
 22  3  1  0  0  0  0
 24 23  1  0  0  0  0
 25 26  1  0  0  0  0
 25 24  1  0  0  0  0
 26 27  1  0  0  0  0
 27 22  1  0  0  0  0
 28 29  1  0  0  0  0
 28 33  1  0  0  0  0
 29 30  1  0  0  0  0
 30 31  1  0  0  0  0
 32 31  1  0  0  0  0
 33 32  1  0  0  0  0
M  END
>  <Pose>
1

>  <Score>
-6.719

$$$$
