MODEL 1
REMARK VINA RESULT:    -7.124      0.000      0.000
REMARK INTER + INTRA:          -9.165
REMARK INTER:                  -8.165
REMARK INTRA:                  -1.001
REMARK UNBOUND:                -1.001
REMARK  3 active torsions:
REMARK  status: ('A' for Active; 'I' for Inactive)
REMARK    1  A    between atoms: C_7  and  C_9 
REMARK       I    between atoms: C_9  and  N_11 
REMARK    2  A    between atoms: C_14  and  N_19 
REMARK    3  A    between atoms: C_15  and  O_18 
REMARK       I    between atoms: N_22  and  C_25 
ROOT
ATOM      1  C   UNK d   1      90.157  98.401 -45.607  0.00  0.00     0.203 C 
ATOM      2  O   UNK d   1      89.872  98.686 -46.885  0.00  0.00    -0.170 OA
ATOM      3  N   UNK d   1      89.993  99.478 -44.762  0.00  0.00    -0.358 N 
ATOM      4  C   UNK d   1      89.494 100.674 -45.496  0.00  0.00     0.127 C 
ATOM      5  C   UNK d   1      87.977 100.662 -45.485  0.00  0.00     0.058 C 
ATOM      6  C   UNK d   1      87.538  99.817 -44.351  0.00  0.00     0.253 C 
ATOM      7  C   UNK d   1      88.052 100.345 -43.051  0.00  0.00     0.153 C 
ATOM      8  C   UNK d   1      89.015  99.273 -42.510  0.00  0.00     0.054 C 
ATOM      9  C   UNK d   1      90.281  99.454 -43.369  0.00  0.00     0.127 C 
ENDROOT
BRANCH   1  10
ATOM     10  C   UNK d   1      90.568  97.038 -45.413  0.00  0.00     0.088 A 
ATOM     11  N   UNK d   1      91.245  96.469 -44.413  0.00  0.00    -0.352 N 
ATOM     12  C   UNK d   1      91.450  95.139 -44.657  0.00  0.00     0.043 A 
ATOM     13  H   UNK d   1      91.581  96.899 -43.542  0.00  0.00     0.166 HD
ATOM     14  C   UNK d   1      90.883  94.863 -45.853  0.00  0.00    -0.005 A 
ATOM     15  C   UNK d   1      92.080  94.146 -43.957  0.00  0.00     0.032 A 
ATOM     16  C   UNK d   1      90.912  93.583 -46.418  0.00  0.00     0.037 A 
ATOM     17  C   UNK d   1      90.327  96.028 -46.343  0.00  0.00     0.048 A 
ATOM     18  C   UNK d   1      91.541  92.609 -45.711  0.00  0.00     0.035 A 
ATOM     19 Cl   UNK d   1      91.600  90.982 -46.393  0.00  0.00    -0.084 Cl
ATOM     20  C   UNK d   1      92.127  92.866 -44.489  0.00  0.00     0.026 A 
ENDBRANCH   1  10
BRANCH   6  21
ATOM     21  N   UNK d   1      86.149  99.501 -44.244  0.00  0.00     0.098 N 
ATOM     22  C   UNK d   1      85.855  98.102 -44.065  0.00  0.00     0.293 C 
ATOM     23  C   UNK d   1      86.264  97.294 -45.238  0.00  0.00     0.156 C 
ATOM     24  N   UNK d   1      85.592  97.881 -46.403  0.00  0.00    -0.349 N 
ATOM     25  C   UNK d   1      84.730  99.002 -46.130  0.00  0.00     0.156 C 
ATOM     26  C   UNK d   1      85.797  97.323 -47.701  0.00  0.00     0.215 C 
ATOM     27  C   UNK d   1      85.343 100.079 -45.286  0.00  0.00     0.293 C 
ATOM     28  O   UNK d   1      85.236  97.834 -48.679  0.00  0.00    -0.274 OA
ATOM     29  C   UNK d   1      86.691  96.129 -47.830  0.00  0.00     0.117 C 
ENDBRANCH   6  21
BRANCH   7  30
ATOM     30  O   UNK d   1      87.055 100.639 -42.124  0.00  0.00    -0.393 OA
ATOM     31  H   UNK d   1      87.332 101.513 -41.697  0.00  0.00     0.210 HD
ENDBRANCH   7  30
TORSDOF 3
ENDMDL
