MODEL 1
REMARK VINA RESULT:    -5.814      0.000      0.000
REMARK INTER + INTRA:          -9.406
REMARK INTER:                  -7.853
REMARK INTRA:                  -1.553
REMARK UNBOUND:                -1.553
REMARK  6 active torsions:
REMARK  status: ('A' for Active; 'I' for Inactive)
REMARK    1  A    between atoms: N_11  and  C_12 
REMARK    2  A    between atoms: C_12  and  C_13 
REMARK    3  A    between atoms: C_16  and  C_18 
REMARK       I    between atoms: C_18  and  N_20 
REMARK    4  A    between atoms: N_20  and  C_21 
REMARK    5  A    between atoms: C_21  and  C_22 
REMARK    6  A    between atoms: C_22  and  N_23 
ROOT
ATOM      1  C   UNK d   1      89.834  97.629 -45.756  0.00  0.00     0.174 A 
ATOM      2  N   UNK d   1      89.538  97.415 -47.050  0.00  0.00    -0.109 NA
ATOM      3  O   UNK d   1      88.253  97.268 -47.206  0.00  0.00    -0.186 OA
ATOM      4  C   UNK d   1      87.702  97.384 -46.015  0.00  0.00     0.264 A 
ATOM      5  N   UNK d   1      88.660  97.605 -45.111  0.00  0.00    -0.198 NA
ENDROOT
BRANCH   1   6
ATOM      6  C   UNK d   1      91.198  97.871 -45.213  0.00  0.00     0.217 C 
BRANCH   6   7
ATOM      7  N   UNK d   1      91.426  97.060 -44.052  0.00  0.00    -0.283 N 
ATOM      8  C   UNK d   1      91.577  95.737 -43.939  0.00  0.00     0.075 A 
ATOM      9  C   UNK d   1      91.568  94.712 -44.874  0.00  0.00     0.056 A 
ATOM     10  C   UNK d   1      91.780  95.407 -42.597  0.00  0.00     0.108 A 
ATOM     11  C   UNK d   1      91.761  93.408 -44.428  0.00  0.00     0.036 A 
ATOM     12 Cl   UNK d   1      91.749  92.105 -45.606  0.00  0.00    -0.084 Cl
ATOM     13  C   UNK d   1      91.960  93.116 -43.090  0.00  0.00     0.026 A 
ATOM     14  C   UNK d   1      91.968  94.123 -42.176  0.00  0.00     0.041 A 
ATOM     15  O   UNK d   1      91.739  96.548 -41.979  0.00  0.00    -0.259 OA
ATOM     16  C   UNK d   1      91.534  97.544 -42.802  0.00  0.00     0.373 A 
ATOM     17  O   UNK d   1      91.456  98.748 -42.438  0.00  0.00    -0.237 OA
ENDBRANCH   6   7
ENDBRANCH   1   6
BRANCH   4  18
ATOM     18  C   UNK d   1      86.217  97.270 -45.825  0.00  0.00     0.297 C 
ATOM     19  O   UNK d   1      85.716  96.455 -46.676  0.00  0.00    -0.264 OA
ATOM     20  N   UNK d   1      85.597  97.972 -44.859  0.00  0.00    -0.352 N 
ATOM     21  H   UNK d   1      84.411  97.373 -45.197  0.00  0.00     0.162 HD
BRANCH  20  22
ATOM     22  C   UNK d   1      84.945  98.685 -43.871  0.00  0.00     0.142 C 
BRANCH  22  23
ATOM     23  C   UNK d   1      85.453 100.125 -43.723  0.00  0.00     0.136 C 
BRANCH  23  24
ATOM     24  N   UNK d   1      86.827 100.301 -43.979  0.00  0.00    -0.407 N 
ATOM     25  C   UNK d   1      87.574 100.319 -42.783  0.00  0.00     0.143 C 
ATOM     26  C   UNK d   1      88.847 101.089 -42.894  0.00  0.00     0.187 C 
ATOM     27  O   UNK d   1      89.431 100.815 -44.104  0.00  0.00    -0.388 OA
ATOM     28  C   UNK d   1      88.718 101.285 -45.191  0.00  0.00     0.187 C 
ATOM     29  C   UNK d   1      87.235 101.102 -45.059  0.00  0.00     0.143 C 
ENDBRANCH  23  24
ENDBRANCH  22  23
ENDBRANCH  20  22
ENDBRANCH   4  18
TORSDOF 6
ENDMDL
