/Users/jonathanwahrer/Desktop/Msc/3_Semester/Drug_Design_Praktikum/waehrer_HTS_screening/HTS_experiment/out/docking_results/vina_output/4agl/2124_docked.pdbqt
 OpenBabel03212200543D

 25 29  0  0  1  0  0  0  0  0999 V2000
   91.2580   98.7040  -43.4170 N   0  0  0  0  0  0  0  0  0  0  0  0
   90.1290   99.5170  -43.1350 C   0  0  0  0  0  0  0  0  0  0  0  0
   89.1050   99.1460  -42.5020 O   0  0  0  0  0  0  0  0  0  0  0  0
   90.3200  100.8940  -43.7010 C   0  0  1  0  0  3  0  0  0  0  0  0
   90.2030  101.9340  -42.6370 C   0  0  2  0  0  0  0  0  0  0  0  0
   91.3650  102.7310  -42.7870 O   0  0  0  0  0  0  0  0  0  0  0  0
   92.2960  101.6620  -42.7320 C   0  0  2  0  0  0  0  0  0  0  0  0
   91.8310  100.9060  -43.9730 C   0  0  1  0  0  3  0  0  0  0  0  0
   92.2610   99.5160  -44.0130 C   0  0  0  0  0  0  0  0  0  0  0  0
   93.3520   99.1240  -44.5020 O   0  0  0  0  0  0  0  0  0  0  0  0
   91.8660  100.9960  -41.4790 C   0  0  0  0  0  2  0  0  0  0  0  0
   90.5520  101.2710  -41.3400 C   0  0  0  0  0  2  0  0  0  0  0  0
   93.7050  102.0840  -42.7670 C   0  0  0  0  0  1  0  0  0  0  0  0
   91.4570   97.3060  -43.1850 C   0  0  0  0  0  0  0  0  0  0  0  0
   91.7440   96.7810  -41.9480 C   0  0  0  0  0  3  0  0  0  0  0  0
   91.9360   95.4270  -41.7360 C   0  0  0  0  0  3  0  0  0  0  0  0
   91.8430   94.5470  -42.7870 C   0  0  0  0  0  0  0  0  0  0  0  0
   92.0850   92.8120  -42.5640 Cl  0  0  0  0  0  0  0  0  0  0  0  0
   91.5570   95.0590  -44.0330 C   0  0  0  0  0  3  0  0  0  0  0  0
   91.3640   96.4220  -44.2440 C   0  0  0  0  0  3  0  0  0  0  0  0
   88.9630  102.7190  -42.6010 C   0  0  0  0  0  3  0  0  0  0  0  0
   89.2930  104.0730  -42.6870 O   0  0  0  0  0  0  0  0  0  0  0  0
   89.3600  104.4150  -44.0150 C   0  0  0  0  0  2  0  0  0  0  0  0
   88.4210  103.4290  -44.6590 C   0  0  0  0  0  2  0  0  0  0  0  0
   88.1970  102.4360  -43.7320 O   0  0  0  0  0  0  0  0  0  0  0  0
  1 14  1  0  0  0  0
  1  2  1  0  0  0  0
  2  3  2  0  0  0  0
  4  2  1  1  0  0  0
  4  5  1  0  0  0  0
  5 21  1  1  0  0  0
  5 12  1  0  0  0  0
  6  7  1  0  0  0  0
  6  5  1  0  0  0  0
  7 13  1  6  0  0  0
  7 11  1  0  0  0  0
  8  9  1  1  0  0  0
  8  4  1  0  0  0  0
  8  7  1  0  0  0  0
  9  1  1  0  0  0  0
 10  9  2  0  0  0  0
 11 12  1  0  0  0  0
 14 15  1  0  0  0  0
 15 16  2  0  0  0  0
 17 18  1  0  0  0  0
 17 16  1  0  0  0  0
 19 17  2  0  0  0  0
 20 19  1  0  0  0  0
 20 14  2  0  0  0  0
 22 21  1  0  0  0  0
 23 22  1  0  0  0  0
 24 23  1  0  0  0  0
 24 25  1  0  0  0  0
 25 21  1  0  0  0  0
M  END
>  <Pose>
1

>  <Score>
-5.906

$$$$
