MODEL 1
REMARK VINA RESULT:    -5.906      0.000      0.000
REMARK INTER + INTRA:          -6.867
REMARK INTER:                  -6.596
REMARK INTRA:                  -0.271
REMARK UNBOUND:                -0.271
REMARK  2 active torsions:
REMARK  status: ('A' for Active; 'I' for Inactive)
REMARK    1  A    between atoms: C_5  and  N_8 
REMARK    2  A    between atoms: C_12  and  C_21 
ROOT
ATOM      1  N   UNK d   1      91.258  98.704 -43.417  0.00  0.00    -0.252 N 
ATOM      2  C   UNK d   1      90.129  99.517 -43.135  0.00  0.00     0.239 C 
ATOM      3  O   UNK d   1      89.105  99.146 -42.502  0.00  0.00    -0.272 OA
ATOM      4  C   UNK d   1      90.320 100.894 -43.701  0.00  0.00     0.138 C 
ATOM      5  C   UNK d   1      90.203 101.934 -42.637  0.00  0.00     0.142 C 
ATOM      6  O   UNK d   1      91.365 102.731 -42.787  0.00  0.00    -0.355 OA
ATOM      7  C   UNK d   1      92.296 101.662 -42.732  0.00  0.00     0.089 C 
ATOM      8  C   UNK d   1      91.831 100.906 -43.973  0.00  0.00     0.133 C 
ATOM      9  C   UNK d   1      92.261  99.516 -44.013  0.00  0.00     0.239 C 
ATOM     10  O   UNK d   1      93.352  99.124 -44.502  0.00  0.00    -0.272 OA
ATOM     11  C   UNK d   1      91.866 100.996 -41.479  0.00  0.00     0.010 C 
ATOM     12  C   UNK d   1      90.552 101.271 -41.340  0.00  0.00     0.016 C 
ATOM     13  C   UNK d   1      93.705 102.084 -42.767  0.00  0.00     0.051 C 
ENDROOT
BRANCH   1  14
ATOM     14  C   UNK d   1      91.457  97.306 -43.185  0.00  0.00     0.045 A 
ATOM     15  C   UNK d   1      91.744  96.781 -41.948  0.00  0.00     0.032 A 
ATOM     16  C   UNK d   1      91.936  95.427 -41.736  0.00  0.00     0.026 A 
ATOM     17  C   UNK d   1      91.843  94.547 -42.787  0.00  0.00     0.034 A 
ATOM     18 Cl   UNK d   1      92.085  92.812 -42.564  0.00  0.00    -0.084 Cl
ATOM     19  C   UNK d   1      91.557  95.059 -44.033  0.00  0.00     0.026 A 
ATOM     20  C   UNK d   1      91.364  96.422 -44.244  0.00  0.00     0.032 A 
ENDBRANCH   1  14
BRANCH   5  21
ATOM     21  C   UNK d   1      88.963 102.719 -42.601  0.00  0.00     0.298 C 
ATOM     22  O   UNK d   1      89.293 104.073 -42.687  0.00  0.00    -0.356 OA
ATOM     23  C   UNK d   1      89.360 104.415 -44.015  0.00  0.00     0.197 C 
ATOM     24  C   UNK d   1      88.421 103.429 -44.659  0.00  0.00     0.197 C 
ATOM     25  O   UNK d   1      88.197 102.436 -43.732  0.00  0.00    -0.356 OA
ENDBRANCH   5  21
TORSDOF 2
ENDMDL
