MODEL 1
REMARK VINA RESULT:    -8.479      0.000      0.000
REMARK INTER + INTRA:         -10.518
REMARK INTER:                 -10.462
REMARK INTRA:                  -0.055
REMARK UNBOUND:                -0.055
REMARK  4 active torsions:
REMARK  status: ('A' for Active; 'I' for Inactive)
REMARK    1  A    between atoms: C_5  and  N_8 
REMARK       I    between atoms: N_8  and  C_9 
REMARK       I    between atoms: C_9  and  N_11 
REMARK    2  A    between atoms: N_11  and  N_12 
REMARK       I    between atoms: N_12  and  C_13 
REMARK    3  A    between atoms: C_13  and  C_15 
REMARK    4  A    between atoms: N_17  and  C_26 
ROOT
ATOM      1  C   UNK d   1      90.893  96.149 -44.628  0.00  0.00     0.244 A 
ATOM      2  N   UNK d   1      90.665  97.424 -44.427  0.00  0.00    -0.127 NA
ATOM      3  N   UNK d   1      91.074  97.843 -43.187  0.00  0.00    -0.058 N 
ATOM      4  C   UNK d   1      91.623  96.689 -42.549  0.00  0.00     0.756 A 
ATOM      5  N   UNK d   1      92.157  96.497 -41.379  0.00  0.00     0.020 NA
ATOM      6  N   UNK d   1      92.635  95.223 -40.974  0.00  0.00    -0.258 N 
ATOM      7  C   UNK d   1      92.559  94.097 -41.814  0.00  0.00     0.110 A 
ATOM      8  C   UNK d   1      92.993  92.899 -41.446  0.00  0.00     0.050 C 
ATOM      9  C   UNK d   1      91.965  94.292 -43.132  0.00  0.00     0.295 A 
ATOM     10  O   UNK d   1      91.888  93.317 -43.886  0.00  0.00    -0.265 OA
ATOM     11  N   UNK d   1      91.508  95.603 -43.467  0.00  0.00    -0.080 N 
ATOM     12  H   UNK d   1      93.046  95.178 -40.014  0.00  0.00     0.190 HD
ENDROOT
BRANCH   1  13
ATOM     13  C   UNK d   1      90.563  95.435 -45.846  0.00  0.00     0.308 C 
ATOM     14  N   UNK d   1      91.117  94.152 -46.072  0.00  0.00    -0.259 N 
ATOM     15  H   UNK d   1      91.730  93.681 -45.391  0.00  0.00     0.190 HD
ATOM     16  O   UNK d   1      89.791  95.941 -46.721  0.00  0.00    -0.262 OA
BRANCH  14  17
ATOM     17  N   UNK d   1      90.810  93.496 -47.258  0.00  0.00    -0.248 N 
ATOM     18  C   UNK d   1      90.823  92.106 -47.483  0.00  0.00     0.339 C 
ATOM     19  N   UNK d   1      90.499  91.506 -48.712  0.00  0.00    -0.308 N 
ATOM     20  O   UNK d   1      91.140  91.347 -46.527  0.00  0.00    -0.245 OA
ATOM     21  H   UNK d   1      90.239  92.112 -49.530  0.00  0.00     0.170 HD
ATOM     22  H   UNK d   1      90.551  94.157 -48.061  0.00  0.00     0.192 HD
BRANCH  19  23
ATOM     23  C   UNK d   1      90.484  90.106 -48.971  0.00  0.00     0.036 A 
ATOM     24  C   UNK d   1      89.280  89.422 -49.121  0.00  0.00     0.031 A 
ATOM     25  C   UNK d   1      89.236  88.068 -49.372  0.00  0.00     0.026 A 
ATOM     26  C   UNK d   1      90.436  87.413 -49.470  0.00  0.00     0.034 A 
ATOM     27 Cl   UNK d   1      90.487  85.675 -49.796  0.00  0.00    -0.084 Cl
ATOM     28  C   UNK d   1      91.642  88.045 -49.330  0.00  0.00     0.026 A 
ATOM     29  C   UNK d   1      91.673  89.398 -49.079  0.00  0.00     0.031 A 
ENDBRANCH  19  23
ENDBRANCH  14  17
ENDBRANCH   1  13
BRANCH   3  30
ATOM     30  C   UNK d   1      90.925  99.152 -42.645  0.00  0.00     0.077 A 
ATOM     31  C   UNK d   1      89.693  99.752 -42.550  0.00  0.00     0.033 A 
ATOM     32  C   UNK d   1      89.486 101.007 -41.993  0.00  0.00     0.009 A 
ATOM     33  C   UNK d   1      90.557 101.723 -41.497  0.00  0.00    -0.062 A 
ATOM     34  C   UNK d   1      91.805 101.143 -41.585  0.00  0.00     0.009 A 
ATOM     35  C   UNK d   1      90.375 103.061 -40.856  0.00  0.00     0.048 C 
ATOM     36  C   UNK d   1      91.982  99.881 -42.150  0.00  0.00     0.033 A 
ENDBRANCH   3  30
TORSDOF 4
ENDMDL
