MODEL 1
REMARK VINA RESULT:    -6.318      0.000      0.000
REMARK INTER + INTRA:          -8.250
REMARK INTER:                  -7.611
REMARK INTRA:                  -0.639
REMARK UNBOUND:                -0.639
REMARK  4 active torsions:
REMARK  status: ('A' for Active; 'I' for Inactive)
REMARK    1  A    between atoms: C_5  and  C_8 
REMARK    2  A    between atoms: C_8  and  N_9 
REMARK    3  A    between atoms: N_12  and  C_15 
REMARK    4  A    between atoms: C_17  and  N_24 
ROOT
ATOM      1  N   UNK d   1      91.700 100.602 -42.491  0.00  0.00    -0.405 N 
ATOM      2  C   UNK d   1      92.551 100.640 -43.612  0.00  0.00     0.137 C 
ATOM      3  C   UNK d   1      92.588  99.404 -44.469  0.00  0.00     0.144 C 
ATOM      4  N   UNK d   1      91.313  98.686 -44.205  0.00  0.00    -0.360 N 
ATOM      5  C   UNK d   1      90.196  99.542 -44.060  0.00  0.00     0.144 C 
ATOM      6  C   UNK d   1      90.330 100.242 -42.725  0.00  0.00     0.137 C 
ENDROOT
BRANCH   4   7
ATOM      7  C   UNK d   1      91.379  97.277 -44.167  0.00  0.00     0.176 A 
ATOM      8  N   UNK d   1      91.177  96.570 -45.320  0.00  0.00    -0.043 NA
ATOM      9  C   UNK d   1      91.177  95.247 -45.413  0.00  0.00     0.724 A 
ATOM     10  N   UNK d   1      91.390  94.526 -44.299  0.00  0.00    -0.041 NA
ATOM     11  C   UNK d   1      91.597  95.171 -43.129  0.00  0.00     0.200 A 
ATOM     12  N   UNK d   1      91.843  94.725 -41.883  0.00  0.00    -0.222 NA
ATOM     13  C   UNK d   1      91.598  96.563 -43.025  0.00  0.00     0.129 A 
ATOM     14  C   UNK d   1      91.989  95.768 -41.064  0.00  0.00     0.210 A 
ATOM     15  N   UNK d   1      91.842  96.914 -41.752  0.00  0.00    -0.344 N 
ATOM     16  H   UNK d   1      91.922  97.863 -41.329  0.00  0.00     0.167 HD
BRANCH   9  17
ATOM     17  N   UNK d   1      90.957  94.563 -46.665  0.00  0.00    -0.231 N 
ATOM     18  H   UNK d   1      90.129  94.745 -47.249  0.00  0.00     0.174 HD
ATOM     19  H   UNK d   1      91.650  93.863 -46.998  0.00  0.00     0.174 HD
ENDBRANCH   9  17
ENDBRANCH   4   7
BRANCH   1  20
ATOM     20  C   UNK d   1      92.249 100.194 -41.255  0.00  0.00     0.155 C 
BRANCH  20  21
ATOM     21  C   UNK d   1      92.509 101.251 -40.279  0.00  0.00    -0.041 A 
ATOM     22  C   UNK d   1      93.786 101.512 -39.852  0.00  0.00     0.010 A 
ATOM     23  C   UNK d   1      94.102 102.501 -38.927  0.00  0.00     0.024 A 
ATOM     24  C   UNK d   1      93.057 103.248 -38.426  0.00  0.00     0.034 A 
ATOM     25 Cl   UNK d   1      93.377 104.512 -37.255  0.00  0.00    -0.084 Cl
ATOM     26  C   UNK d   1      91.775 102.988 -38.851  0.00  0.00     0.024 A 
ATOM     27  C   UNK d   1      91.484 102.005 -39.767  0.00  0.00     0.010 A 
ENDBRANCH  20  21
ENDBRANCH   1  20
TORSDOF 4
ENDMDL
