/Users/jonathanwahrer/Desktop/Msc/3_Semester/Drug_Design_Praktikum/waehrer_HTS_screening/HTS_experiment/out/docking_results/vina_output/4agl/2139_docked.pdbqt
 OpenBabel03212200553D

 27 30  0  0  0  0  0  0  0  0999 V2000
   91.7000  100.6020  -42.4910 N   0  0  0  0  0  0  0  0  0  0  0  0
   92.5510  100.6400  -43.6120 C   0  0  0  0  0  2  0  0  0  0  0  0
   92.5880   99.4040  -44.4690 C   0  0  0  0  0  2  0  0  0  0  0  0
   91.3130   98.6860  -44.2050 N   0  0  0  0  0  0  0  0  0  0  0  0
   90.1960   99.5420  -44.0600 C   0  0  0  0  0  2  0  0  0  0  0  0
   90.3300  100.2420  -42.7250 C   0  0  0  0  0  2  0  0  0  0  0  0
   91.3790   97.2770  -44.1670 C   0  0  0  0  0  0  0  0  0  0  0  0
   91.1770   96.5700  -45.3200 N   0  0  0  0  0  0  0  0  0  0  0  0
   91.1770   95.2470  -45.4130 C   0  0  0  0  0  0  0  0  0  0  0  0
   91.3900   94.5260  -44.2990 N   0  0  0  0  0  0  0  0  0  0  0  0
   91.5970   95.1710  -43.1290 C   0  0  0  0  0  0  0  0  0  0  0  0
   91.8430   94.7250  -41.8830 N   0  0  0  0  0  0  0  0  0  0  0  0
   91.5980   96.5630  -43.0250 C   0  0  0  0  0  0  0  0  0  0  0  0
   91.9890   95.7680  -41.0640 C   0  0  0  0  0  3  0  0  0  0  0  0
   91.8420   96.9140  -41.7520 N   0  0  0  0  0  0  0  0  0  0  0  0
   91.9220   97.8630  -41.3290 H   0  0  0  0  0  0  0  0  0  0  0  0
   90.9570   94.5630  -46.6650 N   0  0  0  0  0  0  0  0  0  0  0  0
   90.1290   94.7450  -47.2490 H   0  0  0  0  0  0  0  0  0  0  0  0
   91.6500   93.8630  -46.9980 H   0  0  0  0  0  0  0  0  0  0  0  0
   92.2490  100.1940  -41.2550 C   0  0  0  0  0  2  0  0  0  0  0  0
   92.5090  101.2510  -40.2790 C   0  0  0  0  0  0  0  0  0  0  0  0
   93.7860  101.5120  -39.8520 C   0  0  0  0  0  3  0  0  0  0  0  0
   94.1020  102.5010  -38.9270 C   0  0  0  0  0  3  0  0  0  0  0  0
   93.0570  103.2480  -38.4260 C   0  0  0  0  0  0  0  0  0  0  0  0
   93.3770  104.5120  -37.2550 Cl  0  0  0  0  0  0  0  0  0  0  0  0
   91.7750  102.9880  -38.8510 C   0  0  0  0  0  3  0  0  0  0  0  0
   91.4840  102.0050  -39.7670 C   0  0  0  0  0  3  0  0  0  0  0  0
  1 20  1  0  0  0  0
  2  1  1  0  0  0  0
  3  4  1  0  0  0  0
  3  2  1  0  0  0  0
  4  7  1  0  0  0  0
  4  5  1  0  0  0  0
  5  6  1  0  0  0  0
  6  1  1  0  0  0  0
  7 13  2  0  0  0  0
  8  7  1  0  0  0  0
  9  8  2  0  0  0  0
  9 10  1  0  0  0  0
 10 11  2  0  0  0  0
 11 13  1  0  0  0  0
 11 12  1  0  0  0  0
 12 14  2  0  0  0  0
 13 15  1  0  0  0  0
 15 16  1  0  0  0  0
 15 14  1  0  0  0  0
 17  9  1  0  0  0  0
 18 17  1  0  0  0  0
 19 17  1  0  0  0  0
 20 21  1  0  0  0  0
 21 22  2  0  0  0  0
 21 27  1  0  0  0  0
 22 23  1  0  0  0  0
 23 24  2  0  0  0  0
 24 25  1  0  0  0  0
 26 24  1  0  0  0  0
 27 26  2  0  0  0  0
M  END
>  <Pose>
1

>  <Score>
-6.318

$$$$
