/Users/jonathanwahrer/Desktop/Msc/3_Semester/Drug_Design_Praktikum/waehrer_HTS_screening/HTS_experiment/out/docking_results/vina_output/4agl/2149_docked.pdbqt
 OpenBabel03212200553D

 24 27  0  0  0  0  0  0  0  0999 V2000
   91.4990   97.2110  -45.0510 N   0  0  0  0  0  0  0  0  0  0  0  0
   92.6030   97.6560  -45.6210 N   0  0  0  0  0  0  0  0  0  0  0  0
   92.8560   98.9020  -45.2650 N   0  0  0  0  0  0  0  0  0  0  0  0
   91.8960   99.3080  -44.4340 C   0  0  0  0  0  0  0  0  0  0  0  0
   91.0370   98.2400  -44.2970 C   0  0  0  0  0  0  0  0  0  0  0  0
   89.9700   98.3930  -43.4990 N   0  0  0  0  0  0  0  0  0  0  0  0
   89.7490   99.5520  -42.8550 C   0  0  0  0  0  3  0  0  0  0  0  0
   90.6020  100.5810  -43.0050 N   0  0  0  0  0  0  0  0  0  0  0  0
   91.7100  100.5250  -43.7900 C   0  0  0  0  0  0  0  0  0  0  0  0
   90.8700   95.8980  -45.1760 C   0  0  0  0  0  2  0  0  0  0  0  0
   91.6130   94.9570  -44.3000 C   0  0  0  0  0  0  0  0  0  0  0  0
   91.5860   95.1870  -42.9520 C   0  0  0  0  0  3  0  0  0  0  0  0
   92.2510   94.3590  -42.0620 C   0  0  0  0  0  3  0  0  0  0  0  0
   92.9530   93.2830  -42.5450 C   0  0  0  0  0  0  0  0  0  0  0  0
   93.8060   92.2180  -41.4330 Cl  0  0  0  0  0  0  0  0  0  0  0  0
   92.9750   93.0590  -43.9070 C   0  0  0  0  0  3  0  0  0  0  0  0
   92.3160   93.8800  -44.7870 C   0  0  0  0  0  3  0  0  0  0  0  0
   92.6050  101.5980  -43.9490 N   0  0  0  0  0  0  0  0  0  0  0  0
   92.6460  102.5300  -45.0440 C   0  0  0  0  0  2  0  0  0  0  0  0
   92.4450  103.8960  -44.5020 C   0  0  0  0  0  2  0  0  0  0  0  0
   92.6350  104.1000  -43.1280 N   0  0  0  0  0  0  0  0  0  0  0  0
   93.3770  103.1860  -42.3690 C   0  0  0  0  0  2  0  0  0  0  0  0
   91.3470  104.3210  -42.4940 C   0  0  0  0  0  1  0  0  0  0  0  0
   93.6110  101.8400  -42.9450 C   0  0  0  0  0  2  0  0  0  0  0  0
  1  5  1  0  0  0  0
  2  3  2  0  0  0  0
  2  1  1  0  0  0  0
  3  4  1  0  0  0  0
  4  5  2  0  0  0  0
  4  9  1  0  0  0  0
  5  6  1  0  0  0  0
  6  7  2  0  0  0  0
  8  7  1  0  0  0  0
  9  8  2  0  0  0  0
 10  1  1  0  0  0  0
 10 11  1  0  0  0  0
 11 12  1  0  0  0  0
 12 13  2  0  0  0  0
 14 13  1  0  0  0  0
 14 15  1  0  0  0  0
 16 14  2  0  0  0  0
 17 11  2  0  0  0  0
 17 16  1  0  0  0  0
 18  9  1  0  0  0  0
 18 24  1  0  0  0  0
 19 20  1  0  0  0  0
 19 18  1  0  0  0  0
 20 21  1  0  0  0  0
 21 23  1  0  0  0  0
 21 22  1  0  0  0  0
 24 22  1  0  0  0  0
M  END
>  <Pose>
1

>  <Score>
-5.960

$$$$
