MODEL 1
REMARK VINA RESULT:    -5.960      0.000      0.000
REMARK INTER + INTRA:          -7.607
REMARK INTER:                  -7.005
REMARK INTRA:                  -0.602
REMARK UNBOUND:                -0.602
REMARK  3 active torsions:
REMARK  status: ('A' for Active; 'I' for Inactive)
REMARK    1  A    between atoms: C_5  and  C_8 
REMARK    2  A    between atoms: C_8  and  N_9 
REMARK    3  A    between atoms: C_17  and  N_18 
ROOT
ATOM      1  N   UNK d   1      91.499  97.211 -45.051  0.00  0.00    -0.227 N 
ATOM      2  N   UNK d   1      92.603  97.656 -45.621  0.00  0.00    -0.063 NA
ATOM      3  N   UNK d   1      92.856  98.902 -45.265  0.00  0.00    -0.124 NA
ATOM      4  C   UNK d   1      91.896  99.308 -44.434  0.00  0.00     0.173 A 
ATOM      5  C   UNK d   1      91.037  98.240 -44.297  0.00  0.00     0.183 A 
ATOM      6  N   UNK d   1      89.970  98.393 -43.499  0.00  0.00    -0.220 NA
ATOM      7  C   UNK d   1      89.749  99.552 -42.855  0.00  0.00     0.237 A 
ATOM      8  N   UNK d   1      90.602 100.581 -43.005  0.00  0.00    -0.222 NA
ATOM      9  C   UNK d   1      91.710 100.525 -43.790  0.00  0.00     0.162 A 
ENDROOT
BRANCH   1  10
ATOM     10  C   UNK d   1      90.870  95.898 -45.176  0.00  0.00     0.193 C 
BRANCH  10  11
ATOM     11  C   UNK d   1      91.613  94.957 -44.300  0.00  0.00    -0.038 A 
ATOM     12  C   UNK d   1      91.586  95.187 -42.952  0.00  0.00     0.010 A 
ATOM     13  C   UNK d   1      92.251  94.359 -42.062  0.00  0.00     0.024 A 
ATOM     14  C   UNK d   1      92.953  93.283 -42.545  0.00  0.00     0.034 A 
ATOM     15 Cl   UNK d   1      93.806  92.218 -41.433  0.00  0.00    -0.084 Cl
ATOM     16  C   UNK d   1      92.975  93.059 -43.907  0.00  0.00     0.024 A 
ATOM     17  C   UNK d   1      92.316  93.880 -44.787  0.00  0.00     0.010 A 
ENDBRANCH  10  11
ENDBRANCH   1  10
BRANCH   9  18
ATOM     18  N   UNK d   1      92.605 101.598 -43.949  0.00  0.00    -0.360 N 
ATOM     19  C   UNK d   1      92.646 102.530 -45.044  0.00  0.00     0.154 C 
ATOM     20  C   UNK d   1      92.445 103.896 -44.502  0.00  0.00     0.291 C 
ATOM     21  N   UNK d   1      92.635 104.100 -43.128  0.00  0.00     0.087 N 
ATOM     22  C   UNK d   1      93.377 103.186 -42.369  0.00  0.00     0.291 C 
ATOM     23  C   UNK d   1      91.347 104.321 -42.494  0.00  0.00     0.310 C 
ATOM     24  C   UNK d   1      93.611 101.840 -42.945  0.00  0.00     0.154 C 
ENDBRANCH   9  18
TORSDOF 3
ENDMDL
