/Users/jonathanwahrer/Desktop/Msc/3_Semester/Drug_Design_Praktikum/waehrer_HTS_screening/HTS_experiment/out/docking_results/vina_output/4agl/2170_docked.pdbqt
 OpenBabel03212200563D

 32 36  0  0  0  0  0  0  0  0999 V2000
   90.3650   99.0120  -44.1810 N   0  0  0  0  0  0  0  0  0  0  0  0
   90.6090   97.7780  -44.5680 N   0  0  0  0  0  0  0  0  0  0  0  0
   90.3330   97.6000  -45.8680 C   0  0  0  0  0  0  0  0  0  0  0  0
   90.5870   96.3360  -46.2410 N   0  0  0  0  0  0  0  0  0  0  0  0
   91.0420   95.6470  -45.1730 C   0  0  0  0  0  0  0  0  0  0  0  0
   91.0510   96.5710  -44.1230 C   0  0  0  0  0  0  0  0  0  0  0  0
   91.4800   96.0760  -42.9100 C   0  0  0  0  0  0  0  0  0  0  0  0
   91.5010   96.8760  -41.9270 O   0  0  0  0  0  0  0  0  0  0  0  0
   91.8750   94.7890  -42.7180 N   0  0  0  0  0  0  0  0  0  0  0  0
   91.8390   93.9650  -43.7770 C   0  0  0  0  0  0  0  0  0  0  0  0
   92.2130   92.7630  -43.5760 O   0  0  0  0  0  0  0  0  0  0  0  0
   91.4310   94.3740  -44.9860 N   0  0  0  0  0  0  0  0  0  0  0  0
   91.4150   93.4400  -46.0790 C   0  0  0  0  0  1  0  0  0  0  0  0
   92.3130   94.3490  -41.4130 C   0  0  0  0  0  1  0  0  0  0  0  0
   89.8890   98.8060  -46.3040 N   0  0  0  0  0  0  0  0  0  0  0  0
   89.9020   99.6760  -45.2850 C   0  0  0  0  0  0  0  0  0  0  0  0
   90.5140   99.6320  -42.8850 C   0  0  0  0  0  2  0  0  0  0  0  0
   91.8040  100.3220  -42.7040 C   0  0  0  0  0  0  0  0  0  0  0  0
   92.7240  100.2670  -43.5500 O   0  0  0  0  0  0  0  0  0  0  0  0
   92.0010  101.0940  -41.4840 C   0  0  0  0  0  0  0  0  0  0  0  0
   93.1890  101.0780  -40.7850 C   0  0  0  0  0  3  0  0  0  0  0  0
   93.3720  101.8130  -39.6300 C   0  0  0  0  0  3  0  0  0  0  0  0
   92.3480  102.6030  -39.1250 C   0  0  0  0  0  0  0  0  0  0  0  0
   92.5540  103.5460  -37.6590 Cl  0  0  0  0  0  0  0  0  0  0  0  0
   91.1510  102.6310  -39.8100 C   0  0  0  0  0  3  0  0  0  0  0  0
   90.9770  101.8950  -40.9630 C   0  0  0  0  0  3  0  0  0  0  0  0
   89.5180  101.0480  -45.2900 N   0  0  0  0  0  0  0  0  0  0  0  0
   90.4680  102.1070  -45.5840 C   0  0  0  0  0  2  0  0  0  0  0  0
   90.1640  103.2640  -44.6640 C   0  0  0  0  0  2  0  0  0  0  0  0
   88.8230  103.6530  -44.8090 O   0  0  0  0  0  0  0  0  0  0  0  0
   87.9580  102.7020  -44.3140 C   0  0  0  0  0  2  0  0  0  0  0  0
   88.1520  101.3980  -45.0020 C   0  0  0  0  0  2  0  0  0  0  0  0
  1 17  1  0  0  0  0
  2  1  1  0  0  0  0
  2  6  1  0  0  0  0
  3  2  1  0  0  0  0
  4  3  2  0  0  0  0
  4  5  1  0  0  0  0
  5 12  1  0  0  0  0
  5  6  2  0  0  0  0
  6  7  1  0  0  0  0
  7  9  1  0  0  0  0
  7  8  2  0  0  0  0
  9 14  1  0  0  0  0
 10 11  2  0  0  0  0
 10  9  1  0  0  0  0
 12 10  1  0  0  0  0
 13 12  1  0  0  0  0
 15  3  1  0  0  0  0
 15 16  2  0  0  0  0
 16  1  1  0  0  0  0
 17 18  1  0  0  0  0
 18 20  1  0  0  0  0
 19 18  2  0  0  0  0
 20 26  2  0  0  0  0
 20 21  1  0  0  0  0
 21 22  2  0  0  0  0
 22 23  1  0  0  0  0
 23 24  1  0  0  0  0
 25 23  2  0  0  0  0
 26 25  1  0  0  0  0
 27 16  1  0  0  0  0
 27 32  1  0  0  0  0
 28 27  1  0  0  0  0
 28 29  1  0  0  0  0
 30 29  1  0  0  0  0
 30 31  1  0  0  0  0
 32 31  1  0  0  0  0
M  END
>  <Pose>
1

>  <Score>
-6.735

$$$$
