MODEL 1
REMARK VINA RESULT:    -6.735      0.000      0.000
REMARK INTER + INTRA:          -9.454
REMARK INTER:                  -8.310
REMARK INTRA:                  -1.143
REMARK UNBOUND:                -1.143
REMARK  4 active torsions:
REMARK  status: ('A' for Active; 'I' for Inactive)
REMARK    1  A    between atoms: C_5  and  C_8 
REMARK    2  A    between atoms: C_8  and  C_10 
REMARK    3  A    between atoms: C_10  and  N_11 
REMARK    4  A    between atoms: C_26  and  N_27 
ROOT
ATOM      1  N   UNK d   1      90.365  99.012 -44.181  0.00  0.00    -0.092 N 
ATOM      2  N   UNK d   1      90.609  97.778 -44.568  0.00  0.00    -0.056 N 
ATOM      3  C   UNK d   1      90.333  97.600 -45.868  0.00  0.00     0.767 A 
ATOM      4  N   UNK d   1      90.587  96.336 -46.241  0.00  0.00    -0.040 NA
ATOM      5  C   UNK d   1      91.042  95.647 -45.173  0.00  0.00     0.188 A 
ATOM      6  C   UNK d   1      91.051  96.571 -44.123  0.00  0.00     0.190 A 
ATOM      7  C   UNK d   1      91.480  96.076 -42.910  0.00  0.00     0.284 A 
ATOM      8  O   UNK d   1      91.501  96.876 -41.927  0.00  0.00    -0.265 OA
ATOM      9  N   UNK d   1      91.875  94.789 -42.718  0.00  0.00    -0.269 N 
ATOM     10  C   UNK d   1      91.839  93.965 -43.777  0.00  0.00     0.332 A 
ATOM     11  O   UNK d   1      92.213  92.763 -43.576  0.00  0.00    -0.246 OA
ATOM     12  N   UNK d   1      91.431  94.374 -44.986  0.00  0.00    -0.285 N 
ATOM     13  C   UNK d   1      91.415  93.440 -46.079  0.00  0.00     0.163 C 
ATOM     14  C   UNK d   1      92.313  94.349 -41.413  0.00  0.00     0.164 C 
ATOM     15  N   UNK d   1      89.889  98.806 -46.304  0.00  0.00     0.132 NA
ATOM     16  C   UNK d   1      89.902  99.676 -45.285  0.00  0.00     0.736 A 
ENDROOT
BRANCH   1  17
ATOM     17  C   UNK d   1      90.514  99.632 -42.885  0.00  0.00     0.253 C 
BRANCH  17  18
ATOM     18  C   UNK d   1      91.804 100.322 -42.704  0.00  0.00     0.179 C 
ATOM     19  O   UNK d   1      92.724 100.267 -43.550  0.00  0.00    -0.290 OA
BRANCH  18  20
ATOM     20  C   UNK d   1      92.001 101.094 -41.484  0.00  0.00     0.011 A 
ATOM     21  C   UNK d   1      93.189 101.078 -40.785  0.00  0.00     0.017 A 
ATOM     22  C   UNK d   1      93.372 101.813 -39.630  0.00  0.00     0.025 A 
ATOM     23  C   UNK d   1      92.348 102.603 -39.125  0.00  0.00     0.034 A 
ATOM     24 Cl   UNK d   1      92.554 103.546 -37.659  0.00  0.00    -0.084 Cl
ATOM     25  C   UNK d   1      91.151 102.631 -39.810  0.00  0.00     0.025 A 
ATOM     26  C   UNK d   1      90.977 101.895 -40.963  0.00  0.00     0.017 A 
ENDBRANCH  18  20
ENDBRANCH  17  18
ENDBRANCH   1  17
BRANCH  16  27
ATOM     27  N   UNK d   1      89.518 101.048 -45.290  0.00  0.00    -0.210 N 
ATOM     28  C   UNK d   1      90.468 102.107 -45.584  0.00  0.00     0.167 C 
ATOM     29  C   UNK d   1      90.164 103.264 -44.664  0.00  0.00     0.188 C 
ATOM     30  O   UNK d   1      88.823 103.653 -44.809  0.00  0.00    -0.388 OA
ATOM     31  C   UNK d   1      87.958 102.702 -44.314  0.00  0.00     0.188 C 
ATOM     32  C   UNK d   1      88.152 101.398 -45.002  0.00  0.00     0.167 C 
ENDBRANCH  16  27
TORSDOF 4
ENDMDL
