MODEL 1
REMARK VINA RESULT:    -6.978      0.000      0.000
REMARK INTER + INTRA:          -8.273
REMARK INTER:                  -7.794
REMARK INTRA:                  -0.478
REMARK UNBOUND:                -0.478
REMARK  2 active torsions:
REMARK  status: ('A' for Active; 'I' for Inactive)
REMARK    1  A    between atoms: C_10  and  N_11 
REMARK    2  A    between atoms: N_14  and  C_17 
ROOT
ATOM      1  N   UNK d   1      90.214  99.659 -44.002  0.00  0.00    -0.384 N 
ATOM      2  C   UNK d   1      91.405 100.472 -44.077  0.00  0.00     0.142 C 
ATOM      3  C   UNK d   1      91.103 101.806 -43.445  0.00  0.00     0.144 C 
ATOM      4  N   UNK d   1      90.384 101.696 -42.191  0.00  0.00    -0.362 N 
ATOM      5  C   UNK d   1      89.214 100.843 -42.129  0.00  0.00     0.144 C 
ATOM      6  C   UNK d   1      89.571  99.503 -42.717  0.00  0.00     0.142 C 
ENDROOT
BRANCH   1   7
ATOM      7  C   UNK d   1      89.748  99.051 -45.199  0.00  0.00     0.134 C 
ATOM      8  C   UNK d   1      89.972  97.806 -45.549  0.00  0.00     0.124 A 
ATOM      9  N   UNK d   1      90.726  96.903 -44.746  0.00  0.00    -0.340 N 
ATOM     10  N   UNK d   1      89.451  97.315 -46.775  0.00  0.00    -0.308 N 
ATOM     11  C   UNK d   1      90.987  95.552 -45.093  0.00  0.00     0.049 A 
ATOM     12  H   UNK d   1      91.102  97.279 -43.849  0.00  0.00     0.167 HD
ATOM     13  C   UNK d   1      90.485  95.067 -46.283  0.00  0.00     0.060 A 
ATOM     14  C   UNK d   1      91.717  94.676 -44.318  0.00  0.00     0.032 A 
ATOM     15  C   UNK d   1      90.705  93.767 -46.671  0.00  0.00     0.043 A 
ATOM     16  C   UNK d   1      89.698  95.977 -47.138  0.00  0.00     0.259 A 
ATOM     17  C   UNK d   1      91.436  92.906 -45.884  0.00  0.00     0.035 A 
ATOM     18 Cl   UNK d   1      91.696  91.243 -46.420  0.00  0.00    -0.084 Cl
ATOM     19  C   UNK d   1      91.946  93.372 -44.693  0.00  0.00     0.026 A 
ATOM     20  O   UNK d   1      89.262  95.469 -48.223  0.00  0.00    -0.267 OA
ATOM     21  H   UNK d   1      88.887  97.915 -47.418  0.00  0.00     0.170 HD
ENDBRANCH   1   7
BRANCH   4  22
ATOM     22  C   UNK d   1      90.833 102.424 -41.045  0.00  0.00     0.142 A 
ATOM     23  N   UNK d   1      90.090 103.455 -40.598  0.00  0.00    -0.224 NA
ATOM     24  C   UNK d   1      90.481 104.175 -39.509  0.00  0.00     0.237 A 
ATOM     25  N   UNK d   1      91.623 103.871 -38.855  0.00  0.00    -0.222 NA
ATOM     26  C   UNK d   1      92.403 102.860 -39.252  0.00  0.00     0.162 A 
ATOM     27  N   UNK d   1      93.563 102.353 -38.797  0.00  0.00    -0.256 N 
ATOM     28  C   UNK d   1      91.988 102.132 -40.368  0.00  0.00     0.076 A 
ATOM     29  N   UNK d   1      93.886 101.341 -39.582  0.00  0.00    -0.182 NA
ATOM     30  C   UNK d   1      94.347 102.813 -37.647  0.00  0.00     0.182 C 
ATOM     31  C   UNK d   1      92.942 101.181 -40.552  0.00  0.00     0.158 A 
ENDBRANCH   4  22
TORSDOF 2
ENDMDL
