/Users/jonathanwahrer/Desktop/Msc/3_Semester/Drug_Design_Praktikum/waehrer_HTS_screening/HTS_experiment/out/docking_results/vina_output/4agl/2177_docked.pdbqt
 OpenBabel03212200563D

 31 35  0  0  0  0  0  0  0  0999 V2000
   90.2140   99.6590  -44.0020 N   0  0  0  0  0  0  0  0  0  0  0  0
   91.4050  100.4720  -44.0770 C   0  0  0  0  0  2  0  0  0  0  0  0
   91.1030  101.8060  -43.4450 C   0  0  0  0  0  2  0  0  0  0  0  0
   90.3840  101.6960  -42.1910 N   0  0  0  0  0  0  0  0  0  0  0  0
   89.2140  100.8430  -42.1290 C   0  0  0  0  0  2  0  0  0  0  0  0
   89.5710   99.5030  -42.7170 C   0  0  0  0  0  2  0  0  0  0  0  0
   89.7480   99.0510  -45.1990 C   0  0  0  0  0  3  0  0  0  0  0  0
   89.9720   97.8060  -45.5490 C   0  0  0  0  0  0  0  0  0  0  0  0
   90.7260   96.9030  -44.7460 N   0  0  0  0  0  0  0  0  0  0  0  0
   89.4510   97.3150  -46.7750 N   0  0  0  0  0  0  0  0  0  0  0  0
   90.9870   95.5520  -45.0930 C   0  0  0  0  0  0  0  0  0  0  0  0
   91.1020   97.2790  -43.8490 H   0  0  0  0  0  0  0  0  0  0  0  0
   90.4850   95.0670  -46.2830 C   0  0  0  0  0  0  0  0  0  0  0  0
   91.7170   94.6760  -44.3180 C   0  0  0  0  0  3  0  0  0  0  0  0
   90.7050   93.7670  -46.6710 C   0  0  0  0  0  3  0  0  0  0  0  0
   89.6980   95.9770  -47.1380 C   0  0  0  0  0  0  0  0  0  0  0  0
   91.4360   92.9060  -45.8840 C   0  0  0  0  0  0  0  0  0  0  0  0
   91.6960   91.2430  -46.4200 Cl  0  0  0  0  0  0  0  0  0  0  0  0
   91.9460   93.3720  -44.6930 C   0  0  0  0  0  3  0  0  0  0  0  0
   89.2620   95.4690  -48.2230 O   0  0  0  0  0  0  0  0  0  0  0  0
   88.8870   97.9150  -47.4180 H   0  0  0  0  0  0  0  0  0  0  0  0
   90.8330  102.4240  -41.0450 C   0  0  0  0  0  0  0  0  0  0  0  0
   90.0900  103.4550  -40.5980 N   0  0  0  0  0  0  0  0  0  0  0  0
   90.4810  104.1750  -39.5090 C   0  0  0  0  0  3  0  0  0  0  0  0
   91.6230  103.8710  -38.8550 N   0  0  0  0  0  0  0  0  0  0  0  0
   92.4030  102.8600  -39.2520 C   0  0  0  0  0  0  0  0  0  0  0  0
   93.5630  102.3530  -38.7970 N   0  0  0  0  0  0  0  0  0  0  0  0
   91.9880  102.1320  -40.3680 C   0  0  0  0  0  0  0  0  0  0  0  0
   93.8860  101.3410  -39.5820 N   0  0  0  0  0  0  0  0  0  0  0  0
   94.3470  102.8130  -37.6470 C   0  0  0  0  0  1  0  0  0  0  0  0
   92.9420  101.1810  -40.5520 C   0  0  0  0  0  3  0  0  0  0  0  0
  1  6  1  0  0  0  0
  2  1  1  0  0  0  0
  2  3  1  0  0  0  0
  3  4  1  0  0  0  0
  4  5  1  0  0  0  0
  4 22  1  0  0  0  0
  6  5  1  0  0  0  0
  7  1  1  0  0  0  0
  8  7  2  0  0  0  0
  8  9  1  0  0  0  0
  9 12  1  0  0  0  0
 10  8  1  0  0  0  0
 11  9  1  0  0  0  0
 11 14  1  0  0  0  0
 13 11  2  0  0  0  0
 15 13  1  0  0  0  0
 15 17  2  0  0  0  0
 16 10  1  0  0  0  0
 16 13  1  0  0  0  0
 17 19  1  0  0  0  0
 18 17  1  0  0  0  0
 19 14  2  0  0  0  0
 20 16  2  0  0  0  0
 21 10  1  0  0  0  0
 22 23  2  0  0  0  0
 22 28  1  0  0  0  0
 23 24  1  0  0  0  0
 24 25  2  0  0  0  0
 26 25  1  0  0  0  0
 26 27  1  0  0  0  0
 27 30  1  0  0  0  0
 28 26  2  0  0  0  0
 29 27  1  0  0  0  0
 31 28  1  0  0  0  0
 31 29  2  0  0  0  0
M  END
>  <Pose>
1

>  <Score>
-6.978

$$$$
