MODEL 1
REMARK VINA RESULT:    -7.143      0.000      0.000
REMARK INTER + INTRA:          -9.585
REMARK INTER:                  -8.813
REMARK INTRA:                  -0.772
REMARK UNBOUND:                -0.772
REMARK  4 active torsions:
REMARK  status: ('A' for Active; 'I' for Inactive)
REMARK    1  A    between atoms: C_13  and  C_14 
REMARK    2  A    between atoms: C_14  and  N_15 
REMARK    3  A    between atoms: N_18  and  C_21 
REMARK    4  A    between atoms: C_24  and  O_27 
ROOT
ATOM      1  N   UNK d   1      91.486  98.537 -45.724  0.00  0.00    -0.064 N 
ATOM      2  C   UNK d   1      92.669  98.966 -45.153  0.00  0.00     0.255 C 
ATOM      3  C   UNK d   1      92.701 100.531 -45.066  0.00  0.00     0.150 C 
ATOM      4  N   UNK d   1      91.653 100.701 -43.949  0.00  0.00    -0.378 N 
ATOM      5  C   UNK d   1      90.386 100.364 -44.381  0.00  0.00     0.150 C 
ATOM      6  C   UNK d   1      90.558  99.704 -45.767  0.00  0.00     0.255 C 
ATOM      7  H   UNK d   1      91.672  98.386 -46.768  0.00  0.00     0.280 HD
ENDROOT
BRANCH   1   8
ATOM      8  C   UNK d   1      90.735  97.434 -45.309  0.00  0.00     0.274 C 
BRANCH   8   9
ATOM      9  C   UNK d   1      91.144  96.574 -44.187  0.00  0.00    -0.014 A 
ATOM     10  C   UNK d   1      91.327  95.209 -44.573  0.00  0.00     0.008 A 
ATOM     11  C   UNK d   1      91.011  94.822 -45.829  0.00  0.00     0.041 A 
ATOM     12  C   UNK d   1      91.794  94.311 -43.654  0.00  0.00     0.093 A 
ATOM     13  C   UNK d   1      91.149  93.518 -46.223  0.00  0.00     0.071 A 
ATOM     14 Cl   UNK d   1      90.698  92.925 -47.825  0.00  0.00    -0.081 Cl
ATOM     15  C   UNK d   1      91.630  92.558 -45.326  0.00  0.00     0.131 A 
ATOM     16  C   UNK d   1      91.941  92.962 -44.058  0.00  0.00     0.080 A 
ATOM     17  O   UNK d   1      91.811  91.209 -45.705  0.00  0.00    -0.190 OA
ATOM     18  O   UNK d   1      92.084  94.641 -42.428  0.00  0.00    -0.275 OA
ATOM     19  C   UNK d   1      91.930  95.897 -42.022  0.00  0.00     0.288 A 
ATOM     20  O   UNK d   1      92.211  96.188 -40.853  0.00  0.00    -0.260 OA
ATOM     21  C   UNK d   1      91.451  96.884 -42.907  0.00  0.00     0.092 A 
ENDBRANCH   8   9
ENDBRANCH   1   8
BRANCH   4  22
ATOM     22  C   UNK d   1      92.231 101.094 -42.723  0.00  0.00     0.030 A 
ATOM     23  C   UNK d   1      91.918 100.622 -41.496  0.00  0.00     0.032 A 
ATOM     24  C   UNK d   1      92.726 100.897 -40.357  0.00  0.00     0.039 A 
ATOM     25  C   UNK d   1      93.862 101.656 -40.450  0.00  0.00     0.068 A 
ATOM     26  C   UNK d   1      94.189 102.154 -41.707  0.00  0.00     0.039 A 
ATOM     27  C   UNK d   1      93.394 101.884 -42.810  0.00  0.00     0.032 A 
BRANCH  25  28
ATOM     28  O   UNK d   1      94.617 101.899 -39.309  0.00  0.00    -0.356 OA
ATOM     29  C   UNK d   1      94.110 102.728 -38.252  0.00  0.00     0.210 C 
ENDBRANCH  25  28
ENDBRANCH   4  22
TORSDOF 4
ENDMDL
