/Users/jonathanwahrer/Desktop/Msc/3_Semester/Drug_Design_Praktikum/waehrer_HTS_screening/HTS_experiment/out/docking_results/vina_output/4agl/2184_docked.pdbqt
 OpenBabel03212200573D

 29 32  0  0  0  0  0  0  0  0999 V2000
   91.4860   98.5370  -45.7240 N   0  0  0  0  0  4  0  0  0  0  0  0
   92.6690   98.9660  -45.1530 C   0  0  0  0  0  2  0  0  0  0  0  0
   92.7010  100.5310  -45.0660 C   0  0  0  0  0  2  0  0  0  0  0  0
   91.6530  100.7010  -43.9490 N   0  0  0  0  0  0  0  0  0  0  0  0
   90.3860  100.3640  -44.3810 C   0  0  0  0  0  2  0  0  0  0  0  0
   90.5580   99.7040  -45.7670 C   0  0  0  0  0  2  0  0  0  0  0  0
   91.6720   98.3860  -46.7680 H   0  0  0  0  0  0  0  0  0  0  0  0
   90.7350   97.4340  -45.3090 C   0  0  0  0  0  2  0  0  0  0  0  0
   91.1440   96.5740  -44.1870 C   0  0  0  0  0  0  0  0  0  0  0  0
   91.3270   95.2090  -44.5730 C   0  0  0  0  0  0  0  0  0  0  0  0
   91.0110   94.8220  -45.8290 C   0  0  0  0  0  3  0  0  0  0  0  0
   91.7940   94.3110  -43.6540 C   0  0  0  0  0  0  0  0  0  0  0  0
   91.1490   93.5180  -46.2230 C   0  0  0  0  0  0  0  0  0  0  0  0
   90.6980   92.9250  -47.8250 Cl  0  0  0  0  0  0  0  0  0  0  0  0
   91.6300   92.5580  -45.3260 C   0  0  0  0  0  0  0  0  0  0  0  0
   91.9410   92.9620  -44.0580 C   0  0  0  0  0  3  0  0  0  0  0  0
   91.8110   91.2090  -45.7050 O   0  0  0  0  0  1  0  0  0  0  0  0
   92.0840   94.6410  -42.4280 O   0  0  0  0  0  0  0  0  0  0  0  0
   91.9300   95.8970  -42.0220 C   0  0  0  0  0  0  0  0  0  0  0  0
   92.2110   96.1880  -40.8530 O   0  0  0  0  0  0  0  0  0  0  0  0
   91.4510   96.8840  -42.9070 C   0  0  0  0  0  3  0  0  0  0  0  0
   92.2310  101.0940  -42.7230 C   0  0  0  0  0  0  0  0  0  0  0  0
   91.9180  100.6220  -41.4960 C   0  0  0  0  0  3  0  0  0  0  0  0
   92.7260  100.8970  -40.3570 C   0  0  0  0  0  3  0  0  0  0  0  0
   93.8620  101.6560  -40.4500 C   0  0  0  0  0  0  0  0  0  0  0  0
   94.1890  102.1540  -41.7070 C   0  0  0  0  0  3  0  0  0  0  0  0
   93.3940  101.8840  -42.8100 C   0  0  0  0  0  3  0  0  0  0  0  0
   94.6170  101.8990  -39.3090 O   0  0  0  0  0  0  0  0  0  0  0  0
   94.1100  102.7280  -38.2520 C   0  0  0  0  0  1  0  0  0  0  0  0
  1  8  1  0  0  0  0
  1  2  1  0  0  0  0
  2  3  1  0  0  0  0
  3  4  1  0  0  0  0
  4 22  1  0  0  0  0
  5  4  1  0  0  0  0
  6  1  1  0  0  0  0
  6  5  1  0  0  0  0
  7  1  1  0  0  0  0
  8  9  1  0  0  0  0
  9 21  2  0  0  0  0
 10  9  1  0  0  0  0
 10 12  1  0  0  0  0
 11 10  2  0  0  0  0
 12 18  1  0  0  0  0
 13 11  1  0  0  0  0
 13 15  2  0  0  0  0
 14 13  1  0  0  0  0
 15 16  1  0  0  0  0
 16 12  2  0  0  0  0
 17 15  1  0  0  0  0
 18 19  1  0  0  0  0
 19 20  2  0  0  0  0
 21 19  1  0  0  0  0
 22 23  1  0  0  0  0
 23 24  2  0  0  0  0
 25 24  1  0  0  0  0
 25 28  1  0  0  0  0
 26 25  2  0  0  0  0
 27 22  2  0  0  0  0
 27 26  1  0  0  0  0
 28 29  1  0  0  0  0
M  END
>  <Pose>
1

>  <Score>
-7.143

$$$$
