MODEL 1
REMARK VINA RESULT:    -6.490      0.000      0.000
REMARK INTER + INTRA:          -9.052
REMARK INTER:                  -8.197
REMARK INTRA:                  -0.855
REMARK UNBOUND:                -0.855
REMARK  5 active torsions:
REMARK  status: ('A' for Active; 'I' for Inactive)
REMARK    1  A    between atoms: S_1  and  N_4 
REMARK    2  A    between atoms: C_6  and  C_10 
REMARK    3  A    between atoms: N_13  and  C_20 
REMARK    4  A    between atoms: C_17  and  O_19 
REMARK    5  A    between atoms: C_20  and  C_21 
ROOT
ATOM      1  C   UNK d   1      89.300  99.290 -43.785  0.00  0.00     0.137 A 
ATOM      2  N   UNK d   1      89.721  98.057 -44.060  0.00  0.00    -0.211 NA
ATOM      3  C   UNK d   1      90.847  97.830 -44.758  0.00  0.00     0.184 A 
ATOM      4  N   UNK d   1      91.489  96.702 -45.169  0.00  0.00    -0.227 N 
ATOM      5  N   UNK d   1      92.559  97.101 -45.824  0.00  0.00    -0.063 NA
ATOM      6  N   UNK d   1      92.641  98.418 -45.858  0.00  0.00    -0.124 NA
ATOM      7  C   UNK d   1      91.588  98.917 -45.202  0.00  0.00     0.180 A 
ATOM      8  C   UNK d   1      91.163 100.205 -44.922  0.00  0.00     0.199 A 
ATOM      9  N   UNK d   1      90.027 100.323 -44.221  0.00  0.00    -0.207 NA
ENDROOT
BRANCH   1  10
ATOM     10  C   UNK d   1      88.063  99.579 -43.009  0.00  0.00     0.076 C 
ATOM     11  C   UNK d   1      87.750 100.999 -42.840  0.00  0.00     0.147 C 
ATOM     12  N   UNK d   1      86.689 101.588 -43.523  0.00  0.00    -0.310 N 
ATOM     13  C   UNK d   1      86.042 100.932 -44.561  0.00  0.00     0.135 C 
ATOM     14  C   UNK d   1      86.527  99.550 -44.893  0.00  0.00     0.021 C 
ATOM     15  C   UNK d   1      86.915  98.839 -43.647  0.00  0.00     0.015 C 
BRANCH  12  16
ATOM     16  S   UNK d   1      86.723 103.282 -43.560  0.00  0.00     0.224 S 
ATOM     17  O   UNK d   1      86.048 103.910 -42.391  0.00  0.00    -0.206 OA
ATOM     18  O   UNK d   1      86.080 103.737 -44.854  0.00  0.00    -0.206 OA
ATOM     19  C   UNK d   1      88.415 103.890 -43.633  0.00  0.00     0.186 C 
ENDBRANCH  12  16
ENDBRANCH   1  10
BRANCH   8  20
ATOM     20  O   UNK d   1      91.890 101.304 -45.357  0.00  0.00    -0.343 OA
ATOM     21  H   UNK d   1      92.121 101.404 -46.334  0.00  0.00     0.219 HD
ENDBRANCH   8  20
BRANCH   4  22
ATOM     22  C   UNK d   1      91.074  95.355 -44.930  0.00  0.00     0.195 C 
BRANCH  22  23
ATOM     23  C   UNK d   1      91.682  94.752 -43.720  0.00  0.00    -0.017 A 
ATOM     24  C   UNK d   1      92.163  93.469 -43.800  0.00  0.00     0.042 A 
ATOM     25  C   UNK d   1      92.749  92.827 -42.711  0.00  0.00     0.024 A 
ATOM     26 Cl   UNK d   1      92.055  92.579 -45.304  0.00  0.00    -0.084 Cl
ATOM     27  C   UNK d   1      92.859  93.483 -41.504  0.00  0.00     0.002 A 
ATOM     28  C   UNK d   1      92.379  94.770 -41.416  0.00  0.00     0.001 A 
ATOM     29  C   UNK d   1      91.795  95.402 -42.511  0.00  0.00     0.010 A 
ENDBRANCH  22  23
ENDBRANCH   4  22
TORSDOF 5
ENDMDL
