/Users/jonathanwahrer/Desktop/Msc/3_Semester/Drug_Design_Praktikum/waehrer_HTS_screening/HTS_experiment/out/docking_results/vina_output/4agl/2195_docked.pdbqt
 OpenBabel03212200573D

 29 32  0  0  1  0  0  0  0  0999 V2000
   89.3000   99.2900  -43.7850 C   0  0  0  0  0  0  0  0  0  0  0  0
   89.7210   98.0570  -44.0600 N   0  0  0  0  0  0  0  0  0  0  0  0
   90.8470   97.8300  -44.7580 C   0  0  0  0  0  0  0  0  0  0  0  0
   91.4890   96.7020  -45.1690 N   0  0  0  0  0  0  0  0  0  0  0  0
   92.5590   97.1010  -45.8240 N   0  0  0  0  0  0  0  0  0  0  0  0
   92.6410   98.4180  -45.8580 N   0  0  0  0  0  0  0  0  0  0  0  0
   91.5880   98.9170  -45.2020 C   0  0  0  0  0  0  0  0  0  0  0  0
   91.1630  100.2050  -44.9220 C   0  0  0  0  0  0  0  0  0  0  0  0
   90.0270  100.3230  -44.2210 N   0  0  0  0  0  0  0  0  0  0  0  0
   88.0630   99.5790  -43.0090 C   0  0  1  0  0  3  0  0  0  0  0  0
   87.7500  100.9990  -42.8400 C   0  0  0  0  0  2  0  0  0  0  0  0
   86.6890  101.5880  -43.5230 N   0  0  0  0  0  0  0  0  0  0  0  0
   86.0420  100.9320  -44.5610 C   0  0  0  0  0  2  0  0  0  0  0  0
   86.5270   99.5500  -44.8930 C   0  0  0  0  0  2  0  0  0  0  0  0
   86.9150   98.8390  -43.6470 C   0  0  0  0  0  2  0  0  0  0  0  0
   86.7230  103.2820  -43.5600 S   0  0  0  0  0  0  0  0  0  0  0  0
   86.0480  103.9100  -42.3910 O   0  0  0  0  0  0  0  0  0  0  0  0
   86.0800  103.7370  -44.8540 O   0  0  0  0  0  0  0  0  0  0  0  0
   88.4150  103.8900  -43.6330 C   0  0  0  0  0  1  0  0  0  0  0  0
   91.8900  101.3040  -45.3570 O   0  0  0  0  0  0  0  0  0  0  0  0
   92.1210  101.4040  -46.3340 H   0  0  0  0  0  0  0  0  0  0  0  0
   91.0740   95.3550  -44.9300 C   0  0  0  0  0  2  0  0  0  0  0  0
   91.6820   94.7520  -43.7200 C   0  0  0  0  0  0  0  0  0  0  0  0
   92.1630   93.4690  -43.8000 C   0  0  0  0  0  0  0  0  0  0  0  0
   92.7490   92.8270  -42.7110 C   0  0  0  0  0  3  0  0  0  0  0  0
   92.0550   92.5790  -45.3040 Cl  0  0  0  0  0  0  0  0  0  0  0  0
   92.8590   93.4830  -41.5040 C   0  0  0  0  0  3  0  0  0  0  0  0
   92.3790   94.7700  -41.4160 C   0  0  0  0  0  3  0  0  0  0  0  0
   91.7950   95.4020  -42.5110 C   0  0  0  0  0  3  0  0  0  0  0  0
  2  1  2  0  0  0  0
  3  2  1  0  0  0  0
  4 22  1  0  0  0  0
  4  3  1  0  0  0  0
  5  4  1  0  0  0  0
  6  5  2  0  0  0  0
  6  7  1  0  0  0  0
  7  8  1  0  0  0  0
  7  3  2  0  0  0  0
  8  9  2  0  0  0  0
  9  1  1  0  0  0  0
 10  1  1  6  0  0  0
 10 11  1  0  0  0  0
 12 11  1  0  0  0  0
 13 12  1  0  0  0  0
 14 13  1  0  0  0  0
 14 15  1  0  0  0  0
 15 10  1  0  0  0  0
 16 12  1  0  0  0  0
 16 17  2  0  0  0  0
 18 16  2  0  0  0  0
 19 16  1  0  0  0  0
 20  8  1  0  0  0  0
 21 20  1  0  0  0  0
 22 23  1  0  0  0  0
 23 29  1  0  0  0  0
 24 23  2  0  0  0  0
 24 25  1  0  0  0  0
 25 27  2  0  0  0  0
 26 24  1  0  0  0  0
 27 28  1  0  0  0  0
 29 28  2  0  0  0  0
M  END
>  <Pose>
1

>  <Score>
-6.490

$$$$
