/Users/jonathanwahrer/Desktop/Msc/3_Semester/Drug_Design_Praktikum/waehrer_HTS_screening/HTS_experiment/out/docking_results/vina_output/4agl/2197_docked.pdbqt
 OpenBabel03212200573D

 28 31  0  0  1  0  0  0  0  0999 V2000
   91.2840   98.7880  -43.3160 N   0  0  0  0  0  0  0  0  0  0  0  0
   89.8900   99.1690  -43.0090 C   0  0  0  0  0  2  0  0  0  0  0  0
   89.2650   99.6110  -44.2800 C   0  0  2  0  0  3  0  0  0  0  0  0
   89.9310  100.4780  -45.0650 O   0  0  0  0  0  0  0  0  0  0  0  0
   91.2460  100.6760  -44.8920 C   0  0  0  0  0  2  0  0  0  0  0  0
   91.8980   99.9920  -43.7410 C   0  0  0  0  0  2  0  0  0  0  0  0
   87.9350  100.1910  -43.9330 C   0  0  0  0  0  0  0  0  0  0  0  0
   87.9050  101.4080  -43.6090 O   0  0  0  0  0  0  0  0  0  0  0  0
   86.7200   99.4800  -43.9440 N   0  0  0  0  0  0  0  0  0  0  0  0
   86.5980   98.0770  -44.2950 C   0  0  0  0  0  2  0  0  0  0  0  0
   85.4470  100.1250  -43.5910 C   0  0  0  0  0  2  0  0  0  0  0  0
   85.1540   97.6810  -44.0610 C   0  0  0  0  0  2  0  0  0  0  0  0
   84.2260   98.4350  -44.8830 N   0  0  0  0  0  0  0  0  0  0  0  0
   84.5200   99.8280  -44.7760 C   0  0  0  0  0  2  0  0  0  0  0  0
   84.2660   97.9020  -46.2070 C   0  0  0  0  0  2  0  0  0  0  0  0
   84.2510   96.3990  -46.2600 C   0  0  0  0  0  3  0  0  0  0  0  0
   85.0750   95.8310  -47.4140 C   0  0  0  0  0  2  0  0  0  0  0  0
   83.5910   95.6530  -47.3340 C   0  0  0  0  0  2  0  0  0  0  0  0
   91.3500   97.4300  -44.3100 S   0  0  0  0  0  0  0  0  0  0  0  0
   89.9680   97.2690  -44.9560 O   0  0  0  0  0  0  0  0  0  0  0  0
   92.2850   97.5880  -45.4840 O   0  0  0  0  0  0  0  0  0  0  0  0
   91.6410   95.9480  -43.4560 C   0  0  0  0  0  0  0  0  0  0  0  0
   91.6330   94.7280  -44.0950 C   0  0  0  0  0  0  0  0  0  0  0  0
   91.8060   93.5380  -43.4130 C   0  0  0  0  0  3  0  0  0  0  0  0
   91.4850   94.6310  -45.8600 Cl  0  0  0  0  0  0  0  0  0  0  0  0
   91.9950   93.5580  -42.0540 C   0  0  0  0  0  3  0  0  0  0  0  0
   92.0080   94.7790  -41.3940 C   0  0  0  0  0  3  0  0  0  0  0  0
   91.8350   95.9510  -42.0740 C   0  0  0  0  0  3  0  0  0  0  0  0
  1  2  1  0  0  0  0
  3  7  1  1  0  0  0
  3  2  1  0  0  0  0
  4  5  1  0  0  0  0
  4  3  1  0  0  0  0
  5  6  1  0  0  0  0
  6  1  1  0  0  0  0
  7  8  2  0  0  0  0
  9  7  1  0  0  0  0
  9 11  1  0  0  0  0
 10 12  1  0  0  0  0
 10  9  1  0  0  0  0
 13 14  1  0  0  0  0
 13 12  1  0  0  0  0
 14 11  1  0  0  0  0
 15 13  1  0  0  0  0
 16 15  1  0  0  0  0
 17 18  1  0  0  0  0
 17 16  1  0  0  0  0
 18 16  1  0  0  0  0
 19 22  1  0  0  0  0
 19  1  1  0  0  0  0
 20 19  2  0  0  0  0
 21 19  2  0  0  0  0
 22 28  1  0  0  0  0
 23 22  2  0  0  0  0
 23 24  1  0  0  0  0
 24 26  2  0  0  0  0
 25 23  1  0  0  0  0
 26 27  1  0  0  0  0
 28 27  2  0  0  0  0
M  END
>  <Pose>
1

>  <Score>
-6.119

$$$$
