/Users/jonathanwahrer/Desktop/Msc/3_Semester/Drug_Design_Praktikum/waehrer_HTS_screening/HTS_experiment/out/docking_results/vina_output/4agl/2210_docked.pdbqt
 OpenBabel03212200583D

 33 36  0  0  0  0  0  0  0  0999 V2000
   90.9850   96.7400  -45.5760 C   0  0  0  0  0  3  0  0  0  0  0  0
   89.6860   96.7310  -45.9020 C   0  0  0  0  0  0  0  0  0  0  0  0
   88.6870   97.3230  -45.1370 O   0  0  0  0  0  0  0  0  0  0  0  0
   87.4590   97.1490  -45.7900 C   0  0  0  0  0  0  0  0  0  0  0  0
   87.5840   96.4610  -46.9570 C   0  0  0  0  0  0  0  0  0  0  0  0
   86.5040   96.1990  -47.7680 C   0  0  0  0  0  3  0  0  0  0  0  0
   85.2390   96.6440  -47.3980 C   0  0  0  0  0  3  0  0  0  0  0  0
   85.1170   97.3470  -46.1980 C   0  0  0  0  0  0  0  0  0  0  0  0
   86.1860   97.5990  -45.4000 C   0  0  0  0  0  0  0  0  0  0  0  0
   83.8180   97.7560  -45.8990 O   0  0  0  0  0  1  0  0  0  0  0  0
   89.0420   96.1610  -47.0670 C   0  0  0  0  0  0  0  0  0  0  0  0
   89.6000   95.5360  -47.9780 O   0  0  0  0  0  0  0  0  0  0  0  0
   86.1050   98.1640  -44.0360 C   0  0  0  0  0  2  0  0  0  0  0  0
   86.6610   99.4290  -43.9170 N   0  0  0  0  0  4  0  0  0  0  0  0
   86.4930  100.2390  -45.1650 C   0  0  0  0  0  2  0  0  0  0  0  0
   85.9460  101.5970  -44.6590 C   0  0  0  0  0  2  0  0  0  0  0  0
   86.1540  101.6940  -43.2490 N   0  0  0  0  0  0  0  0  0  0  0  0
   87.4470  101.3550  -42.7990 C   0  0  0  0  0  2  0  0  0  0  0  0
   87.8020   99.8770  -43.2690 C   0  0  0  0  0  2  0  0  0  0  0  0
   85.8040   99.9140  -43.3290 H   0  0  0  0  0  0  0  0  0  0  0  0
   85.1110  102.0840  -42.4390 C   0  0  0  0  0  2  0  0  0  0  0  0
   83.8240  101.3220  -42.4390 C   0  0  0  0  0  2  0  0  0  0  0  0
   84.0440   99.9620  -42.1680 O   0  0  0  0  0  0  0  0  0  0  0  0
   84.2030   99.4780  -43.0440 H   0  0  0  0  0  0  0  0  0  0  0  0
   91.3080   97.4470  -44.3250 C   0  0  0  0  0  0  0  0  0  0  0  0
   91.4740   98.7860  -44.3460 C   0  0  0  0  0  3  0  0  0  0  0  0
   91.8750   99.4340  -43.1650 C   0  0  0  0  0  0  0  0  0  0  0  0
   92.1160  101.3240  -43.1620 Br  0  0  0  0  0  0  0  0  0  0  0  0
   92.1010   98.7430  -42.0010 C   0  0  0  0  0  3  0  0  0  0  0  0
   91.9270   97.3740  -42.0180 C   0  0  0  0  0  3  0  0  0  0  0  0
   91.5240   96.7060  -43.1840 C   0  0  0  0  0  0  0  0  0  0  0  0
   91.3490   95.3300  -43.2040 O   0  0  0  0  0  0  0  0  0  0  0  0
   91.9460   94.4120  -42.3560 C   0  0  0  0  0  1  0  0  0  0  0  0
  1 25  1  0  0  0  0
  2  1  2  0  0  0  0
  2  3  1  0  0  0  0
  4  9  1  0  0  0  0
  4  3  1  0  0  0  0
  5  4  2  0  0  0  0
  6  7  2  0  0  0  0
  6  5  1  0  0  0  0
  7  8  1  0  0  0  0
  8 10  1  0  0  0  0
  8  9  2  0  0  0  0
  9 13  1  0  0  0  0
 11  5  1  0  0  0  0
 11  2  1  0  0  0  0
 12 11  2  0  0  0  0
 13 14  1  0  0  0  0
 14 20  1  0  0  0  0
 14 19  1  0  0  0  0
 15 16  1  0  0  0  0
 15 14  1  0  0  0  0
 16 17  1  0  0  0  0
 17 18  1  0  0  0  0
 17 21  1  0  0  0  0
 19 18  1  0  0  0  0
 22 21  1  0  0  0  0
 22 23  1  0  0  0  0
 24 23  1  0  0  0  0
 25 31  1  0  0  0  0
 26 25  2  0  0  0  0
 26 27  1  0  0  0  0
 27 28  1  0  0  0  0
 27 29  2  0  0  0  0
 30 29  1  0  0  0  0
 31 30  2  0  0  0  0
 32 31  1  0  0  0  0
 32 33  1  0  0  0  0
M  END
>  <Pose>
1

>  <Score>
-5.723

$$$$
