MODEL 1
REMARK VINA RESULT:    -5.723      0.000      0.000
REMARK INTER + INTRA:          -9.222
REMARK INTER:                  -7.898
REMARK INTRA:                  -1.324
REMARK UNBOUND:                -1.324
REMARK  7 active torsions:
REMARK  status: ('A' for Active; 'I' for Inactive)
REMARK    1  A    between atoms: C_4  and  C_10 
REMARK    2  A    between atoms: C_5  and  O_8 
REMARK    3  A    between atoms: C_18  and  C_19 
REMARK    4  A    between atoms: C_19  and  N_20 
REMARK    5  A    between atoms: N_23  and  C_26 
REMARK    6  A    between atoms: C_26  and  C_27 
REMARK    7  A    between atoms: C_27  and  O_28 
ROOT
ATOM      1  C   UNK d   1      90.985  96.740 -45.576  0.00  0.00     0.055 C 
ATOM      2  C   UNK d   1      89.686  96.731 -45.902  0.00  0.00     0.128 A 
ATOM      3  O   UNK d   1      88.687  97.323 -45.137  0.00  0.00    -0.305 OA
ATOM      4  C   UNK d   1      87.459  97.149 -45.790  0.00  0.00     0.101 A 
ATOM      5  C   UNK d   1      87.584  96.461 -46.957  0.00  0.00     0.051 A 
ATOM      6  C   UNK d   1      86.504  96.199 -47.768  0.00  0.00     0.021 A 
ATOM      7  C   UNK d   1      85.239  96.644 -47.398  0.00  0.00     0.041 A 
ATOM      8  C   UNK d   1      85.117  97.347 -46.198  0.00  0.00     0.118 A 
ATOM      9  C   UNK d   1      86.186  97.599 -45.400  0.00  0.00     0.039 A 
ATOM     10  O   UNK d   1      83.818  97.756 -45.899  0.00  0.00    -0.191 OA
ATOM     11  C   UNK d   1      89.042  96.161 -47.067  0.00  0.00     0.218 A 
ATOM     12  O   UNK d   1      89.600  95.536 -47.978  0.00  0.00    -0.284 OA
ENDROOT
BRANCH   9  13
ATOM     13  C   UNK d   1      86.105  98.164 -44.036  0.00  0.00     0.279 C 
BRANCH  13  14
ATOM     14  N   UNK d   1      86.661  99.429 -43.917  0.00  0.00    -0.064 N 
ATOM     15  C   UNK d   1      86.493 100.239 -45.165  0.00  0.00     0.254 C 
ATOM     16  C   UNK d   1      85.946 101.597 -44.659  0.00  0.00     0.144 C 
ATOM     17  N   UNK d   1      86.154 101.694 -43.249  0.00  0.00    -0.407 N 
ATOM     18  C   UNK d   1      87.447 101.355 -42.799  0.00  0.00     0.144 C 
ATOM     19  C   UNK d   1      87.802  99.877 -43.269  0.00  0.00     0.254 C 
ATOM     20  H   UNK d   1      85.804  99.914 -43.329  0.00  0.00     0.280 HD
BRANCH  17  21
ATOM     21  C   UNK d   1      85.111 102.084 -42.439  0.00  0.00     0.143 C 
BRANCH  21  22
ATOM     22  C   UNK d   1      83.824 101.322 -42.439  0.00  0.00     0.183 C 
BRANCH  22  23
ATOM     23  O   UNK d   1      84.044  99.962 -42.168  0.00  0.00    -0.399 OA
ATOM     24  H   UNK d   1      84.203  99.478 -43.044  0.00  0.00     0.209 HD
ENDBRANCH  22  23
ENDBRANCH  21  22
ENDBRANCH  17  21
ENDBRANCH  13  14
ENDBRANCH   9  13
BRANCH   1  25
ATOM     25  C   UNK d   1      91.308  97.447 -44.325  0.00  0.00     0.001 A 
ATOM     26  C   UNK d   1      91.474  98.786 -44.346  0.00  0.00     0.033 A 
ATOM     27  C   UNK d   1      91.875  99.434 -43.165  0.00  0.00     0.011 A 
ATOM     28 Br   UNK d   1      92.116 101.324 -43.162  0.00  0.00    -0.051 Br
ATOM     29  C   UNK d   1      92.101  98.743 -42.001  0.00  0.00     0.022 A 
ATOM     30  C   UNK d   1      91.927  97.374 -42.018  0.00  0.00     0.039 A 
ATOM     31  C   UNK d   1      91.524  96.706 -43.184  0.00  0.00     0.078 A 
BRANCH  31  32
ATOM     32  O   UNK d   1      91.349  95.330 -43.204  0.00  0.00    -0.355 OA
ATOM     33  C   UNK d   1      91.946  94.412 -42.356  0.00  0.00     0.210 C 
ENDBRANCH  31  32
ENDBRANCH   1  25
TORSDOF 7
ENDMDL
