MODEL 1
REMARK VINA RESULT:    -6.753      0.000      0.000
REMARK INTER + INTRA:          -7.008
REMARK INTER:                  -7.148
REMARK INTRA:                   0.140
REMARK UNBOUND:                 0.140
REMARK  1 active torsions:
REMARK  status: ('A' for Active; 'I' for Inactive)
REMARK    1  A    between atoms: C_9  and  C_21 
ROOT
ATOM      1 Cl   UNK d   1      92.492  96.240 -40.606  0.00  0.00    -0.081 Cl
ATOM      2  C   UNK d   1      91.932  96.244 -42.264  0.00  0.00     0.070 A 
ATOM      3  C   UNK d   1      91.632  97.478 -42.858  0.00  0.00     0.107 A 
ATOM      4  C   UNK d   1      91.191  97.514 -44.155  0.00  0.00    -0.007 A 
ATOM      5  C   UNK d   1      91.066  96.290 -44.821  0.00  0.00     0.035 A 
ATOM      6  C   UNK d   1      91.363  95.084 -44.227  0.00  0.00     0.036 A 
ATOM      7  C   UNK d   1      91.809  95.043 -42.919  0.00  0.00     0.050 A 
ATOM      8 Cl   UNK d   1      91.197  93.558 -45.086  0.00  0.00    -0.084 Cl
ATOM      9  C   UNK d   1      90.853  98.762 -44.857  0.00  0.00     0.107 A 
ATOM     10  C   UNK d   1      91.054  99.931 -43.984  0.00  0.00     0.075 A 
ATOM     11  C   UNK d   1      91.493  99.874 -42.699  0.00  0.00     0.167 A 
ATOM     12  N   UNK d   1      91.662 100.990 -41.932  0.00  0.00    -0.283 N 
ATOM     13  C   UNK d   1      91.379 102.166 -42.487  0.00  0.00     0.332 A 
ATOM     14  O   UNK d   1      91.521 103.234 -41.812  0.00  0.00    -0.246 OA
ATOM     15  N   UNK d   1      90.942 102.269 -43.758  0.00  0.00    -0.270 N 
ATOM     16  C   UNK d   1      90.773 101.182 -44.519  0.00  0.00     0.262 A 
ATOM     17  O   UNK d   1      90.366 101.277 -45.705  0.00  0.00    -0.267 OA
ATOM     18  C   UNK d   1      90.652 103.586 -44.309  0.00  0.00     0.164 C 
ATOM     19  C   UNK d   1      92.130 100.894 -40.566  0.00  0.00     0.163 C 
ATOM     20  O   UNK d   1      91.777  98.655 -42.146  0.00  0.00    -0.290 OA
ENDROOT
BRANCH   9  21
ATOM     21  C   UNK d   1      89.458  98.719 -45.407  0.00  0.00     0.078 A 
ATOM     22  C   UNK d   1      88.353  98.734 -44.590  0.00  0.00     0.197 A 
ATOM     23  N   UNK d   1      87.094  98.686 -45.052  0.00  0.00    -0.281 N 
ATOM     24  O   UNK d   1      88.544  98.802 -43.225  0.00  0.00    -0.171 OA
ATOM     25  C   UNK d   1      86.909  98.619 -46.384  0.00  0.00     0.332 A 
ATOM     26  C   UNK d   1      85.947  98.707 -44.163  0.00  0.00     0.163 C 
ATOM     27  O   UNK d   1      85.717  98.573 -46.809  0.00  0.00    -0.246 OA
ATOM     28  N   UNK d   1      87.962  98.601 -47.221  0.00  0.00    -0.270 N 
ATOM     29  C   UNK d   1      89.226  98.650 -46.780  0.00  0.00     0.262 A 
ATOM     30  C   UNK d   1      87.711  98.528 -48.642  0.00  0.00     0.164 C 
ATOM     31  O   UNK d   1      90.227  98.636 -47.535  0.00  0.00    -0.267 OA
ENDBRANCH   9  21
TORSDOF 1
ENDMDL
