MODEL 1
REMARK VINA RESULT:    -6.553      0.000      0.000
REMARK INTER + INTRA:          -8.842
REMARK INTER:                  -8.086
REMARK INTRA:                  -0.757
REMARK UNBOUND:                -0.757
REMARK  4 active torsions:
REMARK  status: ('A' for Active; 'I' for Inactive)
REMARK    1  A    between atoms: C_13  and  C_27 
REMARK    2  A    between atoms: N_18  and  C_21 
REMARK    3  A    between atoms: C_21  and  C_22 
REMARK    4  A    between atoms: C_27  and  C_28 
REMARK       I    between atoms: C_28  and  N_30 
ROOT
ATOM      1 Cl   UNK d   1      93.416 102.127 -39.149  0.00  0.00    -0.084 Cl
ATOM      2  C   UNK d   1      93.191 102.017 -40.882  0.00  0.00     0.034 A 
ATOM      3  C   UNK d   1      92.601 100.935 -41.476  0.00  0.00     0.036 A 
ATOM      4  C   UNK d   1      92.442 100.889 -42.863  0.00  0.00     0.019 A 
ATOM      5  C   UNK d   1      92.892 101.948 -43.595  0.00  0.00     0.044 A 
ATOM      6  C   UNK d   1      93.498 103.060 -42.988  0.00  0.00     0.032 A 
ATOM      7  C   UNK d   1      93.654 103.105 -41.631  0.00  0.00     0.026 A 
ATOM      8  N   UNK d   1      92.634 101.693 -44.972  0.00  0.00    -0.324 N 
ATOM      9  C   UNK d   1      92.006 100.441 -45.109  0.00  0.00     0.267 A 
ATOM     10  O   UNK d   1      91.655  99.940 -46.224  0.00  0.00    -0.270 OA
ATOM     11  C   UNK d   1      91.856  99.881 -43.763  0.00  0.00     0.279 A 
ATOM     12  N   UNK d   1      92.620  98.666 -43.580  0.00  0.00     0.114 N 
ATOM     13  C   UNK d   1      91.741  97.565 -43.347  0.00  0.00     0.245 C 
ATOM     14  C   UNK d   1      90.382  98.079 -43.614  0.00  0.00     0.128 C 
ATOM     15  C   UNK d   1      90.419  99.569 -43.417  0.00  0.00     0.147 C 
ATOM     16  C   UNK d   1      89.467 100.054 -44.441  0.00  0.00     0.235 C 
ATOM     17  O   UNK d   1      88.880 101.163 -44.498  0.00  0.00    -0.272 OA
ATOM     18  N   UNK d   1      89.270  99.035 -45.445  0.00  0.00    -0.285 N 
ATOM     19  C   UNK d   1      90.109  97.943 -45.088  0.00  0.00     0.233 C 
ATOM     20  O   UNK d   1      90.515  97.060 -45.879  0.00  0.00    -0.272 OA
ATOM     21  H   UNK d   1      92.870 102.335 -45.788  0.00  0.00     0.169 HD
ATOM     22  H   UNK d   1      93.285  98.719 -42.777  0.00  0.00     0.318 HD
ENDROOT
BRANCH  13  23
ATOM     23  C   UNK d   1      91.921  96.952 -41.983  0.00  0.00     0.139 C 
BRANCH  23  24
ATOM     24  C   UNK d   1      91.838  95.504 -41.947  0.00  0.00     0.217 C 
ATOM     25  O   UNK d   1      91.706  94.856 -43.007  0.00  0.00    -0.274 OA
ATOM     26  N   UNK d   1      91.902  94.802 -40.724  0.00  0.00    -0.370 N 
ATOM     27  H   UNK d   1      92.593  94.023 -40.616  0.00  0.00     0.159 HD
ATOM     28  H   UNK d   1      91.302  95.002 -39.902  0.00  0.00     0.159 HD
ENDBRANCH  23  24
ENDBRANCH  13  23
BRANCH  18  29
ATOM     29  C   UNK d   1      88.387  99.132 -46.588  0.00  0.00     0.166 C 
BRANCH  29  30
ATOM     30  C   UNK d   1      86.945  98.877 -46.245  0.00  0.00     0.140 C 
ATOM     31  O   UNK d   1      86.281  98.378 -47.363  0.00  0.00    -0.384 OA
ATOM     32  C   UNK d   1      86.358  97.005 -47.303  0.00  0.00     0.168 C 
ATOM     33  C   UNK d   1      86.465  96.604 -45.848  0.00  0.00     0.029 C 
ATOM     34  C   UNK d   1      86.733  97.913 -45.132  0.00  0.00     0.035 C 
ENDBRANCH  29  30
ENDBRANCH  18  29
TORSDOF 4
ENDMDL
