/Users/jonathanwahrer/Desktop/Msc/3_Semester/Drug_Design_Praktikum/waehrer_HTS_screening/HTS_experiment/out/docking_results/vina_output/4agl/2225_docked.pdbqt
 OpenBabel03212200583D

 29 32  0  0  0  0  0  0  0  0999 V2000
   91.1570   91.6600  -47.6880 C   0  0  0  0  0  0  0  0  0  0  0  0
   90.3700   92.6970  -47.7730 O   0  0  0  0  0  0  0  0  0  0  0  0
   91.3040   90.9170  -48.8480 N   0  0  0  0  0  0  0  0  0  0  0  0
   90.5460   91.3630  -50.0570 C   0  0  0  0  0  2  0  0  0  0  0  0
   90.0270   90.1050  -50.7050 C   0  0  0  0  0  2  0  0  0  0  0  0
   89.9730   88.9750  -49.7950 N   0  0  0  0  0  0  0  0  0  0  0  0
   91.2170   88.5240  -49.2310 C   0  0  0  0  0  2  0  0  0  0  0  0
   92.1080   89.7480  -49.0900 C   0  0  0  0  0  2  0  0  0  0  0  0
   88.7360   88.3670  -49.4910 C   0  0  0  0  0  0  0  0  0  0  0  0
   87.6140   89.1110  -49.2880 N   0  0  0  0  0  0  0  0  0  0  0  0
   86.4300   88.5870  -49.0040 C   0  0  0  0  0  0  0  0  0  0  0  0
   86.3530   87.2340  -48.9150 N   0  0  0  0  0  0  0  0  0  0  0  0
   87.3960   86.4450  -49.0990 C   0  0  0  0  0  3  0  0  0  0  0  0
   88.6360   87.0020  -49.3960 C   0  0  0  0  0  3  0  0  0  0  0  0
   85.2540   89.3470  -48.7900 N   0  0  0  0  0  0  0  0  0  0  0  0
   84.8140   90.3050  -49.7980 C   0  0  0  0  0  2  0  0  0  0  0  0
   84.6340   91.6250  -49.0430 C   0  0  0  0  0  2  0  0  0  0  0  0
   83.6900   91.4810  -48.0610 O   0  0  0  0  0  0  0  0  0  0  0  0
   84.0160   90.5840  -47.0720 C   0  0  0  0  0  2  0  0  0  0  0  0
   84.4410   89.2340  -47.6040 C   0  0  0  0  0  2  0  0  0  0  0  0
   91.7520   91.4710  -46.3500 C   0  0  0  0  0  2  0  0  0  0  0  0
   91.7650   92.3650  -45.4280 O   0  0  0  0  0  0  0  0  0  0  0  0
   91.8080   93.2460  -44.4810 C   0  0  0  0  0  0  0  0  0  0  0  0
   91.4980   94.6130  -44.6460 C   0  0  0  0  0  3  0  0  0  0  0  0
   91.5610   95.4910  -43.6060 C   0  0  0  0  0  3  0  0  0  0  0  0
   91.9300   95.1050  -42.3390 C   0  0  0  0  0  0  0  0  0  0  0  0
   92.0080   96.2450  -41.0180 Cl  0  0  0  0  0  0  0  0  0  0  0  0
   92.2370   93.7760  -42.1570 C   0  0  0  0  0  3  0  0  0  0  0  0
   92.1840   92.8700  -43.1740 C   0  0  0  0  0  3  0  0  0  0  0  0
  1 21  1  0  0  0  0
  2  1  2  0  0  0  0
  3  1  1  0  0  0  0
  4  3  1  0  0  0  0
  5  4  1  0  0  0  0
  5  6  1  0  0  0  0
  6  9  1  0  0  0  0
  6  7  1  0  0  0  0
  7  8  1  0  0  0  0
  8  3  1  0  0  0  0
  9 14  2  0  0  0  0
  9 10  1  0  0  0  0
 10 11  2  0  0  0  0
 11 12  1  0  0  0  0
 11 15  1  0  0  0  0
 13 12  2  0  0  0  0
 14 13  1  0  0  0  0
 15 20  1  0  0  0  0
 16 17  1  0  0  0  0
 16 15  1  0  0  0  0
 17 18  1  0  0  0  0
 18 19  1  0  0  0  0
 20 19  1  0  0  0  0
 21 22  1  0  0  0  0
 22 23  1  0  0  0  0
 23 29  1  0  0  0  0
 24 23  2  0  0  0  0
 24 25  1  0  0  0  0
 25 26  2  0  0  0  0
 26 28  1  0  0  0  0
 26 27  1  0  0  0  0
 29 28  2  0  0  0  0
M  END
>  <Pose>
1

>  <Score>
-6.394

$$$$
