MODEL 1
REMARK VINA RESULT:    -6.394      0.000      0.000
REMARK INTER + INTRA:          -9.090
REMARK INTER:                  -8.263
REMARK INTRA:                  -0.827
REMARK UNBOUND:                -0.827
REMARK  5 active torsions:
REMARK  status: ('A' for Active; 'I' for Inactive)
REMARK    1  A    between atoms: C_5  and  O_8 
REMARK    2  A    between atoms: O_8  and  C_9 
REMARK    3  A    between atoms: C_9  and  C_10 
REMARK       I    between atoms: C_10  and  N_12 
REMARK    4  A    between atoms: N_15  and  C_18 
REMARK    5  A    between atoms: C_20  and  N_24 
ROOT
ATOM      1  C   UNK d   1      91.157  91.660 -47.688  0.00  0.00     0.177 C 
ATOM      2  O   UNK d   1      90.370  92.697 -47.773  0.00  0.00    -0.175 OA
ATOM      3  N   UNK d   1      91.304  90.917 -48.848  0.00  0.00    -0.358 N 
ATOM      4  C   UNK d   1      90.546  91.363 -50.057  0.00  0.00     0.144 C 
ATOM      5  C   UNK d   1      90.027  90.105 -50.705  0.00  0.00     0.144 C 
ATOM      6  N   UNK d   1      89.973  88.975 -49.795  0.00  0.00    -0.362 N 
ATOM      7  C   UNK d   1      91.217  88.524 -49.231  0.00  0.00     0.144 C 
ATOM      8  C   UNK d   1      92.108  89.748 -49.090  0.00  0.00     0.144 C 
ENDROOT
BRANCH   6   9
ATOM      9  C   UNK d   1      88.736  88.367 -49.491  0.00  0.00     0.146 A 
ATOM     10  N   UNK d   1      87.614  89.111 -49.288  0.00  0.00    -0.045 NA
ATOM     11  C   UNK d   1      86.430  88.587 -49.004  0.00  0.00     0.726 A 
ATOM     12  N   UNK d   1      86.353  87.234 -48.915  0.00  0.00    -0.075 NA
ATOM     13  C   UNK d   1      87.396  86.445 -49.099  0.00  0.00     0.140 A 
ATOM     14  C   UNK d   1      88.636  87.002 -49.396  0.00  0.00     0.071 A 
BRANCH  11  15
ATOM     15  N   UNK d   1      85.254  89.347 -48.790  0.00  0.00    -0.210 N 
ATOM     16  C   UNK d   1      84.814  90.305 -49.798  0.00  0.00     0.167 C 
ATOM     17  C   UNK d   1      84.634  91.625 -49.043  0.00  0.00     0.188 C 
ATOM     18  O   UNK d   1      83.690  91.481 -48.061  0.00  0.00    -0.388 OA
ATOM     19  C   UNK d   1      84.016  90.584 -47.072  0.00  0.00     0.188 C 
ATOM     20  C   UNK d   1      84.441  89.234 -47.604  0.00  0.00     0.167 C 
ENDBRANCH  11  15
ENDBRANCH   6   9
BRANCH   1  21
ATOM     21  C   UNK d   1      91.752  91.471 -46.350  0.00  0.00     0.262 C 
BRANCH  21  22
ATOM     22  O   UNK d   1      91.765  92.365 -45.428  0.00  0.00    -0.343 OA
BRANCH  22  23
ATOM     23  C   UNK d   1      91.808  93.246 -44.481  0.00  0.00     0.069 A 
ATOM     24  C   UNK d   1      91.498  94.613 -44.646  0.00  0.00     0.038 A 
ATOM     25  C   UNK d   1      91.561  95.491 -43.606  0.00  0.00     0.026 A 
ATOM     26  C   UNK d   1      91.930  95.105 -42.339  0.00  0.00     0.034 A 
ATOM     27 Cl   UNK d   1      92.008  96.245 -41.018  0.00  0.00    -0.084 Cl
ATOM     28  C   UNK d   1      92.237  93.776 -42.157  0.00  0.00     0.026 A 
ATOM     29  C   UNK d   1      92.184  92.870 -43.174  0.00  0.00     0.038 A 
ENDBRANCH  22  23
ENDBRANCH  21  22
ENDBRANCH   1  21
TORSDOF 5
ENDMDL
