/Users/jonathanwahrer/Desktop/Msc/3_Semester/Drug_Design_Praktikum/waehrer_HTS_screening/HTS_experiment/out/docking_results/vina_output/4agl/2231_docked.pdbqt
 OpenBabel03212200583D

 27 31  0  0  0  0  0  0  0  0999 V2000
   91.6080   96.4710  -44.0400 N   0  0  0  0  0  0  0  0  0  0  0  0
   91.4230   96.6930  -42.7510 N   0  0  0  0  0  0  0  0  0  0  0  0
   91.5990   97.9640  -42.4440 N   0  0  0  0  0  0  0  0  0  0  0  0
   91.9180   98.6460  -43.5570 C   0  0  0  0  0  0  0  0  0  0  0  0
   91.9180   97.6890  -44.5520 C   0  0  0  0  0  0  0  0  0  0  0  0
   92.2120   98.0890  -45.8100 N   0  0  0  0  0  0  0  0  0  0  0  0
   92.4870   99.3860  -46.0430 C   0  0  0  0  0  3  0  0  0  0  0  0
   92.4850  100.3220  -45.0610 N   0  0  0  0  0  0  0  0  0  0  0  0
   92.2000   99.9770  -43.7920 C   0  0  0  0  0  0  0  0  0  0  0  0
   92.1930  100.9490  -42.7460 N   0  0  0  0  0  0  0  0  0  0  0  0
   93.4170  101.7040  -42.5560 C   0  0  0  0  0  2  0  0  0  0  0  0
   93.1310  103.0440  -41.8830 C   0  0  0  0  0  2  0  0  0  0  0  0
   92.0880  102.9320  -40.9270 N   0  0  0  0  0  0  0  0  0  0  0  0
   90.7810  102.5360  -41.5340 C   0  0  0  0  0  2  0  0  0  0  0  0
   92.1910  103.1420  -39.5620 C   0  0  0  0  0  0  0  0  0  0  0  0
   90.9970  101.1010  -41.9780 C   0  0  0  0  0  2  0  0  0  0  0  0
   91.0580  102.9700  -38.9020 O   0  0  0  0  0  0  0  0  0  0  0  0
   93.3010  103.5130  -38.6980 C   0  0  0  0  0  3  0  0  0  0  0  0
   93.1340  103.3900  -37.2310 C   0  0  0  0  0  2  0  0  0  0  0  0
   94.2030  102.6240  -37.9740 C   0  0  0  0  0  2  0  0  0  0  0  0
   91.5040   95.2330  -44.7280 C   0  0  0  0  0  0  0  0  0  0  0  0
   90.9090   95.0770  -45.9580 C   0  0  0  0  0  3  0  0  0  0  0  0
   90.8350   93.8500  -46.5780 C   0  0  0  0  0  3  0  0  0  0  0  0
   91.3650   92.7400  -45.9700 C   0  0  0  0  0  0  0  0  0  0  0  0
   91.2710   91.1950  -46.7580 Cl  0  0  0  0  0  0  0  0  0  0  0  0
   91.9630   92.8620  -44.7500 C   0  0  0  0  0  3  0  0  0  0  0  0
   92.0260   94.1020  -44.1430 C   0  0  0  0  0  3  0  0  0  0  0  0
  1  2  1  0  0  0  0
  2  3  2  0  0  0  0
  4  3  1  0  0  0  0
  5  1  1  0  0  0  0
  5  4  2  0  0  0  0
  6  5  1  0  0  0  0
  7  6  2  0  0  0  0
  7  8  1  0  0  0  0
  8  9  2  0  0  0  0
  9  4  1  0  0  0  0
  9 10  1  0  0  0  0
 10 11  1  0  0  0  0
 10 16  1  0  0  0  0
 11 12  1  0  0  0  0
 12 13  1  0  0  0  0
 13 15  1  0  0  0  0
 14 13  1  0  0  0  0
 15 17  2  0  0  0  0
 15 18  1  0  0  0  0
 16 14  1  0  0  0  0
 18 20  1  0  0  0  0
 18 19  1  0  0  0  0
 20 19  1  0  0  0  0
 21 27  1  0  0  0  0
 21  1  1  0  0  0  0
 22 21  2  0  0  0  0
 23 24  2  0  0  0  0
 23 22  1  0  0  0  0
 24 26  1  0  0  0  0
 25 24  1  0  0  0  0
 26 27  2  0  0  0  0
M  END
>  <Pose>
1

>  <Score>
-7.274

$$$$
