MODEL 1
REMARK VINA RESULT:    -7.274      0.000      0.000
REMARK INTER + INTRA:          -8.799
REMARK INTER:                  -8.550
REMARK INTRA:                  -0.249
REMARK UNBOUND:                -0.249
REMARK  3 active torsions:
REMARK  status: ('A' for Active; 'I' for Inactive)
REMARK    1  A    between atoms: C_5  and  N_8 
REMARK    2  A    between atoms: C_16  and  N_17 
REMARK       I    between atoms: N_20  and  C_23 
REMARK    3  A    between atoms: C_23  and  C_25 
ROOT
ATOM      1  N   UNK d   1      91.608  96.471 -44.040  0.00  0.00    -0.195 N 
ATOM      2  N   UNK d   1      91.423  96.693 -42.751  0.00  0.00    -0.058 NA
ATOM      3  N   UNK d   1      91.599  97.964 -42.444  0.00  0.00    -0.124 NA
ATOM      4  C   UNK d   1      91.918  98.646 -43.557  0.00  0.00     0.174 A 
ATOM      5  C   UNK d   1      91.918  97.689 -44.552  0.00  0.00     0.188 A 
ATOM      6  N   UNK d   1      92.212  98.089 -45.810  0.00  0.00    -0.220 NA
ATOM      7  C   UNK d   1      92.487  99.386 -46.043  0.00  0.00     0.237 A 
ATOM      8  N   UNK d   1      92.485 100.322 -45.061  0.00  0.00    -0.222 NA
ATOM      9  C   UNK d   1      92.200  99.977 -43.792  0.00  0.00     0.162 A 
ENDROOT
BRANCH   9  10
ATOM     10  N   UNK d   1      92.193 100.949 -42.746  0.00  0.00    -0.361 N 
ATOM     11  C   UNK d   1      93.417 101.704 -42.556  0.00  0.00     0.144 C 
ATOM     12  C   UNK d   1      93.131 103.044 -41.883  0.00  0.00     0.144 C 
ATOM     13  N   UNK d   1      92.088 102.932 -40.927  0.00  0.00    -0.360 N 
ATOM     14  C   UNK d   1      90.781 102.536 -41.534  0.00  0.00     0.144 C 
ATOM     15  C   UNK d   1      92.191 103.142 -39.562  0.00  0.00     0.157 C 
ATOM     16  C   UNK d   1      90.997 101.101 -41.978  0.00  0.00     0.144 C 
ATOM     17  O   UNK d   1      91.058 102.970 -38.902  0.00  0.00    -0.177 OA
BRANCH  15  18
ATOM     18  C   UNK d   1      93.301 103.513 -38.698  0.00  0.00     0.063 A 
ATOM     19  C   UNK d   1      93.134 103.390 -37.231  0.00  0.00     0.013 A 
ATOM     20  C   UNK d   1      94.203 102.624 -37.974  0.00  0.00     0.013 A 
ENDBRANCH  15  18
ENDBRANCH   9  10
BRANCH   1  21
ATOM     21  C   UNK d   1      91.504  95.233 -44.728  0.00  0.00     0.062 A 
ATOM     22  C   UNK d   1      90.909  95.077 -45.958  0.00  0.00     0.033 A 
ATOM     23  C   UNK d   1      90.835  93.850 -46.578  0.00  0.00     0.026 A 
ATOM     24  C   UNK d   1      91.365  92.740 -45.970  0.00  0.00     0.034 A 
ATOM     25 Cl   UNK d   1      91.271  91.195 -46.758  0.00  0.00    -0.084 Cl
ATOM     26  C   UNK d   1      91.963  92.862 -44.750  0.00  0.00     0.026 A 
ATOM     27  C   UNK d   1      92.026  94.102 -44.143  0.00  0.00     0.033 A 
ENDBRANCH   1  21
TORSDOF 3
ENDMDL
