MODEL 1
REMARK VINA RESULT:    -7.380      0.000      0.000
REMARK INTER + INTRA:          -9.146
REMARK INTER:                  -8.674
REMARK INTRA:                  -0.472
REMARK UNBOUND:                -0.472
REMARK  3 active torsions:
REMARK  status: ('A' for Active; 'I' for Inactive)
REMARK    1  A    between atoms: C_7  and  N_8 
REMARK       I    between atoms: N_8  and  C_9 
REMARK    2  A    between atoms: C_9  and  C_11 
REMARK    3  A    between atoms: N_13  and  C_18 
ROOT
ATOM      1  N   UNK d   1      90.702  95.700 -44.360  0.00  0.00    -0.319 N 
ATOM      2  C   UNK d   1      91.290  96.943 -44.607  0.00  0.00     0.293 C 
ATOM      3  O   UNK d   1      92.175  97.115 -45.457  0.00  0.00    -0.264 OA
ATOM      4  H   UNK d   1      89.947  95.649 -43.605  0.00  0.00     0.169 HD
ENDROOT
BRANCH   2   5
ATOM      5  C   UNK d   1      90.864  98.146 -43.840  0.00  0.00     0.213 C 
ATOM      6  N   UNK d   1      91.775  98.886 -43.289  0.00  0.00    -0.141 NA
ATOM      7  N   UNK d   1      91.462 100.028 -42.554  0.00  0.00    -0.198 N 
ATOM      8  C   UNK d   1      90.109 100.394 -42.404  0.00  0.00     0.262 C 
ATOM      9  O   UNK d   1      89.876 101.494 -41.798  0.00  0.00    -0.269 OA
ATOM     10  C   UNK d   1      88.997  99.564 -42.911  0.00  0.00     0.226 C 
ATOM     11  N   UNK d   1      89.497  98.494 -43.701  0.00  0.00    -0.360 N 
ATOM     12  H   UNK d   1      88.809  97.899 -44.233  0.00  0.00     0.161 HD
BRANCH   7  13
ATOM     13  C   UNK d   1      92.507 100.828 -41.948  0.00  0.00     0.062 A 
ATOM     14  C   UNK d   1      93.267 101.699 -42.691  0.00  0.00     0.032 A 
ATOM     15  C   UNK d   1      94.267 102.464 -42.082  0.00  0.00     0.009 A 
ATOM     16  C   UNK d   1      94.513 102.359 -40.727  0.00  0.00    -0.062 A 
ATOM     17  C   UNK d   1      93.743 101.482 -39.998  0.00  0.00     0.009 A 
ATOM     18  C   UNK d   1      95.565 103.156 -40.029  0.00  0.00     0.048 C 
ATOM     19  C   UNK d   1      92.769 100.740 -40.598  0.00  0.00     0.032 A 
ENDBRANCH   7  13
ENDBRANCH   2   5
BRANCH   1  20
ATOM     20  C   UNK d   1      91.026  94.511 -45.025  0.00  0.00     0.059 A 
ATOM     21  C   UNK d   1      91.764  93.552 -44.325  0.00  0.00     0.063 A 
ATOM     22 Cl   UNK d   1      92.259  93.875 -42.678  0.00  0.00    -0.082 Cl
ATOM     23  C   UNK d   1      92.119  92.360 -44.890  0.00  0.00     0.058 A 
ATOM     24  C   UNK d   1      91.769  92.038 -46.171  0.00  0.00     0.070 A 
ATOM     25  C   UNK d   1      91.044  92.950 -46.890  0.00  0.00     0.098 A 
ATOM     26  N   UNK d   1      92.118  90.791 -46.783  0.00  0.00    -0.323 N 
ATOM     27  C   UNK d   1      90.682  94.176 -46.305  0.00  0.00     0.070 A 
ATOM     28  O   UNK d   1      90.647  92.702 -48.201  0.00  0.00    -0.340 OA
ATOM     29  C   UNK d   1      90.632  91.380 -48.759  0.00  0.00     0.278 C 
ATOM     30  C   UNK d   1      91.695  90.549 -48.121  0.00  0.00     0.246 C 
ATOM     31  O   UNK d   1      92.212  89.626 -48.792  0.00  0.00    -0.271 OA
ATOM     32  H   UNK d   1      92.669  90.080 -46.262  0.00  0.00     0.169 HD
ENDBRANCH   1  20
TORSDOF 3
ENDMDL
