/Users/jonathanwahrer/Desktop/Msc/3_Semester/Drug_Design_Praktikum/waehrer_HTS_screening/HTS_experiment/out/docking_results/vina_output/4agl/2266_docked.pdbqt
 OpenBabel03212200593D

 27 30  0  0  1  0  0  0  0  0999 V2000
   90.0000   98.5590  -44.8200 N   0  0  0  0  0  0  0  0  0  0  0  0
   89.3050   98.6540  -43.6000 C   0  0  0  0  0  2  0  0  0  0  0  0
   87.8620   99.0930  -43.7460 C   0  0  0  0  0  2  0  0  0  0  0  0
   87.2510   98.1720  -44.7510 C   0  0  1  0  0  3  0  0  0  0  0  0
   87.9760   97.9480  -45.9030 C   0  0  0  0  0  0  0  0  0  0  0  0
   87.4860   97.1360  -46.8400 N   0  0  0  0  0  0  0  0  0  0  0  0
   86.2880   96.5570  -46.6230 C   0  0  1  0  0  3  0  0  0  0  0  0
   85.5620   96.7590  -45.5090 N   0  0  0  0  0  0  0  0  0  0  0  0
   84.4160   96.0550  -45.5700 N   0  0  0  0  0  0  0  0  0  0  0  0
   84.3560   95.3730  -46.7230 C   0  0  0  0  0  3  0  0  0  0  0  0
   85.5180   95.6750  -47.3930 C   0  0  0  0  0  3  0  0  0  0  0  0
   86.0280   97.5760  -44.5390 C   0  0  0  0  0  0  0  0  0  0  0  0
   85.3950   97.8040  -43.4760 O   0  0  0  0  0  0  0  0  0  0  0  0
   89.2800   98.6440  -46.0230 C   0  0  0  0  0  2  0  0  0  0  0  0
   83.6950   96.0590  -44.8120 H   0  0  0  0  0  0  0  0  0  0  0  0
   91.5070   97.8230  -44.8150 S   0  0  0  0  0  0  0  0  0  0  0  0
   92.2530   98.0450  -46.1230 O   0  0  0  0  0  0  0  0  0  0  0  0
   92.3670   98.5250  -43.7690 O   0  0  0  0  0  0  0  0  0  0  0  0
   91.5400   96.1320  -44.4920 C   0  0  0  0  0  0  0  0  0  0  0  0
   91.5890   95.6560  -43.1840 C   0  0  0  0  0  0  0  0  0  0  0  0
   91.6180   94.2970  -42.9620 C   0  0  0  0  0  3  0  0  0  0  0  0
   91.5990   93.3960  -43.9760 C   0  0  0  0  0  3  0  0  0  0  0  0
   91.5510   93.8310  -45.2700 C   0  0  0  0  0  0  0  0  0  0  0  0
   91.5230   95.1910  -45.4950 C   0  0  0  0  0  3  0  0  0  0  0  0
   91.5250   92.6800  -46.6110 Cl  0  0  0  0  0  0  0  0  0  0  0  0
   91.6110   96.5010  -42.0990 O   0  0  0  0  0  0  0  0  0  0  0  0
   92.2980   96.1040  -40.9340 C   0  0  0  0  0  1  0  0  0  0  0  0
  1 16  1  0  0  0  0
  1  2  1  0  0  0  0
  3  2  1  0  0  0  0
  4 12  1  0  0  0  0
  4  3  1  1  0  0  0
  5  4  1  0  0  0  0
  6  7  1  0  0  0  0
  6  5  2  0  0  0  0
  7 11  1  6  0  0  0
  7  8  1  0  0  0  0
  8 12  1  0  0  0  0
  9  8  1  0  0  0  0
  9 15  1  0  0  0  0
 10  9  1  0  0  0  0
 11 10  2  0  0  0  0
 12 13  2  0  0  0  0
 14  5  1  0  0  0  0
 14  1  1  0  0  0  0
 16 19  1  0  0  0  0
 16 18  2  0  0  0  0
 17 16  2  0  0  0  0
 19 20  1  0  0  0  0
 20 21  2  0  0  0  0
 20 26  1  0  0  0  0
 22 21  1  0  0  0  0
 23 22  2  0  0  0  0
 24 23  1  0  0  0  0
 24 19  2  0  0  0  0
 25 23  1  0  0  0  0
 26 27  1  0  0  0  0
M  END
>  <Pose>
1

>  <Score>
-7.114

$$$$
