MODEL 1
REMARK VINA RESULT:    -6.509      0.000      0.000
REMARK INTER + INTRA:          -8.525
REMARK INTER:                  -7.651
REMARK INTRA:                  -0.874
REMARK UNBOUND:                -0.874
REMARK  3 active torsions:
REMARK  status: ('A' for Active; 'I' for Inactive)
REMARK    1  A    between atoms: S_1  and  N_4 
REMARK    2  A    between atoms: S_1  and  C_18 
REMARK    3  A    between atoms: C_21  and  O_24 
ROOT
ATOM      1  N   UNK d   1      90.194 100.038 -43.356  0.00  0.00    -0.301 N 
ATOM      2  C   UNK d   1      89.141  99.973 -42.446  0.00  0.00     0.140 C 
ATOM      3  C   UNK d   1      87.799  99.703 -43.086  0.00  0.00     0.067 C 
ATOM      4  C   UNK d   1      87.890  98.944 -44.355  0.00  0.00     0.040 A 
ATOM      5  C   UNK d   1      88.959  99.224 -45.171  0.00  0.00     0.067 A 
ATOM      6  N   UNK d   1      89.123  98.590 -46.338  0.00  0.00    -0.231 NA
ATOM      7  C   UNK d   1      88.206  97.644 -46.724  0.00  0.00     0.154 A 
ATOM      8  N   UNK d   1      87.163  97.383 -45.910  0.00  0.00    -0.202 N 
ATOM      9  N   UNK d   1      86.428  96.439 -46.505  0.00  0.00    -0.301 N 
ATOM     10  C   UNK d   1      86.972  96.097 -47.666  0.00  0.00     0.112 A 
ATOM     11  C   UNK d   1      88.128  96.853 -47.851  0.00  0.00     0.071 A 
ATOM     12  C   UNK d   1      86.950  97.986 -44.733  0.00  0.00     0.276 A 
ATOM     13  O   UNK d   1      85.980  97.742 -43.976  0.00  0.00    -0.266 OA
ATOM     14  C   UNK d   1      89.930 100.240 -44.732  0.00  0.00     0.195 C 
ATOM     15  H   UNK d   1      85.549  96.021 -46.124  0.00  0.00     0.186 HD
ENDROOT
BRANCH   1  16
ATOM     16  S   UNK d   1      91.688  99.436 -42.925  0.00  0.00     0.261 S 
ATOM     17  O   UNK d   1      92.701  99.796 -43.988  0.00  0.00    -0.200 OA
ATOM     18  O   UNK d   1      92.175 100.044 -41.643  0.00  0.00    -0.200 OA
BRANCH  16  19
ATOM     19  C   UNK d   1      91.746  97.697 -42.747  0.00  0.00     0.081 A 
ATOM     20  C   UNK d   1      91.482  96.825 -43.790  0.00  0.00     0.052 A 
ATOM     21  C   UNK d   1      91.542  95.454 -43.590  0.00  0.00     0.068 A 
ATOM     22  C   UNK d   1      91.863  94.902 -42.372  0.00  0.00     0.089 A 
ATOM     23 Cl   UNK d   1      91.204  94.366 -44.922  0.00  0.00    -0.081 Cl
ATOM     24  C   UNK d   1      92.127  95.768 -41.333  0.00  0.00     0.040 A 
ATOM     25  C   UNK d   1      92.066  97.130 -41.531  0.00  0.00     0.028 A 
BRANCH  22  26
ATOM     26  O   UNK d   1      91.919  93.510 -42.193  0.00  0.00    -0.354 OA
ATOM     27  C   UNK d   1      93.168  92.882 -41.973  0.00  0.00     0.210 C 
ENDBRANCH  22  26
ENDBRANCH  16  19
ENDBRANCH   1  16
TORSDOF 3
ENDMDL
