/Users/jonathanwahrer/Desktop/Msc/3_Semester/Drug_Design_Praktikum/waehrer_HTS_screening/HTS_experiment/out/docking_results/vina_output/4agl/2270_docked.pdbqt
 OpenBabel03212200593D

 22 24  0  0  1  0  0  0  0  0999 V2000
   91.6190   91.8340  -46.8100 C   0  0  0  0  0  0  0  0  0  0  0  0
   92.4620   90.9390  -46.5200 O   0  0  0  0  0  0  0  0  0  0  0  0
   90.7550   91.7040  -47.9410 N   0  0  0  0  0  0  0  0  0  0  0  0
   90.0910   92.4540  -48.1330 H   0  0  0  0  0  0  0  0  0  0  0  0
   91.5310   93.0080  -45.9790 C   0  0  0  0  0  0  0  0  0  0  0  0
   91.9290   92.8880  -44.6430 C   0  0  0  0  0  3  0  0  0  0  0  0
   91.8890   93.9350  -43.7500 C   0  0  0  0  0  0  0  0  0  0  0  0
   91.4370   95.1610  -44.1920 C   0  0  0  0  0  0  0  0  0  0  0  0
   91.3770   96.5160  -43.0690 Cl  0  0  0  0  0  0  0  0  0  0  0  0
   91.0380   95.3010  -45.5140 C   0  0  0  0  0  3  0  0  0  0  0  0
   91.0850   94.2250  -46.4070 C   0  0  0  0  0  3  0  0  0  0  0  0
   92.2900   93.7860  -42.4300 O   0  0  0  0  0  0  0  0  0  0  0  0
   93.3960   92.9770  -42.0830 C   0  0  0  0  0  1  0  0  0  0  0  0
   90.8730   90.5220  -48.7410 C   0  0  0  0  0  2  0  0  0  0  0  0
   89.6280   89.7910  -49.0540 C   0  0  2  0  0  3  0  0  0  0  0  0
   89.6720   88.3620  -49.0020 N   0  0  1  0  0  0  0  0  0  0  0  0
   88.3580   87.9560  -48.4480 C   0  0  0  0  0  2  0  0  0  0  0  0
   89.7060   87.7050  -50.2920 C   0  0  0  0  0  2  0  0  0  0  0  0
   87.3490   88.7840  -49.2520 C   0  0  0  0  0  2  0  0  0  0  0  0
   87.8830   89.2040  -50.5310 N   0  0  1  0  0  0  0  0  0  0  0  0
   88.9830   90.1600  -50.3800 C   0  0  0  0  0  2  0  0  0  0  0  0
   88.4830   88.0290  -51.1410 C   0  0  0  0  0  2  0  0  0  0  0  0
  1  2  2  0  0  0  0
  1  5  1  0  0  0  0
  3  1  1  0  0  0  0
  4  3  1  0  0  0  0
  5  6  1  0  0  0  0
  6  7  2  0  0  0  0
  7 12  1  0  0  0  0
  8  7  1  0  0  0  0
  8  9  1  0  0  0  0
 10  8  2  0  0  0  0
 11  5  2  0  0  0  0
 11 10  1  0  0  0  0
 12 13  1  0  0  0  0
 14  3  1  0  0  0  0
 15 16  1  0  0  0  0
 15 14  1  6  0  0  0
 16 18  1  6  0  0  0
 16 17  1  0  0  0  0
 19 17  1  0  0  0  0
 20 22  1  1  0  0  0
 20 21  1  0  0  0  0
 20 19  1  0  0  0  0
 21 15  1  0  0  0  0
 22 18  1  0  0  0  0
M  END
>  <Pose>
1

>  <Score>
-5.826

$$$$
