MODEL 1
REMARK VINA RESULT:    -6.552      0.000      0.000
REMARK INTER + INTRA:          -7.717
REMARK INTER:                  -7.893
REMARK INTRA:                   0.175
REMARK UNBOUND:                 0.175
REMARK  4 active torsions:
REMARK  status: ('A' for Active; 'I' for Inactive)
REMARK    1  A    between atoms: C_5  and  C_8 
REMARK    2  A    between atoms: C_8  and  O_25 
REMARK    3  A    between atoms: N_9  and  C_17 
REMARK    4  A    between atoms: C_20  and  O_23 
ROOT
ATOM      1  C   UNK d   1      89.797  97.569 -46.222  0.00  0.00     0.283 C 
ATOM      2  N   UNK d   1      91.017  97.396 -45.607  0.00  0.00     0.042 N 
ATOM      3  C   UNK d   1      91.309  98.671 -44.986  0.00  0.00     0.210 C 
ATOM      4  C   UNK d   1      91.783  99.063 -43.848  0.00  0.00     0.030 C 
ATOM      5  C   UNK d   1      91.978 100.477 -43.479  0.00  0.00     0.032 C 
ATOM      6  C   UNK d   1      91.572 101.474 -44.505  0.00  0.00     0.023 C 
ATOM      7  C   UNK d   1      91.517 100.944 -45.898  0.00  0.00     0.125 C 
ATOM      8  N   UNK d   1      90.938  99.620 -45.970  0.00  0.00    -0.356 N 
ATOM      9  C   UNK d   1      89.993  98.968 -46.873  0.00  0.00     0.200 C 
ATOM     10  H   UNK d   1      91.755  97.385 -46.403  0.00  0.00     0.299 HD
ENDROOT
BRANCH   1  11
ATOM     11  C   UNK d   1      88.536  97.655 -45.513  0.00  0.00     0.007 A 
ATOM     12  C   UNK d   1      87.486  96.848 -45.906  0.00  0.00     0.014 A 
ATOM     13  C   UNK d   1      86.280  96.920 -45.273  0.00  0.00     0.024 A 
ATOM     14  C   UNK d   1      86.052  97.795 -44.219  0.00  0.00     0.034 A 
ATOM     15 Cl   UNK d   1      84.520  97.907 -43.391  0.00  0.00    -0.084 Cl
ATOM     16  C   UNK d   1      87.093  98.593 -43.831  0.00  0.00     0.024 A 
ATOM     17  C   UNK d   1      88.318  98.522 -44.472  0.00  0.00     0.014 A 
ENDBRANCH   1  11
BRANCH   1  18
ATOM     18  O   UNK d   1      89.650  96.722 -47.357  0.00  0.00    -0.359 OA
ATOM     19  H   UNK d   1      90.121  95.881 -47.122  0.00  0.00     0.213 HD
ENDBRANCH   1  18
BRANCH   2  20
ATOM     20  C   UNK d   1      91.345  96.313 -44.807  0.00  0.00     0.146 A 
ATOM     21  C   UNK d   1      91.334  96.263 -43.454  0.00  0.00     0.041 A 
ATOM     22  C   UNK d   1      91.680  95.089 -42.787  0.00  0.00     0.039 A 
ATOM     23  C   UNK d   1      92.046  93.934 -43.457  0.00  0.00     0.068 A 
ATOM     24  C   UNK d   1      92.048  94.015 -44.833  0.00  0.00     0.039 A 
ATOM     25  C   UNK d   1      91.714  95.153 -45.518  0.00  0.00     0.041 A 
BRANCH  23  26
ATOM     26  O   UNK d   1      92.384  92.788 -42.755  0.00  0.00    -0.356 OA
ATOM     27  C   UNK d   1      93.397  92.848 -41.784  0.00  0.00     0.210 C 
ENDBRANCH  23  26
ENDBRANCH   2  20
TORSDOF 4
ENDMDL
