MODEL 1
REMARK VINA RESULT:    -6.272      0.000      0.000
REMARK INTER + INTRA:          -9.423
REMARK INTER:                  -8.472
REMARK INTRA:                  -0.951
REMARK UNBOUND:                -0.951
REMARK  6 active torsions:
REMARK  status: ('A' for Active; 'I' for Inactive)
REMARK    1  A    between atoms: N_8  and  C_12 
REMARK    2  A    between atoms: C_12  and  C_13 
REMARK    3  A    between atoms: C_13  and  C_14 
REMARK       I    between atoms: C_14  and  N_16 
REMARK    4  A    between atoms: N_19  and  C_22 
REMARK    5  A    between atoms: C_22  and  C_23 
REMARK       I    between atoms: C_23  and  N_25 
REMARK    6  A    between atoms: N_25  and  C_26 
ROOT
ATOM      1  C   UNK d   1      89.335  98.620 -44.069  0.00  0.00     0.221 C 
ATOM      2  O   UNK d   1      88.182  98.428 -44.616  0.00  0.00    -0.273 OA
ATOM      3  N   UNK d   1      90.350  97.754 -44.479  0.00  0.00    -0.349 N 
ATOM      4  C   UNK d   1      91.673  97.653 -43.836  0.00  0.00     0.145 C 
ATOM      5  C   UNK d   1      91.505  96.247 -43.178  0.00  0.00     0.137 C 
ATOM      6  N   UNK d   1      91.432  95.267 -44.253  0.00  0.00    -0.401 N 
ATOM      7  C   UNK d   1      91.008  95.622 -45.494  0.00  0.00     0.137 C 
ATOM      8  C   UNK d   1      90.222  96.895 -45.624  0.00  0.00     0.145 C 
ENDROOT
BRANCH   1   9
ATOM      9  C   UNK d   1      89.384  99.721 -43.137  0.00  0.00     0.123 C 
BRANCH   9  10
ATOM     10  C   UNK d   1      90.004 100.999 -43.475  0.00  0.00     0.144 C 
BRANCH  10  11
ATOM     11  N   UNK d   1      91.346 101.244 -42.975  0.00  0.00    -0.290 N 
ATOM     12  C   UNK d   1      91.792 101.590 -41.771  0.00  0.00     0.073 A 
ATOM     13  C   UNK d   1      93.152 101.790 -41.808  0.00  0.00     0.109 A 
ATOM     14  C   UNK d   1      91.111 101.749 -40.551  0.00  0.00     0.034 A 
ATOM     15  C   UNK d   1      93.885 102.150 -40.670  0.00  0.00     0.063 A 
ATOM     16  O   UNK d   1      93.497 101.560 -43.047  0.00  0.00    -0.259 OA
ATOM     17  C   UNK d   1      93.234 102.310 -39.477  0.00  0.00     0.036 A 
ATOM     18 Cl   UNK d   1      94.117 102.743 -38.035  0.00  0.00    -0.084 Cl
ATOM     19  C   UNK d   1      91.866 102.105 -39.447  0.00  0.00     0.026 A 
ATOM     20  C   UNK d   1      92.462 101.233 -43.780  0.00  0.00     0.372 A 
ATOM     21  O   UNK d   1      92.467 100.955 -45.013  0.00  0.00    -0.237 OA
ENDBRANCH  10  11
ENDBRANCH   9  10
ENDBRANCH   1   9
BRANCH   6  22
ATOM     22  C   UNK d   1      91.423  94.006 -43.680  0.00  0.00     0.219 C 
BRANCH  22  23
ATOM     23  C   UNK d   1      92.355  93.039 -44.412  0.00  0.00     0.235 C 
ATOM     24  O   UNK d   1      93.585  93.129 -44.035  0.00  0.00    -0.272 OA
ATOM     25  N   UNK d   1      91.898  92.211 -45.344  0.00  0.00    -0.355 N 
ATOM     26  H   UNK d   1      93.092  91.568 -45.414  0.00  0.00     0.162 HD
BRANCH  25  27
ATOM     27  C   UNK d   1      91.411  91.331 -46.337  0.00  0.00     0.084 A 
ATOM     28  C   UNK d   1      92.343  91.186 -47.601  0.00  0.00     0.027 A 
ATOM     29  C   UNK d   1      91.086  91.905 -47.700  0.00  0.00     0.027 A 
ENDBRANCH  25  27
ENDBRANCH  22  23
ENDBRANCH   6  22
TORSDOF 6
ENDMDL
