MODEL 1
REMARK VINA RESULT:    -5.417      0.000      0.000
REMARK INTER + INTRA:          -6.384
REMARK INTER:                  -6.051
REMARK INTRA:                  -0.333
REMARK UNBOUND:                -0.333
REMARK  2 active torsions:
REMARK  status: ('A' for Active; 'I' for Inactive)
REMARK    1  A    between atoms: C_3  and  N_17 
REMARK    2  A    between atoms: N_17  and  C_18 
ROOT
ATOM      1 Cl   UNK d   1      89.845  95.064 -47.123  0.00  0.00    -0.076 Cl
ATOM      2  C   UNK d   1      89.966  96.317 -45.904  0.00  0.00     0.135 A 
ATOM      3  C   UNK d   1      90.912  96.166 -44.913  0.00  0.00     0.126 A 
ATOM      4  C   UNK d   1      90.949  97.201 -43.970  0.00  0.00     0.291 A 
ATOM      5  O   UNK d   1      91.787  97.115 -43.051  0.00  0.00    -0.264 OA
ATOM      6  N   UNK d   1      90.117  98.246 -44.051  0.00  0.00    -0.241 N 
ATOM      7  N   UNK d   1      89.211  98.385 -45.007  0.00  0.00    -0.241 N 
ATOM      8  C   UNK d   1      88.390  99.586 -44.951  0.00  0.00     0.139 C 
ATOM      9  C   UNK d   1      87.716  99.585 -43.591  0.00  0.00     0.021 A 
ATOM     10  C   UNK d   1      88.701  99.384 -42.522  0.00  0.00     0.021 A 
ATOM     11  C   UNK d   1      90.133  99.337 -43.074  0.00  0.00     0.139 C 
ATOM     12  C   UNK d   1      90.289 100.577 -43.909  0.00  0.00    -0.001 C 
ATOM     13  C   UNK d   1      89.396 100.711 -44.875  0.00  0.00    -0.001 C 
ATOM     14  C   UNK d   1      87.939 100.710 -42.651  0.00  0.00     0.015 A 
ATOM     15  C   UNK d   1      89.131  97.431 -45.928  0.00  0.00     0.287 A 
ATOM     16  O   UNK d   1      88.273  97.554 -46.840  0.00  0.00    -0.265 OA
ENDROOT
BRANCH   3  17
ATOM     17  N   UNK d   1      91.808  95.062 -44.816  0.00  0.00    -0.380 N 
ATOM     18  H   UNK d   1      92.769  95.238 -45.175  0.00  0.00     0.160 HD
BRANCH  17  19
ATOM     19  C   UNK d   1      91.487  93.788 -44.284  0.00  0.00     0.073 C 
ATOM     20  C   UNK d   1      91.776  92.631 -45.205  0.00  0.00     0.031 C 
ATOM     21  C   UNK d   1      92.205  93.486 -42.976  0.00  0.00     0.031 C 
ENDBRANCH  17  19
ENDBRANCH   3  17
TORSDOF 2
ENDMDL
