/Users/jonathanwahrer/Desktop/Msc/3_Semester/Drug_Design_Praktikum/waehrer_HTS_screening/HTS_experiment/out/docking_results/vina_output/4agl/2281_docked.pdbqt
 OpenBabel03212201003D

 34 37  0  0  1  0  0  0  0  0999 V2000
   91.3850  101.0610  -45.7590 N   0  0  0  0  0  0  0  0  0  0  0  0
   92.1550  102.0630  -46.3670 C   0  0  0  0  0  2  0  0  0  0  0  0
   92.9420  102.7970  -45.2200 C   0  0  0  0  0  2  0  0  0  0  0  0
   92.9360  102.2110  -43.9730 N   0  0  0  0  0  0  0  0  0  0  0  0
   91.8340  101.3720  -43.5910 C   0  0  0  0  0  2  0  0  0  0  0  0
   90.6260  101.6100  -44.5560 C   0  0  0  0  0  2  0  0  0  0  0  0
   91.2970   99.6830  -45.8770 C   0  0  2  0  0  3  0  0  0  0  0  0
   90.1990   98.9430  -45.8190 C   0  0  1  0  0  3  0  0  0  0  0  0
   88.6190   99.7840  -46.0850 Cl  0  0  0  0  0  0  0  0  0  0  0  0
   90.1950   97.5680  -45.5830 C   0  0  0  0  0  0  0  0  0  0  0  0
   91.3350   96.9540  -45.4180 N   0  0  0  0  0  0  0  0  0  0  0  0
   89.0580   96.9880  -45.5240 O   0  0  0  0  0  0  0  0  0  0  0  0
   92.4860   97.6730  -45.4880 N   0  0  0  0  0  0  0  0  0  0  0  0
   92.5640   98.9320  -45.7020 C   0  0  0  0  0  3  0  0  0  0  0  0
   91.4410   95.5920  -44.8980 C   0  0  0  0  0  0  0  0  0  0  0  0
   91.5260   94.5020  -45.7030 C   0  0  0  0  0  3  0  0  0  0  0  0
   91.7480   93.2440  -45.1860 C   0  0  0  0  0  3  0  0  0  0  0  0
   91.8920   93.0540  -43.8130 C   0  0  0  0  0  3  0  0  0  0  0  0
   91.7910   94.1910  -43.0100 C   0  0  0  0  0  3  0  0  0  0  0  0
   91.5750   95.4060  -43.5340 C   0  0  0  0  0  3  0  0  0  0  0  0
   93.0140  103.1680  -42.8190 C   0  0  0  0  0  2  0  0  0  0  0  0
   93.7270  102.5470  -41.7130 C   0  0  0  0  0  0  0  0  0  0  0  0
   94.7380  102.0940  -41.5690 O   0  0  0  0  0  0  0  0  0  0  0  0
   92.7400  102.5380  -40.3190 N   0  0  0  0  0  0  0  0  0  0  0  0
   93.8660  102.2050  -39.3780 C   0  0  0  0  0  0  0  0  0  0  0  0
   92.1650  102.7080  -40.8080 H   0  0  0  0  0  0  0  0  0  0  0  0
   94.8260  101.5360  -39.6440 O   0  0  0  0  0  0  0  0  0  0  0  0
   93.6390  102.8230  -38.0920 N   0  0  0  0  0  0  0  0  0  0  0  0
   92.7140  103.3600  -38.0010 H   0  0  0  0  0  0  0  0  0  0  0  0
   94.4770  102.7780  -36.9530 C   0  0  0  0  0  3  0  0  0  0  0  0
   95.4540  103.8570  -36.7210 C   0  0  0  0  0  2  0  0  0  0  0  0
   94.7730  104.9130  -35.8450 C   0  0  0  0  0  2  0  0  0  0  0  0
   93.8800  104.0490  -34.9850 C   0  0  0  0  0  2  0  0  0  0  0  0
   93.5130  102.8560  -35.7500 C   0  0  0  0  0  2  0  0  0  0  0  0
  1  6  1  0  0  0  0
  2  1  1  0  0  0  0
  2  3  1  0  0  0  0
  3  4  1  0  0  0  0
  4  5  1  0  0  0  0
  4 21  1  0  0  0  0
  6  5  1  0  0  0  0
  7  8  1  0  0  0  0
  7  1  1  1  0  0  0
  7 14  1  0  0  0  0
  8  9  1  6  0  0  0
  8 10  1  0  0  0  0
 10 12  2  0  0  0  0
 10 11  1  0  0  0  0
 11 15  1  0  0  0  0
 13 11  1  0  0  0  0
 14 13  2  0  0  0  0
 15 20  1  0  0  0  0
 16 17  1  0  0  0  0
 16 15  2  0  0  0  0
 17 18  2  0  0  0  0
 18 19  1  0  0  0  0
 20 19  2  0  0  0  0
 21 22  1  0  0  0  0
 22 23  2  0  0  0  0
 22 24  1  0  0  0  0
 24 25  1  0  0  0  0
 25 28  1  0  0  0  0
 26 24  1  0  0  0  0
 27 25  2  0  0  0  0
 28 29  1  0  0  0  0
 28 30  1  0  0  0  0
 30 31  1  0  0  0  0
 30 34  1  0  0  0  0
 31 32  1  0  0  0  0
 32 33  1  0  0  0  0
 34 33  1  0  0  0  0
M  END
>  <Pose>
1

>  <Score>
-6.338

$$$$
