MODEL 1
REMARK VINA RESULT:    -6.338      0.000      0.000
REMARK INTER + INTRA:          -8.767
REMARK INTER:                  -8.191
REMARK INTRA:                  -0.576
REMARK UNBOUND:                -0.576
REMARK  5 active torsions:
REMARK  status: ('A' for Active; 'I' for Inactive)
REMARK    1  A    between atoms: C_3  and  N_15 
REMARK    2  A    between atoms: N_6  and  C_9 
REMARK    3  A    between atoms: N_18  and  C_21 
REMARK    4  A    between atoms: C_21  and  C_22 
REMARK       I    between atoms: C_22  and  N_24 
REMARK       I    between atoms: N_24  and  C_25 
REMARK       I    between atoms: C_25  and  N_27 
REMARK    5  A    between atoms: N_27  and  C_28 
ROOT
ATOM      1  N   UNK d   1      91.385 101.061 -45.759  0.00  0.00    -0.375 N 
ATOM      2  C   UNK d   1      92.155 102.063 -46.367  0.00  0.00     0.153 C 
ATOM      3  C   UNK d   1      92.942 102.797 -45.220  0.00  0.00     0.292 C 
ATOM      4  N   UNK d   1      92.936 102.211 -43.973  0.00  0.00     0.100 N 
ATOM      5  C   UNK d   1      91.834 101.372 -43.591  0.00  0.00     0.292 C 
ATOM      6  C   UNK d   1      90.626 101.610 -44.556  0.00  0.00     0.153 C 
ENDROOT
BRANCH   1   7
ATOM      7  C   UNK d   1      91.297  99.683 -45.877  0.00  0.00     0.077 A 
ATOM      8  C   UNK d   1      90.199  98.943 -45.819  0.00  0.00     0.131 A 
ATOM      9 Cl   UNK d   1      88.619  99.784 -46.085  0.00  0.00    -0.076 Cl
ATOM     10  C   UNK d   1      90.195  97.568 -45.583  0.00  0.00     0.292 A 
ATOM     11  N   UNK d   1      91.335  96.954 -45.418  0.00  0.00    -0.197 N 
ATOM     12  O   UNK d   1      89.058  96.988 -45.524  0.00  0.00    -0.264 OA
ATOM     13  N   UNK d   1      92.486  97.673 -45.488  0.00  0.00    -0.174 NA
ATOM     14  C   UNK d   1      92.564  98.932 -45.702  0.00  0.00     0.170 A 
BRANCH  11  15
ATOM     15  C   UNK d   1      91.441  95.592 -44.898  0.00  0.00     0.062 A 
ATOM     16  C   UNK d   1      91.526  94.502 -45.703  0.00  0.00     0.032 A 
ATOM     17  C   UNK d   1      91.748  93.244 -45.186  0.00  0.00     0.002 A 
ATOM     18  C   UNK d   1      91.892  93.054 -43.813  0.00  0.00     0.000 A 
ATOM     19  C   UNK d   1      91.791  94.191 -43.010  0.00  0.00     0.002 A 
ATOM     20  C   UNK d   1      91.575  95.406 -43.534  0.00  0.00     0.032 A 
ENDBRANCH  11  15
ENDBRANCH   1   7
BRANCH   4  21
ATOM     21  C   UNK d   1      93.014 103.168 -42.819  0.00  0.00     0.375 C 
BRANCH  21  22
ATOM     22  C   UNK d   1      93.727 102.547 -41.713  0.00  0.00     0.254 C 
ATOM     23  O   UNK d   1      94.738 102.094 -41.569  0.00  0.00    -0.271 OA
ATOM     24  N   UNK d   1      92.740 102.538 -40.319  0.00  0.00    -0.278 N 
ATOM     25  C   UNK d   1      93.866 102.205 -39.378  0.00  0.00     0.323 C 
ATOM     26  H   UNK d   1      92.165 102.708 -40.808  0.00  0.00     0.173 HD
ATOM     27  O   UNK d   1      94.826 101.536 -39.644  0.00  0.00    -0.247 OA
ATOM     28  N   UNK d   1      93.639 102.823 -38.092  0.00  0.00    -0.338 N 
ATOM     29  H   UNK d   1      92.714 103.360 -38.001  0.00  0.00     0.164 HD
BRANCH  28  30
ATOM     30  C   UNK d   1      94.477 102.778 -36.953  0.00  0.00     0.086 C 
ATOM     31  C   UNK d   1      95.454 103.857 -36.721  0.00  0.00     0.025 C 
ATOM     32  C   UNK d   1      94.773 104.913 -35.845  0.00  0.00     0.002 C 
ATOM     33  C   UNK d   1      93.880 104.049 -34.985  0.00  0.00     0.002 C 
ATOM     34  C   UNK d   1      93.513 102.856 -35.750  0.00  0.00     0.025 C 
ENDBRANCH  28  30
ENDBRANCH  21  22
ENDBRANCH   4  21
TORSDOF 5
ENDMDL
