MODEL 1
REMARK VINA RESULT:    -5.739      0.000      0.000
REMARK INTER + INTRA:          -8.865
REMARK INTER:                  -7.752
REMARK INTRA:                  -1.113
REMARK UNBOUND:                -1.113
REMARK  6 active torsions:
REMARK  status: ('A' for Active; 'I' for Inactive)
REMARK    1  A    between atoms: C_3  and  N_15 
REMARK    2  A    between atoms: N_6  and  C_9 
REMARK    3  A    between atoms: N_18  and  C_21 
REMARK    4  A    between atoms: C_21  and  C_22 
REMARK       I    between atoms: C_22  and  N_24 
REMARK    5  A    between atoms: N_24  and  C_25 
REMARK    6  A    between atoms: C_25  and  C_26 
ROOT
ATOM      1  N   UNK d   1      88.562  99.212 -45.195  0.00  0.00    -0.375 N 
ATOM      2  C   UNK d   1      87.602  98.248 -44.711  0.00  0.00     0.153 C 
ATOM      3  C   UNK d   1      87.407  97.167 -45.728  0.00  0.00     0.292 C 
ATOM      4  N   UNK d   1      88.445  97.315 -46.717  0.00  0.00     0.100 NA
ATOM      5  C   UNK d   1      88.192  98.487 -47.475  0.00  0.00     0.292 C 
ATOM      6  C   UNK d   1      88.458  99.681 -46.554  0.00  0.00     0.153 C 
ENDROOT
BRANCH   1   7
ATOM      7  C   UNK d   1      89.608  99.722 -44.384  0.00  0.00     0.077 A 
ATOM      8  C   UNK d   1      89.456 100.881 -43.628  0.00  0.00     0.131 A 
ATOM      9 Cl   UNK d   1      87.911 101.700 -43.726  0.00  0.00    -0.076 Cl
ATOM     10  C   UNK d   1      90.489 101.352 -42.842  0.00  0.00     0.292 A 
ATOM     11  N   UNK d   1      91.674 100.717 -42.774  0.00  0.00    -0.197 N 
ATOM     12  O   UNK d   1      90.345 102.405 -42.159  0.00  0.00    -0.264 OA
ATOM     13  N   UNK d   1      91.798  99.618 -43.498  0.00  0.00    -0.174 NA
ATOM     14  C   UNK d   1      90.836  99.104 -44.284  0.00  0.00     0.170 A 
BRANCH  11  15
ATOM     15  C   UNK d   1      92.744 101.204 -41.954  0.00  0.00     0.062 A 
ATOM     16  C   UNK d   1      92.800 100.872 -40.621  0.00  0.00     0.032 A 
ATOM     17  C   UNK d   1      93.840 101.342 -39.812  0.00  0.00     0.002 A 
ATOM     18  C   UNK d   1      94.834 102.146 -40.321  0.00  0.00     0.000 A 
ATOM     19  C   UNK d   1      94.787 102.483 -41.655  0.00  0.00     0.002 A 
ATOM     20  C   UNK d   1      93.747 102.011 -42.449  0.00  0.00     0.032 A 
ENDBRANCH  11  15
ENDBRANCH   1   7
BRANCH   4  21
ATOM     21  C   UNK d   1      88.840  96.144 -47.392  0.00  0.00     0.374 C 
BRANCH  21  22
ATOM     22  C   UNK d   1      89.951  95.418 -46.768  0.00  0.00     0.246 C 
ATOM     23  O   UNK d   1      90.131  94.219 -47.169  0.00  0.00    -0.272 OA
ATOM     24  N   UNK d   1      90.829  95.921 -45.778  0.00  0.00    -0.357 N 
ATOM     25  H   UNK d   1      90.686  96.902 -45.463  0.00  0.00     0.162 HD
BRANCH  24  26
ATOM     26  C   UNK d   1      91.910  95.168 -45.195  0.00  0.00     0.154 C 
BRANCH  26  27
ATOM     27  C   UNK d   1      91.435  94.498 -43.943  0.00  0.00     0.139 C 
ATOM     28  O   UNK d   1      92.088  93.305 -43.788  0.00  0.00    -0.384 OA
ATOM     29  C   UNK d   1      92.748  93.258 -42.590  0.00  0.00     0.168 C 
ATOM     30  C   UNK d   1      91.930  94.176 -41.706  0.00  0.00     0.029 C 
ATOM     31  C   UNK d   1      91.739  95.330 -42.705  0.00  0.00     0.035 C 
ENDBRANCH  26  27
ENDBRANCH  24  26
ENDBRANCH  21  22
ENDBRANCH   4  21
TORSDOF 6
ENDMDL
