MODEL 1
REMARK VINA RESULT:    -6.125      0.000      0.000
REMARK INTER + INTRA:          -9.766
REMARK INTER:                  -8.274
REMARK INTRA:                  -1.493
REMARK UNBOUND:                -1.493
REMARK  6 active torsions:
REMARK  status: ('A' for Active; 'I' for Inactive)
REMARK    1  A    between atoms: S_1  and  N_4 
REMARK    2  A    between atoms: S_1  and  C_22 
REMARK    3  A    between atoms: N_7  and  C_10 
REMARK    4  A    between atoms: C_10  and  C_11 
REMARK    5  A    between atoms: N_13  and  C_14 
REMARK    6  A    between atoms: C_14  and  C_15 
ROOT
ATOM      1  N   UNK d   1      85.639  99.695 -44.610  0.00  0.00    -0.203 NA
ATOM      2  C   UNK d   1      86.009  99.816 -45.989  0.00  0.00     0.127 C 
ATOM      3  C   UNK d   1      85.958  98.491 -46.772  0.00  0.00     0.132 C 
ATOM      4  N   UNK d   1      86.790  97.569 -46.065  0.00  0.00    -0.403 N 
ATOM      5  C   UNK d   1      86.156  97.275 -44.810  0.00  0.00     0.132 C 
ATOM      6  C   UNK d   1      86.354  98.523 -43.994  0.00  0.00     0.127 C 
ENDROOT
BRANCH   1   7
ATOM      7  S   UNK d   1      86.408 101.072 -43.788  0.00  0.00     0.243 S 
ATOM      8  O   UNK d   1      86.296 102.262 -44.722  0.00  0.00    -0.206 OA
ATOM      9  O   UNK d   1      85.663 101.349 -42.531  0.00  0.00    -0.206 OA
BRANCH   7  10
ATOM     10  C   UNK d   1      88.070 100.780 -43.456  0.00  0.00     0.077 A 
ATOM     11  C   UNK d   1      88.960 101.212 -44.449  0.00  0.00     0.064 A 
ATOM     12  C   UNK d   1      90.349 101.148 -44.318  0.00  0.00     0.103 A 
ATOM     13  C   UNK d   1      90.873 100.629 -43.137  0.00  0.00     0.102 A 
ATOM     14  O   UNK d   1      91.197 101.581 -45.323  0.00  0.00    -0.346 OA
ATOM     15  C   UNK d   1      89.982 100.200 -42.170  0.00  0.00     0.041 A 
ATOM     16  O   UNK d   1      92.253 100.601 -43.072  0.00  0.00    -0.346 OA
ATOM     17  C   UNK d   1      88.602 100.272 -42.311  0.00  0.00     0.028 A 
ATOM     18  C   UNK d   1      92.970 101.732 -43.637  0.00  0.00     0.202 C 
ATOM     19  C   UNK d   1      92.409 102.186 -44.943  0.00  0.00     0.202 C 
ENDBRANCH   7  10
ENDBRANCH   1   7
BRANCH   4  20
ATOM     20  C   UNK d   1      87.530  96.639 -46.774  0.00  0.00     0.204 C 
BRANCH  20  21
ATOM     21  C   UNK d   1      88.952  96.513 -46.450  0.00  0.00     0.169 C 
ATOM     22  O   UNK d   1      89.609  95.800 -47.331  0.00  0.00    -0.176 OA
ATOM     23  N   UNK d   1      89.706  97.003 -45.423  0.00  0.00    -0.366 N 
ATOM     24  H   UNK d   1      89.314  97.571 -44.600  0.00  0.00     0.161 HD
BRANCH  23  25
ATOM     25  C   UNK d   1      91.161  96.873 -45.313  0.00  0.00     0.162 C 
BRANCH  25  26
ATOM     26  C   UNK d   1      91.489  96.227 -44.026  0.00  0.00    -0.019 A 
ATOM     27  C   UNK d   1      91.669  94.827 -43.940  0.00  0.00     0.042 A 
ATOM     28  C   UNK d   1      91.832  94.183 -42.773  0.00  0.00     0.024 A 
ATOM     29 Cl   UNK d   1      91.698  93.896 -45.458  0.00  0.00    -0.084 Cl
ATOM     30  C   UNK d   1      91.834  94.909 -41.541  0.00  0.00     0.002 A 
ATOM     31  C   UNK d   1      91.656  96.233 -41.604  0.00  0.00     0.001 A 
ATOM     32  C   UNK d   1      91.479  96.928 -42.806  0.00  0.00     0.010 A 
ENDBRANCH  25  26
ENDBRANCH  23  25
ENDBRANCH  20  21
ENDBRANCH   4  20
TORSDOF 6
ENDMDL
