/Users/jonathanwahrer/Desktop/Msc/3_Semester/Drug_Design_Praktikum/waehrer_HTS_screening/HTS_experiment/out/docking_results/vina_output/4agl/2286_docked.pdbqt
 OpenBabel03212201023D

 31 34  0  0  0  0  0  0  0  0999 V2000
   91.4890   97.6670  -44.8120 N   0  0  0  0  0  0  0  0  0  0  0  0
   92.6260   98.4660  -45.0950 C   0  0  0  0  0  2  0  0  0  0  0  0
   92.5870   99.8370  -44.4740 C   0  0  0  0  0  2  0  0  0  0  0  0
   92.0290   99.8180  -43.1390 N   0  0  0  0  0  0  0  0  0  0  0  0
   91.8580   98.5090  -42.5360 C   0  0  0  0  0  2  0  0  0  0  0  0
   91.1090   97.5690  -43.4480 C   0  0  0  0  0  2  0  0  0  0  0  0
   91.6900  101.0220  -42.5090 C   0  0  0  0  0  0  0  0  0  0  0  0
   91.8770  102.1030  -43.1170 O   0  0  0  0  0  0  0  0  0  0  0  0
   91.1130  101.0700  -41.1410 C   0  0  0  0  0  2  0  0  0  0  0  0
   91.8550  101.9410  -40.2710 N   0  0  0  0  0  0  0  0  0  0  0  0
   91.3610  103.1650  -39.7490 C   0  0  0  0  0  0  0  0  0  0  0  0
   90.2010  103.6420  -39.9890 O   0  0  0  0  0  0  0  0  0  0  0  0
   92.3220  103.8070  -38.9200 N   0  0  0  0  0  0  0  0  0  0  0  0
   93.5680  103.0820  -39.0860 C   0  0  0  0  0  0  0  0  0  0  0  0
   92.0740  104.9720  -38.0720 C   0  0  0  0  0  1  0  0  0  0  0  0
   94.2050  102.7360  -37.7710 C   0  0  0  0  0  2  0  0  0  0  0  0
   94.4540  103.9230  -39.9730 C   0  0  0  0  0  2  0  0  0  0  0  0
   93.1700  101.8140  -39.7480 C   0  0  0  0  0  0  0  0  0  0  0  0
   95.0550  103.8340  -37.2030 C   0  0  0  0  0  2  0  0  0  0  0  0
   96.0460  104.3970  -38.1790 C   0  0  0  0  0  2  0  0  0  0  0  0
   95.9040  103.7950  -39.5600 C   0  0  0  0  0  2  0  0  0  0  0  0
   93.8590  100.7710  -39.8510 O   0  0  0  0  0  0  0  0  0  0  0  0
   90.1790   97.8700  -45.8940 S   0  0  0  0  0  0  0  0  0  0  0  0
   89.8510   96.5520  -46.5250 O   0  0  0  0  0  0  0  0  0  0  0  0
   90.5190   98.8380  -46.9890 O   0  0  0  0  0  0  0  0  0  0  0  0
   88.7500   98.5190  -45.0730 C   0  0  0  0  0  0  0  0  0  0  0  0
   88.5070  100.0750  -44.4340 S   0  0  0  0  0  0  0  0  0  0  0  0
   86.9260   99.8860  -43.8390 C   0  0  0  0  0  0  0  0  0  0  0  0
   86.6200   98.5900  -44.1590 C   0  0  0  0  0  3  0  0  0  0  0  0
   85.8900  101.0600  -43.0000 Cl  0  0  0  0  0  0  0  0  0  0  0  0
   87.5720   97.8780  -44.8030 C   0  0  0  0  0  3  0  0  0  0  0  0
  1  6  1  0  0  0  0
  2  1  1  0  0  0  0
  2  3  1  0  0  0  0
  3  4  1  0  0  0  0
  4  5  1  0  0  0  0
  4  7  1  0  0  0  0
  6  5  1  0  0  0  0
  7  9  1  0  0  0  0
  8  7  2  0  0  0  0
  9 10  1  0  0  0  0
 10 11  1  0  0  0  0
 10 18  1  0  0  0  0
 11 13  1  0  0  0  0
 12 11  2  0  0  0  0
 13 15  1  0  0  0  0
 14 13  1  0  0  0  0
 14 16  1  0  0  0  0
 16 19  1  0  0  0  0
 17 21  1  0  0  0  0
 17 14  1  0  0  0  0
 18 14  1  0  0  0  0
 20 19  1  0  0  0  0
 21 20  1  0  0  0  0
 22 18  2  0  0  0  0
 23 26  1  0  0  0  0
 23  1  1  0  0  0  0
 24 23  2  0  0  0  0
 25 23  2  0  0  0  0
 26 31  2  0  0  0  0
 26 27  1  0  0  0  0
 27 28  1  0  0  0  0
 28 30  1  0  0  0  0
 29 28  2  0  0  0  0
 31 29  1  0  0  0  0
M  END
>  <Pose>
1

>  <Score>
-5.795

$$$$
