/Users/jonathanwahrer/Desktop/Msc/3_Semester/Drug_Design_Praktikum/waehrer_HTS_screening/HTS_experiment/out/docking_results/vina_output/4agl/2298_docked.pdbqt
 OpenBabel03212201033D

 34 37  0  0  0  0  0  0  0  0999 V2000
   90.5810  101.3660  -41.9220 C   0  0  0  0  0  2  0  0  0  0  0  0
   90.5220  102.3940  -42.9200 N   0  0  0  0  0  0  0  0  0  0  0  0
   90.0590  101.9510  -44.1860 C   0  0  0  0  0  2  0  0  0  0  0  0
   88.8080  102.6150  -44.6950 C   0  0  0  0  0  2  0  0  0  0  0  0
   87.8700  102.7260  -43.6900 N   0  0  0  0  0  0  0  0  0  0  0  0
   88.3040  103.2650  -42.4750 C   0  0  0  0  0  2  0  0  0  0  0  0
   89.8040  103.5440  -42.4720 C   0  0  0  0  0  2  0  0  0  0  0  0
   86.2850  102.2530  -43.8580 S   0  0  0  0  0  0  0  0  0  0  0  0
   85.5000  102.2930  -42.5700 O   0  0  0  0  0  0  0  0  0  0  0  0
   85.4910  103.0840  -44.8410 O   0  0  0  0  0  0  0  0  0  0  0  0
   86.2150  100.5810  -44.4080 C   0  0  0  0  0  0  0  0  0  0  0  0
   86.2870   99.5400  -43.5250 C   0  0  0  0  0  3  0  0  0  0  0  0
   86.2330   98.2380  -43.9470 C   0  0  0  0  0  3  0  0  0  0  0  0
   86.1040   97.9790  -45.2940 C   0  0  0  0  0  0  0  0  0  0  0  0
   86.0320   99.0290  -46.1900 C   0  0  0  0  0  3  0  0  0  0  0  0
   86.0380   96.3010  -45.8040 Cl  0  0  0  0  0  0  0  0  0  0  0  0
   86.0860  100.3290  -45.7550 C   0  0  0  0  0  3  0  0  0  0  0  0
   91.3560  100.1770  -42.4150 C   0  0  0  0  0  0  0  0  0  0  0  0
   92.5360  100.3800  -42.7750 O   0  0  0  0  0  0  0  0  0  0  0  0
   90.7710   98.8870  -42.4680 N   0  0  0  0  0  0  0  0  0  0  0  0
   89.7720   98.7840  -42.1480 H   0  0  0  0  0  0  0  0  0  0  0  0
   91.5840   97.8100  -42.9540 C   0  0  0  0  0  2  0  0  0  0  0  0
   91.2290   97.2530  -44.2780 C   0  0  0  0  0  0  0  0  0  0  0  0
   92.0850   97.8980  -45.3410 C   0  0  0  0  0  2  0  0  0  0  0  0
   91.4230   99.1420  -45.9410 C   0  0  0  0  0  2  0  0  0  0  0  0
   90.1970   98.7480  -46.7410 C   0  0  0  0  0  2  0  0  0  0  0  0
   89.5970   97.5240  -46.0730 C   0  0  0  0  0  2  0  0  0  0  0  0
   89.7930   97.7210  -44.5850 C   0  0  0  0  0  2  0  0  0  0  0  0
   91.2280   95.8490  -44.4320 N   0  0  0  0  0  0  0  0  0  0  0  0
   92.0030   95.2830  -45.4770 C   0  0  0  0  0  2  0  0  0  0  0  0
   91.4690   93.8520  -45.6720 C   0  0  0  0  0  2  0  0  0  0  0  0
   91.6750   93.1120  -44.5330 O   0  0  0  0  0  0  0  0  0  0  0  0
   92.2510   93.8080  -43.5000 C   0  0  0  0  0  2  0  0  0  0  0  0
   91.5220   95.1220  -43.2160 C   0  0  0  0  0  2  0  0  0  0  0  0
  2  7  1  0  0  0  0
  2  1  1  0  0  0  0
  3  2  1  0  0  0  0
  4  3  1  0  0  0  0
  4  5  1  0  0  0  0
  5  6  1  0  0  0  0
  6  7  1  0  0  0  0
  8  5  1  0  0  0  0
  8  9  2  0  0  0  0
 10  8  2  0  0  0  0
 11  8  1  0  0  0  0
 11 12  1  0  0  0  0
 13 12  2  0  0  0  0
 14 13  1  0  0  0  0
 15 17  1  0  0  0  0
 15 14  2  0  0  0  0
 16 14  1  0  0  0  0
 17 11  2  0  0  0  0
 18  1  1  0  0  0  0
 19 18  2  0  0  0  0
 20 18  1  0  0  0  0
 20 21  1  0  0  0  0
 22 20  1  0  0  0  0
 23 22  1  0  0  0  0
 24 23  1  0  0  0  0
 25 24  1  0  0  0  0
 26 27  1  0  0  0  0
 26 25  1  0  0  0  0
 27 28  1  0  0  0  0
 28 23  1  0  0  0  0
 29 23  1  0  0  0  0
 29 34  1  0  0  0  0
 30 29  1  0  0  0  0
 31 30  1  0  0  0  0
 31 32  1  0  0  0  0
 32 33  1  0  0  0  0
 33 34  1  0  0  0  0
M  END
>  <Pose>
1

>  <Score>
-5.301

$$$$
