MODEL 1
REMARK VINA RESULT:    -6.182      0.000      0.000
REMARK INTER + INTRA:          -7.709
REMARK INTER:                  -7.086
REMARK INTRA:                  -0.624
REMARK UNBOUND:                -0.624
REMARK  3 active torsions:
REMARK  status: ('A' for Active; 'I' for Inactive)
REMARK    1  A    between atoms: C_5  and  C_8 
REMARK    2  A    between atoms: C_8  and  O_23 
REMARK    3  A    between atoms: N_11  and  C_14 
ROOT
ATOM      1  C   UNK d   1      92.088  99.106 -43.835  0.00  0.00     0.088 C 
ATOM      2  C   UNK d   1      91.860  98.389 -45.125  0.00  0.00     0.062 C 
ATOM      3  C   UNK d   1      90.661  97.433 -45.006  0.00  0.00     0.128 C 
ATOM      4  N   UNK d   1      91.128  96.450 -44.018  0.00  0.00    -0.364 N 
ATOM      5  C   UNK d   1      91.320  96.977 -42.704  0.00  0.00     0.128 C 
ATOM      6  C   UNK d   1      92.187  98.201 -42.665  0.00  0.00     0.062 C 
ENDROOT
BRANCH   1   7
ATOM      7  C   UNK d   1      91.116 100.204 -43.704  0.00  0.00    -0.024 A 
ATOM      8  C   UNK d   1      90.737 101.058 -44.699  0.00  0.00     0.012 A 
ATOM      9  C   UNK d   1      89.821 102.038 -44.434  0.00  0.00     0.024 A 
ATOM     10  C   UNK d   1      89.233 102.229 -43.191  0.00  0.00     0.034 A 
ATOM     11 Cl   UNK d   1      88.054 103.492 -42.901  0.00  0.00    -0.084 Cl
ATOM     12  C   UNK d   1      89.620 101.367 -42.195  0.00  0.00     0.024 A 
ATOM     13  C   UNK d   1      90.545 100.372 -42.443  0.00  0.00     0.012 A 
ENDBRANCH   1   7
BRANCH   1  14
ATOM     14  O   UNK d   1      93.342  99.753 -43.974  0.00  0.00    -0.385 OA
ATOM     15  H   UNK d   1      93.640 100.004 -43.046  0.00  0.00     0.211 HD
ENDBRANCH   1  14
BRANCH   4  16
ATOM     16  C   UNK d   1      91.343  95.114 -44.434  0.00  0.00     0.148 A 
ATOM     17  N   UNK d   1      90.921  94.722 -45.648  0.00  0.00    -0.129 NA
ATOM     18  N   UNK d   1      91.072  93.513 -46.152  0.00  0.00    -0.108 N 
ATOM     19  N   UNK d   1      90.745  92.921 -47.304  0.00  0.00    -0.021 NA
ATOM     20  C   UNK d   1      91.686  92.577 -45.431  0.00  0.00     0.196 A 
ATOM     21  N   UNK d   1      91.134  91.666 -47.307  0.00  0.00    -0.021 NA
ATOM     22  N   UNK d   1      91.717  91.436 -46.162  0.00  0.00    -0.107 NA
ATOM     23  C   UNK d   1      92.149  92.907 -44.169  0.00  0.00     0.060 A 
ATOM     24  C   UNK d   1      91.982  94.176 -43.657  0.00  0.00     0.056 A 
ENDBRANCH   4  16
TORSDOF 3
ENDMDL
