/Users/jonathanwahrer/Desktop/Msc/3_Semester/Drug_Design_Praktikum/waehrer_HTS_screening/HTS_experiment/out/docking_results/vina_output/4agl/2301_docked.pdbqt
 OpenBabel03212201033D

 24 27  0  0  1  0  0  0  0  0999 V2000
   92.0880   99.1060  -43.8350 C   0  0  2  0  0  0  0  0  0  0  0  0
   91.8600   98.3890  -45.1250 C   0  0  0  0  0  2  0  0  0  0  0  0
   90.6610   97.4330  -45.0060 C   0  0  0  0  0  2  0  0  0  0  0  0
   91.1280   96.4500  -44.0180 N   0  0  0  0  0  0  0  0  0  0  0  0
   91.3200   96.9770  -42.7040 C   0  0  0  0  0  2  0  0  0  0  0  0
   92.1870   98.2010  -42.6650 C   0  0  0  0  0  2  0  0  0  0  0  0
   91.1160  100.2040  -43.7040 C   0  0  0  0  0  0  0  0  0  0  0  0
   90.7370  101.0580  -44.6990 C   0  0  0  0  0  3  0  0  0  0  0  0
   89.8210  102.0380  -44.4340 C   0  0  0  0  0  3  0  0  0  0  0  0
   89.2330  102.2290  -43.1910 C   0  0  0  0  0  0  0  0  0  0  0  0
   88.0540  103.4920  -42.9010 Cl  0  0  0  0  0  0  0  0  0  0  0  0
   89.6200  101.3670  -42.1950 C   0  0  0  0  0  3  0  0  0  0  0  0
   90.5450  100.3720  -42.4430 C   0  0  0  0  0  3  0  0  0  0  0  0
   93.3420   99.7530  -43.9740 O   0  0  0  0  0  0  0  0  0  0  0  0
   93.6400  100.0040  -43.0460 H   0  0  0  0  0  0  0  0  0  0  0  0
   91.3430   95.1140  -44.4340 C   0  0  0  0  0  0  0  0  0  0  0  0
   90.9210   94.7220  -45.6480 N   0  0  0  0  0  0  0  0  0  0  0  0
   91.0720   93.5130  -46.1520 N   0  0  0  0  0  0  0  0  0  0  0  0
   90.7450   92.9210  -47.3040 N   0  0  0  0  0  0  0  0  0  0  0  0
   91.6860   92.5770  -45.4310 C   0  0  0  0  0  0  0  0  0  0  0  0
   91.1340   91.6660  -47.3070 N   0  0  0  0  0  0  0  0  0  0  0  0
   91.7170   91.4360  -46.1620 N   0  0  0  0  0  0  0  0  0  0  0  0
   92.1490   92.9070  -44.1690 C   0  0  0  0  0  3  0  0  0  0  0  0
   91.9820   94.1760  -43.6570 C   0  0  0  0  0  3  0  0  0  0  0  0
  1 14  1  6  0  0  0
  1  7  1  0  0  0  0
  1  6  1  0  0  0  0
  2  3  1  0  0  0  0
  2  1  1  0  0  0  0
  3  4  1  0  0  0  0
  4  5  1  0  0  0  0
  5  6  1  0  0  0  0
  7 13  1  0  0  0  0
  8  9  1  0  0  0  0
  8  7  2  0  0  0  0
  9 10  2  0  0  0  0
 10 11  1  0  0  0  0
 10 12  1  0  0  0  0
 13 12  2  0  0  0  0
 14 15  1  0  0  0  0
 16  4  1  0  0  0  0
 16 24  1  0  0  0  0
 17 16  2  0  0  0  0
 18 17  1  0  0  0  0
 18 20  1  0  0  0  0
 19 18  1  0  0  0  0
 20 23  1  0  0  0  0
 21 19  2  0  0  0  0
 21 22  1  0  0  0  0
 22 20  2  0  0  0  0
 23 24  2  0  0  0  0
M  END
>  <Pose>
1

>  <Score>
-6.182

$$$$
