MODEL 1
REMARK VINA RESULT:    -6.312      0.000      0.000
REMARK INTER + INTRA:          -7.550
REMARK INTER:                  -7.419
REMARK INTRA:                  -0.130
REMARK UNBOUND:                -0.130
REMARK  3 active torsions:
REMARK  status: ('A' for Active; 'I' for Inactive)
REMARK    1  A    between atoms: S_1  and  N_4 
REMARK    2  A    between atoms: S_1  and  C_22 
REMARK       I    between atoms: N_7  and  C_10 
REMARK    3  A    between atoms: C_10  and  C_12 
ROOT
ATOM      1  N   UNK d   1      90.356  97.688 -44.041  0.00  0.00    -0.304 N 
ATOM      2  C   UNK d   1      89.536  98.609 -44.731  0.00  0.00     0.155 C 
ATOM      3  C   UNK d   1      89.472  99.985 -44.121  0.00  0.00     0.146 C 
ATOM      4  N   UNK d   1      90.751 100.465 -43.677  0.00  0.00    -0.347 N 
ATOM      5  C   UNK d   1      91.826  99.506 -43.620  0.00  0.00     0.146 C 
ATOM      6  C   UNK d   1      91.234  98.217 -43.056  0.00  0.00     0.155 C 
ATOM      7  C   UNK d   1      90.912 101.813 -43.317  0.00  0.00     0.243 C 
ATOM      8  O   UNK d   1      89.894 102.558 -43.395  0.00  0.00    -0.271 OA
ENDROOT
BRANCH   7   9
ATOM      9  C   UNK d   1      92.195 102.410 -42.855  0.00  0.00     0.190 C 
ATOM     10  N   UNK d   1      92.267 102.476 -41.442  0.00  0.00    -0.320 N 
ATOM     11  C   UNK d   1      91.767 103.666 -40.833  0.00  0.00     0.081 C 
ATOM     12  C   UNK d   1      92.716 101.658 -40.337  0.00  0.00     0.222 C 
ATOM     13  S   UNK d   1      92.107 104.925 -42.081  0.00  0.00    -0.135 SA
ATOM     14  C   UNK d   1      92.742 103.893 -39.693  0.00  0.00     0.051 C 
ATOM     15  C   UNK d   1      90.363 103.631 -40.378  0.00  0.00     0.051 C 
ATOM     16  C   UNK d   1      92.449 103.759 -43.458  0.00  0.00     0.111 C 
ATOM     17  C   UNK d   1      92.778 102.469 -39.124  0.00  0.00     0.106 C 
ATOM     18  O   UNK d   1      93.018 100.427 -40.374  0.00  0.00    -0.273 OA
ENDBRANCH   7   9
BRANCH   1  19
ATOM     19  S   UNK d   1      90.976  96.411 -44.971  0.00  0.00     0.260 S 
ATOM     20  O   UNK d   1      89.926  95.846 -45.874  0.00  0.00    -0.200 OA
ATOM     21  O   UNK d   1      92.066  96.957 -45.861  0.00  0.00    -0.200 OA
BRANCH  19  22
ATOM     22  C   UNK d   1      91.714  95.144 -43.995  0.00  0.00     0.079 A 
ATOM     23  C   UNK d   1      91.754  95.252 -42.622  0.00  0.00     0.027 A 
ATOM     24  C   UNK d   1      92.324  94.282 -41.831  0.00  0.00     0.025 A 
ATOM     25  C   UNK d   1      92.886  93.145 -42.382  0.00  0.00     0.034 A 
ATOM     26  C   UNK d   1      92.830  93.065 -43.764  0.00  0.00     0.025 A 
ATOM     27 Cl   UNK d   1      93.620  91.890 -41.405  0.00  0.00    -0.084 Cl
ATOM     28  C   UNK d   1      92.265  94.025 -44.566  0.00  0.00     0.027 A 
ENDBRANCH  19  22
ENDBRANCH   1  19
TORSDOF 3
ENDMDL
