MODEL 1
REMARK VINA RESULT:    -6.709      0.000      0.000
REMARK INTER + INTRA:          -9.736
REMARK INTER:                  -8.670
REMARK INTRA:                  -1.066
REMARK UNBOUND:                -1.066
REMARK  5 active torsions:
REMARK  status: ('A' for Active; 'I' for Inactive)
REMARK    1  A    between atoms: C_3  and  C_13 
REMARK    2  A    between atoms: C_5  and  C_8 
REMARK       I    between atoms: C_13  and  N_15 
REMARK    3  A    between atoms: N_15  and  C_16 
REMARK    4  A    between atoms: C_16  and  C_17 
REMARK    5  A    between atoms: C_17  and  C_18 
ROOT
ATOM      1  C   UNK d   1      90.787  97.199 -45.400  0.00  0.00     0.253 C 
ATOM      2  O   UNK d   1      89.571  97.497 -45.449  0.00  0.00    -0.268 OA
ATOM      3  N   UNK d   1      91.741  98.153 -45.759  0.00  0.00    -0.356 N 
ATOM      4  H   UNK d   1      92.758  97.797 -45.670  0.00  0.00     0.162 HD
ENDROOT
BRANCH   1   5
ATOM      5  C   UNK d   1      91.128  95.834 -44.958  0.00  0.00     0.054 A 
ATOM      6  C   UNK d   1      91.511  95.562 -43.661  0.00  0.00     0.049 A 
ATOM      7 Cl   UNK d   1      91.580  96.908 -42.534  0.00  0.00    -0.083 Cl
ATOM      8  C   UNK d   1      91.834  94.273 -43.244  0.00  0.00     0.026 A 
ATOM      9  C   UNK d   1      91.768  93.250 -44.153  0.00  0.00     0.017 A 
ATOM     10  C   UNK d   1      91.385  93.474 -45.480  0.00  0.00     0.016 A 
ATOM     11  C   UNK d   1      91.081  94.765 -45.826  0.00  0.00     0.034 A 
BRANCH  10  12
ATOM     12  C   UNK d   1      91.329  92.359 -46.414  0.00  0.00     0.197 A 
ATOM     13  N   UNK d   1      91.858  91.136 -46.311  0.00  0.00    -0.139 NA
ATOM     14  N   UNK d   1      91.551  90.434 -47.413  0.00  0.00    -0.200 N 
ATOM     15  N   UNK d   1      90.833  91.207 -48.208  0.00  0.00     0.022 NA
ATOM     16  H   UNK d   1      91.823  89.446 -47.626  0.00  0.00     0.208 HD
ATOM     17  N   UNK d   1      90.695  92.385 -47.597  0.00  0.00    -0.136 NA
ENDBRANCH  10  12
ENDBRANCH   1   5
BRANCH   3  18
ATOM     18  C   UNK d   1      91.603  99.477 -46.210  0.00  0.00     0.130 C 
BRANCH  18  19
ATOM     19  C   UNK d   1      91.950 100.613 -45.347  0.00  0.00     0.100 C 
BRANCH  19  20
ATOM     20  C   UNK d   1      91.570 100.592 -43.937  0.00  0.00     0.136 A 
ATOM     21  N   UNK d   1      92.250 101.089 -42.899  0.00  0.00    -0.292 N 
ATOM     22  C   UNK d   1      91.533 100.898 -41.802  0.00  0.00     0.157 A 
ATOM     23  C   UNK d   1      93.449 101.699 -42.825  0.00  0.00     0.100 A 
ATOM     24  N   UNK d   1      90.401 100.279 -42.159  0.00  0.00    -0.130 NA
ATOM     25  C   UNK d   1      91.963 101.302 -40.556  0.00  0.00     0.053 A 
ATOM     26  N   UNK d   1      90.427 100.096 -43.451  0.00  0.00    -0.134 NA
ATOM     27  C   UNK d   1      93.195 101.927 -40.481  0.00  0.00     0.005 A 
ATOM     28  C   UNK d   1      93.928 102.120 -41.620  0.00  0.00     0.018 A 
ENDBRANCH  19  20
ENDBRANCH  18  19
ENDBRANCH   3  18
TORSDOF 5
ENDMDL
