/Users/jonathanwahrer/Desktop/Msc/3_Semester/Drug_Design_Praktikum/waehrer_HTS_screening/HTS_experiment/out/docking_results/vina_output/4agl/2334_docked.pdbqt
 OpenBabel03212201043D

 30 33  0  0  1  0  0  0  0  0999 V2000
   91.2690   97.4830  -45.1980 S   0  0  0  0  0  0  0  0  0  0  0  0
   90.2580   97.5520  -46.3450 O   0  0  0  0  0  0  0  0  0  0  0  0
   92.5800   97.9640  -45.8300 O   0  0  0  0  0  0  0  0  0  0  0  0
   90.7460   98.5910  -44.0270 N   0  0  0  0  0  0  0  0  0  0  0  0
   90.9970   99.9630  -44.2900 C   0  0  0  0  0  2  0  0  0  0  0  0
   90.4700  100.8830  -43.2140 C   0  0  1  0  0  3  0  0  0  0  0  0
   89.0140  100.6520  -42.9970 C   0  0  0  0  0  2  0  0  0  0  0  0
   88.7020   99.1780  -42.8070 C   0  0  0  0  0  2  0  0  0  0  0  0
   89.2810   98.4110  -43.9440 C   0  0  0  0  0  2  0  0  0  0  0  0
   91.2890  100.9080  -41.9850 C   0  0  0  0  0  0  0  0  0  0  0  0
   92.0920   99.9130  -41.8460 O   0  0  0  0  0  0  0  0  0  0  0  0
   91.2870  101.8700  -40.9850 N   0  0  0  0  0  0  0  0  0  0  0  0
   92.1640  101.7900  -39.8590 C   0  0  0  0  0  2  0  0  0  0  0  0
   90.3900  103.0000  -41.0160 C   0  0  0  0  0  2  0  0  0  0  0  0
   92.6690  103.1250  -39.3890 C   0  0  0  0  0  2  0  0  0  0  0  0
   91.8890  104.1920  -39.7060 O   0  0  0  0  0  0  0  0  0  0  0  0
   91.3400  104.2080  -40.9710 C   0  0  0  0  0  2  0  0  0  0  0  0
   91.4840   95.8550  -44.7070 C   0  0  0  0  0  0  0  0  0  0  0  0
   91.6490   95.4910  -43.3930 C   0  0  0  0  0  0  0  0  0  0  0  0
   91.7530   94.1510  -43.0540 C   0  0  0  0  0  3  0  0  0  0  0  0
   91.8200   96.6450  -42.0880 Cl  0  0  0  0  0  0  0  0  0  0  0  0
   91.6970   93.1470  -44.0250 C   0  0  0  0  0  3  0  0  0  0  0  0
   91.5350   93.4980  -45.3470 C   0  0  0  0  0  0  0  0  0  0  0  0
   91.4330   94.8330  -45.6630 C   0  0  0  0  0  3  0  0  0  0  0  0
   91.4760   92.4730  -46.3790 C   0  0  0  0  0  0  0  0  0  0  0  0
   92.1610   91.3170  -46.3890 N   0  0  0  0  0  0  0  0  0  0  0  0
   91.8680   90.6370  -47.4630 O   0  0  0  0  0  0  0  0  0  0  0  0
   91.0030   91.3120  -48.1720 C   0  0  0  0  0  0  0  0  0  0  0  0
   90.7500   92.4570  -47.5090 N   0  0  0  0  0  0  0  0  0  0  0  0
   90.3950   90.9000  -49.4840 C   0  0  0  0  0  1  0  0  0  0  0  0
  1 18  1  0  0  0  0
  1  4  1  0  0  0  0
  2  1  2  0  0  0  0
  3  1  2  0  0  0  0
  4  9  1  0  0  0  0
  5  4  1  0  0  0  0
  5  6  1  0  0  0  0
  6  7  1  0  0  0  0
  6 10  1  1  0  0  0
  7  8  1  0  0  0  0
  9  8  1  0  0  0  0
 10 11  2  0  0  0  0
 10 12  1  0  0  0  0
 12 13  1  0  0  0  0
 13 15  1  0  0  0  0
 14 12  1  0  0  0  0
 14 17  1  0  0  0  0
 16 15  1  0  0  0  0
 17 16  1  0  0  0  0
 18 19  1  0  0  0  0
 19 20  2  0  0  0  0
 19 21  1  0  0  0  0
 22 20  1  0  0  0  0
 23 22  2  0  0  0  0
 24 23  1  0  0  0  0
 24 18  2  0  0  0  0
 25 23  1  0  0  0  0
 26 25  2  0  0  0  0
 27 26  1  0  0  0  0
 28 29  2  0  0  0  0
 28 27  1  0  0  0  0
 29 25  1  0  0  0  0
 30 28  1  0  0  0  0
M  END
>  <Pose>
1

>  <Score>
-7.734

$$$$
