MODEL 1
REMARK VINA RESULT:    -6.663      0.000      0.000
REMARK INTER + INTRA:         -10.695
REMARK INTER:                  -9.390
REMARK INTRA:                  -1.305
REMARK UNBOUND:                -1.305
REMARK  7 active torsions:
REMARK  status: ('A' for Active; 'I' for Inactive)
REMARK    1  A    between atoms: S_1  and  N_4 
REMARK    2  A    between atoms: S_1  and  C_21 
REMARK    3  A    between atoms: C_6  and  C_10 
REMARK       I    between atoms: C_10  and  N_12 
REMARK    4  A    between atoms: N_12  and  C_13 
REMARK    5  A    between atoms: C_13  and  C_14 
REMARK    6  A    between atoms: C_14  and  N_15 
REMARK       I    between atoms: N_30  and  C_31 
REMARK    7  A    between atoms: C_31  and  C_33 
ROOT
ATOM      1  N   UNK d   1      89.602  99.030 -44.920  0.00  0.00    -0.306 N 
ATOM      2  C   UNK d   1      90.655  99.964 -44.966  0.00  0.00     0.149 C 
ATOM      3  C   UNK d   1      91.609  99.862 -43.796  0.00  0.00     0.096 C 
ATOM      4  C   UNK d   1      90.997  99.325 -42.559  0.00  0.00     0.017 C 
ATOM      5  C   UNK d   1      89.514  99.317 -42.487  0.00  0.00     0.021 C 
ATOM      6  C   UNK d   1      88.800  99.001 -43.777  0.00  0.00     0.135 C 
ENDROOT
BRANCH   1   7
ATOM      7  S   UNK d   1      89.386  97.957 -46.171  0.00  0.00     0.262 S 
ATOM      8  O   UNK d   1      89.910  98.594 -47.457  0.00  0.00    -0.200 OA
ATOM      9  O   UNK d   1      87.892  97.812 -46.430  0.00  0.00    -0.200 OA
BRANCH   7  10
ATOM     10  C   UNK d   1      90.055  96.380 -45.969  0.00  0.00     0.099 A 
ATOM     11  C   UNK d   1      90.797  96.075 -44.838  0.00  0.00     0.057 A 
ATOM     12  C   UNK d   1      91.339  94.832 -44.623  0.00  0.00     0.045 A 
ATOM     13  C   UNK d   1      91.137  93.832 -45.583  0.00  0.00    -0.028 A 
ATOM     14  N   UNK d   1      92.112  94.223 -43.599  0.00  0.00    -0.317 N 
ATOM     15  C   UNK d   1      90.411  94.140 -46.686  0.00  0.00     0.030 A 
ATOM     16  C   UNK d   1      91.803  92.570 -45.163  0.00  0.00     0.061 C 
ATOM     17  C   UNK d   1      89.864  95.394 -46.901  0.00  0.00     0.035 A 
ATOM     18 Br   UNK d   1      88.852  95.715 -48.512  0.00  0.00    -0.049 Br
ATOM     19  C   UNK d   1      92.832  93.082 -44.176  0.00  0.00     0.137 C 
ATOM     20  C   UNK d   1      92.212  94.592 -42.259  0.00  0.00     0.224 C 
ATOM     21  O   UNK d   1      92.926  93.892 -41.460  0.00  0.00    -0.273 OA
BRANCH  20  22
ATOM     22  C   UNK d   1      91.541  95.753 -41.677  0.00  0.00     0.099 C 
ATOM     23  C   UNK d   1      92.452  96.521 -40.723  0.00  0.00     0.014 C 
ENDBRANCH  20  22
ENDBRANCH   7  10
ENDBRANCH   1   7
BRANCH   3  24
ATOM     24  C   UNK d   1      92.254 101.171 -43.521  0.00  0.00     0.223 C 
ATOM     25  O   UNK d   1      91.568 102.210 -43.681  0.00  0.00    -0.273 OA
ATOM     26  N   UNK d   1      93.630 101.232 -43.083  0.00  0.00    -0.359 N 
ATOM     27  H   UNK d   1      94.100 100.327 -42.994  0.00  0.00     0.162 HD
BRANCH  26  28
ATOM     28  C   UNK d   1      94.180 102.515 -42.837  0.00  0.00     0.142 C 
BRANCH  28  29
ATOM     29  C   UNK d   1      94.854 102.772 -41.543  0.00  0.00     0.136 C 
BRANCH  29  30
ATOM     30  N   UNK d   1      94.071 102.928 -40.374  0.00  0.00    -0.407 N 
ATOM     31  C   UNK d   1      93.478 101.800 -39.820  0.00  0.00     0.143 C 
ATOM     32  C   UNK d   1      91.978 101.746 -39.845  0.00  0.00     0.187 C 
ATOM     33  O   UNK d   1      91.396 102.977 -39.580  0.00  0.00    -0.388 OA
ATOM     34  C   UNK d   1      91.784 103.828 -40.614  0.00  0.00     0.187 C 
ATOM     35  C   UNK d   1      93.254 104.118 -40.416  0.00  0.00     0.143 C 
ENDBRANCH  29  30
ENDBRANCH  28  29
ENDBRANCH  26  28
ENDBRANCH   3  24
TORSDOF 7
ENDMDL
