/Users/jonathanwahrer/Desktop/Msc/3_Semester/Drug_Design_Praktikum/waehrer_HTS_screening/HTS_experiment/out/docking_results/vina_output/4agl/2335_docked.pdbqt
 OpenBabel03212201043D

 35 38  0  0  1  0  0  0  0  0999 V2000
   89.6020   99.0300  -44.9200 N   0  0  0  0  0  0  0  0  0  0  0  0
   90.6550   99.9640  -44.9660 C   0  0  0  0  0  2  0  0  0  0  0  0
   91.6090   99.8620  -43.7960 C   0  0  2  0  0  3  0  0  0  0  0  0
   90.9970   99.3250  -42.5590 C   0  0  0  0  0  2  0  0  0  0  0  0
   89.5140   99.3170  -42.4870 C   0  0  0  0  0  3  0  0  0  0  0  0
   88.8000   99.0010  -43.7770 C   0  0  0  0  0  3  0  0  0  0  0  0
   89.3860   97.9570  -46.1710 S   0  0  0  0  0  0  0  0  0  0  0  0
   89.9100   98.5940  -47.4570 O   0  0  0  0  0  0  0  0  0  0  0  0
   87.8920   97.8120  -46.4300 O   0  0  0  0  0  0  0  0  0  0  0  0
   90.0550   96.3800  -45.9690 C   0  0  0  0  0  0  0  0  0  0  0  0
   90.7970   96.0750  -44.8380 C   0  0  0  0  0  3  0  0  0  0  0  0
   91.3390   94.8320  -44.6230 C   0  0  0  0  0  0  0  0  0  0  0  0
   91.1370   93.8320  -45.5830 C   0  0  0  0  0  0  0  0  0  0  0  0
   92.1120   94.2230  -43.5990 N   0  0  0  0  0  0  0  0  0  0  0  0
   90.4110   94.1400  -46.6860 C   0  0  0  0  0  3  0  0  0  0  0  0
   91.8030   92.5700  -45.1630 C   0  0  0  0  0  2  0  0  0  0  0  0
   89.8640   95.3940  -46.9010 C   0  0  0  0  0  0  0  0  0  0  0  0
   88.8520   95.7150  -48.5120 Br  0  0  0  0  0  0  0  0  0  0  0  0
   92.8320   93.0820  -44.1760 C   0  0  0  0  0  2  0  0  0  0  0  0
   92.2120   94.5920  -42.2590 C   0  0  0  0  0  0  0  0  0  0  0  0
   92.9260   93.8920  -41.4600 O   0  0  0  0  0  0  0  0  0  0  0  0
   91.5410   95.7530  -41.6770 C   0  0  0  0  0  2  0  0  0  0  0  0
   92.4520   96.5210  -40.7230 C   0  0  0  0  0  1  0  0  0  0  0  0
   92.2540  101.1710  -43.5210 C   0  0  0  0  0  0  0  0  0  0  0  0
   91.5680  102.2100  -43.6810 O   0  0  0  0  0  0  0  0  0  0  0  0
   93.6300  101.2320  -43.0830 N   0  0  0  0  0  0  0  0  0  0  0  0
   94.1000  100.3270  -42.9940 H   0  0  0  0  0  0  0  0  0  0  0  0
   94.1800  102.5150  -42.8370 C   0  0  0  0  0  2  0  0  0  0  0  0
   94.8540  102.7720  -41.5430 C   0  0  0  0  0  2  0  0  0  0  0  0
   94.0710  102.9280  -40.3740 N   0  0  0  0  0  0  0  0  0  0  0  0
   93.4780  101.8000  -39.8200 C   0  0  0  0  0  2  0  0  0  0  0  0
   91.9780  101.7460  -39.8450 C   0  0  0  0  0  2  0  0  0  0  0  0
   91.3960  102.9770  -39.5800 O   0  0  0  0  0  0  0  0  0  0  0  0
   91.7840  103.8280  -40.6140 C   0  0  0  0  0  2  0  0  0  0  0  0
   93.2540  104.1180  -40.4160 C   0  0  0  0  0  2  0  0  0  0  0  0
  1  6  1  0  0  0  0
  2  1  1  0  0  0  0
  2  3  1  0  0  0  0
  3 24  1  1  0  0  0
  3  4  1  0  0  0  0
  4  5  1  0  0  0  0
  6  5  2  0  0  0  0
  7 10  1  0  0  0  0
  7  1  1  0  0  0  0
  8  7  2  0  0  0  0
  9  7  2  0  0  0  0
 10 11  1  0  0  0  0
 11 12  2  0  0  0  0
 12 14  1  0  0  0  0
 13 16  1  0  0  0  0
 13 12  1  0  0  0  0
 14 20  1  0  0  0  0
 15 13  2  0  0  0  0
 16 19  1  0  0  0  0
 17 15  1  0  0  0  0
 17 10  2  0  0  0  0
 18 17  1  0  0  0  0
 19 14  1  0  0  0  0
 20 22  1  0  0  0  0
 20 21  2  0  0  0  0
 22 23  1  0  0  0  0
 24 26  1  0  0  0  0
 25 24  2  0  0  0  0
 26 27  1  0  0  0  0
 26 28  1  0  0  0  0
 28 29  1  0  0  0  0
 29 30  1  0  0  0  0
 30 31  1  0  0  0  0
 32 31  1  0  0  0  0
 32 33  1  0  0  0  0
 34 35  1  0  0  0  0
 34 33  1  0  0  0  0
 35 30  1  0  0  0  0
M  END
>  <Pose>
1

>  <Score>
-6.663

$$$$
