MODEL 1
REMARK VINA RESULT:    -5.980      0.000      0.000
REMARK INTER + INTRA:          -7.833
REMARK INTER:                  -7.029
REMARK INTRA:                  -0.804
REMARK UNBOUND:                -0.804
REMARK  3 active torsions:
REMARK  status: ('A' for Active; 'I' for Inactive)
REMARK    1  A    between atoms: C_5  and  N_8 
REMARK    2  A    between atoms: C_10  and  C_14 
REMARK       I    between atoms: C_14  and  N_16 
REMARK    3  A    between atoms: N_19  and  C_22 
ROOT
ATOM      1  C   UNK d   1      91.648 101.157 -43.457  0.00  0.00     0.226 C 
ATOM      2  O   UNK d   1      90.537 101.749 -43.190  0.00  0.00    -0.273 OA
ATOM      3  N   UNK d   1      91.554  99.971 -44.193  0.00  0.00    -0.349 N 
ATOM      4  C   UNK d   1      90.254  99.464 -44.603  0.00  0.00     0.146 C 
ATOM      5  C   UNK d   1      90.044  98.046 -44.081  0.00  0.00     0.161 C 
ATOM      6  N   UNK d   1      91.300  97.356 -44.088  0.00  0.00    -0.213 N 
ATOM      7  C   UNK d   1      92.308  97.771 -45.016  0.00  0.00     0.161 C 
ATOM      8  C   UNK d   1      92.707  99.196 -44.585  0.00  0.00     0.146 C 
ENDROOT
BRANCH   1   9
ATOM      9  C   UNK d   1      92.873 101.793 -42.958  0.00  0.00     0.105 C 
ATOM     10  C   UNK d   1      93.197 101.507 -41.518  0.00  0.00     0.146 C 
ATOM     11  N   UNK d   1      93.048 102.769 -40.803  0.00  0.00    -0.317 N 
ATOM     12  C   UNK d   1      93.276 103.796 -41.793  0.00  0.00     0.225 C 
ATOM     13  C   UNK d   1      92.957 103.272 -43.141  0.00  0.00     0.119 C 
ATOM     14  O   UNK d   1      93.692 104.950 -41.448  0.00  0.00    -0.273 OA
BRANCH  11  15
ATOM     15  C   UNK d   1      92.745 102.971 -39.427  0.00  0.00     0.037 A 
ATOM     16  C   UNK d   1      91.455 103.155 -38.976  0.00  0.00     0.031 A 
ATOM     17  C   UNK d   1      91.158 103.356 -37.641  0.00  0.00     0.026 A 
ATOM     18  C   UNK d   1      92.160 103.376 -36.708  0.00  0.00     0.034 A 
ATOM     19 Cl   UNK d   1      91.799 103.630 -35.001  0.00  0.00    -0.084 Cl
ATOM     20  C   UNK d   1      93.452 103.196 -37.119  0.00  0.00     0.026 A 
ATOM     21  C   UNK d   1      93.743 102.994 -38.476  0.00  0.00     0.031 A 
ENDBRANCH  11  15
ENDBRANCH   1   9
BRANCH   6  22
ATOM     22  C   UNK d   1      91.548  96.293 -43.194  0.00  0.00     0.704 A 
ATOM     23  N   UNK d   1      91.622  94.969 -43.504  0.00  0.00    -0.195 N 
ATOM     24  C   UNK d   1      91.879  94.274 -42.387  0.00  0.00     0.128 A 
ATOM     25  C   UNK d   1      91.446  94.398 -44.846  0.00  0.00     0.175 C 
ATOM     26  C   UNK d   1      91.970  95.161 -41.341  0.00  0.00     0.154 A 
ATOM     27  N   UNK d   1      91.766  96.356 -41.865  0.00  0.00    -0.075 NA
ENDBRANCH   6  22
TORSDOF 3
ENDMDL
