MODEL 1
REMARK VINA RESULT:    -6.739      0.000      0.000
REMARK INTER + INTRA:          -7.416
REMARK INTER:                  -7.133
REMARK INTRA:                  -0.283
REMARK UNBOUND:                -0.283
REMARK  1 active torsions:
REMARK  status: ('A' for Active; 'I' for Inactive)
REMARK    1  A    between atoms: C_5  and  N_8 
ROOT
ATOM      1  N   UNK d   1      91.399  99.900 -46.642  0.00  0.00    -0.231 N 
ATOM      2  C   UNK d   1      90.103  99.902 -47.257  0.00  0.00     0.357 A 
ATOM      3  O   UNK d   1      89.892 100.679 -48.230  0.00  0.00    -0.244 OA
ATOM      4  N   UNK d   1      89.138  99.014 -46.717  0.00  0.00    -0.169 NA
ATOM      5  C   UNK d   1      89.327  98.239 -45.744  0.00  0.00     0.202 A 
ATOM      6  C   UNK d   1      90.605  98.108 -44.961  0.00  0.00     0.140 A 
ATOM      7  C   UNK d   1      90.258  98.607 -43.587  0.00  0.00     0.269 C 
ATOM      8  N   UNK d   1      91.047  98.148 -42.510  0.00  0.00    -0.043 N 
ATOM      9  C   UNK d   1      91.422  96.784 -42.547  0.00  0.00     0.140 A 
ATOM     10  C   UNK d   1      91.400  96.104 -43.721  0.00  0.00    -0.021 A 
ATOM     11  C   UNK d   1      91.777  94.763 -43.718  0.00  0.00     0.016 A 
ATOM     12  C   UNK d   1      92.159  94.158 -42.538  0.00  0.00    -0.061 A 
ATOM     13  C   UNK d   1      92.179  94.854 -41.339  0.00  0.00     0.009 A 
ATOM     14  C   UNK d   1      91.800  96.195 -41.357  0.00  0.00     0.038 A 
ATOM     15  C   UNK d   1      92.559  92.715 -42.500  0.00  0.00     0.048 C 
ATOM     16  C   UNK d   1      91.007  96.685 -45.023  0.00  0.00     0.070 C 
ATOM     17  C   UNK d   1      92.207  98.966 -42.191  0.00  0.00     0.276 C 
ATOM     18  C   UNK d   1      91.617  99.012 -45.560  0.00  0.00     0.251 A 
ATOM     19  O   UNK d   1      92.816  99.035 -45.103  0.00  0.00    -0.271 OA
ATOM     20  O   UNK d   1      88.293  97.395 -45.298  0.00  0.00    -0.173 OA
ATOM     21  H   UNK d   1      90.438  98.226 -41.633  0.00  0.00     0.286 HD
ENDROOT
BRANCH   1  22
ATOM     22  C   UNK d   1      92.355 100.812 -47.145  0.00  0.00     0.047 A 
ATOM     23  C   UNK d   1      92.503 102.090 -46.604  0.00  0.00     0.032 A 
ATOM     24  C   UNK d   1      93.425 102.988 -47.069  0.00  0.00     0.026 A 
ATOM     25  C   UNK d   1      94.280 102.675 -48.127  0.00  0.00     0.034 A 
ATOM     26 Cl   UNK d   1      95.460 103.838 -48.701  0.00  0.00    -0.084 Cl
ATOM     27  C   UNK d   1      94.133 101.411 -48.664  0.00  0.00     0.026 A 
ATOM     28  C   UNK d   1      93.207 100.511 -48.195  0.00  0.00     0.032 A 
ENDBRANCH   1  22
TORSDOF 1
ENDMDL
