MODEL 1
REMARK VINA RESULT:    -6.521      0.000      0.000
REMARK INTER + INTRA:          -7.559
REMARK INTER:                  -7.284
REMARK INTRA:                  -0.275
REMARK UNBOUND:                -0.275
REMARK  3 active torsions:
REMARK  status: ('A' for Active; 'I' for Inactive)
REMARK    1  A    between atoms: C_5  and  N_8 
REMARK    2  A    between atoms: C_13  and  O_21 
REMARK    3  A    between atoms: C_14  and  O_20 
ROOT
ATOM      1  N   UNK d   1      91.757  96.737 -44.150  0.00  0.00    -0.252 N 
ATOM      2  C   UNK d   1      92.147  97.970 -44.777  0.00  0.00     0.236 C 
ATOM      3  O   UNK d   1      92.670  98.029 -45.918  0.00  0.00    -0.272 OA
ATOM      4  C   UNK d   1      91.847  99.125 -43.895  0.00  0.00     0.099 C 
ATOM      5  C   UNK d   1      90.824 100.060 -44.454  0.00  0.00     0.031 C 
ATOM      6  C   UNK d   1      89.887  99.240 -45.316  0.00  0.00     0.152 C 
ATOM      7  C   UNK d   1      89.226  98.340 -44.274  0.00  0.00     0.152 C 
ATOM      8  C   UNK d   1      89.730  98.817 -42.932  0.00  0.00     0.031 C 
ATOM      9  C   UNK d   1      91.166  98.478 -42.683  0.00  0.00     0.099 C 
ATOM     10  C   UNK d   1      91.478  97.032 -42.791  0.00  0.00     0.236 C 
ATOM     11  O   UNK d   1      91.486  96.235 -41.821  0.00  0.00    -0.272 OA
ATOM     12  C   UNK d   1      89.884 100.318 -43.265  0.00  0.00     0.016 C 
ENDROOT
BRANCH   1  13
ATOM     13  C   UNK d   1      91.647  95.442 -44.726  0.00  0.00     0.045 A 
ATOM     14  C   UNK d   1      90.860  95.235 -45.865  0.00  0.00     0.032 A 
ATOM     15  C   UNK d   1      90.743  93.983 -46.421  0.00  0.00     0.026 A 
ATOM     16  C   UNK d   1      91.395  92.891 -45.880  0.00  0.00     0.034 A 
ATOM     17 Cl   UNK d   1      91.224  91.296 -46.612  0.00  0.00    -0.084 Cl
ATOM     18  C   UNK d   1      92.181  93.070 -44.751  0.00  0.00     0.026 A 
ATOM     19  C   UNK d   1      92.280  94.333 -44.216  0.00  0.00     0.032 A 
ENDBRANCH   1  13
BRANCH   6  20
ATOM     20  O   UNK d   1      88.917 100.087 -45.809  0.00  0.00    -0.393 OA
ATOM     21  H   UNK d   1      88.076  99.649 -46.075  0.00  0.00     0.210 HD
ENDBRANCH   6  20
BRANCH   7  22
ATOM     22  O   UNK d   1      87.845  98.527 -44.256  0.00  0.00    -0.393 OA
ATOM     23  H   UNK d   1      87.424  97.646 -44.490  0.00  0.00     0.210 HD
ENDBRANCH   7  22
TORSDOF 3
ENDMDL
