MODEL 1
REMARK VINA RESULT:    -7.818      0.000      0.000
REMARK INTER + INTRA:          -9.852
REMARK INTER:                  -9.875
REMARK INTRA:                   0.023
REMARK UNBOUND:                 0.023
REMARK  5 active torsions:
REMARK  status: ('A' for Active; 'I' for Inactive)
REMARK    1  A    between atoms: C_5  and  N_8 
REMARK    2  A    between atoms: C_14  and  C_17 
REMARK    3  A    between atoms: C_19  and  C_22 
REMARK    4  A    between atoms: C_24  and  O_30 
REMARK    5  A    between atoms: C_25  and  O_28 
ROOT
ATOM      1  N   UNK d   1      91.692  95.893 -43.746  0.00  0.00    -0.233 N 
ATOM      2  C   UNK d   1      91.823  95.794 -42.334  0.00  0.00     0.336 C 
ATOM      3  O   UNK d   1      91.822  94.640 -41.813  0.00  0.00    -0.246 OA
ATOM      4  N   UNK d   1      91.951  96.942 -41.521  0.00  0.00    -0.277 N 
ATOM      5  C   UNK d   1      91.953  98.234 -42.096  0.00  0.00     0.244 C 
ATOM      6  O   UNK d   1      92.246  99.272 -41.405  0.00  0.00    -0.272 OA
ATOM      7  C   UNK d   1      91.621  98.446 -43.505  0.00  0.00     0.221 C 
ATOM      8  C   UNK d   1      91.697  97.206 -44.288  0.00  0.00     0.251 C 
ATOM      9  O   UNK d   1      91.777  97.277 -45.563  0.00  0.00    -0.271 OA
ATOM     10  H   UNK d   1      92.046  96.847 -40.476  0.00  0.00     0.173 HD
ENDROOT
BRANCH   7  11
ATOM     11  C   UNK d   1      90.290  99.111 -43.628  0.00  0.00     0.041 C 
ATOM     12  C   UNK d   1      89.734  99.614 -44.698  0.00  0.00     0.026 C 
ATOM     13  C   UNK d   1      88.414 100.156 -44.292  0.00  0.00     0.134 C 
ATOM     14  N   UNK d   1      88.518 100.287 -42.854  0.00  0.00    -0.228 NA
ATOM     15  N   UNK d   1      89.424  99.277 -42.511  0.00  0.00    -0.323 N 
ATOM     16  H   UNK d   1      88.873 101.234 -42.581  0.00  0.00     0.147 HD
ATOM     17  H   UNK d   1      89.416  98.773 -41.587  0.00  0.00     0.180 HD
BRANCH  13  18
ATOM     18  C   UNK d   1      87.324  99.205 -44.646  0.00  0.00    -0.032 A 
ATOM     19  C   UNK d   1      86.366  98.814 -43.739  0.00  0.00     0.048 A 
ATOM     20  C   UNK d   1      85.351  97.930 -44.057  0.00  0.00     0.099 A 
ATOM     21  C   UNK d   1      85.270  97.404 -45.326  0.00  0.00     0.101 A 
ATOM     22  C   UNK d   1      86.216  97.783 -46.246  0.00  0.00     0.040 A 
ATOM     23  C   UNK d   1      87.224  98.663 -45.919  0.00  0.00     0.012 A 
BRANCH  20  24
ATOM     24  O   UNK d   1      84.418  97.575 -43.102  0.00  0.00    -0.358 OA
ATOM     25  H   UNK d   1      84.655  96.967 -42.344  0.00  0.00     0.217 HD
ENDBRANCH  20  24
BRANCH  21  26
ATOM     26  O   UNK d   1      84.265  96.521 -45.665  0.00  0.00    -0.353 OA
ATOM     27  C   UNK d   1      84.513  95.517 -46.623  0.00  0.00     0.210 C 
ENDBRANCH  21  26
ENDBRANCH  13  18
ENDBRANCH   7  11
BRANCH   1  28
ATOM     28  C   UNK d   1      91.565  94.757 -44.590  0.00  0.00     0.047 A 
ATOM     29  C   UNK d   1      92.186  93.548 -44.299  0.00  0.00     0.032 A 
ATOM     30  C   UNK d   1      92.067  92.456 -45.104  0.00  0.00     0.026 A 
ATOM     31  C   UNK d   1      91.302  92.535 -46.259  0.00  0.00     0.034 A 
ATOM     32 Cl   UNK d   1      91.123  91.152 -47.322  0.00  0.00    -0.084 Cl
ATOM     33  C   UNK d   1      90.669  93.725 -46.579  0.00  0.00     0.026 A 
ATOM     34  C   UNK d   1      90.807  94.831 -45.737  0.00  0.00     0.032 A 
ENDBRANCH   1  28
TORSDOF 5
ENDMDL
