MODEL 1
REMARK VINA RESULT:    -8.260      0.000      0.000
REMARK INTER + INTRA:          -9.751
REMARK INTER:                  -9.950
REMARK INTRA:                   0.199
REMARK UNBOUND:                 0.199
REMARK  4 active torsions:
REMARK  status: ('A' for Active; 'I' for Inactive)
REMARK    1  A    between atoms: C_5  and  N_8 
REMARK    2  A    between atoms: C_14  and  C_17 
REMARK    3  A    between atoms: C_19  and  C_22 
REMARK    4  A    between atoms: C_24  and  O_28 
ROOT
ATOM      1  N   UNK d   1      91.672  94.659 -43.804  0.00  0.00    -0.233 N 
ATOM      2  C   UNK d   1      91.898  93.949 -42.576  0.00  0.00     0.336 C 
ATOM      3  O   UNK d   1      91.901  92.680 -42.536  0.00  0.00    -0.246 OA
ATOM      4  N   UNK d   1      92.117  94.735 -41.415  0.00  0.00    -0.277 N 
ATOM      5  C   UNK d   1      92.108  96.179 -41.489  0.00  0.00     0.244 C 
ATOM      6  O   UNK d   1      92.727  96.786 -40.606  0.00  0.00    -0.272 OA
ATOM      7  C   UNK d   1      91.393  96.831 -42.569  0.00  0.00     0.221 C 
ATOM      8  C   UNK d   1      91.674  96.077 -43.827  0.00  0.00     0.251 C 
ATOM      9  O   UNK d   1      91.917  96.626 -44.932  0.00  0.00    -0.271 OA
ATOM     10  H   UNK d   1      92.283  94.243 -40.520  0.00  0.00     0.173 HD
ENDROOT
BRANCH   7  11
ATOM     11  C   UNK d   1      91.548  98.260 -42.719  0.00  0.00     0.041 C 
ATOM     12  C   UNK d   1      90.701  99.222 -42.434  0.00  0.00     0.026 C 
ATOM     13  C   UNK d   1      91.274 100.555 -42.747  0.00  0.00     0.134 C 
ATOM     14  N   UNK d   1      92.664 100.252 -42.998  0.00  0.00    -0.228 NA
ATOM     15  N   UNK d   1      92.736  98.884 -43.250  0.00  0.00    -0.323 N 
ATOM     16  H   UNK d   1      93.293 100.563 -42.227  0.00  0.00     0.147 HD
ATOM     17  H   UNK d   1      93.539  98.444 -43.747  0.00  0.00     0.180 HD
BRANCH  13  18
ATOM     18  C   UNK d   1      91.215 101.488 -41.616  0.00  0.00    -0.033 A 
ATOM     19  C   UNK d   1      90.244 102.478 -41.636  0.00  0.00     0.045 A 
ATOM     20  C   UNK d   1      90.161 103.369 -40.591  0.00  0.00     0.066 A 
ATOM     21  C   UNK d   1      91.019 103.306 -39.518  0.00  0.00     0.036 A 
ATOM     22  C   UNK d   1      91.988 102.331 -39.484  0.00  0.00     0.003 A 
ATOM     23  C   UNK d   1      92.069 101.430 -40.546  0.00  0.00     0.009 A 
BRANCH  20  24
ATOM     24  O   UNK d   1      89.183 104.373 -40.598  0.00  0.00    -0.361 OA
ATOM     25  H   UNK d   1      89.408 105.272 -40.986  0.00  0.00     0.217 HD
ENDBRANCH  20  24
ENDBRANCH  13  18
ENDBRANCH   7  11
BRANCH   1  26
ATOM     26  C   UNK d   1      91.447  93.863 -44.990  0.00  0.00     0.047 A 
ATOM     27  C   UNK d   1      91.932  92.574 -45.100  0.00  0.00     0.032 A 
ATOM     28  C   UNK d   1      91.737  91.790 -46.221  0.00  0.00     0.026 A 
ATOM     29  C   UNK d   1      91.023  92.306 -47.293  0.00  0.00     0.034 A 
ATOM     30 Cl   UNK d   1      90.794  91.295 -48.691  0.00  0.00    -0.084 Cl
ATOM     31  C   UNK d   1      90.524  93.603 -47.206  0.00  0.00     0.026 A 
ATOM     32  C   UNK d   1      90.740  94.359 -46.068  0.00  0.00     0.032 A 
ENDBRANCH   1  26
TORSDOF 4
ENDMDL
