MODEL 1
REMARK VINA RESULT:    -6.439      0.000      0.000
REMARK INTER + INTRA:          -8.973
REMARK INTER:                  -7.569
REMARK INTRA:                  -1.404
REMARK UNBOUND:                -1.404
REMARK  3 active torsions:
REMARK  status: ('A' for Active; 'I' for Inactive)
REMARK    1  A    between atoms: C_5  and  N_8 
REMARK    2  A    between atoms: C_14  and  C_17 
REMARK    3  A    between atoms: C_19  and  C_22 
ROOT
ATOM      1  N   UNK d   1      87.746  98.242 -45.502  0.00  0.00    -0.233 N 
ATOM      2  C   UNK d   1      86.821  98.008 -44.455  0.00  0.00     0.336 C 
ATOM      3  O   UNK d   1      86.155  96.944 -44.425  0.00  0.00    -0.246 OA
ATOM      4  N   UNK d   1      86.662  99.008 -43.433  0.00  0.00    -0.277 N 
ATOM      5  C   UNK d   1      87.414 100.213 -43.465  0.00  0.00     0.244 C 
ATOM      6  O   UNK d   1      87.033 101.198 -42.784  0.00  0.00    -0.272 OA
ATOM      7  C   UNK d   1      88.627 100.287 -44.296  0.00  0.00     0.221 C 
ATOM      8  C   UNK d   1      88.478  99.454 -45.503  0.00  0.00     0.251 C 
ATOM      9  O   UNK d   1      89.026  99.825 -46.598  0.00  0.00    -0.271 OA
ATOM     10  H   UNK d   1      85.992  98.878 -42.645  0.00  0.00     0.173 HD
ENDROOT
BRANCH   7  11
ATOM     11  C   UNK d   1      89.836  99.855 -43.518  0.00  0.00     0.041 C 
ATOM     12  C   UNK d   1      90.975  99.402 -43.972  0.00  0.00     0.026 C 
ATOM     13  C   UNK d   1      91.864  99.104 -42.838  0.00  0.00     0.135 C 
ATOM     14  N   UNK d   1      91.243  99.767 -41.726  0.00  0.00    -0.228 NA
ATOM     15  N   UNK d   1      89.897  99.894 -42.102  0.00  0.00    -0.323 N 
ATOM     16  H   UNK d   1      91.668 100.676 -41.520  0.00  0.00     0.147 HD
ATOM     17  H   UNK d   1      89.129  99.997 -41.399  0.00  0.00     0.180 HD
BRANCH  13  18
ATOM     18  C   UNK d   1      91.836  97.632 -42.638  0.00  0.00    -0.018 A 
ATOM     19  C   UNK d   1      92.153  97.094 -41.414  0.00  0.00     0.125 A 
ATOM     20  N   UNK d   1      92.129  95.745 -41.224  0.00  0.00    -0.273 NA
ATOM     21  C   UNK d   1      91.802  94.885 -42.201  0.00  0.00     0.116 A 
ATOM     22  C   UNK d   1      91.479  95.391 -43.440  0.00  0.00     0.020 A 
ATOM     23  C   UNK d   1      91.499  96.777 -43.653  0.00  0.00     0.012 A 
ENDBRANCH  13  18
ENDBRANCH   7  11
BRANCH   1  24
ATOM     24  C   UNK d   1      87.934  97.265 -46.554  0.00  0.00     0.047 A 
ATOM     25  C   UNK d   1      87.051  97.143 -47.605  0.00  0.00     0.032 A 
ATOM     26  C   UNK d   1      87.245  96.199 -48.607  0.00  0.00     0.026 A 
ATOM     27  C   UNK d   1      88.331  95.350 -48.584  0.00  0.00     0.034 A 
ATOM     28 Cl   UNK d   1      88.581  94.158 -49.848  0.00  0.00    -0.084 Cl
ATOM     29  C   UNK d   1      89.211  95.474 -47.530  0.00  0.00     0.026 A 
ATOM     30  C   UNK d   1      89.017  96.414 -46.534  0.00  0.00     0.032 A 
ENDBRANCH   1  24
TORSDOF 3
ENDMDL
