/Users/jonathanwahrer/Desktop/Msc/3_Semester/Drug_Design_Praktikum/waehrer_HTS_screening/HTS_experiment/out/docking_results/vina_output/4agl/2364_docked.pdbqt
 OpenBabel03212201073D

 33 37  0  0  1  0  0  0  0  0999 V2000
   92.6460  101.6270  -42.1240 N   0  0  0  0  0  0  0  0  0  0  0  0
   91.9820  102.4750  -43.0530 C   0  0  0  0  0  0  0  0  0  0  0  0
   92.3010  103.7050  -43.1150 O   0  0  0  0  0  0  0  0  0  0  0  0
   90.9310  102.0070  -43.9630 C   0  0  1  0  0  3  0  0  0  0  0  0
   90.4470  100.6930  -43.7000 N   0  0  1  0  0  0  0  0  0  0  0  0
   91.3900   99.7610  -43.1720 C   0  0  2  0  0  0  0  0  0  0  0  0
   92.1990   98.9920  -44.1880 C   0  0  0  0  0  2  0  0  0  0  0  0
   91.5110   97.7960  -43.8240 N   0  0  0  0  0  0  0  0  0  0  0  0
   90.6920   98.4440  -42.8770 C   0  0  0  0  0  2  0  0  0  0  0  0
   92.1820  100.2860  -42.0290 C   0  0  0  0  0  0  0  0  0  0  0  0
   92.4510   99.6050  -41.0070 O   0  0  0  0  0  0  0  0  0  0  0  0
   89.3260  100.7960  -42.8100 C   0  0  0  0  0  2  0  0  0  0  0  0
   89.0620  102.2550  -42.5620 C   0  0  1  0  0  3  0  0  0  0  0  0
   89.7160  102.9190  -43.7390 C   0  0  0  0  0  2  0  0  0  0  0  0
   90.9520   96.9780  -44.8380 C   0  0  0  0  0  2  0  0  0  0  0  0
   91.2800   95.5490  -44.7700 C   0  0  0  0  0  0  0  0  0  0  0  0
   91.6230   94.9780  -43.5700 C   0  0  0  0  0  3  0  0  0  0  0  0
   91.9400   93.6200  -43.4770 C   0  0  0  0  0  0  0  0  0  0  0  0
   91.9080   92.8470  -44.6150 C   0  0  0  0  0  3  0  0  0  0  0  0
   91.5680   93.3930  -45.8290 C   0  0  0  0  0  3  0  0  0  0  0  0
   91.2570   94.7500  -45.8860 C   0  0  0  0  0  3  0  0  0  0  0  0
   92.2860   93.0430  -42.2710 O   0  0  0  0  0  0  0  0  0  0  0  0
   93.6590   92.9060  -41.9560 C   0  0  0  0  0  1  0  0  0  0  0  0
   93.7470  102.0940  -41.3010 C   0  0  0  0  0  2  0  0  0  0  0  0
   93.2330  102.5160  -39.9520 C   0  0  0  0  0  0  0  0  0  0  0  0
   94.0540  102.5070  -38.8470 C   0  0  0  0  0  3  0  0  0  0  0  0
   93.6070  102.8880  -37.5990 C   0  0  0  0  0  0  0  0  0  0  0  0
   94.6800  102.8640  -36.2170 Cl  0  0  0  0  0  0  0  0  0  0  0  0
   92.3040  103.2920  -37.4310 C   0  0  0  0  0  3  0  0  0  0  0  0
   91.5000  103.2930  -38.5480 C   0  0  0  0  0  3  0  0  0  0  0  0
   91.9270  102.9210  -39.7830 C   0  0  0  0  0  3  0  0  0  0  0  0
   87.7090  102.5510  -42.4660 O   0  0  0  0  0  0  0  0  0  0  0  0
   87.5010  102.6690  -41.5080 H   0  0  0  0  0  0  0  0  0  0  0  0
  1 10  1  0  0  0  0
  1 24  1  0  0  0  0
  2  1  1  0  0  0  0
  3  2  2  0  0  0  0
  4 14  1  1  0  0  0
  4  5  1  0  0  0  0
  4  2  1  0  0  0  0
  5  6  1  0  0  0  0
  5 12  1  1  0  0  0
  6  7  1  6  0  0  0
  6  9  1  0  0  0  0
  6 10  1  0  0  0  0
  7  8  1  0  0  0  0
  8  9  1  0  0  0  0
 10 11  2  0  0  0  0
 12 13  1  0  0  0  0
 13 32  1  6  0  0  0
 14 13  1  0  0  0  0
 15 16  1  0  0  0  0
 15  8  1  0  0  0  0
 16 17  1  0  0  0  0
 17 18  2  0  0  0  0
 18 22  1  0  0  0  0
 19 18  1  0  0  0  0
 20 19  2  0  0  0  0
 21 20  1  0  0  0  0
 21 16  2  0  0  0  0
 22 23  1  0  0  0  0
 24 25  1  0  0  0  0
 25 31  2  0  0  0  0
 25 26  1  0  0  0  0
 26 27  2  0  0  0  0
 27 29  1  0  0  0  0
 27 28  1  0  0  0  0
 30 29  2  0  0  0  0
 31 30  1  0  0  0  0
 32 33  1  0  0  0  0
M  END
>  <Pose>
1

>  <Score>
-6.969

$$$$
