/Users/jonathanwahrer/Desktop/Msc/3_Semester/Drug_Design_Praktikum/waehrer_HTS_screening/HTS_experiment/out/docking_results/vina_output/4agl/2365_docked.pdbqt
 OpenBabel03212201073D

 32 36  0  0  1  0  0  0  0  0999 V2000
   92.2830   99.1080  -41.5720 N   0  0  0  0  0  0  0  0  0  0  0  0
   91.5520  100.2060  -42.0500 C   0  0  0  0  0  0  0  0  0  0  0  0
   90.7630  100.0240  -43.0260 O   0  0  0  0  0  0  0  0  0  0  0  0
   92.9390   99.2430  -40.7640 H   0  0  0  0  0  0  0  0  0  0  0  0
   91.6380  101.5750  -41.4900 C   0  0  1  0  0  0  0  0  0  0  0  0
   92.4130  101.5740  -40.1880 C   0  0  0  0  0  2  0  0  0  0  0  0
   92.4920  102.9580  -39.6100 C   0  0  1  0  0  0  0  0  0  0  0  0
   93.2720  103.8170  -40.6090 C   0  0  0  0  0  2  0  0  0  0  0  0
   91.1490  103.5900  -39.4150 C   0  0  0  0  0  2  0  0  0  0  0  0
   92.5530  103.8380  -41.9190 C   0  0  1  0  0  3  0  0  0  0  0  0
   92.4070  102.4370  -42.4680 C   0  0  0  0  0  2  0  0  0  0  0  0
   91.1830  104.4450  -41.7220 C   0  0  0  0  0  2  0  0  0  0  0  0
   90.4300  103.5790  -40.7390 C   0  0  1  0  0  3  0  0  0  0  0  0
   90.2690  102.1850  -41.2850 C   0  0  0  0  0  2  0  0  0  0  0  0
   93.2470  102.8670  -38.3760 N   0  0  0  0  0  0  0  0  0  0  0  0
   94.4520  102.3750  -38.1510 N   0  0  0  0  0  0  0  0  0  0  0  0
   94.7920  102.4710  -36.9010 N   0  0  0  0  0  0  0  0  0  0  0  0
   93.7930  103.0420  -36.2510 C   0  0  0  0  0  3  0  0  0  0  0  0
   92.8230  103.2920  -37.1740 N   0  0  0  0  0  0  0  0  0  0  0  0
   92.1560   97.8590  -42.1370 N   0  0  0  0  0  0  0  0  0  0  0  0
   92.3010   96.6380  -41.4380 C   0  0  0  0  0  0  0  0  0  0  0  0
   92.5630   96.6200  -40.2090 O   0  0  0  0  0  0  0  0  0  0  0  0
   91.9350   97.7920  -43.1700 H   0  0  0  0  0  0  0  0  0  0  0  0
   92.1510   95.3140  -42.1090 C   0  0  1  0  0  3  0  0  0  0  0  0
   91.4080   94.3300  -41.2690 C   0  0  0  0  0  1  0  0  0  0  0  0
   91.4920   95.5130  -43.4550 C   0  0  0  0  0  2  0  0  0  0  0  0
   91.5990   94.3490  -44.3020 N   0  0  0  0  0  0  0  0  0  0  0  0
   91.0930   94.1740  -45.5500 C   0  0  0  0  0  3  0  0  0  0  0  0
   91.4220   92.9150  -46.0100 C   0  0  0  0  0  0  0  0  0  0  0  0
   91.0020   92.0930  -47.6780 Br  0  0  0  0  0  0  0  0  0  0  0  0
   92.1560   92.3360  -44.9730 C   0  0  0  0  0  3  0  0  0  0  0  0
   92.2230   93.2470  -43.9850 N   0  0  0  0  0  0  0  0  0  0  0  0
  1  4  1  0  0  0  0
  2  1  1  0  0  0  0
  3  2  2  0  0  0  0
  5  2  1  6  0  0  0
  5 14  1  0  0  0  0
  5  6  1  0  0  0  0
  6  7  1  0  0  0  0
  7  8  1  6  0  0  0
  7  9  1  0  0  0  0
  7 15  1  0  0  0  0
 10 11  1  1  0  0  0
 10 12  1  0  0  0  0
 10  8  1  0  0  0  0
 11  5  1  0  0  0  0
 13 12  1  6  0  0  0
 13  9  1  0  0  0  0
 14 13  1  0  0  0  0
 15 16  1  0  0  0  0
 15 19  1  0  0  0  0
 16 17  2  0  0  0  0
 17 18  1  0  0  0  0
 19 18  2  0  0  0  0
 20  1  1  0  0  0  0
 20 21  1  0  0  0  0
 21 22  2  0  0  0  0
 23 20  1  0  0  0  0
 24 21  1  0  0  0  0
 24 25  1  1  0  0  0
 26 24  1  0  0  0  0
 27 32  1  0  0  0  0
 27 26  1  0  0  0  0
 28 27  1  0  0  0  0
 29 28  2  0  0  0  0
 29 31  1  0  0  0  0
 30 29  1  0  0  0  0
 31 32  2  0  0  0  0
M  END
>  <Pose>
1

>  <Score>
-6.737

$$$$
