MODEL 1
REMARK VINA RESULT:    -5.976      0.000      0.000
REMARK INTER + INTRA:          -9.250
REMARK INTER:                  -7.722
REMARK INTRA:                  -1.528
REMARK UNBOUND:                -1.528
REMARK  5 active torsions:
REMARK  status: ('A' for Active; 'I' for Inactive)
REMARK    1  A    between atoms: C_5  and  C_8 
REMARK    2  A    between atoms: C_8  and  C_10 
REMARK    3  A    between atoms: C_10  and  N_11 
REMARK    4  A    between atoms: C_14  and  C_16 
REMARK    5  A    between atoms: C_19  and  O_22 
ROOT
ATOM      1  N   UNK d   1      89.443  97.102 -46.576  0.00  0.00    -0.337 N 
ATOM      2  C   UNK d   1      89.959  98.071 -45.841  0.00  0.00     0.086 A 
ATOM      3  N   UNK d   1      90.777  97.568 -44.878  0.00  0.00    -0.335 N 
ATOM      4  C   UNK d   1      90.779  96.259 -44.998  0.00  0.00     0.061 A 
ATOM      5  C   UNK d   1      89.929  95.964 -46.084  0.00  0.00     0.123 A 
ATOM      6  C   UNK d   1      91.520  98.382 -43.957  0.00  0.00     0.130 C 
ATOM      7  C   UNK d   1      90.593  98.955 -42.887  0.00  0.00     0.020 C 
ATOM      8  C   UNK d   1      89.278  99.238 -43.621  0.00  0.00     0.002 C 
ATOM      9  C   UNK d   1      89.561 100.236 -44.709  0.00  0.00     0.007 C 
ATOM     10  C   UNK d   1      89.634  99.513 -46.064  0.00  0.00     0.077 C 
ENDROOT
BRANCH   1  11
ATOM     11  C   UNK d   1      88.517  97.137 -47.712  0.00  0.00     0.213 C 
BRANCH  11  12
ATOM     12  C   UNK d   1      87.153  96.878 -47.203  0.00  0.00     0.177 C 
ATOM     13  O   UNK d   1      86.545  95.856 -47.664  0.00  0.00    -0.291 OA
BRANCH  12  14
ATOM     14  C   UNK d   1      86.484  97.710 -46.227  0.00  0.00     0.011 A 
ATOM     15  C   UNK d   1      86.287  97.205 -44.936  0.00  0.00     0.017 A 
ATOM     16  C   UNK d   1      85.654  97.944 -43.968  0.00  0.00     0.025 A 
ATOM     17  C   UNK d   1      85.186  99.209 -44.219  0.00  0.00     0.034 A 
ATOM     18 Cl   UNK d   1      84.373 100.201 -43.036  0.00  0.00    -0.084 Cl
ATOM     19  C   UNK d   1      85.386  99.700 -45.500  0.00  0.00     0.025 A 
ATOM     20  C   UNK d   1      86.019  98.966 -46.478  0.00  0.00     0.017 A 
ENDBRANCH  12  14
ENDBRANCH  11  12
ENDBRANCH   1  11
BRANCH   4  21
ATOM     21  C   UNK d   1      91.498  95.230 -44.240  0.00  0.00    -0.008 A 
ATOM     22  C   UNK d   1      92.102  94.130 -44.757  0.00  0.00     0.016 A 
ATOM     23  C   UNK d   1      92.711  93.150 -43.973  0.00  0.00     0.037 A 
ATOM     24  C   UNK d   1      92.726  93.265 -42.610  0.00  0.00     0.068 A 
ATOM     25  C   UNK d   1      92.126  94.369 -42.055  0.00  0.00     0.037 A 
ATOM     26  C   UNK d   1      91.527  95.327 -42.845  0.00  0.00     0.016 A 
BRANCH  24  27
ATOM     27  O   UNK d   1      93.333  92.293 -41.796  0.00  0.00    -0.356 OA
ATOM     28  C   UNK d   1      94.662  92.391 -41.361  0.00  0.00     0.210 C 
ENDBRANCH  24  27
ENDBRANCH   4  21
TORSDOF 5
ENDMDL
