MODEL 1
REMARK VINA RESULT:    -6.306      0.000      0.000
REMARK INTER + INTRA:          -9.541
REMARK INTER:                  -8.518
REMARK INTRA:                  -1.023
REMARK UNBOUND:                -1.023
REMARK  6 active torsions:
REMARK  status: ('A' for Active; 'I' for Inactive)
REMARK    1  A    between atoms: C_3  and  N_15 
REMARK    2  A    between atoms: N_6  and  C_9 
REMARK       I    between atoms: N_18  and  C_21 
REMARK    3  A    between atoms: C_21  and  C_23 
REMARK    4  A    between atoms: C_23  and  C_24 
REMARK    5  A    between atoms: C_24  and  C_25 
REMARK    6  A    between atoms: C_25  and  N_26 
ROOT
ATOM      1  N   UNK d   1      86.298  97.266 -46.770  0.00  0.00    -0.375 N 
ATOM      2  C   UNK d   1      85.840  96.829 -45.454  0.00  0.00     0.143 C 
ATOM      3  C   UNK d   1      86.465  97.636 -44.339  0.00  0.00     0.145 C 
ATOM      4  N   UNK d   1      86.985  98.854 -44.911  0.00  0.00    -0.349 N 
ATOM      5  C   UNK d   1      86.117  99.526 -45.861  0.00  0.00     0.145 C 
ATOM      6  C   UNK d   1      86.113  98.678 -47.131  0.00  0.00     0.143 C 
ATOM      7  C   UNK d   1      88.247  99.401 -44.601  0.00  0.00     0.219 C 
ATOM      8  O   UNK d   1      88.601 100.465 -45.154  0.00  0.00    -0.273 OA
ENDROOT
BRANCH   1   9
ATOM      9  C   UNK d   1      86.930  96.354 -47.636  0.00  0.00     0.077 A 
ATOM     10  C   UNK d   1      86.253  95.528 -48.507  0.00  0.00     0.131 A 
ATOM     11 Cl   UNK d   1      84.508  95.572 -48.489  0.00  0.00    -0.076 Cl
ATOM     12  C   UNK d   1      86.945  94.670 -49.366  0.00  0.00     0.292 A 
ATOM     13  N   UNK d   1      88.281  94.598 -49.395  0.00  0.00    -0.197 N 
ATOM     14  O   UNK d   1      86.258  93.948 -50.131  0.00  0.00    -0.264 OA
ATOM     15  N   UNK d   1      88.922  95.390 -48.560  0.00  0.00    -0.174 NA
ATOM     16  C   UNK d   1      88.326  96.241 -47.705  0.00  0.00     0.170 A 
BRANCH  13  17
ATOM     17  C   UNK d   1      88.993  93.726 -50.268  0.00  0.00     0.062 A 
ATOM     18  C   UNK d   1      89.385  92.454 -49.879  0.00  0.00     0.032 A 
ATOM     19  C   UNK d   1      90.074  91.596 -50.712  0.00  0.00     0.002 A 
ATOM     20  C   UNK d   1      90.383  92.031 -51.984  0.00  0.00     0.000 A 
ATOM     21  C   UNK d   1      90.008  93.294 -52.404  0.00  0.00     0.002 A 
ATOM     22  C   UNK d   1      89.309  94.141 -51.536  0.00  0.00     0.032 A 
ENDBRANCH  13  17
ENDBRANCH   1   9
BRANCH   7  23
ATOM     23  C   UNK d   1      89.192  98.778 -43.642  0.00  0.00     0.104 C 
BRANCH  23  24
ATOM     24  C   UNK d   1      90.235  97.963 -44.371  0.00  0.00     0.029 C 
BRANCH  24  25
ATOM     25  C   UNK d   1      91.318  97.469 -43.458  0.00  0.00     0.137 C 
BRANCH  25  26
ATOM     26  N   UNK d   1      91.495  96.034 -43.479  0.00  0.00    -0.269 N 
ATOM     27  C   UNK d   1      91.532  95.214 -44.633  0.00  0.00     0.327 A 
ATOM     28  O   UNK d   1      91.414  95.601 -45.844  0.00  0.00    -0.247 OA
ATOM     29  N   UNK d   1      91.723  93.858 -44.294  0.00  0.00    -0.329 N 
ATOM     30  C   UNK d   1      91.805  93.759 -42.853  0.00  0.00     0.230 A 
ATOM     31  C   UNK d   1      91.822  92.745 -45.216  0.00  0.00     0.155 C 
ATOM     32  C   UNK d   1      91.670  95.150 -42.367  0.00  0.00     0.245 A 
ATOM     33  O   UNK d   1      91.702  95.510 -41.171  0.00  0.00    -0.271 OA
ENDBRANCH  25  26
ENDBRANCH  24  25
ENDBRANCH  23  24
ENDBRANCH   7  23
TORSDOF 6
ENDMDL
