MODEL 1
REMARK VINA RESULT:    -6.829      0.000      0.000
REMARK INTER + INTRA:          -7.636
REMARK INTER:                  -8.026
REMARK INTRA:                   0.390
REMARK UNBOUND:                 0.390
REMARK  3 active torsions:
REMARK  status: ('A' for Active; 'I' for Inactive)
REMARK    1  A    between atoms: C_3  and  N_15 
REMARK    2  A    between atoms: N_6  and  C_9 
REMARK       I    between atoms: N_18  and  C_21 
REMARK    3  A    between atoms: C_21  and  C_23 
ROOT
ATOM      1 Cl   UNK d   1      89.990 100.053 -45.419  0.00  0.00    -0.076 Cl
ATOM      2  C   UNK d   1      90.725  98.793 -44.433  0.00  0.00     0.131 A 
ATOM      3  C   UNK d   1      91.217  99.151 -43.201  0.00  0.00     0.077 A 
ATOM      4  C   UNK d   1      91.790  98.136 -42.451  0.00  0.00     0.170 A 
ATOM      5  N   UNK d   1      91.841  96.884 -42.938  0.00  0.00    -0.174 NA
ATOM      6  N   UNK d   1      91.371  96.527 -44.122  0.00  0.00    -0.197 N 
ATOM      7  C   UNK d   1      90.809  97.488 -44.876  0.00  0.00     0.292 A 
ATOM      8  O   UNK d   1      90.337  97.220 -46.017  0.00  0.00    -0.264 OA
ENDROOT
BRANCH   3   9
ATOM      9  N   UNK d   1      91.123 100.491 -42.768  0.00  0.00    -0.375 N 
ATOM     10  C   UNK d   1      92.055 101.513 -43.229  0.00  0.00     0.143 C 
ATOM     11  C   UNK d   1      92.874 101.893 -41.980  0.00  0.00     0.145 C 
ATOM     12  N   UNK d   1      92.003 102.237 -40.900  0.00  0.00    -0.347 N 
ATOM     13  C   UNK d   1      90.554 102.268 -41.190  0.00  0.00     0.145 C 
ATOM     14  C   UNK d   1      92.457 102.547 -39.591  0.00  0.00     0.248 C 
ATOM     15  C   UNK d   1      90.113 100.973 -41.844  0.00  0.00     0.143 C 
ATOM     16  O   UNK d   1      91.646 102.847 -38.664  0.00  0.00    -0.270 OA
BRANCH  14  17
ATOM     17  C   UNK d   1      93.882 102.544 -39.219  0.00  0.00     0.213 C 
ATOM     18  O   UNK d   1      94.532 103.614 -39.753  0.00  0.00    -0.376 OA
ATOM     19  C   UNK d   1      95.551 103.985 -38.885  0.00  0.00     0.168 C 
ATOM     20  C   UNK d   1      94.845 103.874 -37.540  0.00  0.00     0.029 C 
ATOM     21  C   UNK d   1      94.084 102.578 -37.721  0.00  0.00     0.043 C 
ENDBRANCH  14  17
ENDBRANCH   3   9
BRANCH   6  22
ATOM     22  C   UNK d   1      91.456  95.171 -44.586  0.00  0.00     0.062 A 
ATOM     23  C   UNK d   1      91.853  94.166 -43.728  0.00  0.00     0.032 A 
ATOM     24  C   UNK d   1      91.939  92.841 -44.166  0.00  0.00     0.002 A 
ATOM     25  C   UNK d   1      91.629  92.520 -45.463  0.00  0.00     0.000 A 
ATOM     26  C   UNK d   1      91.234  93.509 -46.327  0.00  0.00     0.002 A 
ATOM     27  C   UNK d   1      91.153  94.805 -45.881  0.00  0.00     0.032 A 
ENDBRANCH   6  22
TORSDOF 3
ENDMDL
