MODEL 1
REMARK VINA RESULT:    -6.477      0.000      0.000
REMARK INTER + INTRA:          -8.590
REMARK INTER:                  -7.991
REMARK INTRA:                  -0.599
REMARK UNBOUND:                -0.599
REMARK  4 active torsions:
REMARK  status: ('A' for Active; 'I' for Inactive)
REMARK       I    between atoms: N_11  and  C_13 
REMARK    1  A    between atoms: C_13  and  C_15 
REMARK    2  A    between atoms: C_15  and  C_16 
REMARK    3  A    between atoms: C_16  and  C_17 
REMARK    4  A    between atoms: C_17  and  N_18 
ROOT
ATOM      1 Cl   UNK d   1      84.855  99.817 -43.673  0.00  0.00    -0.084 Cl
ATOM      2  C   UNK d   1      86.545 100.310 -43.676  0.00  0.00     0.034 A 
ATOM      3  C   UNK d   1      87.500  99.304 -43.539  0.00  0.00     0.035 A 
ATOM      4  C   UNK d   1      88.826  99.673 -43.540  0.00  0.00    -0.005 A 
ATOM      5  C   UNK d   1      89.182 101.008 -43.673  0.00  0.00     0.078 A 
ATOM      6  C   UNK d   1      88.224 102.005 -43.809  0.00  0.00     0.039 A 
ATOM      7  C   UNK d   1      86.892 101.634 -43.808  0.00  0.00     0.026 A 
ATOM      8  O   UNK d   1      90.492 101.458 -43.683  0.00  0.00    -0.338 OA
ATOM      9  C   UNK d   1      91.633 100.915 -43.077  0.00  0.00     0.088 C 
ATOM     10  C   UNK d   1      92.012  99.545 -43.505  0.00  0.00     0.164 C 
ATOM     11  N   UNK d   1      90.973  98.731 -44.049  0.00  0.00    -0.345 N 
ATOM     12  C   UNK d   1      89.688  98.471 -43.387  0.00  0.00     0.167 C 
ATOM     13  C   UNK d   1      91.176  98.112 -45.313  0.00  0.00     0.220 C 
ATOM     14  O   UNK d   1      92.276  98.319 -45.875  0.00  0.00    -0.273 OA
ATOM     15  C   UNK d   1      92.814 101.863 -43.357  0.00  0.00     0.066 C 
ATOM     16  C   UNK d   1      92.351 103.243 -42.977  0.00  0.00     0.170 C 
ATOM     17  O   UNK d   1      91.104 103.240 -42.376  0.00  0.00    -0.391 OA
ATOM     18  C   UNK d   1      91.053 102.432 -41.254  0.00  0.00     0.170 C 
ATOM     19  C   UNK d   1      91.464 101.007 -41.552  0.00  0.00     0.066 C 
ENDROOT
BRANCH  13  20
ATOM     20  C   UNK d   1      90.171  97.269 -45.942  0.00  0.00     0.104 C 
BRANCH  20  21
ATOM     21  C   UNK d   1      90.340  95.807 -45.872  0.00  0.00     0.029 C 
BRANCH  21  22
ATOM     22  C   UNK d   1      91.645  95.237 -45.498  0.00  0.00     0.137 C 
BRANCH  22  23
ATOM     23  N   UNK d   1      91.750  94.338 -44.410  0.00  0.00    -0.269 N 
ATOM     24  C   UNK d   1      91.746  92.925 -44.505  0.00  0.00     0.325 C 
ATOM     25  O   UNK d   1      91.660  92.203 -45.543  0.00  0.00    -0.247 OA
ATOM     26  N   UNK d   1      91.862  92.418 -43.187  0.00  0.00    -0.334 N 
ATOM     27  C   UNK d   1      92.313  93.496 -42.309  0.00  0.00     0.227 C 
ATOM     28  H   UNK d   1      91.670  91.452 -42.857  0.00  0.00     0.164 HD
ATOM     29  C   UNK d   1      91.866  94.696 -43.047  0.00  0.00     0.245 C 
ATOM     30  O   UNK d   1      91.633  95.843 -42.519  0.00  0.00    -0.271 OA
ENDBRANCH  22  23
ENDBRANCH  21  22
ENDBRANCH  20  21
ENDBRANCH  13  20
TORSDOF 4
ENDMDL
