/Users/jonathanwahrer/Desktop/Msc/3_Semester/Drug_Design_Praktikum/waehrer_HTS_screening/HTS_experiment/out/docking_results/vina_output/4agl/2403_docked.pdbqt
 OpenBabel03212201103D

 26 29  0  0  0  0  0  0  0  0999 V2000
   91.2190   97.8030  -43.7410 N   0  0  0  0  0  0  0  0  0  0  0  0
   91.3560   96.4890  -43.9690 C   0  0  0  0  0  0  0  0  0  0  0  0
   91.8310   95.8360  -42.8360 C   0  0  0  0  0  0  0  0  0  0  0  0
   91.9790   96.8100  -41.9060 N   0  0  0  0  0  0  0  0  0  0  0  0
   91.6160   97.9790  -42.4400 C   0  0  0  0  0  3  0  0  0  0  0  0
   92.0670   94.5090  -42.7840 N   0  0  0  0  0  0  0  0  0  0  0  0
   91.8170   93.8150  -43.9100 C   0  0  0  0  0  0  0  0  0  0  0  0
   92.0310   92.5720  -43.8800 O   0  0  0  0  0  0  0  0  0  0  0  0
   91.3590   94.3960  -45.0300 N   0  0  0  0  0  0  0  0  0  0  0  0
   91.1220   95.7230  -45.0840 C   0  0  0  0  0  0  0  0  0  0  0  0
   90.6980   96.2810  -46.1150 O   0  0  0  0  0  0  0  0  0  0  0  0
   91.0900   93.6430  -46.2420 C   0  0  0  0  0  1  0  0  0  0  0  0
   92.5620   93.8890  -41.5700 C   0  0  0  0  0  1  0  0  0  0  0  0
   90.7400   98.8600  -44.6100 C   0  0  0  0  0  2  0  0  0  0  0  0
   89.3350   99.2760  -44.2810 C   0  0  0  0  0  0  0  0  0  0  0  0
   89.1040  100.5500  -43.9180 N   0  0  0  0  0  0  0  0  0  0  0  0
   87.8440  100.9790  -43.6170 C   0  0  0  0  0  0  0  0  0  0  0  0
   86.7990  100.1390  -43.6750 N   0  0  0  0  0  0  0  0  0  0  0  0
   87.6610  102.3020  -43.2490 C   0  0  0  0  0  3  0  0  0  0  0  0
   85.5520  100.5630  -43.3780 C   0  0  0  0  0  3  0  0  0  0  0  0
   86.9680   98.8350  -44.0370 C   0  0  0  0  0  0  0  0  0  0  0  0
   85.3620  101.8680  -43.0130 C   0  0  0  0  0  0  0  0  0  0  0  0
   83.5910  102.4360  -42.6000 Br  0  0  0  0  0  0  0  0  0  0  0  0
   86.4050  102.7630  -42.9400 C   0  0  0  0  0  3  0  0  0  0  0  0
   88.2520   98.4330  -44.3340 C   0  0  0  0  0  3  0  0  0  0  0  0
   85.9760   98.0920  -44.0780 O   0  0  0  0  0  0  0  0  0  0  0  0
  1  5  1  0  0  0  0
  2  1  1  0  0  0  0
  2  3  2  0  0  0  0
  3  6  1  0  0  0  0
  3  4  1  0  0  0  0
  5  4  2  0  0  0  0
  6 13  1  0  0  0  0
  7  8  2  0  0  0  0
  7  6  1  0  0  0  0
  9  7  1  0  0  0  0
 10  9  1  0  0  0  0
 10  2  1  0  0  0  0
 11 10  2  0  0  0  0
 12  9  1  0  0  0  0
 14 15  1  0  0  0  0
 14  1  1  0  0  0  0
 15 16  1  0  0  0  0
 16 17  2  0  0  0  0
 17 19  1  0  0  0  0
 18 17  1  0  0  0  0
 18 20  1  0  0  0  0
 19 24  2  0  0  0  0
 20 22  2  0  0  0  0
 21 18  1  0  0  0  0
 22 24  1  0  0  0  0
 22 23  1  0  0  0  0
 25 15  2  0  0  0  0
 25 21  1  0  0  0  0
 26 21  2  0  0  0  0
M  END
>  <Pose>
1

>  <Score>
-6.344

$$$$
