MODEL 1
REMARK VINA RESULT:    -6.344      0.000      0.000
REMARK INTER + INTRA:          -7.670
REMARK INTER:                  -7.086
REMARK INTRA:                  -0.584
REMARK UNBOUND:                -0.584
REMARK  2 active torsions:
REMARK  status: ('A' for Active; 'I' for Inactive)
REMARK    1  A    between atoms: C_7  and  C_11 
REMARK    2  A    between atoms: C_11  and  N_12 
ROOT
ATOM      1  N   UNK d   1      91.219  97.803 -43.741  0.00  0.00    -0.328 N 
ATOM      2  C   UNK d   1      91.356  96.489 -43.969  0.00  0.00     0.151 A 
ATOM      3  C   UNK d   1      91.831  95.836 -42.836  0.00  0.00     0.167 A 
ATOM      4  N   UNK d   1      91.979  96.810 -41.906  0.00  0.00    -0.223 NA
ATOM      5  C   UNK d   1      91.616  97.979 -42.440  0.00  0.00     0.213 A 
ATOM      6  N   UNK d   1      92.067  94.509 -42.784  0.00  0.00    -0.286 N 
ATOM      7  C   UNK d   1      91.817  93.815 -43.910  0.00  0.00     0.332 A 
ATOM      8  O   UNK d   1      92.031  92.572 -43.880  0.00  0.00    -0.246 OA
ATOM      9  N   UNK d   1      91.359  94.396 -45.030  0.00  0.00    -0.269 N 
ATOM     10  C   UNK d   1      91.122  95.723 -45.084  0.00  0.00     0.282 A 
ATOM     11  O   UNK d   1      90.698  96.281 -46.115  0.00  0.00    -0.265 OA
ATOM     12  C   UNK d   1      91.090  93.643 -46.242  0.00  0.00     0.164 C 
ATOM     13  C   UNK d   1      92.562  93.889 -41.570  0.00  0.00     0.163 C 
ENDROOT
BRANCH   1  14
ATOM     14  C   UNK d   1      90.740  98.860 -44.610  0.00  0.00     0.189 C 
BRANCH  14  15
ATOM     15  C   UNK d   1      89.335  99.276 -44.281  0.00  0.00     0.060 A 
ATOM     16  N   UNK d   1      89.104 100.550 -43.918  0.00  0.00    -0.233 NA
ATOM     17  C   UNK d   1      87.844 100.979 -43.617  0.00  0.00     0.137 A 
ATOM     18  N   UNK d   1      86.799 100.139 -43.675  0.00  0.00    -0.272 N 
ATOM     19  C   UNK d   1      87.661 102.302 -43.249  0.00  0.00     0.052 A 
ATOM     20  C   UNK d   1      85.552 100.563 -43.378  0.00  0.00     0.121 A 
ATOM     21  C   UNK d   1      86.968  98.835 -44.037  0.00  0.00     0.255 A 
ATOM     22  C   UNK d   1      85.362 101.868 -43.013  0.00  0.00     0.027 A 
ATOM     23 Br   UNK d   1      83.591 102.436 -42.600  0.00  0.00    -0.050 Br
ATOM     24  C   UNK d   1      86.405 102.763 -42.940  0.00  0.00     0.024 A 
ATOM     25  C   UNK d   1      88.252  98.433 -44.334  0.00  0.00     0.103 A 
ATOM     26  O   UNK d   1      85.976  98.092 -44.078  0.00  0.00    -0.268 OA
ENDBRANCH  14  15
ENDBRANCH   1  14
TORSDOF 2
ENDMDL
