MODEL 1
REMARK VINA RESULT:    -6.991      0.000      0.000
REMARK INTER + INTRA:          -9.840
REMARK INTER:                  -8.626
REMARK INTRA:                  -1.215
REMARK UNBOUND:                -1.215
REMARK  4 active torsions:
REMARK  status: ('A' for Active; 'I' for Inactive)
REMARK    1  A    between atoms: S_1  and  N_4 
REMARK    2  A    between atoms: S_1  and  C_26 
REMARK       I    between atoms: N_7  and  C_10 
REMARK    3  A    between atoms: C_10  and  C_12 
REMARK    4  A    between atoms: C_12  and  C_13 
ROOT
ATOM      1  N   UNK d   1      85.131  98.753 -46.082  0.00  0.00    -0.304 N 
ATOM      2  C   UNK d   1      85.475 100.099 -46.166  0.00  0.00     0.155 C 
ATOM      3  C   UNK d   1      85.947 100.580 -44.787  0.00  0.00     0.146 C 
ATOM      4  N   UNK d   1      86.776  99.546 -44.167  0.00  0.00    -0.349 N 
ATOM      5  C   UNK d   1      86.155  98.248 -43.995  0.00  0.00     0.146 C 
ATOM      6  C   UNK d   1      84.841  98.291 -44.789  0.00  0.00     0.155 C 
ATOM      7  C   UNK d   1      88.118  99.832 -43.788  0.00  0.00     0.222 C 
ATOM      8  O   UNK d   1      88.547 100.988 -44.008  0.00  0.00    -0.273 OA
ENDROOT
BRANCH   7   9
ATOM      9  C   UNK d   1      88.954  98.806 -43.166  0.00  0.00     0.138 C 
BRANCH   9  10
ATOM     10  C   UNK d   1      90.350  98.696 -43.763  0.00  0.00     0.186 C 
ATOM     11  N   UNK d   1      90.461  97.687 -44.782  0.00  0.00    -0.343 N 
ATOM     12  C   UNK d   1      91.134  96.436 -44.822  0.00  0.00     0.254 C 
ATOM     13  H   UNK d   1      89.957  97.871 -45.706  0.00  0.00     0.163 HD
ATOM     14  O   UNK d   1      91.424  95.911 -45.930  0.00  0.00    -0.268 OA
ATOM     15  C   UNK d   1      91.566  95.620 -43.667  0.00  0.00     0.058 A 
ATOM     16  C   UNK d   1      91.848  96.079 -42.376  0.00  0.00     0.050 A 
ATOM     17  C   UNK d   1      91.678  94.280 -43.938  0.00  0.00     0.019 A 
ATOM     18  C   UNK d   1      92.230  95.187 -41.414  0.00  0.00     0.030 A 
ATOM     19  N   UNK d   1      91.777  97.427 -41.937  0.00  0.00    -0.324 N 
ATOM     20  C   UNK d   1      92.353  93.819 -41.661  0.00  0.00     0.002 A 
ATOM     21  C   UNK d   1      92.063  93.392 -42.958  0.00  0.00     0.001 A 
ATOM     22  C   UNK d   1      91.340  98.575 -42.671  0.00  0.00     0.245 C 
ATOM     23  H   UNK d   1      92.076  97.583 -40.975  0.00  0.00     0.169 HD
ATOM     24  O   UNK d   1      91.925  99.649 -42.288  0.00  0.00    -0.271 OA
ENDBRANCH   9  10
ENDBRANCH   7   9
BRANCH   1  25
ATOM     25  S   UNK d   1      84.776  97.843 -47.421  0.00  0.00     0.260 S 
ATOM     26  O   UNK d   1      83.591  96.949 -47.106  0.00  0.00    -0.200 OA
ATOM     27  O   UNK d   1      84.358  98.656 -48.629  0.00  0.00    -0.200 OA
BRANCH  25  28
ATOM     28  C   UNK d   1      86.086  96.771 -47.927  0.00  0.00     0.079 A 
ATOM     29  C   UNK d   1      87.345  96.863 -47.381  0.00  0.00     0.027 A 
ATOM     30  C   UNK d   1      88.335  96.007 -47.812  0.00  0.00     0.025 A 
ATOM     31  C   UNK d   1      88.134  95.041 -48.780  0.00  0.00     0.034 A 
ATOM     32  C   UNK d   1      86.861  94.950 -49.330  0.00  0.00     0.025 A 
ATOM     33 Cl   UNK d   1      89.372  93.960 -49.326  0.00  0.00    -0.084 Cl
ATOM     34  C   UNK d   1      85.875  95.807 -48.896  0.00  0.00     0.027 A 
ENDBRANCH  25  28
ENDBRANCH   1  25
TORSDOF 4
ENDMDL
