/Users/jonathanwahrer/Desktop/Msc/3_Semester/Drug_Design_Praktikum/waehrer_HTS_screening/HTS_experiment/out/docking_results/vina_output/4agl/2420_docked.pdbqt
 OpenBabel03212201113D

 29 32  0  0  1  0  0  0  0  0999 V2000
   91.2450   98.7000  -43.2600 N   0  0  0  0  0  0  0  0  0  0  0  0
   92.2070   99.6600  -43.7970 C   0  0  0  0  0  2  0  0  0  0  0  0
   91.3810  100.4520  -44.7860 C   0  0  2  0  0  3  0  0  0  0  0  0
   90.0800  100.6620  -44.0200 C   0  0  0  0  0  2  0  0  0  0  0  0
   90.0350   99.4510  -43.1270 C   0  0  0  0  0  0  0  0  0  0  0  0
   89.0720   99.1340  -42.3670 O   0  0  0  0  0  0  0  0  0  0  0  0
   91.1280   99.6890  -46.0310 C   0  0  0  0  0  0  0  0  0  0  0  0
   92.0980   99.1100  -46.5790 O   0  0  0  0  0  0  0  0  0  0  0  0
   89.8450   99.5910  -46.6170 N   0  0  0  0  0  0  0  0  0  0  0  0
   89.0570  100.0900  -46.1310 H   0  0  0  0  0  0  0  0  0  0  0  0
   89.5920   98.8510  -47.8260 C   0  0  0  0  0  2  0  0  0  0  0  0
   88.5450   97.7900  -47.5600 C   0  0  0  0  0  2  0  0  0  0  0  0
   87.5800   98.1910  -46.5660 N   0  0  0  0  0  0  0  0  0  0  0  0
   86.2850   98.2910  -47.2310 C   0  0  0  0  0  2  0  0  0  0  0  0
   85.6180   96.9190  -47.3000 C   0  0  0  0  0  2  0  0  0  0  0  0
   85.2480   96.4470  -46.0630 O   0  0  0  0  0  0  0  0  0  0  0  0
   86.0000   97.0640  -45.0920 C   0  0  0  0  0  2  0  0  0  0  0  0
   87.4500   97.2200  -45.5030 C   0  0  0  0  0  2  0  0  0  0  0  0
   91.4780   97.3370  -42.9450 C   0  0  0  0  0  0  0  0  0  0  0  0
   91.7950   96.7560  -41.7810 N   0  0  0  0  0  0  0  0  0  0  0  0
   91.9260   95.4480  -41.9360 N   0  0  0  0  0  0  0  0  0  0  0  0
   91.6940   95.1190  -43.2390 C   0  0  0  0  0  0  0  0  0  0  0  0
   92.1660   94.6980  -41.2400 H   0  0  0  0  0  0  0  0  0  0  0  0
   91.6900   93.9600  -43.9560 C   0  0  0  0  0  3  0  0  0  0  0  0
   91.4130   96.3040  -43.8730 C   0  0  0  0  0  0  0  0  0  0  0  0
   91.4090   93.9470  -45.3040 C   0  0  0  0  0  0  0  0  0  0  0  0
   91.4090   92.3160  -46.2850 Br  0  0  0  0  0  0  0  0  0  0  0  0
   91.1220   95.1480  -45.9550 C   0  0  0  0  0  3  0  0  0  0  0  0
   91.1260   96.3200  -45.2320 C   0  0  0  0  0  3  0  0  0  0  0  0
  1  5  1  0  0  0  0
  1 19  1  0  0  0  0
  2  1  1  0  0  0  0
  3  7  1  6  0  0  0
  3  4  1  0  0  0  0
  3  2  1  0  0  0  0
  4  5  1  0  0  0  0
  5  6  2  0  0  0  0
  8  7  2  0  0  0  0
  9 10  1  0  0  0  0
  9  7  1  0  0  0  0
 11 12  1  0  0  0  0
 11  9  1  0  0  0  0
 12 13  1  0  0  0  0
 13 18  1  0  0  0  0
 14 13  1  0  0  0  0
 15 14  1  0  0  0  0
 15 16  1  0  0  0  0
 16 17  1  0  0  0  0
 18 17  1  0  0  0  0
 19 20  2  0  0  0  0
 21 20  1  0  0  0  0
 21 23  1  0  0  0  0
 22 21  1  0  0  0  0
 24 22  2  0  0  0  0
 25 22  1  0  0  0  0
 25 19  1  0  0  0  0
 26 24  1  0  0  0  0
 27 26  1  0  0  0  0
 28 26  2  0  0  0  0
 28 29  1  0  0  0  0
 29 25  2  0  0  0  0
M  END
>  <Pose>
1

>  <Score>
-5.918

$$$$
