MODEL 1
REMARK VINA RESULT:    -6.700      0.000      0.000
REMARK INTER + INTRA:          -8.209
REMARK INTER:                  -7.483
REMARK INTRA:                  -0.726
REMARK UNBOUND:                -0.726
REMARK  2 active torsions:
REMARK  status: ('A' for Active; 'I' for Inactive)
REMARK    1  A    between atoms: C_4  and  C_8 
REMARK       I    between atoms: C_8  and  N_10 
REMARK    2  A    between atoms: N_13  and  C_16 
ROOT
ATOM      1  C   UNK d   1      89.926 100.242 -42.685  0.00  0.00     0.204 C 
ATOM      2  O   UNK d   1      88.758  99.997 -42.121  0.00  0.00    -0.170 OA
ATOM      3  N   UNK d   1      90.026 100.007 -44.048  0.00  0.00    -0.355 N 
ATOM      4  C   UNK d   1      88.836  99.462 -44.745  0.00  0.00     0.145 C 
ATOM      5  C   UNK d   1      89.260  98.132 -45.309  0.00  0.00     0.144 C 
ATOM      6  N   UNK d   1      90.650  97.837 -45.165  0.00  0.00    -0.362 N 
ATOM      7  C   UNK d   1      91.705  98.839 -45.176  0.00  0.00     0.144 C 
ATOM      8  C   UNK d   1      91.120 100.220 -44.921  0.00  0.00     0.145 C 
ENDROOT
BRANCH   1   9
ATOM      9  C   UNK d   1      90.900 100.721 -41.739  0.00  0.00     0.089 A 
ATOM     10  N   UNK d   1      92.142 100.313 -41.476  0.00  0.00    -0.342 N 
ATOM     11  C   UNK d   1      92.728 101.067 -40.505  0.00  0.00     0.126 A 
ATOM     12  H   UNK d   1      92.684  99.528 -41.890  0.00  0.00     0.167 HD
ATOM     13 Cl   UNK d   1      94.337 100.912 -39.832  0.00  0.00    -0.063 Cl
ATOM     14  C   UNK d   1      91.831 102.020 -40.104  0.00  0.00     0.074 A 
ATOM     15  C   UNK d   1      90.709 101.801 -40.867  0.00  0.00     0.061 A 
ATOM     16 Cl   UNK d   1      92.084 103.245 -38.879  0.00  0.00    -0.081 Cl
ENDBRANCH   1   9
BRANCH   6  17
ATOM     17  C   UNK d   1      91.073  96.490 -44.997  0.00  0.00     0.142 A 
ATOM     18  N   UNK d   1      91.120  95.640 -46.040  0.00  0.00    -0.224 NA
ATOM     19  C   UNK d   1      91.518  94.354 -45.897  0.00  0.00     0.237 A 
ATOM     20  N   UNK d   1      91.883  93.885 -44.692  0.00  0.00    -0.222 NA
ATOM     21  C   UNK d   1      91.864  94.669 -43.602  0.00  0.00     0.162 A 
ATOM     22  N   UNK d   1      92.174  94.450 -42.311  0.00  0.00    -0.256 N 
ATOM     23  C   UNK d   1      91.450  95.995 -43.767  0.00  0.00     0.076 A 
ATOM     24  N   UNK d   1      91.971  95.581 -41.666  0.00  0.00    -0.182 NA
ATOM     25  C   UNK d   1      92.649  93.207 -41.701  0.00  0.00     0.182 C 
ATOM     26  C   UNK d   1      91.532  96.542 -42.513  0.00  0.00     0.158 A 
ENDBRANCH   6  17
TORSDOF 2
ENDMDL
