MODEL 1
REMARK VINA RESULT:    -6.730      0.000      0.000
REMARK INTER + INTRA:          -9.946
REMARK INTER:                  -8.697
REMARK INTRA:                  -1.249
REMARK UNBOUND:                -1.249
REMARK  5 active torsions:
REMARK  status: ('A' for Active; 'I' for Inactive)
REMARK    1  A    between atoms: C_5  and  C_8 
REMARK    2  A    between atoms: N_15  and  C_16 
REMARK    3  A    between atoms: C_16  and  C_17 
REMARK    4  A    between atoms: C_17  and  C_18 
REMARK    5  A    between atoms: C_18  and  N_19 
ROOT
ATOM      1  C   UNK d   1      91.009  98.564 -43.405  0.00  0.00     0.078 A 
ATOM      2  C   UNK d   1      91.431  97.277 -43.027  0.00  0.00     0.146 A 
ATOM      3  N   UNK d   1      91.271  96.448 -44.056  0.00  0.00    -0.153 N 
ATOM      4  C   UNK d   1      91.432  95.153 -44.432  0.00  0.00     0.083 A 
ATOM      5  C   UNK d   1      91.012  95.066 -45.715  0.00  0.00     0.077 A 
ATOM      6  N   UNK d   1      90.612  96.291 -46.085  0.00  0.00    -0.189 N 
ATOM      7  C   UNK d   1      90.767  97.163 -45.064  0.00  0.00     0.692 A 
ATOM      8  N   UNK d   1      90.600  98.470 -44.678  0.00  0.00    -0.180 N 
ATOM      9  C   UNK d   1      91.052  93.858 -46.389  0.00  0.00     0.032 A 
ATOM     10  C   UNK d   1      91.522  92.714 -45.763  0.00  0.00     0.002 A 
ATOM     11  C   UNK d   1      91.953  92.804 -44.446  0.00  0.00     0.002 A 
ATOM     12  C   UNK d   1      91.900  94.022 -43.808  0.00  0.00     0.033 A 
ATOM     13  H   UNK d   1      90.221  96.547 -47.029  0.00  0.00     0.184 HD
ENDROOT
BRANCH   8  14
ATOM     14  C   UNK d   1      90.059  99.484 -45.522  0.00  0.00     0.149 C 
BRANCH  14  15
ATOM     15  C   UNK d   1      88.621  99.291 -45.931  0.00  0.00     0.048 C 
BRANCH  15  16
ATOM     16  C   UNK d   1      87.645  99.092 -44.859  0.00  0.00     0.236 C 
BRANCH  16  17
ATOM     17  N   UNK d   1      87.070  97.795 -44.654  0.00  0.00    -0.071 N 
ATOM     18  C   UNK d   1      85.828  97.851 -43.903  0.00  0.00     0.235 C 
ATOM     19  C   UNK d   1      84.600  98.040 -44.688  0.00  0.00     0.028 C 
ATOM     20  C   UNK d   1      84.716  97.887 -46.159  0.00  0.00     0.003 C 
ATOM     21  C   UNK d   1      85.731  96.861 -46.516  0.00  0.00     0.028 C 
ATOM     22  C   UNK d   1      87.027  96.962 -45.803  0.00  0.00     0.235 C 
ATOM     23  H   UNK d   1      87.712  97.331 -43.973  0.00  0.00     0.279 HD
ENDBRANCH  16  17
ENDBRANCH  15  16
ENDBRANCH  14  15
ENDBRANCH   8  14
BRANCH   1  24
ATOM     24  C   UNK d   1      91.045  99.694 -42.469  0.00  0.00    -0.007 A 
ATOM     25  C   UNK d   1      92.216  99.915 -41.745  0.00  0.00     0.015 A 
ATOM     26  C   UNK d   1      92.376 100.950 -40.845  0.00  0.00     0.020 A 
ATOM     27  C   UNK d   1      91.356 101.829 -40.621  0.00  0.00     0.011 A 
ATOM     28 Br   UNK d   1      91.528 103.266 -39.395  0.00  0.00    -0.051 Br
ATOM     29  C   UNK d   1      90.194 101.640 -41.316  0.00  0.00     0.020 A 
ATOM     30  C   UNK d   1      90.036 100.576 -42.237  0.00  0.00     0.015 A 
ENDBRANCH   1  24
TORSDOF 5
ENDMDL
