MODEL 1
REMARK VINA RESULT:    -7.169      0.000      0.000
REMARK INTER + INTRA:         -10.634
REMARK INTER:                  -9.684
REMARK INTRA:                  -0.950
REMARK UNBOUND:                -0.950
REMARK  6 active torsions:
REMARK  status: ('A' for Active; 'I' for Inactive)
REMARK    1  A    between atoms: C_10  and  C_22 
REMARK    2  A    between atoms: N_15  and  C_18 
REMARK    3  A    between atoms: C_18  and  C_19 
REMARK    4  A    between atoms: C_19  and  C_20 
REMARK    5  A    between atoms: C_22  and  C_23 
REMARK    6  A    between atoms: C_23  and  C_24 
REMARK       I    between atoms: C_24  and  N_26 
ROOT
ATOM      1 Cl   UNK d   1      94.729 102.178 -41.828  0.00  0.00    -0.082 Cl
ATOM      2  C   UNK d   1      93.016 101.797 -41.682  0.00  0.00     0.061 A 
ATOM      3  C   UNK d   1      92.446 101.010 -42.694  0.00  0.00     0.066 A 
ATOM      4  C   UNK d   1      91.115 100.716 -42.576  0.00  0.00     0.008 A 
ATOM      5  C   UNK d   1      90.351 101.185 -41.487  0.00  0.00     0.012 A 
ATOM      6  C   UNK d   1      90.920 101.954 -40.503  0.00  0.00     0.002 A 
ATOM      7  C   UNK d   1      92.260 102.247 -40.627  0.00  0.00     0.026 A 
ATOM      8  C   UNK d   1      90.735  99.882 -43.724  0.00  0.00     0.151 A 
ATOM      9  N   UNK d   1      89.609 100.350 -44.450  0.00  0.00    -0.395 N 
ATOM     10  C   UNK d   1      88.911  99.301 -45.052  0.00  0.00     0.092 C 
ATOM     11  C   UNK d   1      89.377  98.055 -44.331  0.00  0.00     0.117 C 
ATOM     12  C   UNK d   1      90.327  98.484 -43.261  0.00  0.00     0.135 C 
ATOM     13  C   UNK d   1      91.470  97.534 -43.268  0.00  0.00     0.234 C 
ATOM     14  O   UNK d   1      92.397  97.548 -42.424  0.00  0.00    -0.272 OA
ATOM     15  N   UNK d   1      91.301  96.651 -44.377  0.00  0.00    -0.288 N 
ATOM     16  C   UNK d   1      90.231  97.187 -45.171  0.00  0.00     0.233 C 
ATOM     17  O   UNK d   1      90.065  96.947 -46.377  0.00  0.00    -0.272 OA
ATOM     18  C   UNK d   1      91.951  99.754 -44.532  0.00  0.00     0.256 A 
ATOM     19  O   UNK d   1      92.115  99.150 -45.638  0.00  0.00    -0.270 OA
ATOM     20  N   UNK d   1      92.998 100.441 -43.875  0.00  0.00    -0.323 N 
ATOM     21  H   UNK d   1      89.749 101.215 -44.997  0.00  0.00     0.155 HD
ATOM     22  H   UNK d   1      94.001 100.540 -44.161  0.00  0.00     0.169 HD
ENDROOT
BRANCH  10  23
ATOM     23  C   UNK d   1      87.439  99.388 -45.179  0.00  0.00     0.035 C 
BRANCH  23  24
ATOM     24  C   UNK d   1      86.614  99.093 -43.991  0.00  0.00     0.104 C 
BRANCH  24  25
ATOM     25  C   UNK d   1      85.790  97.880 -44.022  0.00  0.00     0.215 C 
ATOM     26  O   UNK d   1      86.055  96.955 -44.812  0.00  0.00    -0.274 OA
ATOM     27  N   UNK d   1      84.665  97.687 -43.169  0.00  0.00    -0.370 N 
ATOM     28  H   UNK d   1      84.739  97.562 -42.144  0.00  0.00     0.159 HD
ATOM     29  H   UNK d   1      83.721  97.672 -43.592  0.00  0.00     0.159 HD
ENDBRANCH  24  25
ENDBRANCH  23  24
ENDBRANCH  10  23
BRANCH  15  30
ATOM     30  C   UNK d   1      92.028  95.455 -44.672  0.00  0.00     0.135 C 
BRANCH  30  31
ATOM     31  C   UNK d   1      91.432  94.188 -44.172  0.00  0.00     0.020 C 
BRANCH  31  32
ATOM     32  C   UNK d   1      92.152  93.505 -43.064  0.00  0.00    -0.003 C 
ATOM     33  C   UNK d   1      91.845  94.139 -41.712  0.00  0.00     0.005 C 
ENDBRANCH  31  32
ENDBRANCH  30  31
ENDBRANCH  15  30
TORSDOF 6
ENDMDL
