/Users/jonathanwahrer/Desktop/Msc/3_Semester/Drug_Design_Praktikum/waehrer_HTS_screening/HTS_experiment/out/docking_results/vina_output/4agl/2440_docked.pdbqt
 OpenBabel03212201123D

 33 36  0  0  1  0  0  0  0  0999 V2000
   94.7290  102.1780  -41.8280 Cl  0  0  0  0  0  0  0  0  0  0  0  0
   93.0160  101.7970  -41.6820 C   0  0  0  0  0  0  0  0  0  0  0  0
   92.4460  101.0100  -42.6940 C   0  0  0  0  0  0  0  0  0  0  0  0
   91.1150  100.7160  -42.5760 C   0  0  0  0  0  0  0  0  0  0  0  0
   90.3510  101.1850  -41.4870 C   0  0  0  0  0  3  0  0  0  0  0  0
   90.9200  101.9540  -40.5030 C   0  0  0  0  0  3  0  0  0  0  0  0
   92.2600  102.2470  -40.6270 C   0  0  0  0  0  3  0  0  0  0  0  0
   90.7350   99.8820  -43.7240 C   0  0  2  0  0  0  0  0  0  0  0  0
   89.6090  100.3500  -44.4500 N   0  0  0  0  0  0  0  0  0  0  0  0
   88.9110   99.3010  -45.0520 C   0  0  1  0  0  3  0  0  0  0  0  0
   89.3770   98.0550  -44.3310 C   0  0  2  0  0  3  0  0  0  0  0  0
   90.3270   98.4840  -43.2610 C   0  0  1  0  0  3  0  0  0  0  0  0
   91.4700   97.5340  -43.2680 C   0  0  0  0  0  0  0  0  0  0  0  0
   92.3970   97.5480  -42.4240 O   0  0  0  0  0  0  0  0  0  0  0  0
   91.3010   96.6510  -44.3770 N   0  0  0  0  0  0  0  0  0  0  0  0
   90.2310   97.1870  -45.1710 C   0  0  0  0  0  0  0  0  0  0  0  0
   90.0650   96.9470  -46.3770 O   0  0  0  0  0  0  0  0  0  0  0  0
   91.9510   99.7540  -44.5320 C   0  0  0  0  0  0  0  0  0  0  0  0
   92.1150   99.1500  -45.6380 O   0  0  0  0  0  0  0  0  0  0  0  0
   92.9980  100.4410  -43.8750 N   0  0  0  0  0  0  0  0  0  0  0  0
   89.7490  101.2150  -44.9970 H   0  0  0  0  0  0  0  0  0  0  0  0
   94.0010  100.5400  -44.1610 H   0  0  0  0  0  0  0  0  0  0  0  0
   87.4390   99.3880  -45.1790 C   0  0  0  0  0  2  0  0  0  0  0  0
   86.6140   99.0930  -43.9910 C   0  0  0  0  0  2  0  0  0  0  0  0
   85.7900   97.8800  -44.0220 C   0  0  0  0  0  0  0  0  0  0  0  0
   86.0550   96.9550  -44.8120 O   0  0  0  0  0  0  0  0  0  0  0  0
   84.6650   97.6870  -43.1690 N   0  0  0  0  0  0  0  0  0  0  0  0
   84.7390   97.5620  -42.1440 H   0  0  0  0  0  0  0  0  0  0  0  0
   83.7210   97.6720  -43.5920 H   0  0  0  0  0  0  0  0  0  0  0  0
   92.0280   95.4550  -44.6720 C   0  0  0  0  0  2  0  0  0  0  0  0
   91.4320   94.1880  -44.1720 C   0  0  0  0  0  2  0  0  0  0  0  0
   92.1520   93.5050  -43.0640 C   0  0  0  0  0  2  0  0  0  0  0  0
   91.8450   94.1390  -41.7120 C   0  0  0  0  0  1  0  0  0  0  0  0
  1  2  1  0  0  0  0
  2  7  1  0  0  0  0
  3  4  1  0  0  0  0
  3  2  2  0  0  0  0
  4  5  2  0  0  0  0
  5  6  1  0  0  0  0
  7  6  2  0  0  0  0
  8 18  1  6  0  0  0
  8 12  1  0  0  0  0
  8  4  1  0  0  0  0
  9  8  1  0  0  0  0
 10 23  1  1  0  0  0
 10  9  1  0  0  0  0
 10 11  1  0  0  0  0
 11 16  1  6  0  0  0
 11 12  1  0  0  0  0
 12 13  1  6  0  0  0
 13 14  2  0  0  0  0
 15 13  1  0  0  0  0
 16 15  1  0  0  0  0
 17 16  2  0  0  0  0
 18 20  1  0  0  0  0
 19 18  2  0  0  0  0
 20  3  1  0  0  0  0
 21  9  1  0  0  0  0
 22 20  1  0  0  0  0
 23 24  1  0  0  0  0
 25 24  1  0  0  0  0
 25 27  1  0  0  0  0
 26 25  2  0  0  0  0
 27 28  1  0  0  0  0
 29 27  1  0  0  0  0
 30 15  1  0  0  0  0
 30 31  1  0  0  0  0
 31 32  1  0  0  0  0
 32 33  1  0  0  0  0
M  END
>  <Pose>
1

>  <Score>
-7.169

$$$$
