/Users/jonathanwahrer/Desktop/Msc/3_Semester/Drug_Design_Praktikum/waehrer_HTS_screening/HTS_experiment/out/docking_results/vina_output/6e43/0002_docked.pdbqt
 OpenBabel03212219333D

 38 41  0  0  0  0  0  0  0  0999 V2000
   22.2200   78.6530   12.6870 C   0  0  0  0  0  0  0  0  0  0  0  0
   23.4860   79.0330   12.2950 N   0  0  0  0  0  0  0  0  0  0  0  0
   24.2310   79.0760   13.3520 N   0  0  0  0  0  0  0  0  0  0  0  0
   23.4890   78.7340   14.4410 N   0  0  0  0  0  0  0  0  0  0  0  0
   22.2410   78.4660   14.0630 C   0  0  0  0  0  0  0  0  0  0  0  0
   21.1310   78.4970   11.7520 C   0  0  0  0  0  0  0  0  0  0  0  0
   20.7420   79.2970   10.6720 N   0  0  0  0  0  0  0  0  0  0  0  0
   21.1990   80.1420   10.3730 H   0  0  0  0  0  0  0  0  0  0  0  0
   20.4020   77.4330   11.9550 O   0  0  0  0  0  0  0  0  0  0  0  0
   19.5930   78.8540    9.9300 N   0  0  0  0  0  0  0  0  0  0  0  0
   19.6920   78.5820    8.6830 C   0  0  0  0  0  3  0  0  0  0  0  0
   18.5480   78.1260    7.8820 C   0  0  0  0  0  0  0  0  0  0  0  0
   17.4030   78.8810    7.7300 C   0  0  0  0  0  3  0  0  0  0  0  0
   16.3280   78.4430    6.9730 C   0  0  0  0  0  0  0  0  0  0  0  0
   16.3700   77.2220    6.3370 C   0  0  0  0  0  0  0  0  0  0  0  0
   14.7420   79.4910    6.7620 Br  0  0  0  0  0  0  0  0  0  0  0  0
   17.5150   76.4630    6.4870 C   0  0  0  0  0  0  0  0  0  0  0  0
   15.3060   76.7490    5.5660 O   0  0  0  0  0  1  0  0  0  0  0  0
   17.6010   74.7550    5.6130 Br  0  0  0  0  0  0  0  0  0  0  0  0
   18.5820   76.9050    7.2430 C   0  0  0  0  0  0  0  0  0  0  0  0
   19.7510   76.1380    7.4000 O   0  0  0  0  0  0  0  0  0  0  0  0
   20.2540   75.8300    6.5820 H   0  0  0  0  0  0  0  0  0  0  0  0
   21.0980   78.0540   14.8780 C   0  0  0  0  0  2  0  0  0  0  0  0
   21.1560   76.8430   15.6060 N   0  0  0  0  0  4  0  0  0  0  0  0
   19.8610   76.1950   15.7530 C   0  0  0  0  0  2  0  0  0  0  0  0
   18.8500   77.1300   16.2830 C   0  0  0  0  0  2  0  0  0  0  0  0
   19.1960   78.0950   17.1380 O   0  0  0  0  0  0  0  0  0  0  0  0
   20.5000   78.2540   17.4800 C   0  0  0  0  0  2  0  0  0  0  0  0
   21.4490   77.2200   17.0270 C   0  0  0  0  0  2  0  0  0  0  0  0
   21.8810   76.2160   15.2880 H   0  0  0  0  0  0  0  0  0  0  0  0
   24.1010   78.7200   15.7340 C   0  0  0  0  0  0  0  0  0  0  0  0
   24.1360   79.6200   16.7080 N   0  0  0  0  0  0  0  0  0  0  0  0
   24.7960   79.1050   17.6920 O   0  0  0  0  0  0  0  0  0  0  0  0
   25.2030   77.9040   17.4230 N   0  0  0  0  0  0  0  0  0  0  0  0
   24.7980   77.5930   16.1990 C   0  0  0  0  0  0  0  0  0  0  0  0
   24.9950   76.3990   15.4600 N   0  0  0  0  0  0  0  0  0  0  0  0
   24.9790   76.4320   14.4200 H   0  0  0  0  0  0  0  0  0  0  0  0
   25.1580   75.4600   15.9260 H   0  0  0  0  0  0  0  0  0  0  0  0
  1  5  2  0  0  0  0
  2  1  1  0  0  0  0
  2  3  2  0  0  0  0
  3  4  1  0  0  0  0
  4 31  1  0  0  0  0
  5  4  1  0  0  0  0
  5 23  1  0  0  0  0
  6  9  2  0  0  0  0
  6  1  1  0  0  0  0
  7  6  1  0  0  0  0
  8  7  1  0  0  0  0
 10  7  1  0  0  0  0
 11 10  2  0  0  0  0
 12 11  1  0  0  0  0
 13 12  1  0  0  0  0
 14 13  2  0  0  0  0
 15 17  2  0  0  0  0
 15 14  1  0  0  0  0
 16 14  1  0  0  0  0
 17 20  1  0  0  0  0
 18 15  1  0  0  0  0
 19 17  1  0  0  0  0
 20 21  1  0  0  0  0
 20 12  2  0  0  0  0
 22 21  1  0  0  0  0
 23 24  1  0  0  0  0
 24 25  1  0  0  0  0
 24 29  1  0  0  0  0
 25 26  1  0  0  0  0
 26 27  1  0  0  0  0
 27 28  1  0  0  0  0
 29 28  1  0  0  0  0
 30 24  1  0  0  0  0
 31 35  1  0  0  0  0
 31 32  2  0  0  0  0
 32 33  1  0  0  0  0
 34 33  1  0  0  0  0
 35 34  2  0  0  0  0
 36 38  1  0  0  0  0
 36 35  1  0  0  0  0
 37 36  1  0  0  0  0
M  END
>  <Pose>
1

>  <Score>
-8.677

$$$$
