MODEL 1
REMARK VINA RESULT:    -9.554      0.000      0.000
REMARK INTER + INTRA:         -13.739
REMARK INTER:                 -12.905
REMARK INTRA:                  -0.834
REMARK UNBOUND:                -0.834
REMARK  7 active torsions:
REMARK  status: ('A' for Active; 'I' for Inactive)
REMARK    1  A    between atoms: C_3  and  O_31 
REMARK    2  A    between atoms: C_6  and  C_9 
REMARK    3  A    between atoms: C_7  and  O_8 
REMARK    4  A    between atoms: N_10  and  N_11 
REMARK    5  A    between atoms: N_11  and  C_12 
REMARK    6  A    between atoms: C_14  and  N_24 
REMARK    7  A    between atoms: C_16  and  N_18 
ROOT
ATOM      1  C   UNK d   1      20.147  78.341  17.206  0.00  0.00     0.774 A 
ATOM      2  N   UNK d   1      19.792  79.342  18.009  0.00  0.00     0.133 NA
ATOM      3  C   UNK d   1      20.530  80.483  18.133  0.00  0.00     0.756 A 
ATOM      4  N   UNK d   1      21.639  80.545  17.400  0.00  0.00     0.131 NA
ATOM      5  C   UNK d   1      22.072  79.577  16.561  0.00  0.00     0.756 A 
ATOM      6  N   UNK d   1      21.274  78.470  16.497  0.00  0.00     0.133 NA
ENDROOT
BRANCH   1   7
ATOM      7  N   UNK d   1      19.350  77.168  17.105  0.00  0.00    -0.105 N 
ATOM      8  H   UNK d   1      19.017  76.624  17.908  0.00  0.00     0.208 HD
BRANCH   7   9
ATOM      9  N   UNK d   1      18.977  76.701  15.829  0.00  0.00    -0.171 NA
ATOM     10  C   UNK d   1      19.758  76.033  15.076  0.00  0.00     0.153 C 
BRANCH  10  11
ATOM     11  C   UNK d   1      19.398  75.540  13.757  0.00  0.00     0.019 A 
ATOM     12  C   UNK d   1      18.818  74.301  13.623  0.00  0.00     0.038 A 
ATOM     13  C   UNK d   1      18.465  73.809  12.379  0.00  0.00     0.046 A 
ATOM     14  C   UNK d   1      18.681  74.537  11.230  0.00  0.00     0.103 A 
ATOM     15 Br   UNK d   1      17.658  72.080  12.220  0.00  0.00    -0.048 Br
ATOM     16  C   UNK d   1      19.263  75.784  11.355  0.00  0.00     0.079 A 
ATOM     17 Br   UNK d   1      19.559  76.788   9.756  0.00  0.00    -0.045 Br
ATOM     18  C   UNK d   1      19.613  76.269  12.605  0.00  0.00     0.097 A 
BRANCH  14  19
ATOM     19  O   UNK d   1      18.332  74.058   9.969  0.00  0.00    -0.358 OA
ATOM     20  H   UNK d   1      17.394  74.193   9.630  0.00  0.00     0.217 HD
ENDBRANCH  14  19
BRANCH  18  21
ATOM     21  O   UNK d   1      20.193  77.510  12.715  0.00  0.00    -0.358 OA
ATOM     22  H   UNK d   1      19.802  78.217  13.346  0.00  0.00     0.217 HD
ENDBRANCH  18  21
ENDBRANCH  10  11
ENDBRANCH   7   9
ENDBRANCH   1   7
BRANCH   3  23
ATOM     23  N   UNK d   1      20.136  81.532  18.989  0.00  0.00    -0.209 N 
ATOM     24  C   UNK d   1      19.988  82.867  18.480  0.00  0.00     0.167 C 
ATOM     25  C   UNK d   1      20.698  83.801  19.448  0.00  0.00     0.188 C 
ATOM     26  O   UNK d   1      20.368  83.529  20.770  0.00  0.00    -0.388 OA
ATOM     27  C   UNK d   1      20.727  82.264  21.177  0.00  0.00     0.188 C 
ATOM     28  C   UNK d   1      19.881  81.266  20.376  0.00  0.00     0.167 C 
ENDBRANCH   3  23
BRANCH   5  29
ATOM     29  N   UNK d   1      23.253  79.688  15.804  0.00  0.00    -0.209 N 
ATOM     30  C   UNK d   1      23.208  80.075  14.429  0.00  0.00     0.167 C 
ATOM     31  C   UNK d   1      24.015  79.038  13.642  0.00  0.00     0.188 C 
ATOM     32  O   UNK d   1      24.470  78.017  14.449  0.00  0.00    -0.388 OA
ATOM     33  C   UNK d   1      25.250  78.428  15.501  0.00  0.00     0.188 C 
ATOM     34  C   UNK d   1      24.521  79.413  16.407  0.00  0.00     0.167 C 
ENDBRANCH   5  29
TORSDOF 7
ENDMDL
