MODEL 1
REMARK VINA RESULT:    -8.348      0.000      0.000
REMARK INTER + INTRA:         -14.099
REMARK INTER:                 -12.741
REMARK INTRA:                  -1.358
REMARK UNBOUND:                -1.358
REMARK  10 active torsions:
REMARK  status: ('A' for Active; 'I' for Inactive)
REMARK    1  A    between atoms: C_3  and  O_10 
REMARK    2  A    between atoms: O_10  and  C_11 
REMARK    3  A    between atoms: C_11  and  C_12 
REMARK    4  A    between atoms: C_12  and  O_13 
REMARK    5  A    between atoms: C_12  and  C_14 
REMARK    6  A    between atoms: C_14  and  N_15 
REMARK    7  A    between atoms: C_19  and  N_20 
REMARK    8  A    between atoms: N_23  and  C_26 
REMARK    9  A    between atoms: C_26  and  C_27 
REMARK   10  A    between atoms: C_27  and  O_28 
ROOT
ATOM      1  N   UNK d   1      20.979  78.621  16.289  0.00  0.00    -0.171 N 
ATOM      2  C   UNK d   1      20.373  79.092  17.411  0.00  0.00     0.154 A 
ATOM      3  C   UNK d   1      20.564  80.445  17.500  0.00  0.00     0.184 A 
ATOM      4  N   UNK d   1      21.273  80.767  16.438  0.00  0.00    -0.044 NA
ATOM      5  C   UNK d   1      21.543  79.676  15.671  0.00  0.00     0.707 A 
ATOM      6  N   UNK d   1      20.069  81.230  18.506  0.00  0.00    -0.284 N 
ATOM      7  C   UNK d   1      19.351  80.610  19.450  0.00  0.00     0.352 A 
ATOM      8  O   UNK d   1      18.896  81.337  20.378  0.00  0.00    -0.244 OA
ATOM      9  N   UNK d   1      19.131  79.282  19.406  0.00  0.00    -0.164 NA
ATOM     10  C   UNK d   1      19.611  78.500  18.426  0.00  0.00     0.236 A 
ATOM     11  O   UNK d   1      19.366  77.146  18.402  0.00  0.00    -0.167 OA
ATOM     12  C   UNK d   1      20.344  82.660  18.504  0.00  0.00     0.163 C 
ENDROOT
BRANCH   1  13
ATOM     13  C   UNK d   1      20.996  77.268  15.861  0.00  0.00     0.182 C 
BRANCH  13  14
ATOM     14  C   UNK d   1      20.114  76.764  14.821  0.00  0.00     0.161 C 
BRANCH  14  15
ATOM     15  C   UNK d   1      20.442  76.668  13.392  0.00  0.00     0.209 C 
BRANCH  15  16
ATOM     16  O   UNK d   1      19.267  76.419  12.625  0.00  0.00    -0.346 OA
BRANCH  16  17
ATOM     17  C   UNK d   1      19.217  76.079  11.318  0.00  0.00     0.103 A 
ATOM     18  C   UNK d   1      18.976  74.741  10.969  0.00  0.00     0.047 A 
ATOM     19 Br   UNK d   1      18.728  73.484  12.391  0.00  0.00    -0.048 Br
ATOM     20  C   UNK d   1      18.916  74.340   9.659  0.00  0.00     0.041 A 
ATOM     21  C   UNK d   1      19.094  75.249   8.639  0.00  0.00     0.013 A 
ATOM     22  C   UNK d   1      19.332  76.566   8.956  0.00  0.00     0.041 A 
ATOM     23 Br   UNK d   1      18.994  74.600   6.850  0.00  0.00    -0.051 Br
ATOM     24  C   UNK d   1      19.391  76.958  10.299  0.00  0.00     0.047 A 
ATOM     25 Br   UNK d   1      19.742  78.777  10.636  0.00  0.00    -0.048 Br
ENDBRANCH  16  17
ENDBRANCH  15  16
ENDBRANCH  14  15
BRANCH  14  26
ATOM     26  O   UNK d   1      19.294  75.658  15.110  0.00  0.00    -0.392 OA
ATOM     27  H   UNK d   1      19.806  74.898  15.438  0.00  0.00     0.210 HD
ENDBRANCH  14  26
ENDBRANCH  13  14
ENDBRANCH   1  13
BRANCH   5  28
ATOM     28  N   UNK d   1      22.202  79.781  14.396  0.00  0.00    -0.212 N 
ATOM     29  C   UNK d   1      21.645  80.203  13.169  0.00  0.00     0.169 C 
ATOM     30  C   UNK d   1      22.787  80.230  12.116  0.00  0.00     0.255 C 
ATOM     31  N   UNK d   1      23.229  78.852  12.021  0.00  0.00    -0.066 N 
ATOM     32  C   UNK d   1      24.106  78.699  13.197  0.00  0.00     0.255 C 
ATOM     33  H   UNK d   1      22.465  78.155  12.151  0.00  0.00     0.280 HD
ATOM     34  C   UNK d   1      23.634  79.452  14.376  0.00  0.00     0.169 C 
BRANCH  31  35
ATOM     35  C   UNK d   1      23.992  78.617  10.811  0.00  0.00     0.260 C 
BRANCH  35  36
ATOM     36  C   UNK d   1      23.183  79.094   9.625  0.00  0.00     0.192 C 
BRANCH  36  37
ATOM     37  O   UNK d   1      24.020  79.806   8.757  0.00  0.00    -0.399 OA
ATOM     38  H   UNK d   1      23.589  80.659   8.471  0.00  0.00     0.209 HD
ENDBRANCH  36  37
ENDBRANCH  35  36
ENDBRANCH  31  35
ENDBRANCH   5  28
TORSDOF 10
ENDMDL
