/Users/jonathanwahrer/Desktop/Msc/3_Semester/Drug_Design_Praktikum/waehrer_HTS_screening/HTS_experiment/out/docking_results/vina_output/6e43/0005_docked.pdbqt
 OpenBabel03212219343D

 38 41  0  0  1  0  0  0  0  0999 V2000
   20.9790   78.6210   16.2890 N   0  0  0  0  0  0  0  0  0  0  0  0
   20.3730   79.0920   17.4110 C   0  0  0  0  0  0  0  0  0  0  0  0
   20.5640   80.4450   17.5000 C   0  0  0  0  0  0  0  0  0  0  0  0
   21.2730   80.7670   16.4380 N   0  0  0  0  0  0  0  0  0  0  0  0
   21.5430   79.6760   15.6710 C   0  0  0  0  0  0  0  0  0  0  0  0
   20.0690   81.2300   18.5060 N   0  0  0  0  0  0  0  0  0  0  0  0
   19.3510   80.6100   19.4500 C   0  0  0  0  0  0  0  0  0  0  0  0
   18.8960   81.3370   20.3780 O   0  0  0  0  0  0  0  0  0  0  0  0
   19.1310   79.2820   19.4060 N   0  0  0  0  0  2  0  0  0  0  0  0
   19.6110   78.5000   18.4260 C   0  0  0  0  0  0  0  0  0  0  0  0
   19.3660   77.1460   18.4020 O   0  0  0  0  0  0  0  0  0  0  0  0
   20.3440   82.6600   18.5040 C   0  0  0  0  0  1  0  0  0  0  0  0
   20.9960   77.2680   15.8610 C   0  0  0  0  0  2  0  0  0  0  0  0
   20.1140   76.7640   14.8210 C   0  0  1  0  0  3  0  0  0  0  0  0
   20.4420   76.6680   13.3920 C   0  0  0  0  0  2  0  0  0  0  0  0
   19.2670   76.4190   12.6250 O   0  0  0  0  0  0  0  0  0  0  0  0
   19.2170   76.0790   11.3180 C   0  0  0  0  0  0  0  0  0  0  0  0
   18.9760   74.7410   10.9690 C   0  0  0  0  0  0  0  0  0  0  0  0
   18.7280   73.4840   12.3910 Br  0  0  0  0  0  0  0  0  0  0  0  0
   18.9160   74.3400    9.6590 C   0  0  0  0  0  3  0  0  0  0  0  0
   19.0940   75.2490    8.6390 C   0  0  0  0  0  0  0  0  0  0  0  0
   19.3320   76.5660    8.9560 C   0  0  0  0  0  3  0  0  0  0  0  0
   18.9940   74.6000    6.8500 Br  0  0  0  0  0  0  0  0  0  0  0  0
   19.3910   76.9580   10.2990 C   0  0  0  0  0  0  0  0  0  0  0  0
   19.7420   78.7770   10.6360 Br  0  0  0  0  0  0  0  0  0  0  0  0
   19.2940   75.6580   15.1100 O   0  0  0  0  0  0  0  0  0  0  0  0
   19.8060   74.8980   15.4380 H   0  0  0  0  0  0  0  0  0  0  0  0
   22.2020   79.7810   14.3960 N   0  0  0  0  0  0  0  0  0  0  0  0
   21.6450   80.2030   13.1690 C   0  0  0  0  0  2  0  0  0  0  0  0
   22.7870   80.2300   12.1160 C   0  0  0  0  0  2  0  0  0  0  0  0
   23.2290   78.8520   12.0210 N   0  0  0  0  0  4  0  0  0  0  0  0
   24.1060   78.6990   13.1970 C   0  0  0  0  0  2  0  0  0  0  0  0
   22.4650   78.1550   12.1510 H   0  0  0  0  0  0  0  0  0  0  0  0
   23.6340   79.4520   14.3760 C   0  0  0  0  0  2  0  0  0  0  0  0
   23.9920   78.6170   10.8110 C   0  0  0  0  0  2  0  0  0  0  0  0
   23.1830   79.0940    9.6250 C   0  0  0  0  0  2  0  0  0  0  0  0
   24.0200   79.8060    8.7570 O   0  0  0  0  0  0  0  0  0  0  0  0
   23.5890   80.6590    8.4710 H   0  0  0  0  0  0  0  0  0  0  0  0
  1  2  1  0  0  0  0
  2  3  2  0  0  0  0
  2 10  1  0  0  0  0
  3  6  1  0  0  0  0
  4  3  1  0  0  0  0
  5  1  1  0  0  0  0
  5  4  2  0  0  0  0
  6  7  1  0  0  0  0
  7  8  2  0  0  0  0
  9  7  1  0  0  0  0
 10  9  1  0  0  0  0
 11 10  2  0  0  0  0
 12  6  1  0  0  0  0
 13  1  1  0  0  0  0
 14 15  1  6  0  0  0
 14 26  1  0  0  0  0
 14 13  1  0  0  0  0
 16 15  1  0  0  0  0
 17 16  1  0  0  0  0
 18 17  1  0  0  0  0
 18 19  1  0  0  0  0
 20 18  2  0  0  0  0
 21 22  2  0  0  0  0
 21 20  1  0  0  0  0
 22 24  1  0  0  0  0
 23 21  1  0  0  0  0
 24 25  1  0  0  0  0
 24 17  2  0  0  0  0
 26 27  1  0  0  0  0
 28  5  1  0  0  0  0
 29 28  1  0  0  0  0
 30 29  1  0  0  0  0
 31 30  1  0  0  0  0
 31 33  1  0  0  0  0
 31 32  1  0  0  0  0
 32 34  1  0  0  0  0
 34 28  1  0  0  0  0
 35 31  1  0  0  0  0
 36 35  1  0  0  0  0
 37 36  1  0  0  0  0
 38 37  1  0  0  0  0
M  END
>  <Pose>
1

>  <Score>
-8.348

$$$$
