MODEL 1
REMARK VINA RESULT:   -10.355      0.000      0.000
REMARK INTER + INTRA:         -14.672
REMARK INTER:                 -13.685
REMARK INTRA:                  -0.987
REMARK UNBOUND:                -0.987
REMARK  6 active torsions:
REMARK  status: ('A' for Active; 'I' for Inactive)
REMARK    1  A    between atoms: C_4  and  C_9 
REMARK    2  A    between atoms: N_10  and  N_11 
REMARK       I    between atoms: N_11  and  C_12 
REMARK    3  A    between atoms: C_12  and  C_14 
REMARK    4  A    between atoms: C_14  and  N_15 
REMARK    5  A    between atoms: C_19  and  C_20 
REMARK    6  A    between atoms: C_24  and  N_25 
ROOT
ATOM      1  N   UNK d   1      20.804  79.710  17.953  0.00  0.00    -0.319 N 
ATOM      2  C   UNK d   1      20.228  80.712  18.668  0.00  0.00     0.065 A 
ATOM      3  C   UNK d   1      20.559  81.924  18.127  0.00  0.00     0.086 A 
ATOM      4  N   UNK d   1      21.343  81.640  17.075  0.00  0.00    -0.226 NA
ATOM      5  C   UNK d   1      21.495  80.283  16.965  0.00  0.00     0.167 A 
ATOM      6  C   UNK d   1      20.067  83.070  18.716  0.00  0.00     0.034 A 
ATOM      7  C   UNK d   1      19.252  83.027  19.835  0.00  0.00     0.002 A 
ATOM      8  C   UNK d   1      18.935  81.787  20.360  0.00  0.00     0.002 A 
ATOM      9  C   UNK d   1      19.425  80.638  19.772  0.00  0.00     0.032 A 
ENDROOT
BRANCH   1  10
ATOM     10  C   UNK d   1      20.705  78.303  18.188  0.00  0.00     0.235 C 
BRANCH  10  11
ATOM     11  C   UNK d   1      20.123  77.517  17.128  0.00  0.00     0.256 C 
ATOM     12  N   UNK d   1      20.891  76.769  16.201  0.00  0.00    -0.246 N 
ATOM     13  H   UNK d   1      21.928  76.799  16.303  0.00  0.00     0.192 HD
ATOM     14  O   UNK d   1      18.878  77.473  16.993  0.00  0.00    -0.270 OA
BRANCH  12  15
ATOM     15  N   UNK d   1      20.360  76.006  15.175  0.00  0.00    -0.184 NA
ATOM     16  C   UNK d   1      20.035  76.476  14.032  0.00  0.00     0.153 C 
BRANCH  16  17
ATOM     17  C   UNK d   1      19.487  75.582  13.030  0.00  0.00     0.022 A 
ATOM     18  C   UNK d   1      19.428  75.974  11.728  0.00  0.00     0.136 A 
ATOM     19  C   UNK d   1      18.904  75.117  10.783  0.00  0.00     0.049 A 
ATOM     20  O   UNK d   1      19.886  77.222  11.344  0.00  0.00    -0.190 OA
ATOM     21 Br   UNK d   1      18.831  75.683   8.973  0.00  0.00    -0.048 Br
ATOM     22  C   UNK d   1      18.442  73.866  11.155  0.00  0.00     0.041 A 
ATOM     23  C   UNK d   1      18.512  73.491  12.474  0.00  0.00     0.013 A 
ATOM     24  C   UNK d   1      19.029  74.324  13.435  0.00  0.00     0.035 A 
ATOM     25 Br   UNK d   1      17.870  71.759  12.973  0.00  0.00    -0.051 Br
ENDBRANCH  16  17
ENDBRANCH  12  15
ENDBRANCH  10  11
ENDBRANCH   1  10
BRANCH   5  26
ATOM     26  C   UNK d   1      22.287  79.637  15.925  0.00  0.00     0.187 A 
ATOM     27  N   UNK d   1      21.869  79.371  14.681  0.00  0.00    -0.097 NA
ATOM     28  O   UNK d   1      22.850  78.783  14.019  0.00  0.00    -0.104 OA
ATOM     29  N   UNK d   1      23.891  78.655  14.780  0.00  0.00    -0.077 NA
ATOM     30  C   UNK d   1      23.583  79.177  15.988  0.00  0.00     0.285 A 
BRANCH  30  31
ATOM     31  N   UNK d   1      24.434  79.244  17.117  0.00  0.00    -0.028 N 
ATOM     32  H   UNK d   1      25.352  78.809  16.951  0.00  0.00     0.283 HD
ATOM     33  H   UNK d   1      23.964  78.672  17.871  0.00  0.00     0.283 HD
ATOM     34  H   UNK d   1      24.533  80.222  17.495  0.00  0.00     0.283 HD
ENDBRANCH  30  31
ENDBRANCH   5  26
TORSDOF 6
ENDMDL
