MODEL 1
REMARK VINA RESULT:   -10.492      0.000      0.000
REMARK INTER + INTRA:         -16.930
REMARK INTER:                 -15.706
REMARK INTRA:                  -1.224
REMARK UNBOUND:                -1.224
REMARK  9 active torsions:
REMARK  status: ('A' for Active; 'I' for Inactive)
REMARK    1  A    between atoms: C_4  and  O_29 
REMARK    2  A    between atoms: C_6  and  C_8 
REMARK    3  A    between atoms: C_8  and  N_9 
REMARK    4  A    between atoms: N_9  and  N_10 
REMARK       I    between atoms: N_10  and  C_11 
REMARK    5  A    between atoms: C_11  and  C_13 
REMARK    6  A    between atoms: C_13  and  N_14 
REMARK    7  A    between atoms: C_18  and  C_19 
REMARK    8  A    between atoms: C_23  and  N_24 
REMARK    9  A    between atoms: O_29  and  C_30 
ROOT
ATOM      1  N   UNK d   1      21.676  78.710  16.458  0.00  0.00    -0.319 N 
ATOM      2  C   UNK d   1      23.033  78.579  16.204  0.00  0.00     0.065 A 
ATOM      3  C   UNK d   1      23.683  78.998  17.304  0.00  0.00     0.086 A 
ATOM      4  N   UNK d   1      22.762  79.363  18.183  0.00  0.00    -0.226 NA
ATOM      5  C   UNK d   1      21.490  79.187  17.659  0.00  0.00     0.167 A 
ATOM      6  C   UNK d   1      25.066  79.000  17.402  0.00  0.00     0.034 A 
ATOM      7  C   UNK d   1      25.757  78.548  16.304  0.00  0.00     0.002 A 
ATOM      8  C   UNK d   1      25.140  78.109  15.148  0.00  0.00     0.002 A 
ATOM      9  C   UNK d   1      23.747  78.128  15.105  0.00  0.00     0.032 A 
ENDROOT
BRANCH   1  10
ATOM     10  C   UNK d   1      20.743  78.320  15.483  0.00  0.00     0.236 C 
BRANCH  10  11
ATOM     11  C   UNK d   1      20.329  76.840  15.634  0.00  0.00     0.264 C 
ATOM     12  N   UNK d   1      19.898  76.333  14.452  0.00  0.00    -0.202 N 
ATOM     13  H   UNK d   1      19.707  75.101  15.101  0.00  0.00     0.205 HD
ATOM     14  O   UNK d   1      20.469  76.422  16.781  0.00  0.00    -0.269 OA
BRANCH  12  15
ATOM     15  N   UNK d   1      19.506  75.869  13.378  0.00  0.00    -0.335 NA
BRANCH  15  16
ATOM     16  C   UNK d   1      19.167  75.495  12.310  0.00  0.00     0.220 C 
BRANCH  16  17
ATOM     17  C   UNK d   1      19.286  76.007  10.988  0.00  0.00    -0.001 A 
ATOM     18  C   UNK d   1      19.604  77.357  10.781  0.00  0.00     0.053 A 
ATOM     19  C   UNK d   1      19.759  77.949   9.562  0.00  0.00     0.107 A 
ATOM     20  C   UNK d   1      19.586  77.139   8.414  0.00  0.00     0.157 A 
ATOM     21  C   UNK d   1      19.272  75.807   8.572  0.00  0.00     0.051 A 
ATOM     22  O   UNK d   1      19.747  77.735   7.197  0.00  0.00    -0.188 OA
ATOM     23 Br   UNK d   1      19.061  74.687   7.054  0.00  0.00    -0.048 Br
ATOM     24  C   UNK d   1      19.129  75.269   9.836  0.00  0.00     0.036 A 
BRANCH  19  25
ATOM     25  O   UNK d   1      20.077  79.281   9.373  0.00  0.00    -0.348 OA
BRANCH  25  26
ATOM     26  C   UNK d   1      21.262  79.846   9.819  0.00  0.00     0.171 C 
ATOM     27  C   UNK d   1      22.523  79.115   9.457  0.00  0.00     0.034 C 
ENDBRANCH  25  26
ENDBRANCH  19  25
ENDBRANCH  16  17
ENDBRANCH  15  16
ENDBRANCH  12  15
ENDBRANCH  10  11
ENDBRANCH   1  10
BRANCH   5  28
ATOM     28  C   UNK d   1      20.383  79.536  18.532  0.00  0.00     0.187 A 
ATOM     29  N   UNK d   1      19.904  80.840  18.643  0.00  0.00    -0.097 NA
ATOM     30  O   UNK d   1      18.921  80.887  19.447  0.00  0.00    -0.104 OA
ATOM     31  N   UNK d   1      18.669  79.729  19.911  0.00  0.00    -0.077 NA
ATOM     32  C   UNK d   1      19.570  78.848  19.357  0.00  0.00     0.285 A 
BRANCH  32  33
ATOM     33  N   UNK d   1      19.542  77.469  19.653  0.00  0.00    -0.028 N 
ATOM     34  H   UNK d   1      20.298  77.270  20.411  0.00  0.00     0.283 HD
ATOM     35  H   UNK d   1      19.870  76.927  18.845  0.00  0.00     0.283 HD
ATOM     36  H   UNK d   1      18.683  77.201  20.126  0.00  0.00     0.283 HD
ENDBRANCH  32  33
ENDBRANCH   5  28
TORSDOF 9
ENDMDL
