/Users/jonathanwahrer/Desktop/Msc/3_Semester/Drug_Design_Praktikum/waehrer_HTS_screening/HTS_experiment/out/docking_results/vina_output/6e43/0017_docked.pdbqt
 OpenBabel03212219363D

 38 41  0  0  0  0  0  0  0  0999 V2000
   20.7080   76.9770   14.3800 C   0  0  0  0  0  0  0  0  0  0  0  0
   20.3420   76.7880   15.6540 N   0  0  0  0  0  0  0  0  0  0  0  0
   21.3100   77.1680   16.4510 N   0  0  0  0  0  0  0  0  0  0  0  0
   22.3570   77.6250   15.7410 N   0  0  0  0  0  0  0  0  0  0  0  0
   22.0070   77.5160   14.4570 C   0  0  0  0  0  0  0  0  0  0  0  0
   19.9590   76.6990   13.1620 C   0  0  0  0  0  0  0  0  0  0  0  0
   20.0430   77.5370   12.0280 N   0  0  0  0  0  0  0  0  0  0  0  0
   20.6730   78.3890   12.0800 H   0  0  0  0  0  0  0  0  0  0  0  0
   19.2230   75.6940   13.1200 O   0  0  0  0  0  0  0  0  0  0  0  0
   19.3660   77.3330   10.8510 N   0  0  0  0  0  0  0  0  0  0  0  0
   19.3890   78.1080    9.8300 C   0  0  0  0  0  3  0  0  0  0  0  0
   18.6360   77.8090    8.6230 C   0  0  0  0  0  0  0  0  0  0  0  0
   17.7580   78.7030    8.0310 C   0  0  0  0  0  3  0  0  0  0  0  0
   17.0580   78.3940    6.8890 C   0  0  0  0  0  0  0  0  0  0  0  0
   17.2590   77.1490    6.3390 C   0  0  0  0  0  0  0  0  0  0  0  0
   18.1310   76.2260    6.9050 C   0  0  0  0  0  0  0  0  0  0  0  0
   18.4020   74.5040    6.1350 Br  0  0  0  0  0  0  0  0  0  0  0  0
   18.8060   76.5730    8.0380 C   0  0  0  0  0  3  0  0  0  0  0  0
   16.1800   79.2550    6.2760 O   0  0  0  0  0  0  0  0  0  0  0  0
   15.2010   80.0280    6.8880 C   0  0  0  0  0  2  0  0  0  0  0  0
   13.8220   79.4530    6.8470 C   0  0  0  0  0  1  0  0  0  0  0  0
   16.5780   76.7790    5.1820 O   0  0  0  0  0  0  0  0  0  0  0  0
   15.5650   76.7600    5.1790 H   0  0  0  0  0  0  0  0  0  0  0  0
   22.7820   77.8410   13.2580 C   0  0  0  0  0  2  0  0  0  0  0  0
   23.3360   79.1690   13.1780 N   0  0  0  0  0  0  0  0  0  0  0  0
   24.1790   79.1450   11.9760 C   0  0  0  0  0  2  0  0  0  0  0  0
   23.4630   78.8600   10.7160 C   0  0  0  0  0  2  0  0  0  0  0  0
   22.1700   79.3610   10.7430 O   0  0  0  0  0  0  0  0  0  0  0  0
   22.1670   80.5140   11.4970 C   0  0  0  0  0  2  0  0  0  0  0  0
   22.2560   80.1350   12.9630 C   0  0  0  0  0  2  0  0  0  0  0  0
   23.5700   78.0880   16.3450 C   0  0  0  0  0  0  0  0  0  0  0  0
   23.7790   79.1910   17.0810 N   0  0  0  0  0  0  0  0  0  0  0  0
   25.0380   79.2330   17.4460 O   0  0  0  0  0  0  0  0  0  0  0  0
   25.6850   78.1930   16.9780 N   0  0  0  0  0  0  0  0  0  0  0  0
   24.7910   77.4620   16.2870 C   0  0  0  0  0  0  0  0  0  0  0  0
   25.1170   76.2470   15.6300 N   0  0  0  0  0  0  0  0  0  0  0  0
   24.5580   75.8380   14.8530 H   0  0  0  0  0  0  0  0  0  0  0  0
   25.9660   75.6930   15.9130 H   0  0  0  0  0  0  0  0  0  0  0  0
  1  5  2  0  0  0  0
  1  2  1  0  0  0  0
  2  3  2  0  0  0  0
  4 31  1  0  0  0  0
  4  3  1  0  0  0  0
  5  4  1  0  0  0  0
  6  1  1  0  0  0  0
  7  8  1  0  0  0  0
  7  6  1  0  0  0  0
  9  6  2  0  0  0  0
 10  7  1  0  0  0  0
 11 10  2  0  0  0  0
 12 11  1  0  0  0  0
 13 12  2  0  0  0  0
 14 13  1  0  0  0  0
 15 14  2  0  0  0  0
 15 16  1  0  0  0  0
 16 18  2  0  0  0  0
 17 16  1  0  0  0  0
 18 12  1  0  0  0  0
 19 20  1  0  0  0  0
 19 14  1  0  0  0  0
 21 20  1  0  0  0  0
 22 15  1  0  0  0  0
 23 22  1  0  0  0  0
 24  5  1  0  0  0  0
 25 24  1  0  0  0  0
 26 25  1  0  0  0  0
 27 28  1  0  0  0  0
 27 26  1  0  0  0  0
 28 29  1  0  0  0  0
 29 30  1  0  0  0  0
 30 25  1  0  0  0  0
 31 32  2  0  0  0  0
 32 33  1  0  0  0  0
 34 33  1  0  0  0  0
 35 31  1  0  0  0  0
 35 34  2  0  0  0  0
 36 38  1  0  0  0  0
 36 35  1  0  0  0  0
 37 36  1  0  0  0  0
M  END
>  <Pose>
1

>  <Score>
-8.136

$$$$
