MODEL 1
REMARK VINA RESULT:    -8.136      0.000      0.000
REMARK INTER + INTRA:         -13.603
REMARK INTER:                 -12.417
REMARK INTRA:                  -1.186
REMARK UNBOUND:                -1.186
REMARK  10 active torsions:
REMARK  status: ('A' for Active; 'I' for Inactive)
REMARK    1  A    between atoms: C_3  and  O_34 
REMARK    2  A    between atoms: C_4  and  O_31 
REMARK    3  A    between atoms: C_6  and  C_8 
REMARK    4  A    between atoms: N_9  and  N_10 
REMARK       I    between atoms: N_10  and  C_11 
REMARK    5  A    between atoms: C_11  and  C_13 
REMARK    6  A    between atoms: N_16  and  C_25 
REMARK    7  A    between atoms: C_17  and  C_18 
REMARK    8  A    between atoms: C_18  and  N_19 
REMARK    9  A    between atoms: C_29  and  N_30 
REMARK   10  A    between atoms: O_31  and  C_32 
ROOT
ATOM      1  C   UNK d   1      20.708  76.977  14.380  0.00  0.00     0.176 A 
ATOM      2  N   UNK d   1      20.342  76.788  15.654  0.00  0.00    -0.124 NA
ATOM      3  N   UNK d   1      21.310  77.168  16.451  0.00  0.00    -0.058 NA
ATOM      4  N   UNK d   1      22.357  77.625  15.741  0.00  0.00    -0.191 N 
ATOM      5  C   UNK d   1      22.007  77.516  14.457  0.00  0.00     0.104 A 
ENDROOT
BRANCH   1   6
ATOM      6  C   UNK d   1      19.959  76.699  13.162  0.00  0.00     0.294 C 
ATOM      7  N   UNK d   1      20.043  77.537  12.028  0.00  0.00    -0.242 N 
ATOM      8  H   UNK d   1      20.673  78.389  12.080  0.00  0.00     0.192 HD
ATOM      9  O   UNK d   1      19.223  75.694  13.120  0.00  0.00    -0.264 OA
BRANCH   7  10
ATOM     10  N   UNK d   1      19.366  77.333  10.851  0.00  0.00    -0.183 NA
ATOM     11  C   UNK d   1      19.389  78.108   9.830  0.00  0.00     0.150 C 
BRANCH  11  12
ATOM     12  C   UNK d   1      18.636  77.809   8.623  0.00  0.00    -0.013 A 
ATOM     13  C   UNK d   1      17.758  78.703   8.031  0.00  0.00     0.052 A 
ATOM     14  C   UNK d   1      17.058  78.394   6.889  0.00  0.00     0.104 A 
ATOM     15  C   UNK d   1      17.259  77.149   6.339  0.00  0.00     0.116 A 
ATOM     16  C   UNK d   1      18.131  76.226   6.905  0.00  0.00     0.047 A 
ATOM     17 Br   UNK d   1      18.402  74.504   6.135  0.00  0.00    -0.048 Br
ATOM     18  C   UNK d   1      18.806  76.573   8.038  0.00  0.00     0.035 A 
BRANCH  14  19
ATOM     19  O   UNK d   1      16.180  79.255   6.276  0.00  0.00    -0.349 OA
BRANCH  19  20
ATOM     20  C   UNK d   1      15.201  80.028   6.888  0.00  0.00     0.171 C 
ATOM     21  C   UNK d   1      13.822  79.453   6.847  0.00  0.00     0.034 C 
ENDBRANCH  19  20
ENDBRANCH  14  19
BRANCH  15  22
ATOM     22  O   UNK d   1      16.578  76.779   5.182  0.00  0.00    -0.357 OA
ATOM     23  H   UNK d   1      15.565  76.760   5.179  0.00  0.00     0.218 HD
ENDBRANCH  15  22
ENDBRANCH  11  12
ENDBRANCH   7  10
ENDBRANCH   1   6
BRANCH   5  24
ATOM     24  C   UNK d   1      22.782  77.841  13.258  0.00  0.00     0.334 C 
BRANCH  24  25
ATOM     25  N   UNK d   1      23.336  79.169  13.178  0.00  0.00     0.098 N 
ATOM     26  C   UNK d   1      24.179  79.145  11.976  0.00  0.00     0.299 C 
ATOM     27  C   UNK d   1      23.463  78.860  10.716  0.00  0.00     0.198 C 
ATOM     28  O   UNK d   1      22.170  79.361  10.743  0.00  0.00    -0.388 OA
ATOM     29  C   UNK d   1      22.167  80.514  11.497  0.00  0.00     0.198 C 
ATOM     30  C   UNK d   1      22.256  80.135  12.963  0.00  0.00     0.299 C 
ENDBRANCH  24  25
ENDBRANCH   5  24
BRANCH   4  31
ATOM     31  C   UNK d   1      23.570  78.088  16.345  0.00  0.00     0.229 A 
ATOM     32  N   UNK d   1      23.779  79.191  17.081  0.00  0.00    -0.081 NA
ATOM     33  O   UNK d   1      25.038  79.233  17.446  0.00  0.00    -0.103 OA
ATOM     34  N   UNK d   1      25.685  78.193  16.978  0.00  0.00    -0.083 NA
ATOM     35  C   UNK d   1      24.791  77.462  16.287  0.00  0.00     0.201 A 
BRANCH  35  36
ATOM     36  N   UNK d   1      25.117  76.247  15.630  0.00  0.00    -0.379 N 
ATOM     37  H   UNK d   1      24.558  75.838  14.853  0.00  0.00     0.158 HD
ATOM     38  H   UNK d   1      25.966  75.693  15.913  0.00  0.00     0.158 HD
ENDBRANCH  35  36
ENDBRANCH   4  31
TORSDOF 10
ENDMDL
