MODEL 1
REMARK VINA RESULT:   -10.429      0.000      0.000
REMARK INTER + INTRA:         -16.187
REMARK INTER:                 -15.306
REMARK INTRA:                  -0.881
REMARK UNBOUND:                -0.881
REMARK  9 active torsions:
REMARK  status: ('A' for Active; 'I' for Inactive)
REMARK    1  A    between atoms: C_3  and  O_33 
REMARK    2  A    between atoms: C_4  and  O_31 
REMARK    3  A    between atoms: C_6  and  C_8 
REMARK    4  A    between atoms: N_9  and  N_10 
REMARK       I    between atoms: N_10  and  C_11 
REMARK    5  A    between atoms: C_11  and  C_13 
REMARK    6  A    between atoms: N_16  and  C_25 
REMARK    7  A    between atoms: C_17  and  C_18 
REMARK    8  A    between atoms: C_18  and  N_19 
REMARK    9  A    between atoms: C_29  and  N_30 
ROOT
ATOM      1  C   UNK d   1      20.106  78.253  18.769  0.00  0.00     0.170 A 
ATOM      2  N   UNK d   1      19.321  78.606  19.725  0.00  0.00    -0.152 NA
ATOM      3  N   UNK d   1      19.425  79.906  19.938  0.00  0.00     0.012 NA
ATOM      4  N   UNK d   1      20.317  80.406  19.094  0.00  0.00    -0.215 N 
ATOM      5  C   UNK d   1      20.835  79.470  18.312  0.00  0.00     0.098 A 
ENDROOT
BRANCH   1   6
ATOM      6  C   UNK d   1      20.160  77.161  17.823  0.00  0.00     0.293 C 
ATOM      7  N   UNK d   1      19.591  77.311  16.502  0.00  0.00    -0.242 N 
ATOM      8  H   UNK d   1      18.980  77.777  15.975  0.00  0.00     0.192 HD
ATOM      9  O   UNK d   1      20.762  76.131  18.123  0.00  0.00    -0.264 OA
BRANCH   7  10
ATOM     10  N   UNK d   1      20.404  76.226  15.660  0.00  0.00    -0.183 NA
ATOM     11  C   UNK d   1      19.549  76.209  14.621  0.00  0.00     0.150 C 
BRANCH  11  12
ATOM     12  C   UNK d   1      19.277  75.671  13.395  0.00  0.00    -0.013 A 
ATOM     13  C   UNK d   1      18.722  74.442  13.085  0.00  0.00     0.052 A 
ATOM     14  C   UNK d   1      18.489  73.995  11.805  0.00  0.00     0.103 A 
ATOM     15  C   UNK d   1      18.824  74.821  10.768  0.00  0.00     0.116 A 
ATOM     16  C   UNK d   1      19.382  76.055  11.022  0.00  0.00     0.047 A 
ATOM     17 Br   UNK d   1      19.869  77.180   9.530  0.00  0.00    -0.048 Br
ATOM     18  C   UNK d   1      19.611  76.492  12.256  0.00  0.00     0.035 A 
BRANCH  14  19
ATOM     19  O   UNK d   1      17.936  72.728  11.587  0.00  0.00    -0.353 OA
ATOM     20  C   UNK d   1      16.986  72.213  12.542  0.00  0.00     0.210 C 
ENDBRANCH  14  19
BRANCH  15  21
ATOM     21  O   UNK d   1      18.604  74.422   9.446  0.00  0.00    -0.357 OA
ATOM     22  H   UNK d   1      17.625  74.220   9.153  0.00  0.00     0.218 HD
ENDBRANCH  15  21
ENDBRANCH  11  12
ENDBRANCH   7  10
ENDBRANCH   1   6
BRANCH   5  23
ATOM     23  C   UNK d   1      21.699  79.463  17.167  0.00  0.00     0.334 C 
BRANCH  23  24
ATOM     24  N   UNK d   1      23.144  79.412  17.396  0.00  0.00     0.098 N 
ATOM     25  C   UNK d   1      23.891  79.861  16.267  0.00  0.00     0.299 C 
ATOM     26  C   UNK d   1      23.820  78.963  15.065  0.00  0.00     0.198 C 
ATOM     27  O   UNK d   1      24.580  77.828  15.290  0.00  0.00    -0.388 OA
ATOM     28  C   UNK d   1      24.711  77.584  16.662  0.00  0.00     0.198 C 
ATOM     29  C   UNK d   1      23.430  77.912  17.353  0.00  0.00     0.299 C 
ENDBRANCH  23  24
ENDBRANCH   5  23
BRANCH   4  30
ATOM     30  C   UNK d   1      20.330  81.826  18.807  0.00  0.00     0.225 A 
ATOM     31  N   UNK d   1      20.363  82.512  17.742  0.00  0.00    -0.081 NA
ATOM     32  O   UNK d   1      20.415  83.823  17.981  0.00  0.00    -0.103 OA
ATOM     33  N   UNK d   1      20.412  83.956  19.258  0.00  0.00    -0.083 NA
ATOM     34  C   UNK d   1      20.362  82.775  19.874  0.00  0.00     0.201 A 
BRANCH  34  35
ATOM     35  N   UNK d   1      20.361  82.511  21.254  0.00  0.00    -0.379 N 
ATOM     36  H   UNK d   1      19.499  82.514  21.828  0.00  0.00     0.158 HD
ATOM     37  H   UNK d   1      21.263  82.276  21.791  0.00  0.00     0.158 HD
ENDBRANCH  34  35
ENDBRANCH   4  30
TORSDOF 9
ENDMDL
