/Users/jonathanwahrer/Desktop/Msc/3_Semester/Drug_Design_Praktikum/waehrer_HTS_screening/HTS_experiment/out/docking_results/vina_output/6e43/0020_docked.pdbqt
 OpenBabel03212219363D

 34 37  0  0  0  0  0  0  0  0999 V2000
   19.9220   78.0140   10.6720 C   0  0  0  0  0  0  0  0  0  0  0  0
   19.6830   77.7260    9.4070 N   0  0  0  0  0  4  0  0  0  0  0  0
   19.2120   76.4990    9.0430 C   0  0  0  0  0  0  0  0  0  0  0  0
   19.0110   75.6210   10.0540 N   0  0  0  0  0  0  0  0  0  0  0  0
   19.2380   75.8570   11.3600 C   0  0  0  0  0  0  0  0  0  0  0  0
   19.7080   77.0920   11.6490 N   0  0  0  0  0  2  0  0  0  0  0  0
   20.2270   79.3730   11.1760 N   0  0  0  0  0  0  0  0  0  0  0  0
   19.5480   80.0750   10.9560 H   0  0  0  0  0  0  0  0  0  0  0  0
   21.3550   79.3610   11.8400 N   0  0  0  0  0  2  0  0  0  0  0  0
   22.3460   79.3420   12.4440 C   0  0  0  0  0  2  0  0  0  0  0  0
   22.6020   78.9330   13.8410 C   0  0  0  0  0  0  0  0  0  0  0  0
   21.7620   78.1670   14.5960 C   0  0  0  0  0  3  0  0  0  0  0  0
   22.1710   77.6460   15.8160 C   0  0  0  0  0  0  0  0  0  0  0  0
   23.4550   77.9050   16.2920 C   0  0  0  0  0  0  0  0  0  0  0  0
   24.3020   78.6790   15.5480 C   0  0  0  0  0  0  0  0  0  0  0  0
   26.0780   79.0190   16.1900 Br  0  0  0  0  0  0  0  0  0  0  0  0
   23.8620   79.1750   14.3410 C   0  0  0  0  0  3  0  0  0  0  0  0
   21.3940   76.8750   16.6210 O   0  0  0  0  0  0  0  0  0  0  0  0
   20.2760   77.2170   17.3620 C   0  0  0  0  0  2  0  0  0  0  0  0
   20.6120   77.5940   18.7980 C   0  0  0  0  0  1  0  0  0  0  0  0
   23.9080   77.4060   17.4940 O   0  0  0  0  0  0  0  0  0  0  0  0
   23.3820   77.4120   18.3340 H   0  0  0  0  0  0  0  0  0  0  0  0
   18.8610   76.1790    7.7100 N   0  0  0  0  0  0  0  0  0  0  0  0
   18.1520   77.1730    6.8880 C   0  0  0  0  0  2  0  0  0  0  0  0
   16.9950   76.3840    6.2220 C   0  0  0  0  0  2  0  0  0  0  0  0
   17.6190   75.5310    5.3570 O   0  0  0  0  0  0  0  0  0  0  0  0
   18.3180   74.5290    5.9720 C   0  0  0  0  0  2  0  0  0  0  0  0
   19.1440   74.9120    7.1550 C   0  0  0  0  0  2  0  0  0  0  0  0
   18.8690   74.9640   12.3500 N   0  0  0  0  0  0  0  0  0  0  0  0
   19.1630   74.9680   13.7310 C   0  0  0  0  0  2  0  0  0  0  0  0
   19.9630   73.6930   14.0110 C   0  0  0  0  0  2  0  0  0  0  0  0
   19.2180   72.6250   13.5630 O   0  0  0  0  0  0  0  0  0  0  0  0
   18.9420   72.6150   12.2150 C   0  0  0  0  0  2  0  0  0  0  0  0
   18.0230   73.8250   11.8850 C   0  0  0  0  0  2  0  0  0  0  0  0
  1  7  1  0  0  0  0
  1  6  1  0  0  0  0
  2  1  2  0  0  0  0
  3  2  2  0  0  0  0
  3  4  1  0  0  0  0
  4  5  2  0  0  0  0
  5  6  1  0  0  0  0
  5 29  1  0  0  0  0
  7  9  1  0  0  0  0
  8  7  1  0  0  0  0
  9 10  1  0  0  0  0
 10 11  1  0  0  0  0
 11 17  2  0  0  0  0
 11 12  1  0  0  0  0
 12 13  2  0  0  0  0
 13 14  1  0  0  0  0
 13 18  1  0  0  0  0
 14 21  1  0  0  0  0
 15 16  1  0  0  0  0
 15 14  2  0  0  0  0
 17 15  1  0  0  0  0
 18 19  1  0  0  0  0
 19 20  1  0  0  0  0
 21 22  1  0  0  0  0
 23  3  1  0  0  0  0
 24 23  1  0  0  0  0
 25 24  1  0  0  0  0
 26 27  1  0  0  0  0
 26 25  1  0  0  0  0
 27 28  1  0  0  0  0
 28 23  1  0  0  0  0
 29 30  1  0  0  0  0
 30 31  1  0  0  0  0
 32 31  1  0  0  0  0
 33 32  1  0  0  0  0
 34 33  1  0  0  0  0
 34 29  1  0  0  0  0
M  END
>  <Pose>
1

>  <Score>
-9.331

$$$$
