/Users/jonathanwahrer/Desktop/Msc/3_Semester/Drug_Design_Praktikum/waehrer_HTS_screening/HTS_experiment/out/docking_results/vina_output/6e43/0023_docked.pdbqt
 OpenBabel03212219373D

 37 40  0  0  1  0  0  0  0  0999 V2000
   21.2180   79.1480   12.1500 C   0  0  1  0  0  3  0  0  0  0  0  0
   22.6600   79.0200   12.1260 N   0  0  0  0  0  0  0  0  0  0  0  0
   23.1400   78.8540   10.8220 C   0  0  0  0  0  0  0  0  0  0  0  0
   24.3090   78.5940   10.4990 O   0  0  0  0  0  0  0  0  0  0  0  0
   22.0120   79.0390    9.9080 C   0  0  0  0  0  0  0  0  0  0  0  0
   22.1290   78.9450    8.6590 O   0  0  0  0  0  0  0  0  0  0  0  0
   20.8360   79.3260   10.7010 C   0  0  1  0  0  3  0  0  0  0  0  0
   19.6610   79.6330   10.2230 C   0  0  1  0  0  3  0  0  0  0  0  0
   19.0070   80.7640   10.6840 O   0  0  0  0  0  1  0  0  0  0  0  0
   19.0120   78.8320    9.2140 C   0  0  0  0  0  0  0  0  0  0  0  0
   18.0010   79.4920    8.5030 C   0  0  0  0  0  3  0  0  0  0  0  0
   17.3210   78.8650    7.4880 C   0  0  0  0  0  0  0  0  0  0  0  0
   17.6260   77.5660    7.1540 C   0  0  0  0  0  0  0  0  0  0  0  0
   16.2150   79.3820    6.6200 C   0  0  0  0  0  2  0  0  0  0  0  0
   18.6260   76.9350    7.8700 C   0  0  0  0  0  3  0  0  0  0  0  0
   16.7830   77.1780    6.0920 O   0  0  0  0  0  0  0  0  0  0  0  0
   19.3200   77.5500    8.8900 C   0  0  0  0  0  3  0  0  0  0  0  0
   15.6950   78.0940    6.0240 C   0  0  1  0  0  3  0  0  0  0  0  0
   14.5160   77.6420    6.8650 C   0  0  0  0  0  1  0  0  0  0  0  0
   20.6740   77.8740   12.6890 C   0  0  0  0  0  0  0  0  0  0  0  0
   20.8320   77.6680   14.0500 C   0  0  0  0  0  3  0  0  0  0  0  0
   20.3760   76.5530   14.6710 C   0  0  0  0  0  0  0  0  0  0  0  0
   19.7280   75.5850   13.9140 C   0  0  0  0  0  0  0  0  0  0  0  0
   19.5700   75.7960   12.5370 C   0  0  0  0  0  0  0  0  0  0  0  0
   18.6840   74.4750   11.5050 Br  0  0  0  0  0  0  0  0  0  0  0  0
   20.0380   76.9360   11.9140 C   0  0  0  0  0  3  0  0  0  0  0  0
   20.5370   76.3480   16.0440 O   0  0  0  0  0  0  0  0  0  0  0  0
   19.8370   77.0740   17.0170 C   0  0  0  0  0  1  0  0  0  0  0  0
   19.2620   74.4520   14.5300 O   0  0  0  0  0  0  0  0  0  0  0  0
   19.2140   74.3990   15.5180 H   0  0  0  0  0  0  0  0  0  0  0  0
   23.4400   79.0630   13.3450 C   0  0  0  0  0  2  0  0  0  0  0  0
   23.3230   80.2810   14.1600 C   0  0  0  0  0  2  0  0  0  0  0  0
   23.2940   80.1340   15.6360 C   0  0  0  0  0  2  0  0  0  0  0  0
   23.9820   78.9660   16.1300 N   0  0  0  0  0  4  0  0  0  0  0  0
   23.2380   78.4230   17.2750 C   0  0  0  0  0  1  0  0  0  0  0  0
   25.2710   79.4070   16.6320 C   0  0  0  0  0  1  0  0  0  0  0  0
   24.1550   78.2350   15.4340 H   0  0  0  0  0  0  0  0  0  0  0  0
  1 20  1  6  0  0  0
  2  1  1  0  0  0  0
  2 31  1  0  0  0  0
  3  2  1  0  0  0  0
  4  3  2  0  0  0  0
  5  7  1  0  0  0  0
  5  3  1  0  0  0  0
  6  5  2  0  0  0  0
  7  8  1  6  0  0  0
  7  1  1  0  0  0  0
  8  9  1  6  0  0  0
 10  8  1  0  0  0  0
 11 10  2  0  0  0  0
 12 11  1  0  0  0  0
 13 12  2  0  0  0  0
 13 15  1  0  0  0  0
 14 12  1  0  0  0  0
 15 17  2  0  0  0  0
 16 13  1  0  0  0  0
 17 10  1  0  0  0  0
 18 16  1  0  0  0  0
 18 14  1  0  0  0  0
 18 19  1  1  0  0  0
 20 21  1  0  0  0  0
 21 22  2  0  0  0  0
 22 27  1  0  0  0  0
 23 29  1  0  0  0  0
 23 22  1  0  0  0  0
 24 23  2  0  0  0  0
 25 24  1  0  0  0  0
 26 24  1  0  0  0  0
 26 20  2  0  0  0  0
 27 28  1  0  0  0  0
 29 30  1  0  0  0  0
 31 32  1  0  0  0  0
 32 33  1  0  0  0  0
 33 34  1  0  0  0  0
 34 36  1  0  0  0  0
 34 35  1  0  0  0  0
 37 34  1  0  0  0  0
M  END
>  <Pose>
1

>  <Score>
-8.623

$$$$
