MODEL 1
REMARK VINA RESULT:    -9.935      0.000      0.000
REMARK INTER + INTRA:         -11.461
REMARK INTER:                 -11.388
REMARK INTRA:                  -0.073
REMARK UNBOUND:                -0.073
REMARK  3 active torsions:
REMARK  status: ('A' for Active; 'I' for Inactive)
REMARK    1  A    between atoms: C_3  and  O_25 
REMARK    2  A    between atoms: C_6  and  C_8 
REMARK    3  A    between atoms: C_10  and  C_21 
ROOT
ATOM      1  C   UNK d   1      20.748  76.942  16.177  0.00  0.00     0.270 C 
ATOM      2  N   UNK d   1      19.842  77.831  16.776  0.00  0.00    -0.047 N 
ATOM      3  C   UNK d   1      20.325  78.863  17.612  0.00  0.00     0.291 C 
ATOM      4  C   UNK d   1      21.705  78.650  18.171  0.00  0.00     0.086 C 
ATOM      5  C   UNK d   1      22.653  78.163  17.141  0.00  0.00    -0.018 A 
ATOM      6  C   UNK d   1      23.989  78.380  16.938  0.00  0.00    -0.001 A 
ATOM      7  C   UNK d   1      24.303  77.648  15.807  0.00  0.00     0.043 A 
ATOM      8  N   UNK d   1      23.184  77.019  15.361  0.00  0.00    -0.356 N 
ATOM      9  C   UNK d   1      22.169  77.332  16.177  0.00  0.00     0.052 A 
ATOM     10  C   UNK d   1      25.613  77.696  15.379  0.00  0.00     0.030 A 
ATOM     11  C   UNK d   1      26.566  78.438  16.044  0.00  0.00     0.002 A 
ATOM     12  C   UNK d   1      26.251  79.168  17.172  0.00  0.00     0.001 A 
ATOM     13  C   UNK d   1      24.940  79.130  17.616  0.00  0.00     0.014 A 
ATOM     14  H   UNK d   1      19.187  78.266  16.065  0.00  0.00     0.279 HD
ATOM     15  H   UNK d   1      19.156  77.249  17.357  0.00  0.00     0.279 HD
ATOM     16  H   UNK d   1      23.209  76.411  14.513  0.00  0.00     0.166 HD
ENDROOT
BRANCH   1  17
ATOM     17  C   UNK d   1      20.366  76.735  14.751  0.00  0.00    -0.019 A 
ATOM     18  C   UNK d   1      20.736  77.612  13.755  0.00  0.00     0.031 A 
ATOM     19  C   UNK d   1      20.321  77.320  12.473  0.00  0.00     0.046 A 
ATOM     20  C   UNK d   1      19.568  76.213  12.145  0.00  0.00     0.100 A 
ATOM     21 Br   UNK d   1      20.816  78.512  11.071  0.00  0.00    -0.048 Br
ATOM     22  C   UNK d   1      19.203  75.343  13.144  0.00  0.00     0.046 A 
ATOM     23 Br   UNK d   1      18.164  73.805  12.731  0.00  0.00    -0.048 Br
ATOM     24  C   UNK d   1      19.613  75.621  14.451  0.00  0.00     0.031 A 
BRANCH  20  25
ATOM     25  O   UNK d   1      19.183  75.985  10.808  0.00  0.00    -0.358 OA
ATOM     26  H   UNK d   1      19.912  75.781  10.138  0.00  0.00     0.217 HD
ENDBRANCH  20  25
ENDBRANCH   1  17
BRANCH   3  27
ATOM     27  C   UNK d   1      20.321  80.194  16.945  0.00  0.00     0.205 C 
ATOM     28  O   UNK d   1      19.554  81.115  17.390  0.00  0.00    -0.646 OA
ATOM     29  O   UNK d   1      21.145  80.418  15.854  0.00  0.00    -0.646 OA
ENDBRANCH   3  27
TORSDOF 3
ENDMDL
