MODEL 1
REMARK VINA RESULT:    -7.682      0.000      0.000
REMARK INTER + INTRA:         -10.787
REMARK INTER:                 -10.377
REMARK INTRA:                  -0.410
REMARK UNBOUND:                -0.410
REMARK  6 active torsions:
REMARK  status: ('A' for Active; 'I' for Inactive)
REMARK    1  A    between atoms: C_3  and  O_19 
REMARK    2  A    between atoms: C_4  and  C_8 
REMARK    3  A    between atoms: C_8  and  N_9 
REMARK    4  A    between atoms: O_19  and  C_20 
REMARK    5  A    between atoms: C_20  and  C_21 
REMARK    6  A    between atoms: C_21  and  O_23 
ROOT
ATOM      1 Br   UNK d   1      21.132  77.139  17.891  0.00  0.00    -0.048 Br
ATOM      2  C   UNK d   1      21.663  78.477  16.618  0.00  0.00     0.044 A 
ATOM      3  C   UNK d   1      21.721  78.205  15.298  0.00  0.00     0.094 A 
ATOM      4  C   UNK d   1      22.178  79.187  14.371  0.00  0.00     0.003 A 
ATOM      5  C   UNK d   1      22.554  80.388  14.864  0.00  0.00     0.012 A 
ATOM      6  C   UNK d   1      22.497  80.643  16.220  0.00  0.00     0.002 A 
ATOM      7  C   UNK d   1      22.055  79.706  17.103  0.00  0.00     0.022 A 
ENDROOT
BRANCH   4   8
ATOM      8  C   UNK d   1      22.561  78.616  13.065  0.00  0.00     0.283 C 
BRANCH   8   9
ATOM      9  N   UNK d   1      22.210  79.242  11.857  0.00  0.00    -0.010 N 
ATOM     10  C   UNK d   1      22.245  80.608  11.699  0.00  0.00     0.512 C 
ATOM     11  N   UNK d   1      21.970  81.012  10.322  0.00  0.00     0.143 N 
ATOM     12  C   UNK d   1      20.658  80.497   9.969  0.00  0.00     0.547 C 
ATOM     13  C   UNK d   1      22.906  80.470   9.368  0.00  0.00     0.284 C 
ATOM     14  N   UNK d   1      20.565  79.063  10.155  0.00  0.00     0.143 N 
ATOM     15  C   UNK d   1      20.892  78.638  11.458  0.00  0.00     0.512 C 
ATOM     16  C   UNK d   1      21.440  78.430   9.190  0.00  0.00     0.284 C 
ATOM     17  C   UNK d   1      22.828  78.949   9.473  0.00  0.00     0.069 C 
ATOM     18  C   UNK d   1      23.160  78.606  10.878  0.00  0.00     0.250 C 
ENDBRANCH   8   9
ENDBRANCH   4   8
BRANCH   3  19
ATOM     19  O   UNK d   1      21.353  77.001  14.814  0.00  0.00    -0.340 OA
BRANCH  19  20
ATOM     20  C   UNK d   1      19.990  76.643  14.508  0.00  0.00     0.286 C 
BRANCH  20  21
ATOM     21  C   UNK d   1      19.739  75.271  14.072  0.00  0.00     0.282 C 
ATOM     22  O   UNK d   1      20.450  74.309  14.325  0.00  0.00    -0.263 OA
BRANCH  21  23
ATOM     23  O   UNK d   1      18.574  75.036  13.334  0.00  0.00    -0.325 OA
ATOM     24  C   UNK d   1      18.565  74.334  12.119  0.00  0.00     0.213 C 
ENDBRANCH  21  23
ENDBRANCH  20  21
ENDBRANCH  19  20
ENDBRANCH   3  19
TORSDOF 6
ENDMDL
