MODEL 1
REMARK VINA RESULT:    -9.320      0.000      0.000
REMARK INTER + INTRA:         -13.447
REMARK INTER:                 -12.589
REMARK INTRA:                  -0.857
REMARK UNBOUND:                -0.857
REMARK  7 active torsions:
REMARK  status: ('A' for Active; 'I' for Inactive)
REMARK    1  A    between atoms: C_3  and  O_30 
REMARK    2  A    between atoms: C_5  and  O_29 
REMARK    3  A    between atoms: C_7  and  C_8 
REMARK    4  A    between atoms: N_9  and  N_10 
REMARK    5  A    between atoms: N_10  and  C_11 
REMARK    6  A    between atoms: C_13  and  N_23 
REMARK    7  A    between atoms: C_15  and  N_17 
ROOT
ATOM      1  C   UNK d   1      19.772  75.487  13.693  0.00  0.00     0.774 A 
ATOM      2  N   UNK d   1      19.314  74.261  13.423  0.00  0.00     0.133 NA
ATOM      3  C   UNK d   1      18.841  73.918  12.196  0.00  0.00     0.756 A 
ATOM      4  N   UNK d   1      18.834  74.843  11.223  0.00  0.00     0.131 NA
ATOM      5  C   UNK d   1      19.288  76.083  11.462  0.00  0.00     0.756 A 
ATOM      6  N   UNK d   1      19.756  76.390  12.708  0.00  0.00     0.133 NA
ENDROOT
BRANCH   1   7
ATOM      7  N   UNK d   1      20.257  75.776  14.985  0.00  0.00    -0.105 N 
ATOM      8  H   UNK d   1      20.952  75.123  15.404  0.00  0.00     0.208 HD
BRANCH   7   9
ATOM      9  N   UNK d   1      19.825  76.921  15.710  0.00  0.00    -0.172 NA
ATOM     10  C   UNK d   1      20.658  77.590  16.437  0.00  0.00     0.152 C 
BRANCH  10  11
ATOM     11  C   UNK d   1      20.317  78.761  17.206  0.00  0.00     0.006 A 
ATOM     12  C   UNK d   1      20.857  79.998  16.943  0.00  0.00     0.056 A 
ATOM     13 Br   UNK d   1      22.093  80.125  15.496  0.00  0.00    -0.047 Br
ATOM     14  C   UNK d   1      20.532  81.117  17.688  0.00  0.00     0.086 A 
ATOM     15  C   UNK d   1      19.631  80.997  18.735  0.00  0.00     0.074 A 
ATOM     16  C   UNK d   1      19.076  79.770  19.019  0.00  0.00     0.069 A 
ATOM     17  C   UNK d   1      19.427  78.672  18.249  0.00  0.00     0.051 A 
BRANCH  14  18
ATOM     18  O   UNK d   1      21.093  82.347  17.399  0.00  0.00    -0.359 OA
ATOM     19  H   UNK d   1      21.647  82.800  18.114  0.00  0.00     0.217 HD
ENDBRANCH  14  18
BRANCH  16  20
ATOM     20  O   UNK d   1      18.181  79.695  20.075  0.00  0.00    -0.361 OA
ATOM     21  H   UNK d   1      17.573  80.451  20.360  0.00  0.00     0.217 HD
ENDBRANCH  16  20
ENDBRANCH  10  11
ENDBRANCH   7   9
ENDBRANCH   1   7
BRANCH   3  22
ATOM     22  N   UNK d   1      18.377  72.598  12.020  0.00  0.00    -0.209 N 
ATOM     23  C   UNK d   1      18.947  71.539  12.808  0.00  0.00     0.167 C 
ATOM     24  C   UNK d   1      17.756  70.884  13.524  0.00  0.00     0.188 C 
ATOM     25  O   UNK d   1      16.948  70.374  12.508  0.00  0.00    -0.388 OA
ATOM     26  C   UNK d   1      16.337  71.382  11.770  0.00  0.00     0.188 C 
ATOM     27  C   UNK d   1      17.345  72.268  11.066  0.00  0.00     0.167 C 
ENDBRANCH   3  22
BRANCH   5  28
ATOM     28  N   UNK d   1      19.283  77.073  10.434  0.00  0.00    -0.209 N 
ATOM     29  C   UNK d   1      18.885  76.808   9.072  0.00  0.00     0.167 C 
ATOM     30  C   UNK d   1      19.868  77.418   8.096  0.00  0.00     0.188 C 
ATOM     31  O   UNK d   1      20.918  78.062   8.732  0.00  0.00    -0.388 OA
ATOM     32  C   UNK d   1      20.396  79.060   9.578  0.00  0.00     0.188 C 
ATOM     33  C   UNK d   1      19.703  78.420  10.765  0.00  0.00     0.167 C 
ENDBRANCH   5  28
TORSDOF 7
ENDMDL
