/Users/jonathanwahrer/Desktop/Msc/3_Semester/Drug_Design_Praktikum/waehrer_HTS_screening/HTS_experiment/out/docking_results/vina_output/6e43/0035_docked.pdbqt
 OpenBabel03212219383D

 33 36  0  0  0  0  0  0  0  0999 V2000
   19.7720   75.4870   13.6930 C   0  0  0  0  0  0  0  0  0  0  0  0
   19.3140   74.2610   13.4230 N   0  0  0  0  0  4  0  0  0  0  0  0
   18.8410   73.9180   12.1960 C   0  0  0  0  0  0  0  0  0  0  0  0
   18.8340   74.8430   11.2230 N   0  0  0  0  0  0  0  0  0  0  0  0
   19.2880   76.0830   11.4620 C   0  0  0  0  0  0  0  0  0  0  0  0
   19.7560   76.3900   12.7080 N   0  0  0  0  0  2  0  0  0  0  0  0
   20.2570   75.7760   14.9850 N   0  0  0  0  0  0  0  0  0  0  0  0
   20.9520   75.1230   15.4040 H   0  0  0  0  0  0  0  0  0  0  0  0
   19.8250   76.9210   15.7100 N   0  0  0  0  0  0  0  0  0  0  0  0
   20.6580   77.5900   16.4370 C   0  0  0  0  0  3  0  0  0  0  0  0
   20.3170   78.7610   17.2060 C   0  0  0  0  0  0  0  0  0  0  0  0
   20.8570   79.9980   16.9430 C   0  0  0  0  0  0  0  0  0  0  0  0
   22.0930   80.1250   15.4960 Br  0  0  0  0  0  0  0  0  0  0  0  0
   20.5320   81.1170   17.6880 C   0  0  0  0  0  0  0  0  0  0  0  0
   19.6310   80.9970   18.7350 C   0  0  0  0  0  3  0  0  0  0  0  0
   19.0760   79.7700   19.0190 C   0  0  0  0  0  0  0  0  0  0  0  0
   19.4270   78.6720   18.2490 C   0  0  0  0  0  3  0  0  0  0  0  0
   21.0930   82.3470   17.3990 O   0  0  0  0  0  0  0  0  0  0  0  0
   21.6470   82.8000   18.1140 H   0  0  0  0  0  0  0  0  0  0  0  0
   18.1810   79.6950   20.0750 O   0  0  0  0  0  0  0  0  0  0  0  0
   17.5730   80.4510   20.3600 H   0  0  0  0  0  0  0  0  0  0  0  0
   18.3770   72.5980   12.0200 N   0  0  0  0  0  0  0  0  0  0  0  0
   18.9470   71.5390   12.8080 C   0  0  0  0  0  2  0  0  0  0  0  0
   17.7560   70.8840   13.5240 C   0  0  0  0  0  2  0  0  0  0  0  0
   16.9480   70.3740   12.5080 O   0  0  0  0  0  0  0  0  0  0  0  0
   16.3370   71.3820   11.7700 C   0  0  0  0  0  2  0  0  0  0  0  0
   17.3450   72.2680   11.0660 C   0  0  0  0  0  2  0  0  0  0  0  0
   19.2830   77.0730   10.4340 N   0  0  0  0  0  0  0  0  0  0  0  0
   18.8850   76.8080    9.0720 C   0  0  0  0  0  2  0  0  0  0  0  0
   19.8680   77.4180    8.0960 C   0  0  0  0  0  2  0  0  0  0  0  0
   20.9180   78.0620    8.7320 O   0  0  0  0  0  0  0  0  0  0  0  0
   20.3960   79.0600    9.5780 C   0  0  0  0  0  2  0  0  0  0  0  0
   19.7030   78.4200   10.7650 C   0  0  0  0  0  2  0  0  0  0  0  0
  1  7  1  0  0  0  0
  2  1  2  0  0  0  0
  3  2  2  0  0  0  0
  4  5  2  0  0  0  0
  4  3  1  0  0  0  0
  5  6  1  0  0  0  0
  6  1  1  0  0  0  0
  7  8  1  0  0  0  0
  7  9  1  0  0  0  0
  9 10  2  0  0  0  0
 10 11  1  0  0  0  0
 11 17  1  0  0  0  0
 12 11  2  0  0  0  0
 12 14  1  0  0  0  0
 13 12  1  0  0  0  0
 14 15  2  0  0  0  0
 15 16  1  0  0  0  0
 16 20  1  0  0  0  0
 17 16  2  0  0  0  0
 18 14  1  0  0  0  0
 18 19  1  0  0  0  0
 20 21  1  0  0  0  0
 22  3  1  0  0  0  0
 22 23  1  0  0  0  0
 23 24  1  0  0  0  0
 25 24  1  0  0  0  0
 26 25  1  0  0  0  0
 27 26  1  0  0  0  0
 27 22  1  0  0  0  0
 28 33  1  0  0  0  0
 28  5  1  0  0  0  0
 29 28  1  0  0  0  0
 30 31  1  0  0  0  0
 30 29  1  0  0  0  0
 31 32  1  0  0  0  0
 32 33  1  0  0  0  0
M  END
>  <Pose>
1

>  <Score>
-9.320

$$$$
