MODEL 1
REMARK VINA RESULT:    -7.984      0.000      0.000
REMARK INTER + INTRA:          -8.490
REMARK INTER:                  -8.684
REMARK INTRA:                   0.194
REMARK UNBOUND:                 0.194
REMARK  2 active torsions:
REMARK  status: ('A' for Active; 'I' for Inactive)
REMARK    1  A    between atoms: C_3  and  C_8 
REMARK    2  A    between atoms: C_12  and  N_16 
ROOT
ATOM      1  C   UNK d   1      21.376  78.701  13.210  0.00  0.00     0.084 A 
ATOM      2  C   UNK d   1      22.030  77.959  14.195  0.00  0.00     0.166 A 
ATOM      3  C   UNK d   1      23.207  78.122  15.092  0.00  0.00     0.295 C 
ATOM      4  N   UNK d   1      22.405  78.607  16.243  0.00  0.00    -0.209 NA
ATOM      5  C   UNK d   1      21.488  79.398  15.781  0.00  0.00     0.124 C 
ATOM      6  C   UNK d   1      21.659  79.464  14.363  0.00  0.00     0.146 A 
ATOM      7  C   UNK d   1      22.730  80.468  14.088  0.00  0.00     0.080 C 
ATOM      8  N   UNK d   1      23.562  81.276  13.851  0.00  0.00    -0.196 NA
ATOM      9  O   UNK d   1      23.707  76.849  15.388  0.00  0.00    -0.333 OA
ATOM     10  C   UNK d   1      25.066  76.881  15.145  0.00  0.00     0.199 C 
ATOM     11  C   UNK d   1      25.389  78.357  15.306  0.00  0.00     0.199 C 
ATOM     12  O   UNK d   1      24.222  78.909  14.721  0.00  0.00    -0.333 OA
ATOM     13  C   UNK d   1      21.105  76.998  14.895  0.00  0.00     0.080 C 
ATOM     14  N   UNK d   1      20.363  76.253  15.434  0.00  0.00    -0.196 NA
ENDROOT
BRANCH   1  15
ATOM     15  C   UNK d   1      22.093  78.901  11.924  0.00  0.00    -0.032 A 
ATOM     16  C   UNK d   1      21.505  79.515  10.847  0.00  0.00     0.017 A 
ATOM     17 Br   UNK d   1      19.717  80.179  10.923  0.00  0.00    -0.051 Br
ATOM     18  C   UNK d   1      22.241  79.657   9.679  0.00  0.00     0.019 A 
ATOM     19  C   UNK d   1      23.557  79.192   9.579  0.00  0.00     0.001 A 
ATOM     20  C   UNK d   1      24.127  78.580  10.670  0.00  0.00     0.001 A 
ATOM     21  C   UNK d   1      23.386  78.441  11.835  0.00  0.00     0.009 A 
ENDBRANCH   1  15
BRANCH   5  22
ATOM     22  N   UNK d   1      20.487  80.080  16.570  0.00  0.00    -0.386 N 
ATOM     23  H   UNK d   1      19.998  79.598  17.349  0.00  0.00     0.157 HD
ATOM     24  H   UNK d   1      20.237  81.066  16.371  0.00  0.00     0.157 HD
ENDBRANCH   5  22
TORSDOF 2
ENDMDL
