/Users/jonathanwahrer/Desktop/Msc/3_Semester/Drug_Design_Praktikum/waehrer_HTS_screening/HTS_experiment/out/docking_results/vina_output/6e43/0056_docked.pdbqt
 OpenBabel03212219383D

 24 27  0  0  1  0  0  0  0  0999 V2000
   21.3760   78.7010   13.2100 C   0  0  1  0  0  3  0  0  0  0  0  0
   22.0300   77.9590   14.1950 C   0  0  1  0  0  0  0  0  0  0  0  0
   23.2070   78.1220   15.0920 C   0  0  0  0  0  0  0  0  0  0  0  0
   22.4050   78.6070   16.2430 N   0  0  0  0  0  2  0  0  0  0  0  0
   21.4880   79.3980   15.7810 C   0  0  2  0  0  3  0  0  0  0  0  0
   21.6590   79.4640   14.3630 C   0  0  2  0  0  0  0  0  0  0  0  0
   22.7300   80.4680   14.0880 C   0  0  0  0  0  0  0  0  0  0  0  0
   23.5620   81.2760   13.8510 N   0  0  0  0  0  0  0  0  0  0  0  0
   23.7070   76.8490   15.3880 O   0  0  0  0  0  0  0  0  0  0  0  0
   25.0660   76.8810   15.1450 C   0  0  0  0  0  2  0  0  0  0  0  0
   25.3890   78.3570   15.3060 C   0  0  0  0  0  2  0  0  0  0  0  0
   24.2220   78.9090   14.7210 O   0  0  0  0  0  0  0  0  0  0  0  0
   21.1050   76.9980   14.8950 C   0  0  0  0  0  0  0  0  0  0  0  0
   20.3630   76.2530   15.4340 N   0  0  0  0  0  0  0  0  0  0  0  0
   22.0930   78.9010   11.9240 C   0  0  0  0  0  0  0  0  0  0  0  0
   21.5050   79.5150   10.8470 C   0  0  0  0  0  0  0  0  0  0  0  0
   19.7170   80.1790   10.9230 Br  0  0  0  0  0  0  0  0  0  0  0  0
   22.2410   79.6570    9.6790 C   0  0  0  0  0  3  0  0  0  0  0  0
   23.5570   79.1920    9.5790 C   0  0  0  0  0  3  0  0  0  0  0  0
   24.1270   78.5800   10.6700 C   0  0  0  0  0  3  0  0  0  0  0  0
   23.3860   78.4410   11.8350 C   0  0  0  0  0  3  0  0  0  0  0  0
   20.4870   80.0800   16.5700 N   0  0  0  0  0  0  0  0  0  0  0  0
   19.9980   79.5980   17.3490 H   0  0  0  0  0  0  0  0  0  0  0  0
   20.2370   81.0660   16.3710 H   0  0  0  0  0  0  0  0  0  0  0  0
  1 15  1  6  0  0  0
  1  2  1  0  0  0  0
  1  6  1  0  0  0  0
  2  6  1  0  0  0  0
  2 13  1  1  0  0  0
  2  3  1  0  0  0  0
  3  9  1  0  0  0  0
  3  4  1  0  0  0  0
  5  4  1  0  0  0  0
  5 22  1  1  0  0  0
  6  7  1  6  0  0  0
  6  5  1  0  0  0  0
  8  7  3  0  0  0  0
 10 11  1  0  0  0  0
 10  9  1  0  0  0  0
 12  3  1  0  0  0  0
 12 11  1  0  0  0  0
 13 14  3  0  0  0  0
 16 17  1  0  0  0  0
 16 15  2  0  0  0  0
 18 16  1  0  0  0  0
 19 18  2  0  0  0  0
 19 20  1  0  0  0  0
 20 21  2  0  0  0  0
 21 15  1  0  0  0  0
 22 23  1  0  0  0  0
 24 22  1  0  0  0  0
M  END
>  <Pose>
1

>  <Score>
-7.984

$$$$
