MODEL 1
REMARK VINA RESULT:    -8.901      0.000      0.000
REMARK INTER + INTRA:         -10.667
REMARK INTER:                 -10.201
REMARK INTRA:                  -0.465
REMARK UNBOUND:                -0.465
REMARK  3 active torsions:
REMARK  status: ('A' for Active; 'I' for Inactive)
REMARK    1  A    between atoms: C_3  and  N_8 
REMARK    2  A    between atoms: C_12  and  C_20 
REMARK    3  A    between atoms: C_20  and  O_21 
ROOT
ATOM      1  N   UNK d   1      19.806  81.552  19.545  0.00  0.00    -0.250 N 
ATOM      2  C   UNK d   1      19.054  80.389  19.238  0.00  0.00     0.239 C 
ATOM      3  O   UNK d   1      18.409  79.731  20.073  0.00  0.00    -0.272 OA
ATOM      4  C   UNK d   1      19.139  80.065  17.795  0.00  0.00     0.135 C 
ATOM      5  C   UNK d   1      19.827  78.773  17.521  0.00  0.00     0.113 C 
ATOM      6  O   UNK d   1      20.840  79.081  16.575  0.00  0.00    -0.363 OA
ATOM      7  C   UNK d   1      21.421  80.146  17.312  0.00  0.00     0.159 C 
ATOM      8  C   UNK d   1      20.196  81.068  17.300  0.00  0.00     0.128 C 
ATOM      9  C   UNK d   1      20.297  82.117  18.326  0.00  0.00     0.239 C 
ATOM     10  O   UNK d   1      20.721  83.286  18.198  0.00  0.00    -0.272 OA
ATOM     11  C   UNK d   1      21.609  79.495  18.626  0.00  0.00     0.005 C 
ATOM     12  C   UNK d   1      20.722  78.502  18.688  0.00  0.00     0.012 C 
ENDROOT
BRANCH   1  13
ATOM     13  C   UNK d   1      20.088  82.130  20.812  0.00  0.00     0.062 A 
ATOM     14  C   UNK d   1      19.441  83.239  21.308  0.00  0.00     0.038 A 
ATOM     15 Br   UNK d   1      18.081  84.028  20.195  0.00  0.00    -0.049 Br
ATOM     16  C   UNK d   1      19.734  83.782  22.539  0.00  0.00     0.021 A 
ATOM     17  C   UNK d   1      20.699  83.235  23.342  0.00  0.00     0.002 A 
ATOM     18  C   UNK d   1      21.373  82.114  22.872  0.00  0.00     0.002 A 
ATOM     19  C   UNK d   1      21.066  81.582  21.635  0.00  0.00     0.031 A 
ENDBRANCH   1  13
BRANCH   5  20
ATOM     20  C   UNK d   1      18.995  77.629  17.120  0.00  0.00     0.207 C 
BRANCH  20  21
ATOM     21  O   UNK d   1      19.806  76.728  16.405  0.00  0.00    -0.398 OA
ATOM     22  H   UNK d   1      20.398  76.236  17.047  0.00  0.00     0.209 HD
ENDBRANCH  20  21
ENDBRANCH   5  20
TORSDOF 3
ENDMDL
