/Users/jonathanwahrer/Desktop/Msc/3_Semester/Drug_Design_Praktikum/waehrer_HTS_screening/HTS_experiment/out/docking_results/vina_output/6e43/0067_docked.pdbqt
 OpenBabel03212219383D

 22 25  0  0  1  0  0  0  0  0999 V2000
   22.7210   78.6460   14.2170 N   0  0  0  0  0  0  0  0  0  0  0  0
   24.1730   78.4240   14.0770 C   0  0  0  0  0  2  0  0  0  0  0  0
   24.6360   78.6490   15.4400 C   0  0  2  0  0  0  0  0  0  0  0  0
   24.5670   77.5440   16.3050 O   0  0  0  0  0  0  0  0  0  0  0  0
   24.9030   78.2620   17.4840 C   0  0  2  0  0  3  0  0  0  0  0  0
   23.6830   79.1930   17.5020 C   0  0  1  0  0  3  0  0  0  0  0  0
   23.7150   79.6940   16.0920 C   0  0  2  0  0  3  0  0  0  0  0  0
   22.5000   79.5290   15.3100 C   0  0  0  0  0  0  0  0  0  0  0  0
   21.4030   80.0770   15.5450 O   0  0  0  0  0  0  0  0  0  0  0  0
   26.1360   78.9690   17.0290 C   0  0  0  0  0  2  0  0  0  0  0  0
   26.0030   79.0960   15.6900 C   0  0  0  0  0  2  0  0  0  0  0  0
   21.6870   78.0890   13.4210 C   0  0  0  0  0  0  0  0  0  0  0  0
   21.3450   78.6000   12.1800 C   0  0  0  0  0  0  0  0  0  0  0  0
   22.2340   80.0890   11.4420 Br  0  0  0  0  0  0  0  0  0  0  0  0
   20.3220   78.0260   11.4220 C   0  0  0  0  0  3  0  0  0  0  0  0
   19.6230   76.9400   11.8780 C   0  0  0  0  0  3  0  0  0  0  0  0
   19.9420   76.4240   13.0940 C   0  0  0  0  0  3  0  0  0  0  0  0
   20.9480   76.9880   13.8370 C   0  0  0  0  0  3  0  0  0  0  0  0
   22.5110   78.2840   17.7040 C   0  0  0  0  0  0  0  0  0  0  0  0
   22.4320   77.1610   17.1850 O   0  0  0  0  0  0  0  0  0  0  0  0
   21.4670   78.7210   18.5090 O   0  0  0  0  0  0  0  0  0  0  0  0
   20.3200   77.8750   18.6620 C   0  0  0  0  0  1  0  0  0  0  0  0
  1  8  1  0  0  0  0
  2  1  1  0  0  0  0
  3  2  1  6  0  0  0
  3 11  1  0  0  0  0
  3  7  1  0  0  0  0
  3  4  1  0  0  0  0
  4  5  1  0  0  0  0
  5 10  1  6  0  0  0
  5  6  1  0  0  0  0
  6 19  1  6  0  0  0
  7  8  1  6  0  0  0
  7  6  1  0  0  0  0
  8  9  2  0  0  0  0
 11 10  1  0  0  0  0
 12 18  1  0  0  0  0
 12  1  1  0  0  0  0
 13 12  2  0  0  0  0
 14 13  1  0  0  0  0
 15 16  2  0  0  0  0
 15 13  1  0  0  0  0
 16 17  1  0  0  0  0
 17 18  2  0  0  0  0
 19 21  1  0  0  0  0
 20 19  2  0  0  0  0
 21 22  1  0  0  0  0
M  END
>  <Pose>
1

>  <Score>
-8.643

$$$$
