MODEL 1
REMARK VINA RESULT:    -8.643      0.000      0.000
REMARK INTER + INTRA:          -9.578
REMARK INTER:                 -10.159
REMARK INTRA:                   0.581
REMARK UNBOUND:                 0.581
REMARK  3 active torsions:
REMARK  status: ('A' for Active; 'I' for Inactive)
REMARK    1  A    between atoms: C_3  and  N_8 
REMARK    2  A    between atoms: C_13  and  C_17 
REMARK    3  A    between atoms: C_17  and  O_19 
ROOT
ATOM      1  N   UNK d   1      22.721  78.646  14.217  0.00  0.00    -0.313 N 
ATOM      2  C   UNK d   1      24.173  78.424  14.077  0.00  0.00     0.175 C 
ATOM      3  C   UNK d   1      24.636  78.649  15.440  0.00  0.00     0.109 C 
ATOM      4  O   UNK d   1      24.567  77.544  16.305  0.00  0.00    -0.364 OA
ATOM      5  C   UNK d   1      24.903  78.262  17.484  0.00  0.00     0.160 C 
ATOM      6  C   UNK d   1      23.683  79.193  17.502  0.00  0.00     0.134 C 
ATOM      7  C   UNK d   1      23.715  79.694  16.092  0.00  0.00     0.135 C 
ATOM      8  C   UNK d   1      22.500  79.529  15.310  0.00  0.00     0.233 C 
ATOM      9  O   UNK d   1      21.403  80.077  15.545  0.00  0.00    -0.272 OA
ATOM     10  C   UNK d   1      26.136  78.969  17.029  0.00  0.00     0.005 C 
ATOM     11  C   UNK d   1      26.003  79.096  15.690  0.00  0.00     0.012 C 
ENDROOT
BRANCH   1  12
ATOM     12  C   UNK d   1      21.687  78.089  13.421  0.00  0.00     0.054 A 
ATOM     13  C   UNK d   1      21.345  78.600  12.180  0.00  0.00     0.037 A 
ATOM     14 Br   UNK d   1      22.234  80.089  11.442  0.00  0.00    -0.049 Br
ATOM     15  C   UNK d   1      20.322  78.026  11.422  0.00  0.00     0.021 A 
ATOM     16  C   UNK d   1      19.623  76.940  11.878  0.00  0.00     0.002 A 
ATOM     17  C   UNK d   1      19.942  76.424  13.094  0.00  0.00     0.002 A 
ATOM     18  C   UNK d   1      20.948  76.988  13.837  0.00  0.00     0.031 A 
ENDBRANCH   1  12
BRANCH   6  19
ATOM     19  C   UNK d   1      22.511  78.284  17.704  0.00  0.00     0.266 C 
ATOM     20  O   UNK d   1      22.432  77.161  17.185  0.00  0.00    -0.265 OA
BRANCH  19  21
ATOM     21  O   UNK d   1      21.467  78.721  18.509  0.00  0.00    -0.326 OA
ATOM     22  C   UNK d   1      20.320  77.875  18.662  0.00  0.00     0.213 C 
ENDBRANCH  19  21
ENDBRANCH   6  19
TORSDOF 3
ENDMDL
