MODEL 1
REMARK VINA RESULT:    -8.753      0.000      0.000
REMARK INTER + INTRA:         -10.139
REMARK INTER:                  -9.777
REMARK INTRA:                  -0.362
REMARK UNBOUND:                -0.362
REMARK  2 active torsions:
REMARK  status: ('A' for Active; 'I' for Inactive)
REMARK    1  A    between atoms: N_4  and  C_8 
REMARK    2  A    between atoms: C_8  and  C_9 
ROOT
ATOM      1  C   UNK d   1      21.061  80.600  16.948  0.00  0.00     0.168 A 
ATOM      2  N   UNK d   1      20.781  79.913  18.070  0.00  0.00    -0.148 NA
ATOM      3  N   UNK d   1      20.351  80.756  19.011  0.00  0.00    -0.206 N 
ATOM      4  C   UNK d   1      20.345  82.007  18.506  0.00  0.00     0.169 A 
ATOM      5  N   UNK d   1      20.786  81.883  17.240  0.00  0.00    -0.209 NA
ATOM      6  C   UNK d   1      19.934  83.055  19.307  0.00  0.00     0.079 A 
ATOM      7  C   UNK d   1      19.524  82.870  20.612  0.00  0.00     0.162 A 
ATOM      8  N   UNK d   1      19.177  84.051  21.160  0.00  0.00    -0.256 N 
ATOM      9  N   UNK d   1      19.356  84.977  20.238  0.00  0.00    -0.182 NA
ATOM     10  C   UNK d   1      19.820  84.412  19.084  0.00  0.00     0.158 A 
ATOM     11  C   UNK d   1      18.691  84.308  22.506  0.00  0.00     0.182 C 
ATOM     12  N   UNK d   1      19.544  81.607  21.076  0.00  0.00    -0.222 NA
ATOM     13  C   UNK d   1      19.951  80.581  20.283  0.00  0.00     0.239 A 
ENDROOT
BRANCH   1  14
ATOM     14  C   UNK d   1      21.572  80.048  15.646  0.00  0.00     0.233 C 
BRANCH  14  15
ATOM     15  N   UNK d   1      22.840  79.377  15.818  0.00  0.00    -0.265 N 
ATOM     16  C   UNK d   1      23.131  78.163  15.331  0.00  0.00     0.046 A 
ATOM     17  C   UNK d   1      24.420  77.891  15.710  0.00  0.00     0.060 A 
ATOM     18  C   UNK d   1      22.257  77.251  14.526  0.00  0.00     0.071 C 
ATOM     19 Br   UNK d   1      25.409  76.317  15.322  0.00  0.00    -0.047 Br
ATOM     20  C   UNK d   1      24.897  78.954  16.431  0.00  0.00     0.070 A 
ATOM     21  N   UNK d   1      23.883  79.849  16.472  0.00  0.00    -0.176 NA
ATOM     22  C   UNK d   1      26.259  79.116  17.056  0.00  0.00     0.074 C 
ENDBRANCH  14  15
ENDBRANCH   1  14
TORSDOF 2
ENDMDL
