/Users/jonathanwahrer/Desktop/Msc/3_Semester/Drug_Design_Praktikum/waehrer_HTS_screening/HTS_experiment/out/docking_results/vina_output/6e43/0085_docked.pdbqt
 OpenBabel03212219383D

 26 29  0  0  0  0  0  0  0  0999 V2000
   19.9770   78.1610   10.1350 C   0  0  0  0  0  0  0  0  0  0  0  0
   20.0350   77.5750   11.4160 C   0  0  0  0  0  0  0  0  0  0  0  0
   19.2930   76.5790   11.9710 N   0  0  0  0  0  0  0  0  0  0  0  0
   19.7350   76.4010   13.1780 O   0  0  0  0  0  0  0  0  0  0  0  0
   20.7100   77.2160   13.4330 N   0  0  0  0  0  0  0  0  0  0  0  0
   20.9430   77.9810   12.3580 C   0  0  0  0  0  0  0  0  0  0  0  0
   21.8580   78.9860   12.1180 C   0  0  0  0  0  0  0  0  0  0  0  0
   21.7980   79.5580   10.8620 C   0  0  0  0  0  3  0  0  0  0  0  0
   20.8780   79.1530    9.8960 C   0  0  0  0  0  3  0  0  0  0  0  0
   18.9960   77.6600    9.2430 N   0  0  0  0  0  0  0  0  0  0  0  0
   19.2000   77.3740    7.8960 C   0  0  0  0  0  0  0  0  0  0  0  0
   20.3600   77.5590    7.3700 O   0  0  0  0  0  0  0  0  0  0  0  0
   18.0140   77.4630    9.6050 H   0  0  0  0  0  0  0  0  0  0  0  0
   18.1480   76.8570    6.9950 C   0  0  0  0  0  0  0  0  0  0  0  0
   17.0520   77.4910    6.5070 C   0  0  0  0  0  0  0  0  0  0  0  0
   16.4910   79.2980    6.7620 Br  0  0  0  0  0  0  0  0  0  0  0  0
   16.3590   76.5520    5.7170 C   0  0  0  0  0  3  0  0  0  0  0  0
   17.0760   75.4360    5.7840 N   0  0  0  0  0  0  0  0  0  0  0  0
   18.1440   75.5630    6.5260 N   0  0  0  0  0  0  0  0  0  0  0  0
   19.1270   74.5480    6.8030 C   0  0  0  0  0  1  0  0  0  0  0  0
   22.7960   79.4140   13.0760 N   0  0  0  0  0  0  0  0  0  0  0  0
   23.6900   78.4210   13.6640 C   0  0  0  0  0  2  0  0  0  0  0  0
   24.5050   79.0030   14.7860 C   0  0  0  0  0  2  0  0  0  0  0  0
   23.8600   79.8720   15.6030 O   0  0  0  0  0  0  0  0  0  0  0  0
   22.8540   80.6330   15.0820 C   0  0  0  0  0  2  0  0  0  0  0  0
   23.0140   80.7360   13.5800 C   0  0  0  0  0  2  0  0  0  0  0  0
  1  2  1  0  0  0  0
  2  3  2  0  0  0  0
  2  6  1  0  0  0  0
  3  4  1  0  0  0  0
  4  5  1  0  0  0  0
  6  5  2  0  0  0  0
  7  6  1  0  0  0  0
  7 21  1  0  0  0  0
  8  7  2  0  0  0  0
  9  1  2  0  0  0  0
  9  8  1  0  0  0  0
 10 13  1  0  0  0  0
 10  1  1  0  0  0  0
 11 10  1  0  0  0  0
 12 11  2  0  0  0  0
 14 11  1  0  0  0  0
 15 16  1  0  0  0  0
 15 14  2  0  0  0  0
 17 18  2  0  0  0  0
 17 15  1  0  0  0  0
 18 19  1  0  0  0  0
 19 20  1  0  0  0  0
 19 14  1  0  0  0  0
 21 26  1  0  0  0  0
 21 22  1  0  0  0  0
 22 23  1  0  0  0  0
 23 24  1  0  0  0  0
 25 24  1  0  0  0  0
 26 25  1  0  0  0  0
M  END
>  <Pose>
1

>  <Score>
-8.415

$$$$
