MODEL 1
REMARK VINA RESULT:    -9.079      0.000      0.000
REMARK INTER + INTRA:         -11.698
REMARK INTER:                 -11.202
REMARK INTRA:                  -0.496
REMARK UNBOUND:                -0.496
REMARK  4 active torsions:
REMARK  status: ('A' for Active; 'I' for Inactive)
REMARK    1  A    between atoms: C_4  and  C_13 
REMARK    2  A    between atoms: C_5  and  N_8 
REMARK       I    between atoms: C_13  and  N_15 
REMARK    3  A    between atoms: N_15  and  C_16 
REMARK    4  A    between atoms: C_16  and  C_17 
ROOT
ATOM      1  C   UNK d   1      21.088  77.013  14.690  0.00  0.00     0.254 C 
ATOM      2  O   UNK d   1      21.031  75.798  14.312  0.00  0.00    -0.268 OA
ATOM      3  N   UNK d   1      20.656  77.506  15.898  0.00  0.00    -0.350 N 
ATOM      4  H   UNK d   1      20.255  76.262  16.278  0.00  0.00     0.163 HD
ENDROOT
BRANCH   1   5
ATOM      5  C   UNK d   1      21.692  77.973  13.692  0.00  0.00     0.062 A 
ATOM      6  C   UNK d   1      20.966  78.445  12.628  0.00  0.00     0.038 A 
ATOM      7  C   UNK d   1      21.583  79.324  11.730  0.00  0.00     0.012 A 
ATOM      8 Br   UNK d   1      20.604  79.989  10.253  0.00  0.00    -0.051 Br
ATOM      9  C   UNK d   1      22.890  79.706  11.912  0.00  0.00     0.021 A 
ATOM     10  C   UNK d   1      23.619  79.230  12.983  0.00  0.00     0.034 A 
ATOM     11  C   UNK d   1      22.995  78.349  13.882  0.00  0.00     0.077 A 
BRANCH  11  12
ATOM     12  N   UNK d   1      23.680  77.828  15.007  0.00  0.00    -0.205 N 
ATOM     13  N   UNK d   1      24.277  76.652  15.020  0.00  0.00    -0.040 NA
ATOM     14  N   UNK d   1      24.833  76.423  16.191  0.00  0.00    -0.023 NA
ATOM     15  N   UNK d   1      24.600  77.468  16.968  0.00  0.00    -0.122 NA
ATOM     16  C   UNK d   1      23.889  78.329  16.233  0.00  0.00     0.262 A 
ENDBRANCH  11  12
ENDBRANCH   1   5
BRANCH   3  17
ATOM     17  C   UNK d   1      20.227  77.997  17.099  0.00  0.00     0.203 C 
BRANCH  17  18
ATOM     18  C   UNK d   1      20.457  79.488  17.276  0.00  0.00     0.152 A 
ATOM     19  N   UNK d   1      20.030  80.219  18.329  0.00  0.00    -0.290 N 
ATOM     20  C   UNK d   1      20.395  81.499  18.182  0.00  0.00     0.157 A 
ATOM     21  C   UNK d   1      19.330  79.846  19.437  0.00  0.00     0.100 A 
ATOM     22  N   UNK d   1      21.060  81.557  17.017  0.00  0.00    -0.130 NA
ATOM     23  C   UNK d   1      20.064  82.452  19.154  0.00  0.00     0.053 A 
ATOM     24  N   UNK d   1      21.099  80.336  16.464  0.00  0.00    -0.132 NA
ATOM     25  C   UNK d   1      19.362  82.084  20.268  0.00  0.00     0.005 A 
ATOM     26  C   UNK d   1      18.986  80.764  20.419  0.00  0.00     0.018 A 
ENDBRANCH  17  18
ENDBRANCH   3  17
TORSDOF 4
ENDMDL
