MODEL 1
REMARK VINA RESULT:    -9.768      0.000      0.000
REMARK INTER + INTRA:         -12.698
REMARK INTER:                 -12.052
REMARK INTRA:                  -0.646
REMARK UNBOUND:                -0.646
REMARK  4 active torsions:
REMARK  status: ('A' for Active; 'I' for Inactive)
REMARK    1  A    between atoms: C_4  and  C_10 
REMARK    2  A    between atoms: C_5  and  O_8 
REMARK    3  A    between atoms: C_18  and  C_19 
REMARK    4  A    between atoms: C_19  and  N_20 
ROOT
ATOM      1  C   UNK d   1      19.490  75.553  14.226  0.00  0.00     0.055 C 
ATOM      2  C   UNK d   1      20.167  76.576  14.671  0.00  0.00     0.128 A 
ATOM      3  O   UNK d   1      20.784  77.519  13.865  0.00  0.00    -0.305 OA
ATOM      4  C   UNK d   1      21.430  78.489  14.610  0.00  0.00     0.101 A 
ATOM      5  C   UNK d   1      21.280  78.245  15.956  0.00  0.00     0.051 A 
ATOM      6  C   UNK d   1      21.848  79.094  16.881  0.00  0.00     0.021 A 
ATOM      7  C   UNK d   1      22.568  80.186  16.446  0.00  0.00     0.041 A 
ATOM      8  C   UNK d   1      22.708  80.413  15.063  0.00  0.00     0.118 A 
ATOM      9  C   UNK d   1      22.154  79.590  14.131  0.00  0.00     0.039 A 
ATOM     10  O   UNK d   1      23.466  81.558  14.770  0.00  0.00    -0.191 OA
ATOM     11  C   UNK d   1      20.472  77.023  16.033  0.00  0.00     0.218 A 
ATOM     12  O   UNK d   1      20.099  76.446  17.079  0.00  0.00    -0.284 OA
ENDROOT
BRANCH   1  13
ATOM     13  C   UNK d   1      19.261  75.212  12.832  0.00  0.00     0.001 A 
ATOM     14  C   UNK d   1      19.419  76.115  11.804  0.00  0.00     0.033 A 
ATOM     15  C   UNK d   1      19.195  75.820  10.490  0.00  0.00     0.011 A 
ATOM     16 Br   UNK d   1      19.404  77.044   9.046  0.00  0.00    -0.051 Br
ATOM     17  C   UNK d   1      18.783  74.526  10.188  0.00  0.00     0.022 A 
ATOM     18  C   UNK d   1      18.605  73.571  11.183  0.00  0.00     0.039 A 
ATOM     19  C   UNK d   1      18.844  73.924  12.483  0.00  0.00     0.078 A 
BRANCH  19  20
ATOM     20  O   UNK d   1      18.672  73.000  13.495  0.00  0.00    -0.355 OA
ATOM     21  C   UNK d   1      18.095  71.750  13.225  0.00  0.00     0.210 C 
ENDBRANCH  19  20
ENDBRANCH   1  13
BRANCH   9  22
ATOM     22  C   UNK d   1      22.247  79.783  12.710  0.00  0.00     0.279 C 
BRANCH  22  23
ATOM     23  N   UNK d   1      21.448  79.082  11.791  0.00  0.00    -0.063 N 
ATOM     24  C   UNK d   1      20.304  79.792  11.287  0.00  0.00     0.261 C 
ATOM     25  C   UNK d   1      20.614  80.733  10.149  0.00  0.00     0.195 C 
ATOM     26  O   UNK d   1      21.970  80.839   9.870  0.00  0.00    -0.388 OA
ATOM     27  C   UNK d   1      22.406  79.556   9.555  0.00  0.00     0.195 C 
ATOM     28  C   UNK d   1      22.226  78.560  10.653  0.00  0.00     0.261 C 
ATOM     29  H   UNK d   1      21.099  78.210  12.238  0.00  0.00     0.280 HD
ENDBRANCH  22  23
ENDBRANCH   9  22
TORSDOF 4
ENDMDL
