MODEL 1
REMARK VINA RESULT:    -9.122      0.000      0.000
REMARK INTER + INTRA:         -12.301
REMARK INTER:                 -11.788
REMARK INTRA:                  -0.513
REMARK UNBOUND:                -0.513
REMARK  5 active torsions:
REMARK  status: ('A' for Active; 'I' for Inactive)
REMARK    1  A    between atoms: C_4  and  C_10 
REMARK    2  A    between atoms: C_5  and  O_8 
REMARK    3  A    between atoms: N_15  and  C_25 
REMARK    4  A    between atoms: C_25  and  C_26 
REMARK    5  A    between atoms: C_26  and  O_27 
ROOT
ATOM      1  C   UNK d   1      20.732  77.116  14.897  0.00  0.00     0.188 A 
ATOM      2  N   UNK d   1      20.506  77.196  13.604  0.00  0.00    -0.106 N 
ATOM      3  C   UNK d   1      19.782  76.115  13.175  0.00  0.00     0.736 A 
ATOM      4  N   UNK d   1      19.568  75.343  14.264  0.00  0.00     0.045 NA
ATOM      5  N   UNK d   1      20.119  75.915  15.280  0.00  0.00    -0.114 NA
ATOM      6  N   UNK d   1      19.563  76.212  11.861  0.00  0.00    -0.168 N 
ATOM      7  C   UNK d   1      20.148  77.348  11.449  0.00  0.00     0.165 A 
ATOM      8  C   UNK d   1      20.753  77.985  12.526  0.00  0.00     0.170 A 
ATOM      9  N   UNK d   1      21.423  79.114  12.403  0.00  0.00    -0.287 N 
ATOM     10  C   UNK d   1      21.495  79.654  11.146  0.00  0.00     0.330 A 
ATOM     11  O   UNK d   1      22.106  80.729  10.916  0.00  0.00    -0.246 OA
ATOM     12  N   UNK d   1      20.917  79.067  10.078  0.00  0.00    -0.273 N 
ATOM     13  C   UNK d   1      20.246  77.927  10.198  0.00  0.00     0.280 A 
ATOM     14  O   UNK d   1      19.687  77.332   9.243  0.00  0.00    -0.265 OA
ATOM     15  C   UNK d   1      22.158  79.839  13.395  0.00  0.00     0.163 C 
ATOM     16  H   UNK d   1      20.981  79.491   9.128  0.00  0.00     0.173 HD
ENDROOT
BRANCH   1  17
ATOM     17  C   UNK d   1      21.382  77.862  15.936  0.00  0.00     0.047 A 
ATOM     18  C   UNK d   1      20.842  78.729  16.837  0.00  0.00     0.037 A 
ATOM     19  C   UNK d   1      21.517  79.425  17.797  0.00  0.00     0.012 A 
ATOM     20 Br   UNK d   1      20.563  80.595  18.963  0.00  0.00    -0.051 Br
ATOM     21  C   UNK d   1      22.868  79.272  17.904  0.00  0.00     0.022 A 
ATOM     22  C   UNK d   1      23.504  78.408  17.027  0.00  0.00     0.039 A 
ATOM     23  C   UNK d   1      22.783  77.726  16.075  0.00  0.00     0.082 A 
BRANCH  23  24
ATOM     24  O   UNK d   1      23.457  76.874  15.218  0.00  0.00    -0.355 OA
ATOM     25  C   UNK d   1      24.844  76.755  15.153  0.00  0.00     0.210 C 
ENDBRANCH  23  24
ENDBRANCH   1  17
BRANCH   6  26
ATOM     26  C   UNK d   1      18.844  75.296  11.026  0.00  0.00     0.174 C 
BRANCH  26  27
ATOM     27  C   UNK d   1      18.696  73.970  11.743  0.00  0.00     0.187 C 
BRANCH  27  28
ATOM     28  O   UNK d   1      17.374  73.822  12.112  0.00  0.00    -0.394 OA
ATOM     29  C   UNK d   1      17.169  72.641  12.846  0.00  0.00     0.201 C 
ENDBRANCH  27  28
ENDBRANCH  26  27
ENDBRANCH   6  26
TORSDOF 5
ENDMDL
