/Users/jonathanwahrer/Desktop/Msc/3_Semester/Drug_Design_Praktikum/waehrer_HTS_screening/HTS_experiment/out/docking_results/vina_output/6e43/0127_docked.pdbqt
 OpenBabel03212219393D

 29 32  0  0  0  0  0  0  0  0999 V2000
   21.1580   78.9020   10.9010 N   0  0  0  0  0  0  0  0  0  0  0  0
   21.1840   79.5740    9.6550 C   0  0  0  0  0  2  0  0  0  0  0  0
   20.6030   78.8410    8.5080 C   0  0  0  0  0  2  0  0  0  0  0  0
   19.2870   78.3740    8.8060 N   0  0  0  0  0  0  0  0  0  0  0  0
   18.9090   78.2260   10.1820 C   0  0  0  0  0  2  0  0  0  0  0  0
   20.0750   78.0090   11.1190 C   0  0  0  0  0  2  0  0  0  0  0  0
   18.3560   78.0260    7.7920 C   0  0  0  0  0  0  0  0  0  0  0  0
   18.4190   76.7990    7.2800 C   0  0  0  0  0  0  0  0  0  0  0  0
   19.2340   75.6600    7.4970 N   0  0  0  0  0  0  0  0  0  0  0  0
   17.4310   76.4770    6.2270 C   0  0  0  0  0  0  0  0  0  0  0  0
   18.7490   74.6820    6.6000 N   0  0  0  0  0  0  0  0  0  0  0  0
   20.3240   75.5330    8.4340 C   0  0  0  0  0  1  0  0  0  0  0  0
   17.6700   75.2260    5.8650 C   0  0  0  0  0  0  0  0  0  0  0  0
   19.1700   73.7310    6.5450 H   0  0  0  0  0  0  0  0  0  0  0  0
   16.8710   74.5380    4.8160 C   0  0  0  0  0  1  0  0  0  0  0  0
   16.4850   77.4590    5.8170 N   0  0  0  0  0  0  0  0  0  0  0  0
   16.4660   78.6320    6.3450 C   0  0  0  0  0  3  0  0  0  0  0  0
   17.3820   78.9950    7.3510 N   0  0  0  0  0  0  0  0  0  0  0  0
   17.4060   79.9240    7.8050 H   0  0  0  0  0  0  0  0  0  0  0  0
   21.6110   79.6280   12.0230 C   0  0  0  0  0  2  0  0  0  0  0  0
   22.8760   79.1450   12.5790 C   0  0  0  0  0  0  0  0  0  0  0  0
   23.7400   78.6600   11.8040 O   0  0  0  0  0  0  0  0  0  0  0  0
   23.0990   79.2390   14.0180 C   0  0  0  0  0  0  0  0  0  0  0  0
   24.3600   79.1180   14.5390 C   0  0  0  0  0  3  0  0  0  0  0  0
   24.6080   79.2020   15.9040 C   0  0  0  0  0  0  0  0  0  0  0  0
   26.3610   79.0360   16.6240 Br  0  0  0  0  0  0  0  0  0  0  0  0
   23.5520   79.4120   16.7640 C   0  0  0  0  0  3  0  0  0  0  0  0
   22.2790   79.5330   16.2210 C   0  0  0  0  0  3  0  0  0  0  0  0
   22.0410   79.4490   14.8730 C   0  0  0  0  0  3  0  0  0  0  0  0
  1  6  1  0  0  0  0
  1 20  1  0  0  0  0
  2  1  1  0  0  0  0
  3  4  1  0  0  0  0
  3  2  1  0  0  0  0
  4  5  1  0  0  0  0
  5  6  1  0  0  0  0
  7  4  1  0  0  0  0
  8  9  1  0  0  0  0
  8  7  2  0  0  0  0
  9 12  1  0  0  0  0
 10  8  1  0  0  0  0
 11  9  1  0  0  0  0
 13 10  2  0  0  0  0
 13 11  1  0  0  0  0
 14 11  1  0  0  0  0
 15 13  1  0  0  0  0
 16 10  1  0  0  0  0
 16 17  2  0  0  0  0
 17 18  1  0  0  0  0
 18  7  1  0  0  0  0
 18 19  1  0  0  0  0
 20 21  1  0  0  0  0
 21 23  1  0  0  0  0
 22 21  2  0  0  0  0
 23 24  2  0  0  0  0
 23 29  1  0  0  0  0
 24 25  1  0  0  0  0
 25 26  1  0  0  0  0
 25 27  2  0  0  0  0
 28 27  1  0  0  0  0
 29 28  2  0  0  0  0
M  END
>  <Pose>
1

>  <Score>
-8.858

$$$$
