/Users/jonathanwahrer/Desktop/Msc/3_Semester/Drug_Design_Praktikum/waehrer_HTS_screening/HTS_experiment/out/docking_results/vina_output/6e43/0129_docked.pdbqt
 OpenBabel03212219403D

 31 34  0  0  1  0  0  0  0  0999 V2000
   21.2980   79.5680   10.5970 C   0  0  0  0  0  0  0  0  0  0  0  0
   21.9880   80.0710    9.6570 O   0  0  0  0  0  0  0  0  0  0  0  0
   21.6630   79.7810   11.9570 N   0  0  0  0  0  0  0  0  0  0  0  0
   21.0160   79.1010   13.0500 C   0  0  0  0  0  2  0  0  0  0  0  0
   22.1480   78.2150   13.6230 C   0  0  0  0  0  2  0  0  0  0  0  0
   23.0550   79.1750   14.3440 C   0  0  2  0  0  0  0  0  0  0  0  0
   24.3100   78.4610   14.5780 N   0  0  0  0  0  0  0  0  0  0  0  0
   24.1430   77.2560   15.3010 C   0  0  0  0  0  2  0  0  0  0  0  0
   23.6190   77.4720   16.7090 C   0  0  0  0  0  2  0  0  0  0  0  0
   22.6960   78.6200   16.7810 C   0  0  0  0  0  0  0  0  0  0  0  0
   21.9880   79.0770   17.8270 N   0  0  0  0  0  0  0  0  0  0  0  0
   21.2940   80.1560   17.4030 C   0  0  0  0  0  3  0  0  0  0  0  0
   21.5820   80.3530   16.0910 N   0  0  0  0  0  0  0  0  0  0  0  0
   22.4500   79.4100   15.6740 C   0  0  0  0  0  0  0  0  0  0  0  0
   23.3670   80.4320   13.6110 C   0  0  0  0  0  3  0  0  0  0  0  0
   22.7110   80.6760   12.2950 C   0  0  0  0  0  3  0  0  0  0  0  0
   25.0490   79.0860   14.9900 H   0  0  0  0  0  0  0  0  0  0  0  0
   21.1370   81.1490   15.5920 H   0  0  0  0  0  0  0  0  0  0  0  0
   20.1470   78.7660   10.2050 C   0  0  2  0  0  3  0  0  0  0  0  0
   18.9270   79.6590   10.0520 C   0  0  0  0  0  1  0  0  0  0  0  0
   19.9440   77.6090   10.9990 N   0  0  0  0  0  0  0  0  0  0  0  0
   19.2970   76.4520   10.5770 C   0  0  0  0  0  0  0  0  0  0  0  0
   18.8230   76.1590    9.4930 O   0  0  0  0  0  0  0  0  0  0  0  0
   20.3750   77.6390   11.9710 H   0  0  0  0  0  0  0  0  0  0  0  0
   19.1610   75.4100   11.6630 C   0  0  0  0  0  0  0  0  0  0  0  0
   18.5810   74.2100   11.3150 C   0  0  0  0  0  3  0  0  0  0  0  0
   18.4000   73.2450   12.2770 C   0  0  0  0  0  0  0  0  0  0  0  0
   17.6020   71.5590   11.7950 Br  0  0  0  0  0  0  0  0  0  0  0  0
   18.7780   73.4400   13.5890 C   0  0  0  0  0  3  0  0  0  0  0  0
   19.3580   74.6750   13.8860 C   0  0  0  0  0  3  0  0  0  0  0  0
   19.5500   75.6470   12.9430 C   0  0  0  0  0  3  0  0  0  0  0  0
  1  3  1  0  0  0  0
  2  1  2  0  0  0  0
  3 16  1  0  0  0  0
  3  4  1  0  0  0  0
  4  5  1  0  0  0  0
  5  6  1  0  0  0  0
  6 15  1  6  0  0  0
  6  7  1  0  0  0  0
  6 14  1  0  0  0  0
  7 17  1  0  0  0  0
  7  8  1  0  0  0  0
  8  9  1  0  0  0  0
  9 10  1  0  0  0  0
 10 11  1  0  0  0  0
 12 11  2  0  0  0  0
 13 12  1  0  0  0  0
 14 13  1  0  0  0  0
 14 10  2  0  0  0  0
 16 15  2  0  0  0  0
 18 13  1  0  0  0  0
 19 20  1  1  0  0  0
 19  1  1  0  0  0  0
 19 21  1  0  0  0  0
 21 24  1  0  0  0  0
 22 21  1  0  0  0  0
 22 25  1  0  0  0  0
 23 22  2  0  0  0  0
 25 31  1  0  0  0  0
 26 25  2  0  0  0  0
 26 27  1  0  0  0  0
 27 29  2  0  0  0  0
 28 27  1  0  0  0  0
 29 30  1  0  0  0  0
 31 30  2  0  0  0  0
M  END
>  <Pose>
1

>  <Score>
-9.465

$$$$
