MODEL 1
REMARK VINA RESULT:   -10.104      0.000      0.000
REMARK INTER + INTRA:         -12.430
REMARK INTER:                 -11.876
REMARK INTRA:                  -0.554
REMARK UNBOUND:                -0.554
REMARK  3 active torsions:
REMARK  status: ('A' for Active; 'I' for Inactive)
REMARK    1  A    between atoms: C_4  and  C_8 
REMARK       I    between atoms: C_8  and  N_10 
REMARK    2  A    between atoms: N_10  and  C_11 
REMARK    3  A    between atoms: C_11  and  C_12 
REMARK       I    between atoms: C_12  and  N_14 
ROOT
ATOM      1  C   UNK d   1      20.163  79.377  18.616  0.00  0.00     0.237 C 
ATOM      2  O   UNK d   1      20.648  79.626  19.776  0.00  0.00    -0.272 OA
ATOM      3  N   UNK d   1      20.605  78.284  17.859  0.00  0.00    -0.351 N 
ATOM      4  C   UNK d   1      20.091  77.978  16.563  0.00  0.00     0.129 C 
ATOM      5  C   UNK d   1      21.139  77.428  15.637  0.00  0.00     0.068 C 
ATOM      6  C   UNK d   1      22.563  77.769  16.016  0.00  0.00     0.204 C 
ATOM      7  N   UNK d   1      23.365  76.898  15.168  0.00  0.00     0.099 N 
ATOM      8  C   UNK d   1      24.756  77.147  15.157  0.00  0.00     0.277 C 
ATOM      9  C   UNK d   1      25.230  78.465  15.650  0.00  0.00     0.091 C 
ATOM     10  C   UNK d   1      24.194  79.529  15.472  0.00  0.00     0.062 A 
ATOM     11  N   UNK d   1      24.291  80.820  15.157  0.00  0.00    -0.246 NA
ATOM     12  C   UNK d   1      23.026  81.289  15.137  0.00  0.00     0.207 A 
ATOM     13  N   UNK d   1      22.155  80.301  15.438  0.00  0.00    -0.350 N 
ATOM     14  C   UNK d   1      22.883  79.168  15.656  0.00  0.00     0.074 A 
ATOM     15  C   UNK d   1      22.883  77.526  17.469  0.00  0.00     0.068 C 
ATOM     16  C   UNK d   1      21.650  77.390  18.344  0.00  0.00     0.129 C 
ATOM     17  H   UNK d   1      23.144  75.924  15.524  0.00  0.00     0.317 HD
ATOM     18  H   UNK d   1      21.127  80.398  15.491  0.00  0.00     0.166 HD
ENDROOT
BRANCH   1  19
ATOM     19  C   UNK d   1      19.102  80.346  18.161  0.00  0.00     0.225 C 
BRANCH  19  20
ATOM     20  N   UNK d   1      19.417  81.649  18.514  0.00  0.00    -0.348 N 
ATOM     21  C   UNK d   1      19.717  82.892  18.851  0.00  0.00     0.252 C 
ATOM     22  O   UNK d   1      20.217  83.819  18.122  0.00  0.00    -0.268 OA
ATOM     23  H   UNK d   1      19.865  81.875  17.225  0.00  0.00     0.163 HD
BRANCH  21  24
ATOM     24  C   UNK d   1      19.458  83.327  20.269  0.00  0.00     0.033 A 
ATOM     25  C   UNK d   1      20.163  82.800  21.319  0.00  0.00     0.036 A 
ATOM     26  C   UNK d   1      19.893  83.184  22.624  0.00  0.00     0.011 A 
ATOM     27 Br   UNK d   1      20.893  82.437  24.039  0.00  0.00    -0.051 Br
ATOM     28  C   UNK d   1      18.895  84.107  22.821  0.00  0.00     0.019 A 
ATOM     29  C   UNK d   1      18.187  84.636  21.759  0.00  0.00     0.002 A 
ATOM     30  C   UNK d   1      18.466  84.244  20.446  0.00  0.00     0.017 A 
ENDBRANCH  21  24
ENDBRANCH  19  20
ENDBRANCH   1  19
TORSDOF 3
ENDMDL
