/Users/jonathanwahrer/Desktop/Msc/3_Semester/Drug_Design_Praktikum/waehrer_HTS_screening/HTS_experiment/out/docking_results/vina_output/6e43/0130_docked.pdbqt
 OpenBabel03212219403D

 30 33  0  0  1  0  0  0  0  0999 V2000
   20.1630   79.3770   18.6160 C   0  0  0  0  0  0  0  0  0  0  0  0
   20.6480   79.6260   19.7760 O   0  0  0  0  0  0  0  0  0  0  0  0
   20.6050   78.2840   17.8590 N   0  0  0  0  0  0  0  0  0  0  0  0
   20.0910   77.9780   16.5630 C   0  0  0  0  0  2  0  0  0  0  0  0
   21.1390   77.4280   15.6370 C   0  0  0  0  0  2  0  0  0  0  0  0
   22.5630   77.7690   16.0160 C   0  0  1  0  0  0  0  0  0  0  0  0
   23.3650   76.8980   15.1680 N   0  0  0  0  0  0  0  0  0  0  0  0
   24.7560   77.1470   15.1570 C   0  0  0  0  0  2  0  0  0  0  0  0
   25.2300   78.4650   15.6500 C   0  0  0  0  0  2  0  0  0  0  0  0
   24.1940   79.5290   15.4720 C   0  0  0  0  0  0  0  0  0  0  0  0
   24.2910   80.8200   15.1570 N   0  0  0  0  0  0  0  0  0  0  0  0
   23.0260   81.2890   15.1370 C   0  0  0  0  0  3  0  0  0  0  0  0
   22.1550   80.3010   15.4380 N   0  0  0  0  0  0  0  0  0  0  0  0
   22.8830   79.1680   15.6560 C   0  0  0  0  0  0  0  0  0  0  0  0
   22.8830   77.5260   17.4690 C   0  0  0  0  0  2  0  0  0  0  0  0
   21.6500   77.3900   18.3440 C   0  0  0  0  0  2  0  0  0  0  0  0
   23.1440   75.9240   15.5240 H   0  0  0  0  0  0  0  0  0  0  0  0
   21.1270   80.3980   15.4910 H   0  0  0  0  0  0  0  0  0  0  0  0
   19.1020   80.3460   18.1610 C   0  0  0  0  0  2  0  0  0  0  0  0
   19.4170   81.6490   18.5140 N   0  0  0  0  0  0  0  0  0  0  0  0
   19.7170   82.8920   18.8510 C   0  0  0  0  0  0  0  0  0  0  0  0
   20.2170   83.8190   18.1220 O   0  0  0  0  0  0  0  0  0  0  0  0
   19.8650   81.8750   17.2250 H   0  0  0  0  0  0  0  0  0  0  0  0
   19.4580   83.3270   20.2690 C   0  0  0  0  0  0  0  0  0  0  0  0
   20.1630   82.8000   21.3190 C   0  0  0  0  0  3  0  0  0  0  0  0
   19.8930   83.1840   22.6240 C   0  0  0  0  0  0  0  0  0  0  0  0
   20.8930   82.4370   24.0390 Br  0  0  0  0  0  0  0  0  0  0  0  0
   18.8950   84.1070   22.8210 C   0  0  0  0  0  3  0  0  0  0  0  0
   18.1870   84.6360   21.7590 C   0  0  0  0  0  3  0  0  0  0  0  0
   18.4660   84.2440   20.4460 C   0  0  0  0  0  3  0  0  0  0  0  0
  1  2  2  0  0  0  0
  3 16  1  0  0  0  0
  3  1  1  0  0  0  0
  4  3  1  0  0  0  0
  5  4  1  0  0  0  0
  6  5  1  6  0  0  0
  6 15  1  0  0  0  0
  7 17  1  0  0  0  0
  7  6  1  0  0  0  0
  8  7  1  0  0  0  0
  8  9  1  0  0  0  0
 10  9  1  0  0  0  0
 10 14  2  0  0  0  0
 11 10  1  0  0  0  0
 12 11  2  0  0  0  0
 12 13  1  0  0  0  0
 13 18  1  0  0  0  0
 13 14  1  0  0  0  0
 14  6  1  0  0  0  0
 15 16  1  0  0  0  0
 19 20  1  0  0  0  0
 19  1  1  0  0  0  0
 20 21  1  0  0  0  0
 21 24  1  0  0  0  0
 22 21  2  0  0  0  0
 23 20  1  0  0  0  0
 24 30  2  0  0  0  0
 24 25  1  0  0  0  0
 25 26  2  0  0  0  0
 26 28  1  0  0  0  0
 26 27  1  0  0  0  0
 29 28  2  0  0  0  0
 30 29  1  0  0  0  0
M  END
>  <Pose>
1

>  <Score>
-10.104

$$$$
