MODEL 1
REMARK VINA RESULT:    -9.172      0.000      0.000
REMARK INTER + INTRA:         -10.665
REMARK INTER:                 -10.245
REMARK INTRA:                  -0.420
REMARK UNBOUND:                -0.420
REMARK  2 active torsions:
REMARK  status: ('A' for Active; 'I' for Inactive)
REMARK    1  A    between atoms: C_4  and  C_8 
REMARK       I    between atoms: C_8  and  N_10 
REMARK    2  A    between atoms: N_10  and  C_11 
ROOT
ATOM      1  C   UNK d   1      19.983  79.923  17.431  0.00  0.00     0.105 C 
ATOM      2  C   UNK d   1      20.776  81.282  17.410  0.00  0.00     0.152 C 
ATOM      3  N   UNK d   1      20.199  82.022  18.479  0.00  0.00    -0.335 N 
ATOM      4  C   UNK d   1      19.541  81.102  19.396  0.00  0.00     0.181 C 
ATOM      5  C   UNK d   1      20.003  79.765  18.982  0.00  0.00     0.061 C 
ATOM      6  C   UNK d   1      19.791  81.505  20.789  0.00  0.00     0.243 C 
ATOM      7  O   UNK d   1      20.012  80.633  21.647  0.00  0.00    -0.271 OA
ATOM      8  N   UNK d   1      19.779  82.871  21.150  0.00  0.00    -0.337 N 
ATOM      9  C   UNK d   1      20.210  83.867  20.194  0.00  0.00     0.179 C 
ATOM     10  C   UNK d   1      19.375  85.098  20.484  0.00  0.00     0.037 C 
ATOM     11  C   UNK d   1      18.581  84.747  21.694  0.00  0.00     0.022 C 
ATOM     12  C   UNK d   1      19.407  83.626  22.342  0.00  0.00     0.127 C 
ATOM     13  C   UNK d   1      20.144  83.404  18.812  0.00  0.00     0.243 C 
ATOM     14  O   UNK d   1      20.033  84.253  17.859  0.00  0.00    -0.271 OA
ENDROOT
BRANCH   1  15
ATOM     15  N   UNK d   1      20.558  78.969  16.709  0.00  0.00    -0.351 N 
ATOM     16  C   UNK d   1      21.149  77.978  15.964  0.00  0.00     0.252 C 
ATOM     17  O   UNK d   1      20.740  76.806  15.696  0.00  0.00    -0.268 OA
ATOM     18  H   UNK d   1      19.493  78.128  16.945  0.00  0.00     0.163 HD
BRANCH  16  19
ATOM     19  C   UNK d   1      22.497  78.239  15.329  0.00  0.00     0.033 A 
ATOM     20  C   UNK d   1      23.611  78.469  16.099  0.00  0.00     0.036 A 
ATOM     21  C   UNK d   1      24.849  78.705  15.553  0.00  0.00     0.011 A 
ATOM     22 Br   UNK d   1      26.397  78.995  16.617  0.00  0.00    -0.051 Br
ATOM     23  C   UNK d   1      24.940  78.705  14.164  0.00  0.00     0.019 A 
ATOM     24  C   UNK d   1      23.851  78.479  13.369  0.00  0.00     0.002 A 
ATOM     25  C   UNK d   1      22.618  78.244  13.963  0.00  0.00     0.017 A 
ENDBRANCH  16  19
ENDBRANCH   1  15
TORSDOF 2
ENDMDL
