/Users/jonathanwahrer/Desktop/Msc/3_Semester/Drug_Design_Praktikum/waehrer_HTS_screening/HTS_experiment/out/docking_results/vina_output/6e43/0138_docked.pdbqt
 OpenBabel03212219403D

 25 28  0  0  1  0  0  0  0  0999 V2000
   19.7990   77.2210   16.7300 C   0  0  2  0  0  3  0  0  0  0  0  0
   18.8170   77.8590   17.6550 C   0  0  0  0  0  2  0  0  0  0  0  0
   19.5830   78.9830   18.2220 N   0  0  0  0  0  0  0  0  0  0  0  0
   20.7940   79.1800   17.4370 C   0  0  1  0  0  3  0  0  0  0  0  0
   20.5000   78.4620   16.1560 C   0  0  0  0  0  2  0  0  0  0  0  0
   21.0040   80.6170   17.2890 C   0  0  0  0  0  0  0  0  0  0  0  0
   21.4720   81.0900   16.2460 O   0  0  0  0  0  0  0  0  0  0  0  0
   20.6640   81.4980   18.3690 N   0  0  0  0  0  0  0  0  0  0  0  0
   20.3740   80.8690   19.6340 C   0  0  1  0  0  3  0  0  0  0  0  0
   19.9450   81.8740   20.6220 C   0  0  0  0  0  2  0  0  0  0  0  0
   20.4180   83.1700   19.9930 C   0  0  0  0  0  2  0  0  0  0  0  0
   20.5310   82.9140   18.5280 C   0  0  0  0  0  2  0  0  0  0  0  0
   19.3260   79.8330   19.3350 C   0  0  0  0  0  0  0  0  0  0  0  0
   18.2880   79.7270   20.0270 O   0  0  0  0  0  0  0  0  0  0  0  0
   19.2390   76.3950   15.7260 N   0  0  0  0  0  0  0  0  0  0  0  0
   20.0120   76.0040   14.6110 C   0  0  0  0  0  0  0  0  0  0  0  0
   21.2250   76.4050   14.5180 O   0  0  0  0  0  0  0  0  0  0  0  0
   18.2590   76.0680   15.7990 H   0  0  0  0  0  0  0  0  0  0  0  0
   19.5490   75.1610   13.5230 C   0  0  0  0  0  0  0  0  0  0  0  0
   19.3670   73.8070   13.6520 C   0  0  0  0  0  3  0  0  0  0  0  0
   18.9300   73.0000   12.6330 C   0  0  0  0  0  0  0  0  0  0  0  0
   18.6900   71.1260   12.8490 Br  0  0  0  0  0  0  0  0  0  0  0  0
   18.6530   73.5570   11.4040 C   0  0  0  0  0  3  0  0  0  0  0  0
   18.8210   74.9210   11.2260 C   0  0  0  0  0  3  0  0  0  0  0  0
   19.2700   75.7110   12.2950 C   0  0  0  0  0  3  0  0  0  0  0  0
  1 15  1  6  0  0  0
  1  2  1  0  0  0  0
  2  3  1  0  0  0  0
  3 13  1  0  0  0  0
  4  5  1  6  0  0  0
  4  3  1  0  0  0  0
  5  1  1  0  0  0  0
  6  4  1  0  0  0  0
  6  8  1  0  0  0  0
  7  6  2  0  0  0  0
  8 12  1  0  0  0  0
  8  9  1  0  0  0  0
  9 10  1  1  0  0  0
 11 10  1  0  0  0  0
 12 11  1  0  0  0  0
 13  9  1  0  0  0  0
 13 14  2  0  0  0  0
 15 18  1  0  0  0  0
 16 15  1  0  0  0  0
 17 16  2  0  0  0  0
 19 20  1  0  0  0  0
 19 16  1  0  0  0  0
 21 22  1  0  0  0  0
 21 20  2  0  0  0  0
 23 21  1  0  0  0  0
 24 23  2  0  0  0  0
 24 25  1  0  0  0  0
 25 19  2  0  0  0  0
M  END
>  <Pose>
1

>  <Score>
-10.462

$$$$
