MODEL 1
REMARK VINA RESULT:    -9.645      0.000      0.000
REMARK INTER + INTRA:         -11.273
REMARK INTER:                 -10.772
REMARK INTRA:                  -0.501
REMARK UNBOUND:                -0.501
REMARK  2 active torsions:
REMARK  status: ('A' for Active; 'I' for Inactive)
REMARK    1  A    between atoms: C_4  and  C_8 
REMARK       I    between atoms: C_8  and  N_10 
REMARK    2  A    between atoms: N_10  and  N_11 
ROOT
ATOM      1  N   UNK d   1      22.500  79.017  14.752  0.00  0.00    -0.187 N 
ATOM      2  C   UNK d   1      23.095  80.219  15.279  0.00  0.00     0.251 C 
ATOM      3  O   UNK d   1      22.921  81.415  14.885  0.00  0.00    -0.271 OA
ATOM      4  C   UNK d   1      23.966  79.853  16.379  0.00  0.00     0.101 C 
ATOM      5  C   UNK d   1      23.530  78.443  16.824  0.00  0.00     0.101 C 
ATOM      6  C   UNK d   1      24.792  77.705  17.133  0.00  0.00     0.022 C 
ATOM      7  C   UNK d   1      25.801  78.857  17.308  0.00  0.00     0.018 C 
ATOM      8  C   UNK d   1      25.397  79.524  15.975  0.00  0.00     0.022 C 
ATOM      9  C   UNK d   1      25.431  78.322  15.094  0.00  0.00    -0.025 C 
ATOM     10  C   UNK d   1      25.330  77.199  15.817  0.00  0.00    -0.025 C 
ATOM     11  C   UNK d   1      22.992  77.939  15.500  0.00  0.00     0.251 C 
ATOM     12  O   UNK d   1      23.000  76.736  15.155  0.00  0.00    -0.271 OA
ENDROOT
BRANCH   1  13
ATOM     13  N   UNK d   1      21.602  79.066  13.668  0.00  0.00    -0.254 N 
ATOM     14  C   UNK d   1      21.948  78.935  12.312  0.00  0.00     0.270 C 
ATOM     15  O   UNK d   1      23.128  78.756  11.964  0.00  0.00    -0.266 OA
ATOM     16  H   UNK d   1      20.561  79.218  13.858  0.00  0.00     0.191 HD
BRANCH  14  17
ATOM     17  C   UNK d   1      20.946  79.004  11.267  0.00  0.00     0.035 A 
ATOM     18  C   UNK d   1      20.797  77.921  10.404  0.00  0.00     0.036 A 
ATOM     19  C   UNK d   1      19.857  77.942   9.403  0.00  0.00     0.011 A 
ATOM     20 Br   UNK d   1      19.711  76.430   8.256  0.00  0.00    -0.051 Br
ATOM     21  C   UNK d   1      19.027  79.042   9.223  0.00  0.00     0.019 A 
ATOM     22  C   UNK d   1      19.194  80.097  10.086  0.00  0.00     0.002 A 
ATOM     23  C   UNK d   1      20.135  80.082  11.092  0.00  0.00     0.017 A 
ENDBRANCH  14  17
ENDBRANCH   1  13
TORSDOF 2
ENDMDL
