/Users/jonathanwahrer/Desktop/Msc/3_Semester/Drug_Design_Praktikum/waehrer_HTS_screening/HTS_experiment/out/docking_results/vina_output/6e43/0141_docked.pdbqt
 OpenBabel03212219403D

 23 26  0  0  1  0  0  0  0  0999 V2000
   22.5000   79.0170   14.7520 N   0  0  0  0  0  0  0  0  0  0  0  0
   23.0950   80.2190   15.2790 C   0  0  0  0  0  0  0  0  0  0  0  0
   22.9210   81.4150   14.8850 O   0  0  0  0  0  0  0  0  0  0  0  0
   23.9660   79.8530   16.3790 C   0  0  1  0  0  3  0  0  0  0  0  0
   23.5300   78.4430   16.8240 C   0  0  2  0  0  3  0  0  0  0  0  0
   24.7920   77.7050   17.1330 C   0  0  2  0  0  3  0  0  0  0  0  0
   25.8010   78.8570   17.3080 C   0  0  0  0  0  2  0  0  0  0  0  0
   25.3970   79.5240   15.9750 C   0  0  1  0  0  3  0  0  0  0  0  0
   25.4310   78.3220   15.0940 C   0  0  0  0  0  2  0  0  0  0  0  0
   25.3300   77.1990   15.8170 C   0  0  0  0  0  2  0  0  0  0  0  0
   22.9920   77.9390   15.5000 C   0  0  0  0  0  0  0  0  0  0  0  0
   23.0000   76.7360   15.1550 O   0  0  0  0  0  0  0  0  0  0  0  0
   21.6020   79.0660   13.6680 N   0  0  0  0  0  0  0  0  0  0  0  0
   21.9480   78.9350   12.3120 C   0  0  0  0  0  0  0  0  0  0  0  0
   23.1280   78.7560   11.9640 O   0  0  0  0  0  0  0  0  0  0  0  0
   20.5610   79.2180   13.8580 H   0  0  0  0  0  0  0  0  0  0  0  0
   20.9460   79.0040   11.2670 C   0  0  0  0  0  0  0  0  0  0  0  0
   20.7970   77.9210   10.4040 C   0  0  0  0  0  3  0  0  0  0  0  0
   19.8570   77.9420    9.4030 C   0  0  0  0  0  0  0  0  0  0  0  0
   19.7110   76.4300    8.2560 Br  0  0  0  0  0  0  0  0  0  0  0  0
   19.0270   79.0420    9.2230 C   0  0  0  0  0  3  0  0  0  0  0  0
   19.1940   80.0970   10.0860 C   0  0  0  0  0  3  0  0  0  0  0  0
   20.1350   80.0820   11.0920 C   0  0  0  0  0  3  0  0  0  0  0  0
  1  2  1  0  0  0  0
  1 11  1  0  0  0  0
  3  2  2  0  0  0  0
  4  2  1  6  0  0  0
  4  5  1  0  0  0  0
  5 11  1  6  0  0  0
  5  6  1  0  0  0  0
  6 10  1  6  0  0  0
  6  7  1  0  0  0  0
  8  9  1  6  0  0  0
  8  4  1  0  0  0  0
  8  7  1  0  0  0  0
  9 10  1  0  0  0  0
 12 11  2  0  0  0  0
 13 16  1  0  0  0  0
 13  1  1  0  0  0  0
 14 13  1  0  0  0  0
 15 14  2  0  0  0  0
 17 14  1  0  0  0  0
 18 17  2  0  0  0  0
 19 18  1  0  0  0  0
 20 19  1  0  0  0  0
 21 19  2  0  0  0  0
 21 22  1  0  0  0  0
 22 23  2  0  0  0  0
 23 17  1  0  0  0  0
M  END
>  <Pose>
1

>  <Score>
-9.645

$$$$
