MODEL 1
REMARK VINA RESULT:    -9.607      0.000      0.000
REMARK INTER + INTRA:         -12.081
REMARK INTER:                 -11.292
REMARK INTRA:                  -0.789
REMARK UNBOUND:                -0.789
REMARK  3 active torsions:
REMARK  status: ('A' for Active; 'I' for Inactive)
REMARK    1  A    between atoms: C_4  and  C_8 
REMARK    2  A    between atoms: C_16  and  C_17 
REMARK    3  A    between atoms: C_17  and  N_18 
ROOT
ATOM      1  C   UNK d   1      19.262  75.100  13.841  0.00  0.00     0.053 C 
ATOM      2  C   UNK d   1      19.180  75.277  12.517  0.00  0.00     0.127 A 
ATOM      3  O   UNK d   1      19.407  76.412  11.857  0.00  0.00    -0.305 OA
ATOM      4  C   UNK d   1      19.253  76.199  10.464  0.00  0.00     0.101 A 
ATOM      5  C   UNK d   1      18.925  74.911  10.205  0.00  0.00     0.051 A 
ATOM      6  C   UNK d   1      18.811  74.519   8.873  0.00  0.00     0.021 A 
ATOM      7  C   UNK d   1      19.002  75.417   7.870  0.00  0.00     0.041 A 
ATOM      8  C   UNK d   1      19.305  76.731   8.168  0.00  0.00     0.118 A 
ATOM      9  C   UNK d   1      19.440  77.186   9.457  0.00  0.00     0.039 A 
ATOM     10  O   UNK d   1      19.482  77.618   7.104  0.00  0.00    -0.191 OA
ATOM     11  C   UNK d   1      18.849  74.245  11.526  0.00  0.00     0.218 A 
ATOM     12  O   UNK d   1      18.557  73.055  11.746  0.00  0.00    -0.284 OA
ENDROOT
BRANCH   1  13
ATOM     13  C   UNK d   1      19.650  76.236  14.720  0.00  0.00    -0.032 A 
ATOM     14  C   UNK d   1      20.891  76.860  14.520  0.00  0.00     0.030 A 
ATOM     15  C   UNK d   1      21.475  77.668  15.504  0.00  0.00     0.011 A 
ATOM     16 Br   UNK d   1      23.178  78.441  15.124  0.00  0.00    -0.051 Br
ATOM     17  C   UNK d   1      20.856  77.878  16.682  0.00  0.00     0.019 A 
ATOM     18  C   UNK d   1      19.597  77.269  16.924  0.00  0.00     0.002 A 
ATOM     19  C   UNK d   1      19.030  76.460  15.916  0.00  0.00     0.011 A 
ENDBRANCH   1  13
BRANCH   9  20
ATOM     20  C   UNK d   1      19.291  78.541   9.948  0.00  0.00     0.279 C 
BRANCH  20  21
ATOM     21  N   UNK d   1      19.965  79.518  10.586  0.00  0.00    -0.063 N 
ATOM     22  C   UNK d   1      20.745  79.396  11.738  0.00  0.00     0.261 C 
ATOM     23  C   UNK d   1      22.254  79.219  11.458  0.00  0.00     0.195 C 
ATOM     24  O   UNK d   1      22.834  80.320  10.875  0.00  0.00    -0.388 OA
ATOM     25  C   UNK d   1      21.952  80.875   9.940  0.00  0.00     0.195 C 
ATOM     26  C   UNK d   1      20.961  79.945   9.471  0.00  0.00     0.261 C 
ATOM     27  H   UNK d   1      19.328  80.396  10.680  0.00  0.00     0.280 HD
ENDBRANCH  20  21
ENDBRANCH   9  20
TORSDOF 3
ENDMDL
