MODEL 1
REMARK VINA RESULT:   -10.726      0.000      0.000
REMARK INTER + INTRA:         -15.781
REMARK INTER:                 -14.802
REMARK INTRA:                  -0.979
REMARK UNBOUND:                -0.979
REMARK  7 active torsions:
REMARK  status: ('A' for Active; 'I' for Inactive)
REMARK    1  A    between atoms: C_4  and  C_8 
REMARK    2  A    between atoms: N_9  and  N_10 
REMARK       I    between atoms: N_10  and  C_11 
REMARK    3  A    between atoms: C_11  and  C_13 
REMARK    4  A    between atoms: N_16  and  C_26 
REMARK    5  A    between atoms: C_17  and  C_18 
REMARK    6  A    between atoms: C_18  and  N_19 
REMARK    7  A    between atoms: C_30  and  N_31 
ROOT
ATOM      1  C   UNK d   1      19.457  78.904  18.671  0.00  0.00     0.169 A 
ATOM      2  N   UNK d   1      18.815  79.227  19.741  0.00  0.00    -0.152 NA
ATOM      3  N   UNK d   1      18.837  80.547  19.902  0.00  0.00     0.012 NA
ATOM      4  N   UNK d   1      19.541  81.098  18.879  0.00  0.00    -0.215 N 
ATOM      5  C   UNK d   1      19.917  80.149  18.087  0.00  0.00     0.087 A 
ENDROOT
BRANCH   1   6
ATOM      6  C   UNK d   1      19.896  77.552  18.128  0.00  0.00     0.293 C 
ATOM      7  N   UNK d   1      19.353  77.210  16.923  0.00  0.00    -0.242 N 
ATOM      8  H   UNK d   1      18.749  78.224  16.598  0.00  0.00     0.192 HD
ATOM      9  O   UNK d   1      20.711  76.904  18.821  0.00  0.00    -0.264 OA
BRANCH   7  10
ATOM     10  N   UNK d   1      19.154  76.426  15.886  0.00  0.00    -0.183 NA
ATOM     11  C   UNK d   1      20.020  76.046  14.989  0.00  0.00     0.150 C 
BRANCH  11  12
ATOM     12  C   UNK d   1      19.661  75.174  13.854  0.00  0.00    -0.016 A 
ATOM     13  C   UNK d   1      19.519  73.801  13.921  0.00  0.00     0.032 A 
ATOM     14  C   UNK d   1      19.042  73.109  12.808  0.00  0.00     0.011 A 
ATOM     15 Br   UNK d   1      18.776  71.210  12.844  0.00  0.00    -0.051 Br
ATOM     16  C   UNK d   1      18.692  73.728  11.614  0.00  0.00     0.019 A 
ATOM     17  C   UNK d   1      18.866  75.087  11.604  0.00  0.00     0.002 A 
ATOM     18  C   UNK d   1      19.326  75.805  12.670  0.00  0.00     0.013 A 
ENDBRANCH  11  12
ENDBRANCH   7  10
ENDBRANCH   1   6
BRANCH   5  19
ATOM     19  C   UNK d   1      20.627  80.067  16.814  0.00  0.00     0.178 C 
BRANCH  19  20
ATOM     20  N   UNK d   1      22.001  79.873  16.713  0.00  0.00    -0.404 N 
ATOM     21  C   UNK d   1      22.842  78.833  16.820  0.00  0.00     0.136 C 
ATOM     22  C   UNK d   1      23.380  78.490  15.404  0.00  0.00     0.135 C 
ATOM     23  N   UNK d   1      22.420  78.949  14.466  0.00  0.00    -0.414 N 
ATOM     24  C   UNK d   1      22.404  80.380  14.404  0.00  0.00     0.135 C 
ATOM     25  C   UNK d   1      22.247  78.264  13.255  0.00  0.00     0.143 C 
ATOM     26  C   UNK d   1      22.614  80.908  15.829  0.00  0.00     0.136 C 
ENDBRANCH  19  20
ENDBRANCH   5  19
BRANCH   4  27
ATOM     27  C   UNK d   1      20.085  82.429  19.103  0.00  0.00     0.225 A 
ATOM     28  N   UNK d   1      20.382  83.141  17.883  0.00  0.00    -0.081 NA
ATOM     29  O   UNK d   1      20.850  84.271  18.126  0.00  0.00    -0.103 OA
ATOM     30  N   UNK d   1      20.923  84.435  19.411  0.00  0.00    -0.083 NA
ATOM     31  C   UNK d   1      20.438  83.272  20.010  0.00  0.00     0.201 A 
BRANCH  31  32
ATOM     32  N   UNK d   1      20.399  83.185  21.416  0.00  0.00    -0.379 N 
ATOM     33  H   UNK d   1      19.393  83.228  21.807  0.00  0.00     0.158 HD
ATOM     34  H   UNK d   1      21.119  83.093  22.106  0.00  0.00     0.158 HD
ENDBRANCH  31  32
ENDBRANCH   4  27
TORSDOF 7
ENDMDL
