MODEL 1
REMARK VINA RESULT:    -9.979      0.000      0.000
REMARK INTER + INTRA:         -13.702
REMARK INTER:                 -12.896
REMARK INTRA:                  -0.806
REMARK UNBOUND:                -0.806
REMARK  5 active torsions:
REMARK  status: ('A' for Active; 'I' for Inactive)
REMARK    1  A    between atoms: C_4  and  C_8 
REMARK    2  A    between atoms: N_9  and  N_10 
REMARK    3  A    between atoms: N_10  and  C_11 
REMARK    4  A    between atoms: C_13  and  N_23 
REMARK    5  A    between atoms: C_15  and  N_17 
ROOT
ATOM      1  C   UNK d   1      20.771  76.760  14.324  0.00  0.00     0.774 A 
ATOM      2  N   UNK d   1      20.166  75.568  14.308  0.00  0.00     0.133 NA
ATOM      3  C   UNK d   1      19.462  75.107  13.237  0.00  0.00     0.756 A 
ATOM      4  N   UNK d   1      19.408  75.938  12.173  0.00  0.00     0.131 NA
ATOM      5  C   UNK d   1      19.994  77.147  12.130  0.00  0.00     0.756 A 
ATOM      6  N   UNK d   1      20.675  77.526  13.239  0.00  0.00     0.133 NA
ENDROOT
BRANCH   1   7
ATOM      7  N   UNK d   1      21.492  77.179  15.477  0.00  0.00    -0.105 N 
ATOM      8  H   UNK d   1      22.498  76.936  15.587  0.00  0.00     0.208 HD
BRANCH   7   9
ATOM      9  N   UNK d   1      20.880  77.921  16.490  0.00  0.00    -0.172 NA
ATOM     10  C   UNK d   1      21.053  79.169  16.686  0.00  0.00     0.150 C 
BRANCH  10  11
ATOM     11  C   UNK d   1      20.402  79.917  17.753  0.00  0.00    -0.016 A 
ATOM     12  C   UNK d   1      20.583  81.280  17.911  0.00  0.00     0.032 A 
ATOM     13  C   UNK d   1      19.984  82.013  18.907  0.00  0.00     0.011 A 
ATOM     14 Br   UNK d   1      20.277  83.899  19.069  0.00  0.00    -0.051 Br
ATOM     15  C   UNK d   1      19.157  81.365  19.801  0.00  0.00     0.019 A 
ATOM     16  C   UNK d   1      18.945  80.007  19.686  0.00  0.00     0.002 A 
ATOM     17  C   UNK d   1      19.571  79.299  18.662  0.00  0.00     0.013 A 
ENDBRANCH  10  11
ENDBRANCH   7   9
ENDBRANCH   1   7
BRANCH   3  18
ATOM     18  N   UNK d   1      18.831  73.844  13.243  0.00  0.00    -0.209 N 
ATOM     19  C   UNK d   1      17.453  73.710  12.861  0.00  0.00     0.167 C 
ATOM     20  C   UNK d   1      17.398  72.653  11.764  0.00  0.00     0.188 C 
ATOM     21  O   UNK d   1      17.904  71.483  12.325  0.00  0.00    -0.388 OA
ATOM     22  C   UNK d   1      19.257  71.573  12.599  0.00  0.00     0.188 C 
ATOM     23  C   UNK d   1      19.547  72.660  13.630  0.00  0.00     0.167 C 
ENDBRANCH   3  18
BRANCH   5  24
ATOM     24  N   UNK d   1      19.922  77.993  11.010  0.00  0.00    -0.209 N 
ATOM     25  C   UNK d   1      19.253  77.602   9.799  0.00  0.00     0.167 C 
ATOM     26  C   UNK d   1      18.559  78.867   9.277  0.00  0.00     0.188 C 
ATOM     27  O   UNK d   1      18.277  79.733  10.331  0.00  0.00    -0.388 OA
ATOM     28  C   UNK d   1      19.386  80.306  10.899  0.00  0.00     0.188 C 
ATOM     29  C   UNK d   1      20.529  79.293  11.052  0.00  0.00     0.167 C 
ENDBRANCH   5  24
TORSDOF 5
ENDMDL
