MODEL 1
REMARK VINA RESULT:   -10.721      0.000      0.000
REMARK INTER + INTRA:         -13.957
REMARK INTER:                 -15.109
REMARK INTRA:                   1.152
REMARK UNBOUND:                 1.152
REMARK  7 active torsions:
REMARK  status: ('A' for Active; 'I' for Inactive)
REMARK    1  A    between atoms: C_4  and  C_8 
REMARK    2  A    between atoms: N_9  and  C_26 
REMARK    3  A    between atoms: C_15  and  C_17 
REMARK    4  A    between atoms: C_20  and  O_23 
REMARK    5  A    between atoms: C_26  and  C_27 
REMARK    6  A    between atoms: C_27  and  C_28 
REMARK    7  A    between atoms: C_28  and  N_29 
ROOT
ATOM      1  C   UNK d   1      22.015  78.966  15.565  0.00  0.00     0.161 C 
ATOM      2  N   UNK d   1      21.183  77.799  15.348  0.00  0.00    -0.332 N 
ATOM      3  C   UNK d   1      20.635  77.342  16.565  0.00  0.00     0.295 C 
ATOM      4  O   UNK d   1      20.131  76.233  16.880  0.00  0.00    -0.264 OA
ATOM      5  C   UNK d   1      20.754  78.480  17.510  0.00  0.00     0.250 C 
ATOM      6  O   UNK d   1      20.363  78.437  18.694  0.00  0.00    -0.282 OA
ATOM      7  C   UNK d   1      21.383  79.571  16.788  0.00  0.00     0.062 C 
ATOM      8  C   UNK d   1      21.349  80.834  17.125  0.00  0.00     0.130 C 
ATOM      9  O   UNK d   1      21.948  81.786  16.282  0.00  0.00    -0.190 OA
ENDROOT
BRANCH   1  10
ATOM     10  C   UNK d   1      23.433  78.634  15.789  0.00  0.00    -0.029 A 
ATOM     11  C   UNK d   1      23.987  77.456  15.343  0.00  0.00     0.028 A 
ATOM     12  C   UNK d   1      25.328  77.162  15.565  0.00  0.00     0.011 A 
ATOM     13 Br   UNK d   1      26.074  75.524  14.941  0.00  0.00    -0.051 Br
ATOM     14  C   UNK d   1      26.129  78.065  16.246  0.00  0.00     0.019 A 
ATOM     15  C   UNK d   1      25.564  79.243  16.688  0.00  0.00     0.002 A 
ATOM     16  C   UNK d   1      24.233  79.529  16.464  0.00  0.00     0.009 A 
ENDBRANCH   1  10
BRANCH   8  17
ATOM     17  C   UNK d   1      20.722  81.292  18.336  0.00  0.00     0.002 A 
ATOM     18  C   UNK d   1      20.295  82.628  18.360  0.00  0.00     0.024 A 
ATOM     19  C   UNK d   1      19.726  83.160  19.484  0.00  0.00    -0.028 A 
ATOM     20  C   UNK d   1      19.547  82.412  20.641  0.00  0.00     0.074 A 
ATOM     21  C   UNK d   1      19.276  84.588  19.492  0.00  0.00     0.051 C 
ATOM     22  C   UNK d   1      19.969  81.120  20.596  0.00  0.00     0.038 A 
ATOM     23  C   UNK d   1      20.546  80.567  19.470  0.00  0.00     0.017 A 
BRANCH  20  24
ATOM     24  O   UNK d   1      18.965  83.022  21.733  0.00  0.00    -0.355 OA
ATOM     25  C   UNK d   1      19.728  83.327  22.890  0.00  0.00     0.210 C 
ENDBRANCH  20  24
ENDBRANCH   8  17
BRANCH   2  26
ATOM     26  C   UNK d   1      20.918  77.158  14.049  0.00  0.00     0.129 C 
BRANCH  26  27
ATOM     27  C   UNK d   1      21.263  78.105  12.933  0.00  0.00     0.048 C 
BRANCH  27  28
ATOM     28  C   UNK d   1      20.409  77.985  11.717  0.00  0.00     0.236 C 
BRANCH  28  29
ATOM     29  N   UNK d   1      21.024  78.517  10.520  0.00  0.00    -0.067 N 
ATOM     30  C   UNK d   1      20.484  79.815  10.168  0.00  0.00     0.261 C 
ATOM     31  C   UNK d   1      21.542  80.880  10.267  0.00  0.00     0.195 C 
ATOM     32  O   UNK d   1      22.562  80.555   9.349  0.00  0.00    -0.388 OA
ATOM     33  C   UNK d   1      23.181  79.360   9.708  0.00  0.00     0.195 C 
ATOM     34  C   UNK d   1      22.463  78.606  10.782  0.00  0.00     0.261 C 
ATOM     35  H   UNK d   1      20.938  77.886   9.696  0.00  0.00     0.280 HD
ENDBRANCH  28  29
ENDBRANCH  27  28
ENDBRANCH  26  27
ENDBRANCH   2  26
TORSDOF 7
ENDMDL
