/Users/jonathanwahrer/Desktop/Msc/3_Semester/Drug_Design_Praktikum/waehrer_HTS_screening/HTS_experiment/out/docking_results/vina_output/6e43/0170_docked.pdbqt
 OpenBabel03212219423D

 35 38  0  0  1  0  0  0  0  0999 V2000
   22.0150   78.9660   15.5650 C   0  0  1  0  0  3  0  0  0  0  0  0
   21.1830   77.7990   15.3480 N   0  0  0  0  0  0  0  0  0  0  0  0
   20.6350   77.3420   16.5650 C   0  0  0  0  0  0  0  0  0  0  0  0
   20.1310   76.2330   16.8800 O   0  0  0  0  0  0  0  0  0  0  0  0
   20.7540   78.4800   17.5100 C   0  0  0  0  0  0  0  0  0  0  0  0
   20.3630   78.4370   18.6940 O   0  0  0  0  0  0  0  0  0  0  0  0
   21.3830   79.5710   16.7880 C   0  0  0  0  0  0  0  0  0  0  0  0
   21.3490   80.8340   17.1250 C   0  0  0  0  0  0  0  0  0  0  0  0
   21.9480   81.7860   16.2820 O   0  0  0  0  0  1  0  0  0  0  0  0
   23.4330   78.6340   15.7890 C   0  0  0  0  0  0  0  0  0  0  0  0
   23.9870   77.4560   15.3430 C   0  0  0  0  0  3  0  0  0  0  0  0
   25.3280   77.1620   15.5650 C   0  0  0  0  0  0  0  0  0  0  0  0
   26.0740   75.5240   14.9410 Br  0  0  0  0  0  0  0  0  0  0  0  0
   26.1290   78.0650   16.2460 C   0  0  0  0  0  3  0  0  0  0  0  0
   25.5640   79.2430   16.6880 C   0  0  0  0  0  3  0  0  0  0  0  0
   24.2330   79.5290   16.4640 C   0  0  0  0  0  3  0  0  0  0  0  0
   20.7220   81.2920   18.3360 C   0  0  0  0  0  0  0  0  0  0  0  0
   20.2950   82.6280   18.3600 C   0  0  0  0  0  3  0  0  0  0  0  0
   19.7260   83.1600   19.4840 C   0  0  0  0  0  0  0  0  0  0  0  0
   19.5470   82.4120   20.6410 C   0  0  0  0  0  0  0  0  0  0  0  0
   19.2760   84.5880   19.4920 C   0  0  0  0  0  1  0  0  0  0  0  0
   19.9690   81.1200   20.5960 C   0  0  0  0  0  3  0  0  0  0  0  0
   20.5460   80.5670   19.4700 C   0  0  0  0  0  3  0  0  0  0  0  0
   18.9650   83.0220   21.7330 O   0  0  0  0  0  0  0  0  0  0  0  0
   19.7280   83.3270   22.8900 C   0  0  0  0  0  1  0  0  0  0  0  0
   20.9180   77.1580   14.0490 C   0  0  0  0  0  2  0  0  0  0  0  0
   21.2630   78.1050   12.9330 C   0  0  0  0  0  2  0  0  0  0  0  0
   20.4090   77.9850   11.7170 C   0  0  0  0  0  2  0  0  0  0  0  0
   21.0240   78.5170   10.5200 N   0  0  0  0  0  4  0  0  0  0  0  0
   20.4840   79.8150   10.1680 C   0  0  0  0  0  2  0  0  0  0  0  0
   21.5420   80.8800   10.2670 C   0  0  0  0  0  2  0  0  0  0  0  0
   22.5620   80.5550    9.3490 O   0  0  0  0  0  0  0  0  0  0  0  0
   23.1810   79.3600    9.7080 C   0  0  0  0  0  2  0  0  0  0  0  0
   22.4630   78.6060   10.7820 C   0  0  0  0  0  2  0  0  0  0  0  0
   20.9380   77.8860    9.6960 H   0  0  0  0  0  0  0  0  0  0  0  0
  1 10  1  1  0  0  0
  1  7  1  0  0  0  0
  2  1  1  0  0  0  0
  2  3  1  0  0  0  0
  3  4  2  0  0  0  0
  3  5  1  0  0  0  0
  5  6  2  0  0  0  0
  7  8  2  0  0  0  0
  7  5  1  0  0  0  0
  8 17  1  0  0  0  0
  9  8  1  0  0  0  0
 10 16  1  0  0  0  0
 11 12  1  0  0  0  0
 11 10  2  0  0  0  0
 12 14  2  0  0  0  0
 13 12  1  0  0  0  0
 14 15  1  0  0  0  0
 16 15  2  0  0  0  0
 17 18  2  0  0  0  0
 17 23  1  0  0  0  0
 18 19  1  0  0  0  0
 19 21  1  0  0  0  0
 19 20  2  0  0  0  0
 20 24  1  0  0  0  0
 22 20  1  0  0  0  0
 23 22  2  0  0  0  0
 24 25  1  0  0  0  0
 26  2  1  0  0  0  0
 27 26  1  0  0  0  0
 28 27  1  0  0  0  0
 29 34  1  0  0  0  0
 29 28  1  0  0  0  0
 30 31  1  0  0  0  0
 30 29  1  0  0  0  0
 32 33  1  0  0  0  0
 32 31  1  0  0  0  0
 33 34  1  0  0  0  0
 35 29  1  0  0  0  0
M  END
>  <Pose>
1

>  <Score>
-10.721

$$$$
