MODEL 1
REMARK VINA RESULT:    -7.182      0.000      0.000
REMARK INTER + INTRA:         -10.279
REMARK INTER:                  -9.282
REMARK INTRA:                  -0.997
REMARK UNBOUND:                -0.997
REMARK  5 active torsions:
REMARK  status: ('A' for Active; 'I' for Inactive)
REMARK    1  A    between atoms: C_4  and  C_8 
REMARK    2  A    between atoms: N_9  and  C_28 
REMARK    3  A    between atoms: C_15  and  C_17 
REMARK    4  A    between atoms: C_28  and  C_29 
REMARK    5  A    between atoms: C_29  and  N_30 
ROOT
ATOM      1  C   UNK d   1      21.471  77.558  13.111  0.00  0.00     0.161 C 
ATOM      2  N   UNK d   1      20.277  76.790  13.048  0.00  0.00    -0.331 N 
ATOM      3  C   UNK d   1      20.284  76.051  14.313  0.00  0.00     0.295 C 
ATOM      4  O   UNK d   1      19.750  74.949  14.522  0.00  0.00    -0.264 OA
ATOM      5  C   UNK d   1      21.043  76.876  15.267  0.00  0.00     0.251 C 
ATOM      6  O   UNK d   1      21.295  76.634  16.470  0.00  0.00    -0.282 OA
ATOM      7  C   UNK d   1      21.451  78.061  14.516  0.00  0.00     0.064 C 
ATOM      8  C   UNK d   1      21.682  79.255  14.997  0.00  0.00     0.149 C 
ATOM      9  O   UNK d   1      22.003  80.269  14.069  0.00  0.00    -0.189 OA
ENDROOT
BRANCH   1  10
ATOM     10  C   UNK d   1      21.794  78.507  12.088  0.00  0.00    -0.029 A 
ATOM     11  C   UNK d   1      20.821  79.443  11.684  0.00  0.00     0.028 A 
ATOM     12  C   UNK d   1      21.039  80.377  10.705  0.00  0.00     0.011 A 
ATOM     13 Br   UNK d   1      19.668  81.620  10.209  0.00  0.00    -0.051 Br
ATOM     14  C   UNK d   1      22.240  80.451  10.054  0.00  0.00     0.019 A 
ATOM     15  C   UNK d   1      23.223  79.556  10.413  0.00  0.00     0.002 A 
ATOM     16  C   UNK d   1      22.981  78.625  11.400  0.00  0.00     0.009 A 
ENDBRANCH   1  10
BRANCH   8  17
ATOM     17  C   UNK d   1      21.630  79.562  16.418  0.00  0.00     0.102 A 
ATOM     18  N   UNK d   1      20.606  79.850  17.234  0.00  0.00    -0.302 N 
ATOM     19  C   UNK d   1      21.066  80.106  18.462  0.00  0.00     0.140 A 
ATOM     20  C   UNK d   1      19.277  79.878  16.933  0.00  0.00     0.099 A 
ATOM     21  N   UNK d   1      22.418  79.974  18.421  0.00  0.00    -0.233 NA
ATOM     22  C   UNK d   1      20.210  80.421  19.514  0.00  0.00    -0.015 A 
ATOM     23  C   UNK d   1      22.805  79.639  17.183  0.00  0.00     0.063 A 
ATOM     24  C   UNK d   1      24.198  79.400  16.711  0.00  0.00     0.073 C 
ATOM     25  C   UNK d   1      18.857  80.456  19.237  0.00  0.00     0.012 A 
ATOM     26  C   UNK d   1      20.778  80.697  20.857  0.00  0.00     0.052 C 
ATOM     27  C   UNK d   1      18.413  80.185  17.956  0.00  0.00     0.018 A 
ENDBRANCH   8  17
BRANCH   2  28
ATOM     28  C   UNK d   1      19.233  76.608  12.055  0.00  0.00     0.155 C 
BRANCH  28  29
ATOM     29  C   UNK d   1      19.673  75.978  10.778  0.00  0.00     0.255 C 
BRANCH  29  30
ATOM     30  N   UNK d   1      18.742  76.199   9.689  0.00  0.00    -0.066 N 
ATOM     31  C   UNK d   1      18.881  77.527   9.134  0.00  0.00     0.261 C 
ATOM     32  C   UNK d   1      20.177  77.612   8.322  0.00  0.00     0.195 C 
ATOM     33  O   UNK d   1      20.001  76.747   7.236  0.00  0.00    -0.388 OA
ATOM     34  C   UNK d   1      20.050  75.445   7.777  0.00  0.00     0.195 C 
ATOM     35  C   UNK d   1      18.863  75.175   8.670  0.00  0.00     0.261 C 
ATOM     36  H   UNK d   1      17.763  76.134  10.061  0.00  0.00     0.280 HD
ENDBRANCH  29  30
ENDBRANCH  28  29
ENDBRANCH   2  28
TORSDOF 5
ENDMDL
