/Users/jonathanwahrer/Desktop/Msc/3_Semester/Drug_Design_Praktikum/waehrer_HTS_screening/HTS_experiment/out/docking_results/vina_output/6e43/0188_docked.pdbqt
 OpenBabel03212219443D

 31 34  0  0  1  0  0  0  0  0999 V2000
   21.1410   78.8050   15.8740 C   0  0  2  0  0  3  0  0  0  0  0  0
   20.3180   79.1420   17.0250 N   0  0  0  0  0  0  0  0  0  0  0  0
   20.1790   77.8760   17.7110 C   0  0  0  0  0  0  0  0  0  0  0  0
   19.9420   77.7090   18.9270 O   0  0  0  0  0  0  0  0  0  0  0  0
   20.3650   76.7990   16.7480 C   0  0  0  0  0  0  0  0  0  0  0  0
   20.3380   75.5490   16.8870 O   0  0  0  0  0  0  0  0  0  0  0  0
   20.6170   77.4520   15.4630 C   0  0  0  0  0  0  0  0  0  0  0  0
   20.4610   76.9920   14.2550 C   0  0  0  0  0  0  0  0  0  0  0  0
   20.8190   77.8290   13.1760 O   0  0  0  0  0  1  0  0  0  0  0  0
   19.7560   80.3930   17.4630 C   0  0  0  0  0  2  0  0  0  0  0  0
   20.4560   80.9930   18.6600 C   0  0  0  0  0  2  0  0  0  0  0  0
   19.4540   81.5080   19.6150 C   0  0  0  0  0  2  0  0  0  0  0  0
   19.9030   82.6020   20.4460 N   0  0  0  0  0  4  0  0  0  0  0  0
   20.7140   83.5520   19.7210 C   0  0  0  0  0  2  0  0  0  0  0  0
   19.9790   84.7360   19.2030 C   0  0  0  0  0  2  0  0  0  0  0  0
   19.0480   85.2810   20.0620 O   0  0  0  0  0  0  0  0  0  0  0  0
   18.1750   84.3470   20.6040 C   0  0  0  0  0  2  0  0  0  0  0  0
   18.9050   83.2050   21.2620 C   0  0  0  0  0  2  0  0  0  0  0  0
   20.5880   82.1400   21.1250 H   0  0  0  0  0  0  0  0  0  0  0  0
   22.5640   78.5880   16.2710 C   0  0  0  0  0  0  0  0  0  0  0  0
   23.3150   77.6020   15.6700 C   0  0  0  0  0  3  0  0  0  0  0  0
   24.6390   77.3580   16.0000 C   0  0  0  0  0  0  0  0  0  0  0  0
   25.6480   75.9750   15.1350 Br  0  0  0  0  0  0  0  0  0  0  0  0
   25.2480   78.1260   16.9710 C   0  0  0  0  0  3  0  0  0  0  0  0
   24.5130   79.1210   17.5870 C   0  0  0  0  0  3  0  0  0  0  0  0
   23.1790   79.3540   17.2420 C   0  0  0  0  0  3  0  0  0  0  0  0
   19.9330   75.6590   14.0310 C   0  0  0  0  0  0  0  0  0  0  0  0
   20.6440   74.5720   14.1670 O   0  0  0  0  0  0  0  0  0  0  0  0
   19.9360   73.5080   13.9040 C   0  0  0  0  0  3  0  0  0  0  0  0
   18.6760   73.9080   13.5740 C   0  0  0  0  0  3  0  0  0  0  0  0
   18.6670   75.3050   13.6530 C   0  0  0  0  0  3  0  0  0  0  0  0
  1 20  1  1  0  0  0
  1  2  1  0  0  0  0
  2 10  1  0  0  0  0
  2  3  1  0  0  0  0
  3  4  2  0  0  0  0
  5  6  2  0  0  0  0
  5  3  1  0  0  0  0
  7  1  1  0  0  0  0
  7  5  1  0  0  0  0
  8  7  2  0  0  0  0
  9  8  1  0  0  0  0
 10 11  1  0  0  0  0
 11 12  1  0  0  0  0
 12 13  1  0  0  0  0
 13 19  1  0  0  0  0
 13 18  1  0  0  0  0
 14 13  1  0  0  0  0
 15 14  1  0  0  0  0
 15 16  1  0  0  0  0
 16 17  1  0  0  0  0
 17 18  1  0  0  0  0
 20 26  1  0  0  0  0
 21 22  1  0  0  0  0
 21 20  2  0  0  0  0
 22 24  2  0  0  0  0
 23 22  1  0  0  0  0
 24 25  1  0  0  0  0
 26 25  2  0  0  0  0
 27 28  1  0  0  0  0
 27  8  1  0  0  0  0
 29 28  1  0  0  0  0
 30 31  1  0  0  0  0
 30 29  2  0  0  0  0
 31 27  2  0  0  0  0
M  END
>  <Pose>
1

>  <Score>
-9.863

$$$$
