MODEL 1
REMARK VINA RESULT:    -9.852      0.000      0.000
REMARK INTER + INTRA:         -14.358
REMARK INTER:                 -13.884
REMARK INTRA:                  -0.474
REMARK UNBOUND:                -0.474
REMARK  7 active torsions:
REMARK  status: ('A' for Active; 'I' for Inactive)
REMARK    1  A    between atoms: C_4  and  C_8 
REMARK    2  A    between atoms: N_9  and  C_28 
REMARK    3  A    between atoms: C_15  and  C_17 
REMARK    4  A    between atoms: C_25  and  O_26 
REMARK    5  A    between atoms: C_28  and  C_29 
REMARK    6  A    between atoms: C_29  and  C_30 
REMARK    7  A    between atoms: C_30  and  N_31 
ROOT
ATOM      1  C   UNK d   1      22.731  79.718  15.906  0.00  0.00     0.161 C 
ATOM      2  N   UNK d   1      21.695  79.234  16.797  0.00  0.00    -0.332 N 
ATOM      3  C   UNK d   1      21.178  78.035  16.180  0.00  0.00     0.295 C 
ATOM      4  O   UNK d   1      20.578  77.109  16.778  0.00  0.00    -0.264 OA
ATOM      5  C   UNK d   1      21.494  78.129  14.752  0.00  0.00     0.251 C 
ATOM      6  O   UNK d   1      21.230  77.306  13.837  0.00  0.00    -0.282 OA
ATOM      7  C   UNK d   1      22.199  79.386  14.532  0.00  0.00     0.064 C 
ATOM      8  C   UNK d   1      22.339  80.048  13.396  0.00  0.00     0.153 C 
ATOM      9  O   UNK d   1      23.060  81.215  13.383  0.00  0.00    -0.188 OA
ENDROOT
BRANCH   1  10
ATOM     10  C   UNK d   1      24.049  79.072  16.128  0.00  0.00    -0.029 A 
ATOM     11  C   UNK d   1      24.360  77.836  15.557  0.00  0.00     0.028 A 
ATOM     12  C   UNK d   1      25.556  77.205  15.737  0.00  0.00     0.011 A 
ATOM     13 Br   UNK d   1      25.894  75.502  14.907  0.00  0.00    -0.051 Br
ATOM     14  C   UNK d   1      26.521  77.784  16.508  0.00  0.00     0.019 A 
ATOM     15  C   UNK d   1      26.271  78.993  17.091  0.00  0.00     0.002 A 
ATOM     16  C   UNK d   1      25.046  79.627  16.900  0.00  0.00     0.009 A 
ENDBRANCH   1  10
BRANCH   8  17
ATOM     17  C   UNK d   1      21.733  79.560  12.143  0.00  0.00     0.114 A 
ATOM     18  O   UNK d   1      20.500  79.765  11.767  0.00  0.00    -0.304 OA
ATOM     19  C   UNK d   1      20.211  79.233  10.627  0.00  0.00     0.119 A 
ATOM     20  C   UNK d   1      21.350  78.607  10.182  0.00  0.00     0.003 A 
ATOM     21  C   UNK d   1      19.026  79.229   9.902  0.00  0.00     0.102 A 
ATOM     22  C   UNK d   1      22.314  78.815  11.145  0.00  0.00     0.054 A 
ATOM     23  C   UNK d   1      21.303  77.953   8.970  0.00  0.00     0.014 A 
ATOM     24  C   UNK d   1      20.152  77.916   8.209  0.00  0.00     0.004 A 
ATOM     25  C   UNK d   1      19.017  78.568   8.700  0.00  0.00     0.040 A 
BRANCH  21  26
ATOM     26  O   UNK d   1      17.891  79.857  10.347  0.00  0.00    -0.353 OA
ATOM     27  C   UNK d   1      17.812  81.104  10.960  0.00  0.00     0.210 C 
ENDBRANCH  21  26
ENDBRANCH   8  17
BRANCH   2  28
ATOM     28  C   UNK d   1      21.260  79.789  18.056  0.00  0.00     0.129 C 
BRANCH  28  29
ATOM     29  C   UNK d   1      20.380  80.999  17.853  0.00  0.00     0.048 C 
BRANCH  29  30
ATOM     30  C   UNK d   1      19.484  81.326  18.992  0.00  0.00     0.235 C 
BRANCH  30  31
ATOM     31  N   UNK d   1      19.726  82.593  19.609  0.00  0.00    -0.079 N 
ATOM     32  C   UNK d   1      20.344  83.521  18.659  0.00  0.00     0.269 C 
ATOM     33  C   UNK d   1      20.543  82.494  20.780  0.00  0.00     0.269 C 
ATOM     34  H   UNK d   1      18.829  83.080  19.895  0.00  0.00     0.278 HD
ENDBRANCH  30  31
ENDBRANCH  29  30
ENDBRANCH  28  29
ENDBRANCH   2  28
TORSDOF 7
ENDMDL
