/Users/jonathanwahrer/Desktop/Msc/3_Semester/Drug_Design_Praktikum/waehrer_HTS_screening/HTS_experiment/out/docking_results/vina_output/6e43/0200_docked.pdbqt
 OpenBabel03212219443D

 21 24  0  0  1  0  0  0  0  0999 V2000
   21.0220   79.0950   18.1520 C   0  0  1  0  0  3  0  0  0  0  0  0
   22.3350   79.2970   18.1440 N   0  0  0  0  0  0  0  0  0  0  0  0
   23.2140   78.6450   17.3650 C   0  0  0  0  0  0  0  0  0  0  0  0
   24.5450   78.6640   17.1720 N   0  0  0  0  0  2  0  0  0  0  0  0
   24.9020   77.8030   16.2720 O   0  0  0  0  0  0  0  0  0  0  0  0
   23.8380   77.2100   15.8590 N   0  0  0  0  0  0  0  0  0  0  0  0
   22.7470   77.6760   16.4880 C   0  0  0  0  0  0  0  0  0  0  0  0
   21.4280   77.4360   16.4610 N   0  0  0  0  0  0  0  0  0  0  0  0
   20.7480   76.5670   15.7170 N   0  0  0  0  0  0  0  0  0  0  0  0
   19.4530   76.6920   16.0460 N   0  0  0  0  0  0  0  0  0  0  0  0
   19.3570   77.6350   16.9850 N   0  0  0  0  0  0  0  0  0  0  0  0
   20.5770   78.1060   17.2530 C   0  0  0  0  0  0  0  0  0  0  0  0
   20.0600   79.7560   18.9530 N   0  0  0  0  0  0  0  0  0  0  0  0
   19.1680   79.2510   19.2220 H   0  0  0  0  0  0  0  0  0  0  0  0
   20.1900   81.0730   19.4410 C   0  0  0  0  0  0  0  0  0  0  0  0
   20.1670   82.2260   18.7040 C   0  0  0  0  0  3  0  0  0  0  0  0
   20.2980   83.5030   19.2240 C   0  0  0  0  0  0  0  0  0  0  0  0
   20.2520   85.0490   18.1080 Br  0  0  0  0  0  0  0  0  0  0  0  0
   20.4670   83.6480   20.5770 C   0  0  0  0  0  3  0  0  0  0  0  0
   20.4990   82.5270   21.3760 C   0  0  0  0  0  3  0  0  0  0  0  0
   20.3650   81.2760   20.8260 C   0  0  0  0  0  3  0  0  0  0  0  0
  1 13  1  1  0  0  0
  2  1  1  0  0  0  0
  3  2  2  0  0  0  0
  4  3  1  0  0  0  0
  5  4  1  0  0  0  0
  6  5  1  0  0  0  0
  6  7  2  0  0  0  0
  7  3  1  0  0  0  0
  8  7  1  0  0  0  0
  8 12  1  0  0  0  0
  9 10  2  0  0  0  0
  9  8  1  0  0  0  0
 10 11  1  0  0  0  0
 11 12  2  0  0  0  0
 12  1  1  0  0  0  0
 13 14  1  0  0  0  0
 13 15  1  0  0  0  0
 15 21  1  0  0  0  0
 16 17  1  0  0  0  0
 16 15  2  0  0  0  0
 17 19  2  0  0  0  0
 18 17  1  0  0  0  0
 19 20  1  0  0  0  0
 21 20  2  0  0  0  0
M  END
>  <Pose>
1

>  <Score>
-9.123

$$$$
