MODEL 1
REMARK VINA RESULT:    -9.123      0.000      0.000
REMARK INTER + INTRA:         -10.551
REMARK INTER:                 -10.189
REMARK INTRA:                  -0.361
REMARK UNBOUND:                -0.361
REMARK  2 active torsions:
REMARK  status: ('A' for Active; 'I' for Inactive)
REMARK    1  A    between atoms: C_4  and  N_8 
REMARK    2  A    between atoms: N_8  and  C_9 
ROOT
ATOM      1  C   UNK d   1      21.022  79.095  18.152  0.00  0.00     0.180 A 
ATOM      2  N   UNK d   1      22.335  79.297  18.144  0.00  0.00    -0.202 NA
ATOM      3  C   UNK d   1      23.214  78.645  17.365  0.00  0.00     0.231 A 
ATOM      4  N   UNK d   1      24.545  78.664  17.172  0.00  0.00    -0.081 NA
ATOM      5  O   UNK d   1      24.902  77.803  16.272  0.00  0.00    -0.103 OA
ATOM      6  N   UNK d   1      23.838  77.210  15.859  0.00  0.00    -0.081 NA
ATOM      7  C   UNK d   1      22.747  77.676  16.488  0.00  0.00     0.229 A 
ATOM      8  N   UNK d   1      21.428  77.436  16.461  0.00  0.00    -0.196 N 
ATOM      9  N   UNK d   1      20.748  76.567  15.717  0.00  0.00     0.004 NA
ATOM     10  N   UNK d   1      19.453  76.692  16.046  0.00  0.00     0.018 NA
ATOM     11  N   UNK d   1      19.357  77.635  16.985  0.00  0.00    -0.138 NA
ATOM     12  C   UNK d   1      20.577  78.106  17.253  0.00  0.00     0.212 A 
ENDROOT
BRANCH   1  13
ATOM     13  N   UNK d   1      20.060  79.756  18.953  0.00  0.00    -0.338 N 
ATOM     14  H   UNK d   1      19.168  79.251  19.222  0.00  0.00     0.167 HD
BRANCH  13  15
ATOM     15  C   UNK d   1      20.190  81.073  19.441  0.00  0.00     0.035 A 
ATOM     16  C   UNK d   1      20.167  82.226  18.704  0.00  0.00     0.048 A 
ATOM     17  C   UNK d   1      20.298  83.503  19.224  0.00  0.00     0.013 A 
ATOM     18 Br   UNK d   1      20.252  85.049  18.108  0.00  0.00    -0.051 Br
ATOM     19  C   UNK d   1      20.467  83.648  20.577  0.00  0.00     0.019 A 
ATOM     20  C   UNK d   1      20.499  82.527  21.376  0.00  0.00     0.004 A 
ATOM     21  C   UNK d   1      20.365  81.276  20.826  0.00  0.00     0.029 A 
ENDBRANCH  13  15
ENDBRANCH   1  13
TORSDOF 2
ENDMDL
