MODEL 1
REMARK VINA RESULT:   -10.484      0.000      0.000
REMARK INTER + INTRA:         -11.683
REMARK INTER:                 -11.710
REMARK INTRA:                   0.028
REMARK UNBOUND:                 0.028
REMARK  2 active torsions:
REMARK  status: ('A' for Active; 'I' for Inactive)
REMARK    1  A    between atoms: C_4  and  N_8 
REMARK    2  A    between atoms: C_14  and  C_18 
ROOT
ATOM      1  N   UNK d   1      19.765  81.067  18.593  0.00  0.00    -0.246 N 
ATOM      2  C   UNK d   1      19.014  79.878  18.911  0.00  0.00     0.268 C 
ATOM      3  O   UNK d   1      18.472  79.671  20.033  0.00  0.00    -0.269 OA
ATOM      4  C   UNK d   1      18.997  78.996  17.745  0.00  0.00     0.285 C 
ATOM      5  O   UNK d   1      19.047  77.647  17.958  0.00  0.00    -0.260 OA
ATOM      6  N   UNK d   1      19.785  77.204  16.863  0.00  0.00    -0.264 N 
ATOM      7  C   UNK d   1      20.810  78.137  16.621  0.00  0.00     0.083 C 
ATOM      8  C   UNK d   1      20.362  79.278  17.164  0.00  0.00     0.080 C 
ATOM      9  C   UNK d   1      20.607  80.677  17.494  0.00  0.00     0.266 C 
ATOM     10  O   UNK d   1      21.424  81.422  16.913  0.00  0.00    -0.267 OA
ATOM     11  H   UNK d   1      19.612  76.344  16.327  0.00  0.00     0.194 HD
ENDROOT
BRANCH   1  12
ATOM     12  C   UNK d   1      19.724  82.342  19.202  0.00  0.00     0.047 A 
ATOM     13  C   UNK d   1      19.393  82.508  20.545  0.00  0.00     0.049 A 
ATOM     14  C   UNK d   1      19.341  83.725  21.175  0.00  0.00     0.013 A 
ATOM     15 Br   UNK d   1      18.880  83.914  23.016  0.00  0.00    -0.051 Br
ATOM     16  C   UNK d   1      19.627  84.880  20.476  0.00  0.00     0.019 A 
ATOM     17  C   UNK d   1      19.961  84.734  19.133  0.00  0.00     0.004 A 
ATOM     18  C   UNK d   1      20.008  83.510  18.512  0.00  0.00     0.030 A 
ENDBRANCH   1  12
BRANCH   7  19
ATOM     19  C   UNK d   1      22.062  77.965  15.900  0.00  0.00     0.036 A 
ATOM     20  C   UNK d   1      23.331  78.159  16.454  0.00  0.00     0.040 A 
ATOM     21  N   UNK d   1      24.233  77.890  15.532  0.00  0.00    -0.278 N 
ATOM     22  C   UNK d   1      23.621  78.616  17.833  0.00  0.00     0.071 C 
ATOM     23  N   UNK d   1      23.601  77.535  14.416  0.00  0.00    -0.184 NA
ATOM     24  C   UNK d   1      25.686  77.967  15.678  0.00  0.00     0.179 C 
ATOM     25  C   UNK d   1      22.294  77.574  14.611  0.00  0.00     0.154 A 
ENDBRANCH   7  19
TORSDOF 2
ENDMDL
