/Users/jonathanwahrer/Desktop/Msc/3_Semester/Drug_Design_Praktikum/waehrer_HTS_screening/HTS_experiment/out/docking_results/vina_output/6e43/0211_docked.pdbqt
 OpenBabel03212219443D

 22 25  0  0  1  0  0  0  0  0999 V2000
   22.0940   79.0390   16.6030 N   0  0  0  0  0  0  0  0  0  0  0  0
   20.9980   78.1860   16.9020 C   0  0  0  0  0  0  0  0  0  0  0  0
   21.0010   76.9090   16.7490 O   0  0  0  0  0  0  0  0  0  0  0  0
   19.8840   79.0000   17.4090 C   0  0  1  0  0  3  0  0  0  0  0  0
   19.9690   79.0370   18.9040 C   0  0  1  0  0  0  0  0  0  0  0  0
   21.1200   79.8520   19.0560 O   0  0  0  0  0  0  0  0  0  0  0  0
   20.5860   80.9970   18.4060 C   0  0  1  0  0  3  0  0  0  0  0  0
   20.2660   80.4070   17.0450 C   0  0  1  0  0  3  0  0  0  0  0  0
   21.5460   80.3140   16.3160 C   0  0  0  0  0  0  0  0  0  0  0  0
   22.0430   81.2100   15.5830 O   0  0  0  0  0  0  0  0  0  0  0  0
   19.3500   81.1860   19.2000 C   0  0  0  0  0  2  0  0  0  0  0  0
   18.9680   79.9390   19.5350 C   0  0  0  0  0  2  0  0  0  0  0  0
   23.4930   78.6740   16.5900 C   0  0  0  0  0  0  0  0  0  0  0  0
   23.9530   77.5470   15.9250 C   0  0  0  0  0  3  0  0  0  0  0  0
   25.2520   77.1560   15.8780 C   0  0  0  0  0  0  0  0  0  0  0  0
   25.7360   75.5750   14.9210 Br  0  0  0  0  0  0  0  0  0  0  0  0
   26.1980   77.9220   16.5310 C   0  0  0  0  0  3  0  0  0  0  0  0
   25.7910   79.0530   17.2070 C   0  0  0  0  0  3  0  0  0  0  0  0
   24.4460   79.4280   17.2370 C   0  0  0  0  0  3  0  0  0  0  0  0
   20.0930   77.7190   19.5680 C   0  0  0  0  0  2  0  0  0  0  0  0
   19.6730   77.8430   20.8930 O   0  0  0  0  0  0  0  0  0  0  0  0
   20.0630   77.1220   21.4460 H   0  0  0  0  0  0  0  0  0  0  0  0
  1  2  1  0  0  0  0
  3  2  2  0  0  0  0
  4  2  1  6  0  0  0
  4  5  1  0  0  0  0
  5  6  1  0  0  0  0
  5 12  1  0  0  0  0
  5 20  1  1  0  0  0
  7  6  1  0  0  0  0
  7 11  1  1  0  0  0
  8  9  1  6  0  0  0
  8  4  1  0  0  0  0
  8  7  1  0  0  0  0
  9  1  1  0  0  0  0
 10  9  2  0  0  0  0
 11 12  1  0  0  0  0
 13  1  1  0  0  0  0
 13 19  1  0  0  0  0
 14 13  2  0  0  0  0
 15 14  1  0  0  0  0
 15 17  2  0  0  0  0
 16 15  1  0  0  0  0
 17 18  1  0  0  0  0
 18 19  2  0  0  0  0
 20 21  1  0  0  0  0
 21 22  1  0  0  0  0
M  END
>  <Pose>
1

>  <Score>
-9.032

$$$$
