MODEL 1
REMARK VINA RESULT:   -10.992      0.000      0.000
REMARK INTER + INTRA:         -12.256
REMARK INTER:                 -12.277
REMARK INTRA:                   0.021
REMARK UNBOUND:                 0.021
REMARK  2 active torsions:
REMARK  status: ('A' for Active; 'I' for Inactive)
REMARK    1  A    between atoms: C_4  and  N_8 
REMARK    2  A    between atoms: C_14  and  C_18 
ROOT
ATOM      1  N   UNK d   1      20.085  80.856  18.819  0.00  0.00    -0.246 N 
ATOM      2  C   UNK d   1      19.512  79.654  19.378  0.00  0.00     0.268 C 
ATOM      3  O   UNK d   1      18.497  79.546  20.076  0.00  0.00    -0.269 OA
ATOM      4  C   UNK d   1      20.374  78.510  18.962  0.00  0.00     0.285 C 
ATOM      5  O   UNK d   1      19.682  77.341  18.704  0.00  0.00    -0.260 OA
ATOM      6  N   UNK d   1      20.469  76.763  17.735  0.00  0.00    -0.264 N 
ATOM      7  C   UNK d   1      20.783  77.844  16.839  0.00  0.00     0.083 C 
ATOM      8  C   UNK d   1      20.735  78.942  17.555  0.00  0.00     0.080 C 
ATOM      9  C   UNK d   1      20.849  80.400  17.679  0.00  0.00     0.266 C 
ATOM     10  O   UNK d   1      21.514  81.085  16.895  0.00  0.00    -0.267 OA
ATOM     11  H   UNK d   1      20.777  75.789  17.645  0.00  0.00     0.194 HD
ENDROOT
BRANCH   1  12
ATOM     12  C   UNK d   1      19.911  82.168  19.313  0.00  0.00     0.047 A 
ATOM     13  C   UNK d   1      19.603  82.373  20.639  0.00  0.00     0.049 A 
ATOM     14  C   UNK d   1      19.419  83.661  21.153  0.00  0.00     0.013 A 
ATOM     15 Br   UNK d   1      18.993  83.915  22.990  0.00  0.00    -0.051 Br
ATOM     16  C   UNK d   1      19.540  84.772  20.350  0.00  0.00     0.019 A 
ATOM     17  C   UNK d   1      19.848  84.569  19.022  0.00  0.00     0.004 A 
ATOM     18  C   UNK d   1      20.032  83.276  18.511  0.00  0.00     0.030 A 
ENDBRANCH   1  12
BRANCH   7  19
ATOM     19  C   UNK d   1      21.084  77.786  15.434  0.00  0.00     0.036 A 
ATOM     20  C   UNK d   1      22.019  78.628  14.834  0.00  0.00     0.127 A 
ATOM     21  N   UNK d   1      22.105  78.341  13.523  0.00  0.00    -0.284 N 
ATOM     22  N   UNK d   1      21.251  77.353  13.314  0.00  0.00    -0.177 NA
ATOM     23  C   UNK d   1      22.973  79.002  12.535  0.00  0.00     0.179 C 
ATOM     24  C   UNK d   1      20.614  76.981  14.423  0.00  0.00     0.065 A 
ATOM     25  C   UNK d   1      19.586  75.898  14.583  0.00  0.00     0.073 C 
ENDBRANCH   7  19
TORSDOF 2
ENDMDL
