/Users/jonathanwahrer/Desktop/Msc/3_Semester/Drug_Design_Praktikum/waehrer_HTS_screening/HTS_experiment/out/docking_results/vina_output/6e43/0213_docked.pdbqt
 OpenBabel03212219443D

 25 28  0  0  1  0  0  0  0  0999 V2000
   20.0850   80.8560   18.8190 N   0  0  0  0  0  0  0  0  0  0  0  0
   19.5120   79.6540   19.3780 C   0  0  0  0  0  0  0  0  0  0  0  0
   18.4970   79.5460   20.0760 O   0  0  0  0  0  0  0  0  0  0  0  0
   20.3740   78.5100   18.9620 C   0  0  1  0  0  3  0  0  0  0  0  0
   19.6820   77.3410   18.7040 O   0  0  0  0  0  0  0  0  0  0  0  0
   20.4690   76.7630   17.7350 N   0  0  0  0  0  0  0  0  0  0  0  0
   20.7830   77.8440   16.8390 C   0  0  0  0  0  0  0  0  0  0  0  0
   20.7350   78.9420   17.5550 C   0  0  0  0  0  0  0  0  0  0  0  0
   20.8490   80.4000   17.6790 C   0  0  0  0  0  0  0  0  0  0  0  0
   21.5140   81.0850   16.8950 O   0  0  0  0  0  0  0  0  0  0  0  0
   20.7770   75.7890   17.6450 H   0  0  0  0  0  0  0  0  0  0  0  0
   19.9110   82.1680   19.3130 C   0  0  0  0  0  0  0  0  0  0  0  0
   19.6030   82.3730   20.6390 C   0  0  0  0  0  3  0  0  0  0  0  0
   19.4190   83.6610   21.1530 C   0  0  0  0  0  0  0  0  0  0  0  0
   18.9930   83.9150   22.9900 Br  0  0  0  0  0  0  0  0  0  0  0  0
   19.5400   84.7720   20.3500 C   0  0  0  0  0  3  0  0  0  0  0  0
   19.8480   84.5690   19.0220 C   0  0  0  0  0  3  0  0  0  0  0  0
   20.0320   83.2760   18.5110 C   0  0  0  0  0  3  0  0  0  0  0  0
   21.0840   77.7860   15.4340 C   0  0  0  0  0  0  0  0  0  0  0  0
   22.0190   78.6280   14.8340 C   0  0  0  0  0  3  0  0  0  0  0  0
   22.1050   78.3410   13.5230 N   0  0  0  0  0  0  0  0  0  0  0  0
   21.2510   77.3530   13.3140 N   0  0  0  0  0  0  0  0  0  0  0  0
   22.9730   79.0020   12.5350 C   0  0  0  0  0  1  0  0  0  0  0  0
   20.6140   76.9810   14.4230 C   0  0  0  0  0  0  0  0  0  0  0  0
   19.5860   75.8980   14.5830 C   0  0  0  0  0  1  0  0  0  0  0  0
  1 12  1  0  0  0  0
  1  2  1  0  0  0  0
  2  3  2  0  0  0  0
  4  8  1  6  0  0  0
  4  2  1  0  0  0  0
  5  4  1  0  0  0  0
  6  5  1  0  0  0  0
  7  8  2  0  0  0  0
  7  6  1  0  0  0  0
  8  9  1  0  0  0  0
  9  1  1  0  0  0  0
 10  9  2  0  0  0  0
 11  6  1  0  0  0  0
 12 13  1  0  0  0  0
 13 14  2  0  0  0  0
 14 15  1  0  0  0  0
 16 14  1  0  0  0  0
 17 16  2  0  0  0  0
 18 17  1  0  0  0  0
 18 12  2  0  0  0  0
 19  7  1  0  0  0  0
 20 19  2  0  0  0  0
 21 20  1  0  0  0  0
 22 21  1  0  0  0  0
 22 24  2  0  0  0  0
 23 21  1  0  0  0  0
 24 25  1  0  0  0  0
 24 19  1  0  0  0  0
M  END
>  <Pose>
1

>  <Score>
-10.992

$$$$
