MODEL 1
REMARK VINA RESULT:   -10.020      0.000      0.000
REMARK INTER + INTRA:         -13.675
REMARK INTER:                 -12.948
REMARK INTRA:                  -0.726
REMARK UNBOUND:                -0.726
REMARK  5 active torsions:
REMARK  status: ('A' for Active; 'I' for Inactive)
REMARK    1  A    between atoms: C_4  and  N_8 
REMARK    2  A    between atoms: C_10  and  C_14 
REMARK       I    between atoms: C_14  and  N_16 
REMARK    3  A    between atoms: N_19  and  C_22 
REMARK    4  A    between atoms: C_22  and  C_23 
REMARK    5  A    between atoms: C_23  and  N_24 
ROOT
ATOM      1  C   UNK d   1      21.734  77.809  17.331  0.00  0.00     0.226 C 
ATOM      2  O   UNK d   1      21.110  76.796  16.928  0.00  0.00    -0.273 OA
ATOM      3  N   UNK d   1      23.046  78.095  16.897  0.00  0.00    -0.348 N 
ATOM      4  C   UNK d   1      23.799  79.260  17.341  0.00  0.00     0.156 C 
ATOM      5  C   UNK d   1      24.789  79.649  16.250  0.00  0.00     0.292 C 
ATOM      6  N   UNK d   1      24.347  79.260  14.926  0.00  0.00     0.093 N 
ATOM      7  C   UNK d   1      24.368  77.844  14.823  0.00  0.00     0.292 C 
ATOM      8  C   UNK d   1      23.665  77.162  15.947  0.00  0.00     0.156 C 
ENDROOT
BRANCH   1   9
ATOM      9  C   UNK d   1      21.072  78.696  18.266  0.00  0.00     0.105 C 
ATOM     10  C   UNK d   1      20.407  79.898  17.565  0.00  0.00     0.146 C 
ATOM     11  N   UNK d   1      19.821  80.492  18.757  0.00  0.00    -0.317 N 
ATOM     12  C   UNK d   1      19.218  79.380  19.409  0.00  0.00     0.225 C 
ATOM     13  C   UNK d   1      19.799  78.112  18.887  0.00  0.00     0.119 C 
ATOM     14  O   UNK d   1      18.331  79.458  20.290  0.00  0.00    -0.273 OA
BRANCH  11  15
ATOM     15  C   UNK d   1      19.899  81.862  19.096  0.00  0.00     0.038 A 
ATOM     16  C   UNK d   1      19.453  82.292  20.332  0.00  0.00     0.048 A 
ATOM     17  C   UNK d   1      19.497  83.626  20.722  0.00  0.00     0.013 A 
ATOM     18 Br   UNK d   1      18.862  84.109  22.434  0.00  0.00    -0.051 Br
ATOM     19  C   UNK d   1      20.010  84.564  19.827  0.00  0.00     0.019 A 
ATOM     20  C   UNK d   1      20.466  84.181  18.584  0.00  0.00     0.004 A 
ATOM     21  C   UNK d   1      20.393  82.842  18.263  0.00  0.00     0.030 A 
ENDBRANCH  11  15
ENDBRANCH   1   9
BRANCH   6  22
ATOM     22  C   UNK d   1      23.156  79.925  14.533  0.00  0.00     0.292 C 
BRANCH  22  23
ATOM     23  C   UNK d   1      23.206  80.511  13.145  0.00  0.00     0.159 C 
BRANCH  23  24
ATOM     24  N   UNK d   1      22.350  79.853  12.201  0.00  0.00    -0.348 N 
ATOM     25  C   UNK d   1      22.096  80.190  10.935  0.00  0.00     0.209 A 
ATOM     26  N   UNK d   1      21.226  79.307  10.399  0.00  0.00    -0.255 NA
ATOM     27  C   UNK d   1      20.925  78.398  11.334  0.00  0.00     0.135 A 
ATOM     28  C   UNK d   1      21.634  78.750  12.459  0.00  0.00     0.111 A 
ENDBRANCH  23  24
ENDBRANCH  22  23
ENDBRANCH   6  22
TORSDOF 5
ENDMDL
