MODEL 1
REMARK VINA RESULT:   -10.250      0.000      0.000
REMARK INTER + INTRA:         -12.165
REMARK INTER:                 -12.646
REMARK INTRA:                   0.482
REMARK UNBOUND:                 0.482
REMARK  4 active torsions:
REMARK  status: ('A' for Active; 'I' for Inactive)
REMARK    1  A    between atoms: C_5  and  C_8 
REMARK    2  A    between atoms: C_8  and  C_10 
REMARK    3  A    between atoms: C_10  and  N_11 
REMARK    4  A    between atoms: C_15  and  N_16 
ROOT
ATOM      1  N   UNK d   1      19.922  76.640  13.209  0.00  0.00    -0.165 N 
ATOM      2  C   UNK d   1      19.998  76.858  11.886  0.00  0.00     0.167 A 
ATOM      3  C   UNK d   1      20.920  77.855  11.630  0.00  0.00     0.185 A 
ATOM      4  N   UNK d   1      21.383  78.215  12.833  0.00  0.00    -0.044 NA
ATOM      5  C   UNK d   1      20.797  77.497  13.807  0.00  0.00     0.708 A 
ATOM      6  N   UNK d   1      21.165  78.240  10.365  0.00  0.00    -0.286 N 
ATOM      7  C   UNK d   1      20.519  77.665   9.335  0.00  0.00     0.330 A 
ATOM      8  O   UNK d   1      20.717  77.995   8.139  0.00  0.00    -0.246 OA
ATOM      9  N   UNK d   1      19.609  76.681   9.573  0.00  0.00    -0.273 N 
ATOM     10  C   UNK d   1      19.329  76.261  10.819  0.00  0.00     0.280 A 
ATOM     11  O   UNK d   1      18.469  75.339  11.001  0.00  0.00    -0.265 OA
ATOM     12  C   UNK d   1      22.124  79.283  10.064  0.00  0.00     0.163 C 
ATOM     13  H   UNK d   1      19.129  76.259   8.744  0.00  0.00     0.173 HD
ENDROOT
BRANCH   1  14
ATOM     14  C   UNK d   1      19.092  75.684  13.887  0.00  0.00     0.232 C 
BRANCH  14  15
ATOM     15  C   UNK d   1      19.603  74.282  13.782  0.00  0.00     0.178 C 
ATOM     16  O   UNK d   1      20.746  73.993  14.172  0.00  0.00    -0.290 OA
BRANCH  15  17
ATOM     17  C   UNK d   1      18.769  73.223  13.219  0.00  0.00     0.011 A 
ATOM     18  C   UNK d   1      19.302  72.023  12.815  0.00  0.00     0.016 A 
ATOM     19  C   UNK d   1      18.508  71.023  12.279  0.00  0.00     0.020 A 
ATOM     20  C   UNK d   1      17.139  71.186  12.123  0.00  0.00     0.011 A 
ATOM     21 Br   UNK d   1      16.086  69.786  11.383  0.00  0.00    -0.051 Br
ATOM     22  C   UNK d   1      16.602  72.388  12.527  0.00  0.00     0.020 A 
ATOM     23  C   UNK d   1      17.403  73.373  13.058  0.00  0.00     0.016 A 
ENDBRANCH  15  17
ENDBRANCH  14  15
ENDBRANCH   1  14
BRANCH   5  24
ATOM     24  N   UNK d   1      21.004  77.560  15.206  0.00  0.00    -0.212 N 
ATOM     25  C   UNK d   1      20.021  77.005  16.079  0.00  0.00     0.171 C 
ATOM     26  C   UNK d   1      20.420  76.769  17.488  0.00  0.00     0.292 C 
ATOM     27  N   UNK d   1      21.491  77.586  17.978  0.00  0.00     0.087 N 
ATOM     28  C   UNK d   1      22.592  77.492  17.039  0.00  0.00     0.292 C 
ATOM     29  C   UNK d   1      21.104  78.941  18.251  0.00  0.00     0.310 C 
ATOM     30  C   UNK d   1      22.189  78.169  15.728  0.00  0.00     0.171 C 
ENDBRANCH   5  24
TORSDOF 4
ENDMDL
