/Users/jonathanwahrer/Desktop/Msc/3_Semester/Drug_Design_Praktikum/waehrer_HTS_screening/HTS_experiment/out/docking_results/vina_output/6e43/0231_docked.pdbqt
 OpenBabel03212219453D

 34 37  0  0  1  0  0  0  0  0999 V2000
   19.7340   78.0180   17.3050 C   0  0  2  0  0  3  0  0  0  0  0  0
   20.4210   79.3110   16.9380 C   0  0  1  0  0  3  0  0  0  0  0  0
   19.9220   80.2170   17.9480 N   0  0  0  0  0  0  0  0  0  0  0  0
   19.7630   79.4450   19.1340 C   0  0  0  0  0  0  0  0  0  0  0  0
   19.4810   79.9010   20.2850 O   0  0  0  0  0  0  0  0  0  0  0  0
   19.9840   78.0260   18.7930 C   0  0  0  0  0  0  0  0  0  0  0  0
   20.2940   77.1040   19.5640 O   0  0  0  0  0  0  0  0  0  0  0  0
   20.2700   76.8310   16.6650 C   0  0  0  0  0  0  0  0  0  0  0  0
   20.9550   76.0050   17.3020 O   0  0  0  0  0  0  0  0  0  0  0  0
   20.0120   76.5850   15.2580 C   0  0  0  0  0  0  0  0  0  0  0  0
   19.0910   75.6100   14.8580 C   0  0  0  0  0  3  0  0  0  0  0  0
   18.8350   75.3550   13.5360 C   0  0  0  0  0  3  0  0  0  0  0  0
   19.4960   76.0730   12.5690 C   0  0  0  0  0  0  0  0  0  0  0  0
   19.1280   75.7070   10.7440 Br  0  0  0  0  0  0  0  0  0  0  0  0
   20.4090   77.0410   12.8940 C   0  0  0  0  0  3  0  0  0  0  0  0
   20.6410   77.2700   14.2380 C   0  0  0  0  0  3  0  0  0  0  0  0
   21.8710   79.2260   16.8710 C   0  0  0  0  0  0  0  0  0  0  0  0
   22.5640   79.2790   15.6530 C   0  0  0  0  0  3  0  0  0  0  0  0
   23.9400   79.2010   15.5970 C   0  0  0  0  0  0  0  0  0  0  0  0
   24.6940   79.0700   16.7480 C   0  0  0  0  0  0  0  0  0  0  0  0
   24.0340   79.0170   17.9570 C   0  0  0  0  0  3  0  0  0  0  0  0
   26.0810   78.9900   16.7200 O   0  0  0  0  0  1  0  0  0  0  0  0
   22.6500   79.0950   17.9970 C   0  0  0  0  0  3  0  0  0  0  0  0
   24.6290   79.2520   14.3980 O   0  0  0  0  0  0  0  0  0  0  0  0
   24.0580   78.9260   13.1570 C   0  0  0  0  0  1  0  0  0  0  0  0
   19.6200   81.6230   17.8620 C   0  0  0  0  0  2  0  0  0  0  0  0
   19.3880   82.2690   19.1940 C   0  0  0  0  0  2  0  0  0  0  0  0
   20.2680   83.3230   19.5230 N   0  0  0  0  0  4  0  0  0  0  0  0
   20.7880   83.0770   20.8720 C   0  0  0  0  0  2  0  0  0  0  0  0
   19.7520   83.2680   21.9290 C   0  0  0  0  0  2  0  0  0  0  0  0
   18.6190   83.9240   21.5140 O   0  0  0  0  0  0  0  0  0  0  0  0
   18.9280   85.0030   20.7230 C   0  0  0  0  0  2  0  0  0  0  0  0
   19.7290   84.6360   19.5030 C   0  0  0  0  0  2  0  0  0  0  0  0
   21.1240   83.3120   18.9020 H   0  0  0  0  0  0  0  0  0  0  0  0
  1  8  1  6  0  0  0
  1  6  1  0  0  0  0
  2 17  1  1  0  0  0
  2  1  1  0  0  0  0
  2  3  1  0  0  0  0
  3  4  1  0  0  0  0
  4  5  2  0  0  0  0
  6  4  1  0  0  0  0
  6  7  2  0  0  0  0
  8  9  2  0  0  0  0
 10  8  1  0  0  0  0
 11 10  1  0  0  0  0
 12 11  2  0  0  0  0
 13 15  2  0  0  0  0
 13 12  1  0  0  0  0
 14 13  1  0  0  0  0
 15 16  1  0  0  0  0
 16 10  2  0  0  0  0
 17 23  1  0  0  0  0
 18 17  2  0  0  0  0
 19 18  1  0  0  0  0
 19 20  2  0  0  0  0
 20 21  1  0  0  0  0
 21 23  2  0  0  0  0
 22 20  1  0  0  0  0
 24 19  1  0  0  0  0
 25 24  1  0  0  0  0
 26  3  1  0  0  0  0
 26 27  1  0  0  0  0
 27 28  1  0  0  0  0
 28 29  1  0  0  0  0
 29 30  1  0  0  0  0
 31 30  1  0  0  0  0
 32 31  1  0  0  0  0
 33 28  1  0  0  0  0
 33 32  1  0  0  0  0
 34 28  1  0  0  0  0
M  END
>  <Pose>
1

>  <Score>
-9.520

$$$$
