MODEL 1
REMARK VINA RESULT:    -9.520      0.000      0.000
REMARK INTER + INTRA:         -12.369
REMARK INTER:                 -13.416
REMARK INTRA:                   1.047
REMARK UNBOUND:                 1.047
REMARK  7 active torsions:
REMARK  status: ('A' for Active; 'I' for Inactive)
REMARK    1  A    between atoms: C_5  and  C_8 
REMARK    2  A    between atoms: C_8  and  C_10 
REMARK    3  A    between atoms: C_11  and  C_25 
REMARK    4  A    between atoms: N_12  and  C_17 
REMARK    5  A    between atoms: C_17  and  C_18 
REMARK    6  A    between atoms: C_18  and  N_19 
REMARK    7  A    between atoms: C_27  and  O_32 
ROOT
ATOM      1  C   UNK d   1      19.734  78.018  17.305  0.00  0.00     0.167 C 
ATOM      2  C   UNK d   1      20.421  79.311  16.938  0.00  0.00     0.140 C 
ATOM      3  N   UNK d   1      19.922  80.217  17.948  0.00  0.00    -0.334 N 
ATOM      4  C   UNK d   1      19.763  79.445  19.134  0.00  0.00     0.291 C 
ATOM      5  O   UNK d   1      19.481  79.901  20.285  0.00  0.00    -0.264 OA
ATOM      6  C   UNK d   1      19.984  78.026  18.793  0.00  0.00     0.230 C 
ATOM      7  O   UNK d   1      20.294  77.104  19.564  0.00  0.00    -0.286 OA
ENDROOT
BRANCH   1   8
ATOM      8  C   UNK d   1      20.270  76.831  16.665  0.00  0.00     0.173 C 
ATOM      9  O   UNK d   1      20.955  76.005  17.302  0.00  0.00    -0.291 OA
BRANCH   8  10
ATOM     10  C   UNK d   1      20.012  76.585  15.258  0.00  0.00     0.011 A 
ATOM     11  C   UNK d   1      19.091  75.610  14.858  0.00  0.00     0.016 A 
ATOM     12  C   UNK d   1      18.835  75.355  13.536  0.00  0.00     0.020 A 
ATOM     13  C   UNK d   1      19.496  76.073  12.569  0.00  0.00     0.011 A 
ATOM     14 Br   UNK d   1      19.128  75.707  10.744  0.00  0.00    -0.051 Br
ATOM     15  C   UNK d   1      20.409  77.041  12.894  0.00  0.00     0.020 A 
ATOM     16  C   UNK d   1      20.641  77.270  14.238  0.00  0.00     0.016 A 
ENDBRANCH   8  10
ENDBRANCH   1   8
BRANCH   2  17
ATOM     17  C   UNK d   1      21.871  79.226  16.871  0.00  0.00    -0.031 A 
ATOM     18  C   UNK d   1      22.564  79.279  15.653  0.00  0.00     0.049 A 
ATOM     19  C   UNK d   1      23.940  79.201  15.597  0.00  0.00     0.105 A 
ATOM     20  C   UNK d   1      24.694  79.070  16.748  0.00  0.00     0.140 A 
ATOM     21  C   UNK d   1      24.034  79.017  17.957  0.00  0.00     0.043 A 
ATOM     22  O   UNK d   1      26.081  78.990  16.720  0.00  0.00    -0.189 OA
ATOM     23  C   UNK d   1      22.650  79.095  17.997  0.00  0.00     0.012 A 
BRANCH  19  24
ATOM     24  O   UNK d   1      24.629  79.252  14.398  0.00  0.00    -0.353 OA
ATOM     25  C   UNK d   1      24.058  78.926  13.157  0.00  0.00     0.210 C 
ENDBRANCH  19  24
ENDBRANCH   2  17
BRANCH   3  26
ATOM     26  C   UNK d   1      19.620  81.623  17.862  0.00  0.00     0.154 C 
BRANCH  26  27
ATOM     27  C   UNK d   1      19.388  82.269  19.194  0.00  0.00     0.255 C 
BRANCH  27  28
ATOM     28  N   UNK d   1      20.268  83.323  19.523  0.00  0.00    -0.066 N 
ATOM     29  C   UNK d   1      20.788  83.077  20.872  0.00  0.00     0.261 C 
ATOM     30  C   UNK d   1      19.752  83.268  21.929  0.00  0.00     0.195 C 
ATOM     31  O   UNK d   1      18.619  83.924  21.514  0.00  0.00    -0.388 OA
ATOM     32  C   UNK d   1      18.928  85.003  20.723  0.00  0.00     0.195 C 
ATOM     33  C   UNK d   1      19.729  84.636  19.503  0.00  0.00     0.261 C 
ATOM     34  H   UNK d   1      21.124  83.312  18.902  0.00  0.00     0.280 HD
ENDBRANCH  27  28
ENDBRANCH  26  27
ENDBRANCH   3  26
TORSDOF 7
ENDMDL
