MODEL 1
REMARK VINA RESULT:   -10.602      0.000      0.000
REMARK INTER + INTRA:         -12.047
REMARK INTER:                 -11.842
REMARK INTRA:                  -0.205
REMARK UNBOUND:                -0.205
REMARK  2 active torsions:
REMARK  status: ('A' for Active; 'I' for Inactive)
REMARK    1  A    between atoms: C_5  and  C_8 
REMARK       I    between atoms: C_8  and  N_10 
REMARK    2  A    between atoms: N_10  and  N_11 
ROOT
ATOM      1  N   UNK d   1      22.075  77.542  14.961  0.00  0.00    -0.187 N 
ATOM      2  C   UNK d   1      22.270  77.873  16.332  0.00  0.00     0.251 C 
ATOM      3  O   UNK d   1      21.773  77.159  17.268  0.00  0.00    -0.271 OA
ATOM      4  C   UNK d   1      23.094  79.103  16.460  0.00  0.00     0.101 C 
ATOM      5  C   UNK d   1      23.498  79.362  15.022  0.00  0.00     0.101 C 
ATOM      6  C   UNK d   1      24.892  78.772  15.010  0.00  0.00     0.022 C 
ATOM      7  C   UNK d   1      25.421  79.498  16.265  0.00  0.00     0.018 C 
ATOM      8  C   UNK d   1      24.383  78.824  17.181  0.00  0.00     0.022 C 
ATOM      9  C   UNK d   1      24.733  77.394  16.863  0.00  0.00    -0.025 C 
ATOM     10  C   UNK d   1      24.892  77.382  15.545  0.00  0.00    -0.025 C 
ATOM     11  C   UNK d   1      22.561  78.608  14.170  0.00  0.00     0.251 C 
ATOM     12  O   UNK d   1      22.273  78.879  12.984  0.00  0.00    -0.271 OA
ENDROOT
BRANCH   1  13
ATOM     13  N   UNK d   1      21.502  76.373  14.397  0.00  0.00    -0.254 N 
ATOM     14  C   UNK d   1      20.145  76.045  14.605  0.00  0.00     0.270 C 
ATOM     15  O   UNK d   1      19.377  76.782  15.304  0.00  0.00    -0.266 OA
ATOM     16  H   UNK d   1      22.101  75.759  13.816  0.00  0.00     0.191 HD
BRANCH  14  17
ATOM     17  C   UNK d   1      19.581  74.850  14.024  0.00  0.00     0.033 A 
ATOM     18  C   UNK d   1      18.333  74.923  13.412  0.00  0.00     0.018 A 
ATOM     19  C   UNK d   1      17.749  73.805  12.853  0.00  0.00     0.020 A 
ATOM     20  C   UNK d   1      18.386  72.599  12.890  0.00  0.00     0.011 A 
ATOM     21 Br   UNK d   1      17.553  71.063  12.112  0.00  0.00    -0.051 Br
ATOM     22  C   UNK d   1      19.637  72.509  13.499  0.00  0.00     0.020 A 
ATOM     23  C   UNK d   1      20.208  73.626  14.051  0.00  0.00     0.018 A 
ENDBRANCH  14  17
ENDBRANCH   1  13
TORSDOF 2
ENDMDL
