MODEL 1
REMARK VINA RESULT:    -9.078      0.000      0.000
REMARK INTER + INTRA:         -12.267
REMARK INTER:                 -12.262
REMARK INTRA:                  -0.006
REMARK UNBOUND:                -0.006
REMARK  6 active torsions:
REMARK  status: ('A' for Active; 'I' for Inactive)
REMARK    1  A    between atoms: C_5  and  C_8 
REMARK    2  A    between atoms: C_10  and  C_24 
REMARK    3  A    between atoms: N_11  and  C_16 
REMARK    4  A    between atoms: C_16  and  C_17 
REMARK    5  A    between atoms: C_17  and  N_18 
REMARK    6  A    between atoms: C_26  and  N_30 
ROOT
ATOM      1  C   UNK d   1      21.132  80.332  17.154  0.00  0.00     0.130 C 
ATOM      2  C   UNK d   1      20.351  79.383  16.708  0.00  0.00     0.062 C 
ATOM      3  C   UNK d   1      20.524  78.580  15.445  0.00  0.00     0.161 C 
ATOM      4  N   UNK d   1      19.975  77.312  15.784  0.00  0.00    -0.331 N 
ATOM      5  C   UNK d   1      18.943  77.548  16.773  0.00  0.00     0.295 C 
ATOM      6  O   UNK d   1      18.001  76.782  17.089  0.00  0.00    -0.264 OA
ATOM      7  C   UNK d   1      19.176  78.860  17.366  0.00  0.00     0.250 C 
ATOM      8  O   UNK d   1      18.461  79.394  18.280  0.00  0.00    -0.282 OA
ATOM      9  O   UNK d   1      22.277  80.662  16.396  0.00  0.00    -0.190 OA
ENDROOT
BRANCH   1  10
ATOM     10  C   UNK d   1      20.835  81.030  18.393  0.00  0.00     0.001 A 
ATOM     11  C   UNK d   1      20.299  82.310  18.252  0.00  0.00     0.015 A 
ATOM     12  C   UNK d   1      19.939  83.042  19.348  0.00  0.00     0.020 A 
ATOM     13  C   UNK d   1      20.114  82.495  20.599  0.00  0.00     0.011 A 
ATOM     14 Br   UNK d   1      19.597  83.554  22.118  0.00  0.00    -0.051 Br
ATOM     15  C   UNK d   1      20.642  81.229  20.745  0.00  0.00     0.020 A 
ATOM     16  C   UNK d   1      21.002  80.501  19.631  0.00  0.00     0.015 A 
ENDBRANCH   1  10
BRANCH   3  17
ATOM     17  C   UNK d   1      21.901  78.624  14.969  0.00  0.00    -0.028 A 
ATOM     18  C   UNK d   1      22.968  77.979  15.535  0.00  0.00     0.045 A 
ATOM     19  C   UNK d   1      24.235  78.064  15.019  0.00  0.00     0.103 A 
ATOM     20  C   UNK d   1      24.457  78.819  13.900  0.00  0.00     0.036 A 
ATOM     21  C   UNK d   1      23.413  79.498  13.280  0.00  0.00     0.003 A 
ATOM     22  C   UNK d   1      22.158  79.391  13.822  0.00  0.00     0.010 A 
BRANCH  19  23
ATOM     23  N   UNK d   1      25.287  77.373  15.653  0.00  0.00    -0.116 N 
ATOM     24  O   UNK d   1      26.293  77.964  16.122  0.00  0.00    -0.532 OA
ATOM     25  O   UNK d   1      25.202  76.004  15.758  0.00  0.00    -0.532 OA
ENDBRANCH  19  23
ENDBRANCH   3  17
BRANCH   4  26
ATOM     26  C   UNK d   1      20.213  75.960  15.315  0.00  0.00     0.155 C 
BRANCH  26  27
ATOM     27  C   UNK d   1      20.004  75.740  13.851  0.00  0.00     0.255 C 
BRANCH  27  28
ATOM     28  N   UNK d   1      19.187  74.572  13.566  0.00  0.00    -0.066 N 
ATOM     29  C   UNK d   1      19.980  73.344  13.683  0.00  0.00     0.261 C 
ATOM     30  C   UNK d   1      18.966  72.203  13.517  0.00  0.00     0.195 C 
ATOM     31  O   UNK d   1      18.327  72.245  12.302  0.00  0.00    -0.388 OA
ATOM     32  C   UNK d   1      17.749  73.469  12.005  0.00  0.00     0.195 C 
ATOM     33  C   UNK d   1      18.708  74.615  12.208  0.00  0.00     0.261 C 
ATOM     34  H   UNK d   1      18.391  74.449  14.197  0.00  0.00     0.280 HD
ENDBRANCH  27  28
ENDBRANCH  26  27
ENDBRANCH   4  26
TORSDOF 6
ENDMDL
