MODEL 1
REMARK VINA RESULT:    -6.923      0.000      0.000
REMARK INTER + INTRA:         -10.300
REMARK INTER:                  -9.757
REMARK INTRA:                  -0.543
REMARK UNBOUND:                -0.543
REMARK  7 active torsions:
REMARK  status: ('A' for Active; 'I' for Inactive)
REMARK    1  A    between atoms: C_5  and  C_8 
REMARK    2  A    between atoms: C_10  and  C_24 
REMARK    3  A    between atoms: N_11  and  C_16 
REMARK    4  A    between atoms: C_16  and  C_17 
REMARK    5  A    between atoms: C_17  and  N_18 
REMARK    6  A    between atoms: C_27  and  C_30 
REMARK    7  A    between atoms: C_30  and  O_32 
ROOT
ATOM      1  C   UNK d   1      20.548  77.888  12.323  0.00  0.00     0.130 C 
ATOM      2  C   UNK d   1      20.900  77.666  13.570  0.00  0.00     0.062 A 
ATOM      3  C   UNK d   1      20.019  77.083  14.646  0.00  0.00     0.161 A 
ATOM      4  N   UNK d   1      20.789  77.106  15.841  0.00  0.00    -0.331 N 
ATOM      5  C   UNK d   1      22.143  77.532  15.580  0.00  0.00     0.295 A 
ATOM      6  O   UNK d   1      23.097  77.606  16.366  0.00  0.00    -0.264 OA
ATOM      7  C   UNK d   1      22.208  77.883  14.143  0.00  0.00     0.250 A 
ATOM      8  O   UNK d   1      23.251  78.299  13.542  0.00  0.00    -0.282 OA
ATOM      9  O   UNK d   1      19.221  77.532  11.989  0.00  0.00    -0.190 OA
ENDROOT
BRANCH   3  10
ATOM     10  C   UNK d   1      19.751  75.684  14.191  0.00  0.00    -0.030 A 
ATOM     11  C   UNK d   1      18.546  75.412  13.624  0.00  0.00     0.011 A 
ATOM     12  C   UNK d   1      18.243  74.137  13.192  0.00  0.00     0.018 A 
ATOM     13  C   UNK d   1      19.162  73.133  13.332  0.00  0.00     0.039 A 
ATOM     14  C   UNK d   1      20.377  73.409  13.902  0.00  0.00     0.018 A 
ATOM     15  C   UNK d   1      20.687  74.687  14.339  0.00  0.00     0.011 A 
BRANCH  13  16
ATOM     16  C   UNK d   1      18.851  71.775  12.879  0.00  0.00     0.292 C 
ATOM     17  O   UNK d   1      19.696  71.142  12.196  0.00  0.00    -0.259 OA
BRANCH  16  18
ATOM     18  O   UNK d   1      17.670  71.144  13.162  0.00  0.00    -0.323 OA
ATOM     19  C   UNK d   1      16.752  70.751  12.168  0.00  0.00     0.213 C 
ENDBRANCH  16  18
ENDBRANCH  13  16
ENDBRANCH   3  10
BRANCH   4  20
ATOM     20  C   UNK d   1      20.369  76.760  17.172  0.00  0.00     0.155 C 
BRANCH  20  21
ATOM     21  C   UNK d   1      19.317  77.638  17.757  0.00  0.00     0.255 C 
BRANCH  21  22
ATOM     22  N   UNK d   1      19.774  78.909  18.235  0.00  0.00    -0.066 N 
ATOM     23  C   UNK d   1      19.304  79.243  19.564  0.00  0.00     0.261 C 
ATOM     24  C   UNK d   1      20.027  80.505  19.988  0.00  0.00     0.195 C 
ATOM     25  O   UNK d   1      19.534  81.530  19.145  0.00  0.00    -0.388 OA
ATOM     26  C   UNK d   1      20.033  81.244  17.871  0.00  0.00     0.195 C 
ATOM     27  C   UNK d   1      19.311  80.007  17.362  0.00  0.00     0.261 C 
ATOM     28  H   UNK d   1      20.823  78.997  18.182  0.00  0.00     0.280 HD
ENDBRANCH  21  22
ENDBRANCH  20  21
ENDBRANCH   4  20
BRANCH   1  29
ATOM     29  C   UNK d   1      21.435  78.459  11.320  0.00  0.00     0.001 A 
ATOM     30  C   UNK d   1      21.430  79.839  11.077  0.00  0.00     0.015 A 
ATOM     31  C   UNK d   1      22.271  80.441  10.166  0.00  0.00     0.020 A 
ATOM     32  C   UNK d   1      23.172  79.691   9.442  0.00  0.00     0.011 A 
ATOM     33 Br   UNK d   1      24.325  80.551   8.181  0.00  0.00    -0.051 Br
ATOM     34  C   UNK d   1      23.197  78.334   9.662  0.00  0.00     0.020 A 
ATOM     35  C   UNK d   1      22.341  77.727  10.589  0.00  0.00     0.015 A 
ENDBRANCH   1  29
TORSDOF 7
ENDMDL
