MODEL 1
REMARK VINA RESULT:    -9.853      0.000      0.000
REMARK INTER + INTRA:         -13.413
REMARK INTER:                 -12.733
REMARK INTRA:                  -0.680
REMARK UNBOUND:                -0.680
REMARK  5 active torsions:
REMARK  status: ('A' for Active; 'I' for Inactive)
REMARK    1  A    between atoms: C_5  and  C_8 
REMARK    2  A    between atoms: C_10  and  C_24 
REMARK    3  A    between atoms: N_11  and  C_16 
REMARK    4  A    between atoms: C_16  and  C_17 
REMARK    5  A    between atoms: C_17  and  N_18 
ROOT
ATOM      1  C   UNK d   1      22.001  79.689  13.126  0.00  0.00     0.130 C 
ATOM      2  C   UNK d   1      21.903  79.026  14.261  0.00  0.00     0.062 C 
ATOM      3  C   UNK d   1      22.405  79.374  15.621  0.00  0.00     0.161 C 
ATOM      4  N   UNK d   1      21.376  78.804  16.507  0.00  0.00    -0.331 N 
ATOM      5  C   UNK d   1      20.960  77.617  15.860  0.00  0.00     0.295 C 
ATOM      6  O   UNK d   1      20.416  76.659  16.424  0.00  0.00    -0.264 OA
ATOM      7  C   UNK d   1      21.277  77.718  14.440  0.00  0.00     0.250 C 
ATOM      8  O   UNK d   1      21.091  76.903  13.502  0.00  0.00    -0.282 OA
ATOM      9  O   UNK d   1      22.682  80.923  13.153  0.00  0.00    -0.190 OA
ENDROOT
BRANCH   1  10
ATOM     10  C   UNK d   1      21.461  79.244  11.853  0.00  0.00     0.001 A 
ATOM     11  C   UNK d   1      22.257  78.643  10.903  0.00  0.00     0.015 A 
ATOM     12  C   UNK d   1      21.752  78.242   9.676  0.00  0.00     0.020 A 
ATOM     13  C   UNK d   1      20.426  78.432   9.362  0.00  0.00     0.011 A 
ATOM     14 Br   UNK d   1      19.717  77.879   7.667  0.00  0.00    -0.051 Br
ATOM     15  C   UNK d   1      19.620  79.031  10.300  0.00  0.00     0.020 A 
ATOM     16  C   UNK d   1      20.135  79.433  11.536  0.00  0.00     0.015 A 
ENDBRANCH   1  10
BRANCH   3  17
ATOM     17  C   UNK d   1      23.751  78.874  15.912  0.00  0.00    -0.031 A 
ATOM     18  C   UNK d   1      24.517  79.431  16.943  0.00  0.00     0.009 A 
ATOM     19  C   UNK d   1      25.771  79.012  17.264  0.00  0.00     0.001 A 
ATOM     20  C   UNK d   1      26.354  77.980  16.552  0.00  0.00     0.000 A 
ATOM     21  C   UNK d   1      25.632  77.417  15.539  0.00  0.00     0.001 A 
ATOM     22  C   UNK d   1      24.343  77.848  15.211  0.00  0.00     0.009 A 
ENDBRANCH   3  17
BRANCH   4  23
ATOM     23  C   UNK d   1      20.988  79.419  17.723  0.00  0.00     0.155 C 
BRANCH  23  24
ATOM     24  C   UNK d   1      21.217  80.864  17.893  0.00  0.00     0.255 C 
BRANCH  24  25
ATOM     25  N   UNK d   1      20.068  81.658  18.208  0.00  0.00    -0.066 N 
ATOM     26  C   UNK d   1      20.297  83.052  18.355  0.00  0.00     0.261 C 
ATOM     27  C   UNK d   1      20.228  83.407  19.825  0.00  0.00     0.195 C 
ATOM     28  O   UNK d   1      20.832  82.445  20.630  0.00  0.00    -0.388 OA
ATOM     29  C   UNK d   1      20.145  81.246  20.628  0.00  0.00     0.195 C 
ATOM     30  C   UNK d   1      19.334  81.166  19.354  0.00  0.00     0.261 C 
ATOM     31  H   UNK d   1      19.413  81.533  17.376  0.00  0.00     0.280 HD
ENDBRANCH  24  25
ENDBRANCH  23  24
ENDBRANCH   4  23
TORSDOF 5
ENDMDL
