MODEL 1
REMARK VINA RESULT:   -10.819      0.000      0.000
REMARK INTER + INTRA:         -14.969
REMARK INTER:                 -14.613
REMARK INTRA:                  -0.356
REMARK UNBOUND:                -0.356
REMARK  7 active torsions:
REMARK  status: ('A' for Active; 'I' for Inactive)
REMARK    1  A    between atoms: C_5  and  C_8 
REMARK    2  A    between atoms: C_8  and  O_9 
REMARK    3  A    between atoms: C_8  and  C_10 
REMARK    4  A    between atoms: C_10  and  N_11 
REMARK    5  A    between atoms: N_18  and  C_21 
REMARK    6  A    between atoms: C_19  and  N_20 
REMARK    7  A    between atoms: C_21  and  C_22 
ROOT
ATOM      1  N   UNK d   1      20.222  76.741  13.626  0.00  0.00    -0.178 N 
ATOM      2  C   UNK d   1      20.772  77.673  12.813  0.00  0.00     0.079 A 
ATOM      3  C   UNK d   1      21.510  78.513  13.632  0.00  0.00     0.079 A 
ATOM      4  C   UNK d   1      22.183  79.575  13.059  0.00  0.00     0.032 A 
ATOM      5  C   UNK d   1      22.139  79.823  11.681  0.00  0.00     0.002 A 
ATOM      6  C   UNK d   1      21.386  78.954  10.903  0.00  0.00     0.002 A 
ATOM      7  C   UNK d   1      20.708  77.891  11.446  0.00  0.00     0.032 A 
ATOM      8  N   UNK d   1      21.416  78.098  14.931  0.00  0.00    -0.177 N 
ATOM      9  C   UNK d   1      20.611  77.002  14.888  0.00  0.00     0.681 A 
ENDROOT
BRANCH   1  10
ATOM     10  C   UNK d   1      19.384  75.691  13.122  0.00  0.00     0.184 C 
BRANCH  10  11
ATOM     11  C   UNK d   1      19.482  74.420  13.910  0.00  0.00     0.170 C 
BRANCH  11  12
ATOM     12  C   UNK d   1      18.647  73.333  13.274  0.00  0.00    -0.028 A 
ATOM     13  C   UNK d   1      17.316  73.547  13.017  0.00  0.00     0.011 A 
ATOM     14  C   UNK d   1      16.558  72.564  12.438  0.00  0.00     0.019 A 
ATOM     15  C   UNK d   1      17.152  71.364  12.119  0.00  0.00     0.011 A 
ATOM     16 Br   UNK d   1      16.101  69.985  11.308  0.00  0.00    -0.051 Br
ATOM     17  C   UNK d   1      18.481  71.098  12.354  0.00  0.00     0.019 A 
ATOM     18  C   UNK d   1      19.206  72.122  12.942  0.00  0.00     0.011 A 
ENDBRANCH  11  12
BRANCH  11  19
ATOM     19  O   UNK d   1      20.766  73.925  14.030  0.00  0.00    -0.389 OA
ATOM     20  H   UNK d   1      21.040  73.762  14.954  0.00  0.00     0.210 HD
ENDBRANCH  11  19
ENDBRANCH  10  11
ENDBRANCH   1  10
BRANCH   9  21
ATOM     21  N   UNK d   1      20.282  76.326  15.938  0.00  0.00    -0.234 N 
ATOM     22  H   UNK d   1      20.746  76.562  16.866  0.00  0.00     0.174 HD
ATOM     23  H   UNK d   1      19.608  75.559  15.983  0.00  0.00     0.174 HD
ENDBRANCH   9  21
BRANCH   8  24
ATOM     24  C   UNK d   1      22.074  78.740  16.028  0.00  0.00     0.186 C 
BRANCH  24  25
ATOM     25  C   UNK d   1      23.563  78.528  16.045  0.00  0.00    -0.039 A 
ATOM     26  C   UNK d   1      24.375  79.518  16.570  0.00  0.00     0.009 A 
ATOM     27  C   UNK d   1      25.750  79.396  16.623  0.00  0.00     0.001 A 
ATOM     28  C   UNK d   1      26.303  78.241  16.129  0.00  0.00     0.000 A 
ATOM     29  C   UNK d   1      25.522  77.246  15.603  0.00  0.00     0.001 A 
ATOM     30  C   UNK d   1      24.162  77.397  15.566  0.00  0.00     0.009 A 
ENDBRANCH  24  25
ENDBRANCH   8  24
TORSDOF 7
ENDMDL
