/Users/jonathanwahrer/Desktop/Msc/3_Semester/Drug_Design_Praktikum/waehrer_HTS_screening/HTS_experiment/out/docking_results/vina_output/6e43/0289_docked.pdbqt
 OpenBabel03212219483D

 31 34  0  0  0  0  0  0  0  0999 V2000
   20.8490   77.1750   15.6760 C   0  0  0  0  0  0  0  0  0  0  0  0
   21.2010   77.9910   14.6690 N   0  0  0  0  0  0  0  0  0  0  0  0
   20.6860   77.5170   13.5100 C   0  0  0  0  0  0  0  0  0  0  0  0
   19.9850   76.3620   13.7810 C   0  0  0  0  0  0  0  0  0  0  0  0
   20.1000   76.1770   15.0960 N   0  0  0  0  0  0  0  0  0  0  0  0
   19.3760   75.7040   12.7770 N   0  0  0  0  0  0  0  0  0  0  0  0
   19.4310   76.1400   11.5110 C   0  0  0  0  0  0  0  0  0  0  0  0
   18.8410   75.4920   10.5880 O   0  0  0  0  0  0  0  0  0  0  0  0
   20.1090   77.2640   11.2260 N   0  0  0  0  0  0  0  0  0  0  0  0
   20.7270   77.9430   12.2020 C   0  0  0  0  0  0  0  0  0  0  0  0
   21.3590   78.9940   11.9320 O   0  0  0  0  0  0  0  0  0  0  0  0
   18.6350   74.4820   13.1040 C   0  0  0  0  0  1  0  0  0  0  0  0
   20.1560   77.6150   10.2250 H   0  0  0  0  0  0  0  0  0  0  0  0
   21.1310   77.3130   17.0470 N   0  0  0  0  0  0  0  0  0  0  0  0
   20.1640   77.1310   18.0720 C   0  0  0  0  0  2  0  0  0  0  0  0
   20.0340   78.4610   18.8090 C   0  0  0  0  0  2  0  0  0  0  0  0
   20.9590   79.4150   18.3640 N   0  0  0  0  0  0  0  0  0  0  0  0
   22.2950   79.0680   18.1010 C   0  0  0  0  0  2  0  0  0  0  0  0
   22.4600   77.6790   17.4740 C   0  0  0  0  0  2  0  0  0  0  0  0
   20.4200   80.5500   17.6920 C   0  0  0  0  0  2  0  0  0  0  0  0
   20.0870   81.6850   18.5750 C   0  0  0  0  0  0  0  0  0  0  0  0
   20.4910   82.9400   18.1960 C   0  0  0  0  0  3  0  0  0  0  0  0
   20.1890   84.0380   18.9870 C   0  0  0  0  0  3  0  0  0  0  0  0
   19.4830   83.8880   20.1620 C   0  0  0  0  0  0  0  0  0  0  0  0
   19.0640   85.4130   21.2540 Br  0  0  0  0  0  0  0  0  0  0  0  0
   19.0880   82.6200   20.5240 C   0  0  0  0  0  3  0  0  0  0  0  0
   19.3810   81.5180   19.7480 C   0  0  0  0  0  3  0  0  0  0  0  0
   22.0270   79.1670   14.7170 C   0  0  0  0  0  2  0  0  0  0  0  0
   23.4770   78.8580   14.4200 C   0  0  0  0  0  2  0  0  0  0  0  0
   24.3690   79.4780   15.2710 O   0  0  0  0  0  0  0  0  0  0  0  0
   25.3790   78.5230   15.5310 C   0  0  0  0  0  1  0  0  0  0  0  0
  1 14  1  0  0  0  0
  2 28  1  0  0  0  0
  2  1  1  0  0  0  0
  3  4  2  0  0  0  0
  3  2  1  0  0  0  0
  4  5  1  0  0  0  0
  5  1  2  0  0  0  0
  6 12  1  0  0  0  0
  6  4  1  0  0  0  0
  7  6  1  0  0  0  0
  8  7  2  0  0  0  0
  9  7  1  0  0  0  0
  9 10  1  0  0  0  0
 10  3  1  0  0  0  0
 11 10  2  0  0  0  0
 13  9  1  0  0  0  0
 14 19  1  0  0  0  0
 14 15  1  0  0  0  0
 15 16  1  0  0  0  0
 17 16  1  0  0  0  0
 18 17  1  0  0  0  0
 19 18  1  0  0  0  0
 20 17  1  0  0  0  0
 20 21  1  0  0  0  0
 21 27  1  0  0  0  0
 22 21  2  0  0  0  0
 22 23  1  0  0  0  0
 23 24  2  0  0  0  0
 24 26  1  0  0  0  0
 24 25  1  0  0  0  0
 27 26  2  0  0  0  0
 29 28  1  0  0  0  0
 29 30  1  0  0  0  0
 30 31  1  0  0  0  0
M  END
>  <Pose>
1

>  <Score>
-9.490

$$$$
