MODEL 1
REMARK VINA RESULT:    -9.501      0.000      0.000
REMARK INTER + INTRA:         -12.066
REMARK INTER:                 -11.168
REMARK INTRA:                  -0.898
REMARK UNBOUND:                -0.898
REMARK  3 active torsions:
REMARK  status: ('A' for Active; 'I' for Inactive)
REMARK    1  A    between atoms: C_5  and  C_8 
REMARK    2  A    between atoms: C_16  and  C_17 
REMARK    3  A    between atoms: C_17  and  N_18 
ROOT
ATOM      1  C   UNK d   1      20.252  75.949  14.841  0.00  0.00     0.053 C 
ATOM      2  C   UNK d   1      20.764  76.971  14.145  0.00  0.00     0.127 A 
ATOM      3  O   UNK d   1      20.698  77.064  12.764  0.00  0.00    -0.305 OA
ATOM      4  C   UNK d   1      21.307  78.225  12.298  0.00  0.00     0.101 A 
ATOM      5  C   UNK d   1      21.782  78.912  13.374  0.00  0.00     0.051 A 
ATOM      6  C   UNK d   1      22.437  80.113  13.192  0.00  0.00     0.021 A 
ATOM      7  C   UNK d   1      22.581  80.568  11.907  0.00  0.00     0.041 A 
ATOM      8  C   UNK d   1      22.092  79.863  10.799  0.00  0.00     0.118 A 
ATOM      9  C   UNK d   1      21.440  78.666  10.959  0.00  0.00     0.039 A 
ATOM     10  O   UNK d   1      22.281  80.396   9.523  0.00  0.00    -0.191 OA
ATOM     11  C   UNK d   1      21.461  78.149  14.588  0.00  0.00     0.218 A 
ATOM     12  O   UNK d   1      21.721  78.432  15.785  0.00  0.00    -0.284 OA
ENDROOT
BRANCH   1  13
ATOM     13  C   UNK d   1      19.585  74.860  14.135  0.00  0.00    -0.033 A 
ATOM     14  C   UNK d   1      20.184  73.616  14.039  0.00  0.00     0.013 A 
ATOM     15  C   UNK d   1      19.581  72.564  13.376  0.00  0.00     0.020 A 
ATOM     16  C   UNK d   1      18.350  72.713  12.779  0.00  0.00     0.011 A 
ATOM     17 Br   UNK d   1      17.510  71.248  11.859  0.00  0.00    -0.051 Br
ATOM     18  C   UNK d   1      17.738  73.946  12.864  0.00  0.00     0.020 A 
ATOM     19  C   UNK d   1      18.353  75.005  13.537  0.00  0.00     0.013 A 
ENDBRANCH   1  13
BRANCH   9  20
ATOM     20  C   UNK d   1      20.877  77.818   9.902  0.00  0.00     0.279 C 
BRANCH  20  21
ATOM     21  N   UNK d   1      20.172  78.437   8.847  0.00  0.00    -0.063 N 
ATOM     22  C   UNK d   1      20.171  77.638   7.639  0.00  0.00     0.261 C 
ATOM     23  C   UNK d   1      19.016  76.654   7.684  0.00  0.00     0.195 C 
ATOM     24  O   UNK d   1      17.856  77.341   7.365  0.00  0.00    -0.388 OA
ATOM     25  C   UNK d   1      17.964  78.633   7.891  0.00  0.00     0.195 C 
ATOM     26  C   UNK d   1      18.749  78.600   9.193  0.00  0.00     0.261 C 
ATOM     27  H   UNK d   1      20.505  79.405   8.666  0.00  0.00     0.280 HD
ENDBRANCH  20  21
ENDBRANCH   9  20
TORSDOF 3
ENDMDL
