/Users/jonathanwahrer/Desktop/Msc/3_Semester/Drug_Design_Praktikum/waehrer_HTS_screening/HTS_experiment/out/docking_results/vina_output/6e43/0294_docked.pdbqt
 OpenBabel03212219483D

 35 38  0  0  0  0  0  0  0  0999 V2000
   21.7510   78.4810   15.4040 N   0  0  0  0  0  0  0  0  0  0  0  0
   20.6390   78.8510   16.1100 N   0  0  0  0  0  0  0  0  0  0  0  0
   20.9040   78.7430   17.4190 C   0  0  0  0  0  0  0  0  0  0  0  0
   22.1620   78.3120   17.4970 N   0  0  0  0  0  0  0  0  0  0  0  0
   22.7030   78.1430   16.2320 C   0  0  0  0  0  0  0  0  0  0  0  0
   21.7280   78.5290   13.9550 C   0  0  0  0  0  2  0  0  0  0  0  0
   20.8550   77.4660   13.3920 C   0  0  0  0  0  0  0  0  0  0  0  0
   20.4800   76.3430   14.1700 N   0  0  0  0  0  0  0  0  0  0  0  0
   20.8150   76.2370   15.1760 H   0  0  0  0  0  0  0  0  0  0  0  0
   20.4410   77.5580   12.2150 O   0  0  0  0  0  0  0  0  0  0  0  0
   19.6680   75.3760   13.6190 N   0  0  0  0  0  0  0  0  0  0  0  0
   19.7590   74.1210   13.8250 C   0  0  0  0  0  3  0  0  0  0  0  0
   18.8700   73.1400   13.2130 C   0  0  0  0  0  0  0  0  0  0  0  0
   17.5340   73.4100   13.0030 C   0  0  0  0  0  3  0  0  0  0  0  0
   16.7090   72.4640   12.4210 C   0  0  0  0  0  3  0  0  0  0  0  0
   17.1820   71.2210   12.0270 C   0  0  0  0  0  0  0  0  0  0  0  0
   16.0190   69.9370   11.2250 Br  0  0  0  0  0  0  0  0  0  0  0  0
   18.5170   70.9510   12.2370 C   0  0  0  0  0  3  0  0  0  0  0  0
   19.3300   71.9020   12.8190 C   0  0  0  0  0  3  0  0  0  0  0  0
   24.0600   77.6810   16.0260 C   0  0  0  0  0  0  0  0  0  0  0  0
   24.3370   76.4790   15.3790 N   0  0  0  0  0  0  0  0  0  0  0  0
   25.5980   76.3090   15.3110 O   0  0  0  0  0  0  0  0  0  0  0  0
   26.2030   77.2910   15.8540 N   0  0  0  0  0  0  0  0  0  0  0  0
   25.2660   78.1740   16.3150 C   0  0  0  0  0  0  0  0  0  0  0  0
   25.6590   79.3590   16.9500 N   0  0  0  0  0  0  0  0  0  0  0  0
   26.5980   79.4060   17.4100 H   0  0  0  0  0  0  0  0  0  0  0  0
   25.0790   80.2230   16.9940 H   0  0  0  0  0  0  0  0  0  0  0  0
   20.0100   79.0340   18.5330 C   0  0  0  0  0  0  0  0  0  0  0  0
   19.2330   80.1120   18.6860 N   0  0  0  0  0  0  0  0  0  0  0  0
   18.5700   80.0110   19.8240 O   0  0  0  0  0  0  0  0  0  0  0  0
   18.8800   78.9020   20.4330 N   0  0  0  0  0  0  0  0  0  0  0  0
   19.7920   78.2570   19.6420 C   0  0  0  0  0  0  0  0  0  0  0  0
   20.3720   77.0050   19.9700 N   0  0  0  0  0  0  0  0  0  0  0  0
   21.0640   76.5570   19.3050 H   0  0  0  0  0  0  0  0  0  0  0  0
   20.1620   76.4790   20.8400 H   0  0  0  0  0  0  0  0  0  0  0  0
  1  2  1  0  0  0  0
  1  5  1  0  0  0  0
  2  3  2  0  0  0  0
  3  4  1  0  0  0  0
  3 28  1  0  0  0  0
  5  4  2  0  0  0  0
  6  1  1  0  0  0  0
  7  6  1  0  0  0  0
  7  8  1  0  0  0  0
  8  9  1  0  0  0  0
 10  7  2  0  0  0  0
 11 12  2  0  0  0  0
 11  8  1  0  0  0  0
 13 12  1  0  0  0  0
 14 13  1  0  0  0  0
 15 14  2  0  0  0  0
 16 18  2  0  0  0  0
 16 15  1  0  0  0  0
 17 16  1  0  0  0  0
 18 19  1  0  0  0  0
 19 13  2  0  0  0  0
 20  5  1  0  0  0  0
 20 24  1  0  0  0  0
 21 20  2  0  0  0  0
 22 21  1  0  0  0  0
 22 23  1  0  0  0  0
 23 24  2  0  0  0  0
 24 25  1  0  0  0  0
 25 27  1  0  0  0  0
 25 26  1  0  0  0  0
 28 29  2  0  0  0  0
 28 32  1  0  0  0  0
 29 30  1  0  0  0  0
 30 31  1  0  0  0  0
 32 33  1  0  0  0  0
 32 31  2  0  0  0  0
 33 35  1  0  0  0  0
 34 33  1  0  0  0  0
M  END
>  <Pose>
1

>  <Score>
-10.869

$$$$
