MODEL 1
REMARK VINA RESULT:   -10.869      0.000      0.000
REMARK INTER + INTRA:         -16.722
REMARK INTER:                 -15.317
REMARK INTRA:                  -1.405
REMARK UNBOUND:                -1.405
REMARK  8 active torsions:
REMARK  status: ('A' for Active; 'I' for Inactive)
REMARK    1  A    between atoms: C_5  and  C_8 
REMARK    2  A    between atoms: N_9  and  N_10 
REMARK       I    between atoms: N_10  and  C_11 
REMARK    3  A    between atoms: C_11  and  C_13 
REMARK    4  A    between atoms: C_13  and  N_14 
REMARK    5  A    between atoms: C_16  and  C_25 
REMARK    6  A    between atoms: C_18  and  C_19 
REMARK    7  A    between atoms: C_23  and  N_24 
REMARK    8  A    between atoms: C_29  and  N_30 
ROOT
ATOM      1  N   UNK d   1      21.751  78.481  15.404  0.00  0.00    -0.239 N 
ATOM      2  N   UNK d   1      20.639  78.851  16.110  0.00  0.00    -0.147 NA
ATOM      3  C   UNK d   1      20.904  78.743  17.419  0.00  0.00     0.206 A 
ATOM      4  N   UNK d   1      22.162  78.312  17.497  0.00  0.00    -0.203 NA
ATOM      5  C   UNK d   1      22.703  78.143  16.232  0.00  0.00     0.184 A 
ENDROOT
BRANCH   1   6
ATOM      6  C   UNK d   1      21.728  78.529  13.955  0.00  0.00     0.257 C 
BRANCH   6   7
ATOM      7  C   UNK d   1      20.855  77.466  13.392  0.00  0.00     0.257 C 
ATOM      8  N   UNK d   1      20.480  76.343  14.170  0.00  0.00    -0.246 N 
ATOM      9  H   UNK d   1      20.815  76.237  15.176  0.00  0.00     0.192 HD
ATOM     10  O   UNK d   1      20.441  77.558  12.215  0.00  0.00    -0.270 OA
BRANCH   8  11
ATOM     11  N   UNK d   1      19.668  75.376  13.619  0.00  0.00    -0.184 NA
ATOM     12  C   UNK d   1      19.759  74.121  13.825  0.00  0.00     0.150 C 
BRANCH  12  13
ATOM     13  C   UNK d   1      18.870  73.140  13.213  0.00  0.00    -0.017 A 
ATOM     14  C   UNK d   1      17.534  73.410  13.003  0.00  0.00     0.014 A 
ATOM     15  C   UNK d   1      16.709  72.464  12.421  0.00  0.00     0.020 A 
ATOM     16  C   UNK d   1      17.182  71.221  12.027  0.00  0.00     0.011 A 
ATOM     17 Br   UNK d   1      16.019  69.937  11.225  0.00  0.00    -0.051 Br
ATOM     18  C   UNK d   1      18.517  70.951  12.237  0.00  0.00     0.020 A 
ATOM     19  C   UNK d   1      19.330  71.902  12.819  0.00  0.00     0.014 A 
ENDBRANCH  12  13
ENDBRANCH   8  11
ENDBRANCH   6   7
ENDBRANCH   1   6
BRANCH   5  20
ATOM     20  C   UNK d   1      24.060  77.681  16.026  0.00  0.00     0.181 A 
ATOM     21  N   UNK d   1      24.337  76.479  15.379  0.00  0.00    -0.097 NA
ATOM     22  O   UNK d   1      25.598  76.309  15.311  0.00  0.00    -0.104 OA
ATOM     23  N   UNK d   1      26.203  77.291  15.854  0.00  0.00    -0.085 NA
ATOM     24  C   UNK d   1      25.266  78.174  16.315  0.00  0.00     0.186 A 
BRANCH  24  25
ATOM     25  N   UNK d   1      25.659  79.359  16.950  0.00  0.00    -0.380 N 
ATOM     26  H   UNK d   1      26.598  79.406  17.410  0.00  0.00     0.158 HD
ATOM     27  H   UNK d   1      25.079  80.223  16.994  0.00  0.00     0.158 HD
ENDBRANCH  24  25
ENDBRANCH   5  20
BRANCH   3  28
ATOM     28  C   UNK d   1      20.010  79.034  18.533  0.00  0.00     0.183 A 
ATOM     29  N   UNK d   1      19.233  80.112  18.686  0.00  0.00    -0.097 NA
ATOM     30  O   UNK d   1      18.570  80.011  19.824  0.00  0.00    -0.104 OA
ATOM     31  N   UNK d   1      18.880  78.902  20.433  0.00  0.00    -0.085 NA
ATOM     32  C   UNK d   1      19.792  78.257  19.642  0.00  0.00     0.186 A 
BRANCH  32  33
ATOM     33  N   UNK d   1      20.372  77.005  19.970  0.00  0.00    -0.380 N 
ATOM     34  H   UNK d   1      21.064  76.557  19.305  0.00  0.00     0.158 HD
ATOM     35  H   UNK d   1      20.162  76.479  20.840  0.00  0.00     0.158 HD
ENDBRANCH  32  33
ENDBRANCH   3  28
TORSDOF 8
ENDMDL
