MODEL 1
REMARK VINA RESULT:   -10.479      0.000      0.000
REMARK INTER + INTRA:         -13.818
REMARK INTER:                 -12.929
REMARK INTRA:                  -0.888
REMARK UNBOUND:                -0.888
REMARK  4 active torsions:
REMARK  status: ('A' for Active; 'I' for Inactive)
REMARK    1  A    between atoms: C_5  and  C_8 
REMARK    2  A    between atoms: N_19  and  C_20 
REMARK    3  A    between atoms: C_20  and  C_21 
REMARK    4  A    between atoms: C_21  and  N_22 
ROOT
ATOM      1  C   UNK d   1      19.951  75.650  14.148  0.00  0.00     0.076 A 
ATOM      2  N   UNK d   1      20.161  75.973  15.441  0.00  0.00    -0.189 N 
ATOM      3  C   UNK d   1      20.856  77.134  15.523  0.00  0.00     0.692 A 
ATOM      4  N   UNK d   1      21.098  77.569  14.275  0.00  0.00    -0.153 N 
ATOM      5  C   UNK d   1      20.548  76.666  13.431  0.00  0.00     0.146 A 
ATOM      6  C   UNK d   1      21.786  78.719  14.409  0.00  0.00     0.084 A 
ATOM      7  C   UNK d   1      21.976  79.007  15.744  0.00  0.00     0.079 A 
ATOM      8  C   UNK d   1      22.659  80.141  16.167  0.00  0.00     0.032 A 
ATOM      9  C   UNK d   1      23.168  81.015  15.234  0.00  0.00     0.002 A 
ATOM     10  C   UNK d   1      22.974  80.720  13.902  0.00  0.00     0.002 A 
ATOM     11  C   UNK d   1      22.301  79.603  13.455  0.00  0.00     0.033 A 
ATOM     12  N   UNK d   1      21.378  77.989  16.418  0.00  0.00    -0.179 N 
ATOM     13  H   UNK d   1      19.848  75.428  16.270  0.00  0.00     0.184 HD
ENDROOT
BRANCH  12  14
ATOM     14  C   UNK d   1      21.358  77.921  17.864  0.00  0.00     0.175 C 
BRANCH  14  15
ATOM     15  C   UNK d   1      19.946  77.972  18.407  0.00  0.00     0.256 C 
BRANCH  15  16
ATOM     16  N   UNK d   1      19.655  79.280  18.920  0.00  0.00    -0.066 N 
ATOM     17  C   UNK d   1      19.040  80.099  17.896  0.00  0.00     0.261 C 
ATOM     18  C   UNK d   1      19.624  81.489  17.833  0.00  0.00     0.195 C 
ATOM     19  O   UNK d   1      19.611  82.042  19.115  0.00  0.00    -0.388 OA
ATOM     20  C   UNK d   1      20.329  81.286  20.017  0.00  0.00     0.195 C 
ATOM     21  C   UNK d   1      20.797  79.984  19.422  0.00  0.00     0.261 C 
ATOM     22  H   UNK d   1      18.958  79.220  19.705  0.00  0.00     0.280 HD
ENDBRANCH  15  16
ENDBRANCH  14  15
ENDBRANCH  12  14
BRANCH   1  23
ATOM     23  C   UNK d   1      19.244  74.476  13.646  0.00  0.00    -0.007 A 
ATOM     24  C   UNK d   1      17.948  74.550  13.188  0.00  0.00     0.015 A 
ATOM     25  C   UNK d   1      17.274  73.430  12.709  0.00  0.00     0.020 A 
ATOM     26  C   UNK d   1      17.902  72.199  12.681  0.00  0.00     0.011 A 
ATOM     27 Br   UNK d   1      16.986  70.670  12.029  0.00  0.00    -0.051 Br
ATOM     28  C   UNK d   1      19.201  72.111  13.138  0.00  0.00     0.020 A 
ATOM     29  C   UNK d   1      19.862  73.246  13.616  0.00  0.00     0.015 A 
ENDBRANCH   1  23
TORSDOF 4
ENDMDL
