/Users/jonathanwahrer/Desktop/Msc/3_Semester/Drug_Design_Praktikum/waehrer_HTS_screening/HTS_experiment/out/docking_results/vina_output/6e43/0302_docked.pdbqt
 OpenBabel03212219483D

 29 33  0  0  1  0  0  0  0  0999 V2000
   19.9510   75.6500   14.1480 C   0  0  0  0  0  0  0  0  0  0  0  0
   20.1610   75.9730   15.4410 N   0  0  0  0  0  0  0  0  0  0  0  0
   20.8560   77.1340   15.5230 C   0  0  1  0  0  3  0  0  0  0  0  0
   21.0980   77.5690   14.2750 N   0  0  0  0  0  0  0  0  0  0  0  0
   20.5480   76.6660   13.4310 C   0  0  0  0  0  3  0  0  0  0  0  0
   21.7860   78.7190   14.4090 C   0  0  0  0  0  0  0  0  0  0  0  0
   21.9760   79.0070   15.7440 C   0  0  0  0  0  0  0  0  0  0  0  0
   22.6590   80.1410   16.1670 C   0  0  0  0  0  3  0  0  0  0  0  0
   23.1680   81.0150   15.2340 C   0  0  0  0  0  3  0  0  0  0  0  0
   22.9740   80.7200   13.9020 C   0  0  0  0  0  3  0  0  0  0  0  0
   22.3010   79.6030   13.4550 C   0  0  0  0  0  3  0  0  0  0  0  0
   21.3780   77.9890   16.4180 N   0  0  0  0  0  0  0  0  0  0  0  0
   19.8480   75.4280   16.2700 H   0  0  0  0  0  0  0  0  0  0  0  0
   21.3580   77.9210   17.8640 C   0  0  0  0  0  2  0  0  0  0  0  0
   19.9460   77.9720   18.4070 C   0  0  0  0  0  2  0  0  0  0  0  0
   19.6550   79.2800   18.9200 N   0  0  0  0  0  4  0  0  0  0  0  0
   19.0400   80.0990   17.8960 C   0  0  0  0  0  2  0  0  0  0  0  0
   19.6240   81.4890   17.8330 C   0  0  0  0  0  2  0  0  0  0  0  0
   19.6110   82.0420   19.1150 O   0  0  0  0  0  0  0  0  0  0  0  0
   20.3290   81.2860   20.0170 C   0  0  0  0  0  2  0  0  0  0  0  0
   20.7970   79.9840   19.4220 C   0  0  0  0  0  2  0  0  0  0  0  0
   18.9580   79.2200   19.7050 H   0  0  0  0  0  0  0  0  0  0  0  0
   19.2440   74.4760   13.6460 C   0  0  0  0  0  0  0  0  0  0  0  0
   17.9480   74.5500   13.1880 C   0  0  0  0  0  3  0  0  0  0  0  0
   17.2740   73.4300   12.7090 C   0  0  0  0  0  3  0  0  0  0  0  0
   17.9020   72.1990   12.6810 C   0  0  0  0  0  0  0  0  0  0  0  0
   16.9860   70.6700   12.0290 Br  0  0  0  0  0  0  0  0  0  0  0  0
   19.2010   72.1110   13.1380 C   0  0  0  0  0  3  0  0  0  0  0  0
   19.8620   73.2460   13.6160 C   0  0  0  0  0  3  0  0  0  0  0  0
  1  2  1  0  0  0  0
  2  3  1  0  0  0  0
  2 13  1  0  0  0  0
  3  4  1  1  0  0  0
  3 12  1  0  0  0  0
  4  6  1  0  0  0  0
  5  1  2  0  0  0  0
  5  4  1  0  0  0  0
  6  7  1  0  0  0  0
  7  8  2  0  0  0  0
  7 12  1  0  0  0  0
  9  8  1  0  0  0  0
 10  9  2  0  0  0  0
 11 10  1  0  0  0  0
 11  6  2  0  0  0  0
 12 14  1  0  0  0  0
 14 15  1  0  0  0  0
 15 16  1  0  0  0  0
 16 21  1  0  0  0  0
 16 22  1  0  0  0  0
 17 16  1  0  0  0  0
 18 17  1  0  0  0  0
 18 19  1  0  0  0  0
 19 20  1  0  0  0  0
 21 20  1  0  0  0  0
 23  1  1  0  0  0  0
 24 23  2  0  0  0  0
 25 24  1  0  0  0  0
 26 25  2  0  0  0  0
 26 28  1  0  0  0  0
 27 26  1  0  0  0  0
 28 29  2  0  0  0  0
 29 23  1  0  0  0  0
M  END
>  <Pose>
1

>  <Score>
-10.479

$$$$
