/Users/jonathanwahrer/Desktop/Msc/3_Semester/Drug_Design_Praktikum/waehrer_HTS_screening/HTS_experiment/out/docking_results/vina_output/6e43/0305_docked.pdbqt
 OpenBabel03212219483D

 27 30  0  0  0  0  0  0  0  0999 V2000
   19.6370   75.1420   13.6390 C   0  0  0  0  0  0  0  0  0  0  0  0
   20.0120   76.2480   13.0090 N   0  0  0  0  0  0  0  0  0  0  0  0
   20.6770   77.0780   13.8510 C   0  0  0  0  0  0  0  0  0  0  0  0
   20.7170   76.4510   15.0410 N   0  0  0  0  0  0  0  0  0  0  0  0
   20.1160   75.3110   14.9420 N   0  0  0  0  0  0  0  0  0  0  0  0
   21.0710   78.2010   13.2390 N   0  0  0  0  0  0  0  0  0  0  0  0
   20.6540   78.0780   11.9740 C   0  0  0  0  0  0  0  0  0  0  0  0
   19.9880   76.8580   11.7920 C   0  0  0  0  0  0  0  0  0  0  0  0
   19.5210   76.5050   10.6050 N   0  0  0  0  0  0  0  0  0  0  0  0
   19.7020   77.3810    9.5690 C   0  0  0  0  0  0  0  0  0  0  0  0
   19.2710   77.0860    8.4290 O   0  0  0  0  0  0  0  0  0  0  0  0
   20.3260   78.5560    9.7130 N   0  0  0  0  0  0  0  0  0  0  0  0
   20.8140   78.9300   10.9070 C   0  0  0  0  0  0  0  0  0  0  0  0
   21.4080   80.0260   11.0810 O   0  0  0  0  0  0  0  0  0  0  0  0
   18.9330   75.2400   10.2460 C   0  0  0  0  0  1  0  0  0  0  0  0
   20.4620   79.2230    8.9260 H   0  0  0  0  0  0  0  0  0  0  0  0
   18.9200   73.9270   13.3060 C   0  0  0  0  0  0  0  0  0  0  0  0
   17.5320   74.0120   13.1710 C   0  0  0  0  0  3  0  0  0  0  0  0
   16.7790   72.9730   12.7200 C   0  0  0  0  0  3  0  0  0  0  0  0
   17.3870   71.7840   12.3750 C   0  0  0  0  0  0  0  0  0  0  0  0
   16.3360   70.3400   11.7460 Br  0  0  0  0  0  0  0  0  0  0  0  0
   18.7520   71.6390   12.4840 C   0  0  0  0  0  3  0  0  0  0  0  0
   19.4600   72.7200   12.9450 C   0  0  0  0  0  3  0  0  0  0  0  0
   21.7900   79.3130   13.8190 C   0  0  0  0  0  2  0  0  0  0  0  0
   23.2710   79.0360   13.9670 C   0  0  0  0  0  2  0  0  0  0  0  0
   23.5970   78.6320   15.2560 O   0  0  0  0  0  0  0  0  0  0  0  0
   24.4090   77.5030   15.1460 C   0  0  0  0  0  1  0  0  0  0  0  0
  1  5  2  0  0  0  0
  2  1  1  0  0  0  0
  2  3  1  0  0  0  0
  3  4  2  0  0  0  0
  5  4  1  0  0  0  0
  6 24  1  0  0  0  0
  6  3  1  0  0  0  0
  7  6  1  0  0  0  0
  8  7  2  0  0  0  0
  8  2  1  0  0  0  0
  9  8  1  0  0  0  0
 10 12  1  0  0  0  0
 10  9  1  0  0  0  0
 11 10  2  0  0  0  0
 12 13  1  0  0  0  0
 13 14  2  0  0  0  0
 13  7  1  0  0  0  0
 15  9  1  0  0  0  0
 16 12  1  0  0  0  0
 17  1  1  0  0  0  0
 18 17  1  0  0  0  0
 19 18  2  0  0  0  0
 20 22  2  0  0  0  0
 20 19  1  0  0  0  0
 21 20  1  0  0  0  0
 22 23  1  0  0  0  0
 23 17  2  0  0  0  0
 24 25  1  0  0  0  0
 25 26  1  0  0  0  0
 27 26  1  0  0  0  0
M  END
>  <Pose>
1

>  <Score>
-9.015

$$$$
