MODEL 1
REMARK VINA RESULT:    -9.102      0.000      0.000
REMARK INTER + INTRA:         -13.248
REMARK INTER:                 -12.295
REMARK INTRA:                  -0.952
REMARK UNBOUND:                -0.952
REMARK  6 active torsions:
REMARK  status: ('A' for Active; 'I' for Inactive)
REMARK    1  A    between atoms: C_5  and  C_8 
REMARK    2  A    between atoms: C_9  and  C_28 
REMARK    3  A    between atoms: C_16  and  C_17 
REMARK    4  A    between atoms: C_17  and  N_18 
REMARK    5  A    between atoms: C_28  and  O_30 
REMARK    6  A    between atoms: O_30  and  C_31 
ROOT
ATOM      1  C   UNK d   1      19.817  77.530   9.327  0.00  0.00     0.065 A 
ATOM      2  C   UNK d   1      18.872  78.407   8.850  0.00  0.00     0.166 A 
ATOM      3  O   UNK d   1      18.054  78.109   7.859  0.00  0.00    -0.302 OA
ATOM      4  C   UNK d   1      18.093  76.944   7.264  0.00  0.00     0.101 A 
ATOM      5  C   UNK d   1      19.001  76.039   7.687  0.00  0.00     0.050 A 
ATOM      6  C   UNK d   1      19.064  74.803   7.083  0.00  0.00     0.021 A 
ATOM      7  C   UNK d   1      18.193  74.529   6.060  0.00  0.00     0.041 A 
ATOM      8  C   UNK d   1      17.249  75.481   5.627  0.00  0.00     0.118 A 
ATOM      9  C   UNK d   1      17.169  76.711   6.209  0.00  0.00     0.039 A 
ATOM     10  O   UNK d   1      16.455  75.028   4.587  0.00  0.00    -0.191 OA
ATOM     11  C   UNK d   1      19.891  76.277   8.716  0.00  0.00     0.199 A 
ATOM     12  O   UNK d   1      20.721  75.447   9.101  0.00  0.00    -0.286 OA
ENDROOT
BRANCH   9  13
ATOM     13  C   UNK d   1      16.276  77.791   5.865  0.00  0.00     0.279 C 
BRANCH  13  14
ATOM     14  N   UNK d   1      15.198  78.192   6.672  0.00  0.00    -0.064 N 
ATOM     15  C   UNK d   1      14.110  77.281   6.620  0.00  0.00     0.254 C 
ATOM     16  C   UNK d   1      12.740  77.779   6.862  0.00  0.00     0.144 C 
ATOM     17  N   UNK d   1      12.607  79.163   6.707  0.00  0.00    -0.413 N 
ATOM     18  C   UNK d   1      13.583  79.998   7.258  0.00  0.00     0.144 C 
ATOM     19  C   UNK d   1      11.518  79.699   6.004  0.00  0.00     0.143 C 
ATOM     20  C   UNK d   1      14.954  79.581   6.830  0.00  0.00     0.254 C 
ATOM     21  H   UNK d   1      15.614  77.948   7.702  0.00  0.00     0.280 HD
ENDBRANCH  13  14
ENDBRANCH   9  13
BRANCH   2  22
ATOM     22  C   UNK d   1      18.779  79.734   9.478  0.00  0.00     0.318 C 
ATOM     23  O   UNK d   1      19.717  80.546   9.280  0.00  0.00    -0.257 OA
BRANCH  22  24
ATOM     24  O   UNK d   1      17.736  80.129  10.258  0.00  0.00    -0.316 OA
BRANCH  24  25
ATOM     25  C   UNK d   1      17.848  81.263  11.084  0.00  0.00     0.175 C 
ATOM     26  C   UNK d   1      16.484  81.636  11.594  0.00  0.00     0.034 C 
ENDBRANCH  24  25
ENDBRANCH  22  24
ENDBRANCH   2  22
BRANCH   1  27
ATOM     27  C   UNK d   1      20.666  77.893  10.430  0.00  0.00    -0.019 A 
ATOM     28  C   UNK d   1      21.941  78.429  10.267  0.00  0.00     0.014 A 
ATOM     29  C   UNK d   1      22.751  78.790  11.322  0.00  0.00     0.020 A 
ATOM     30  C   UNK d   1      22.296  78.621  12.597  0.00  0.00     0.011 A 
ATOM     31 Br   UNK d   1      23.432  79.131  14.049  0.00  0.00    -0.051 Br
ATOM     32  C   UNK d   1      21.041  78.093  12.813  0.00  0.00     0.020 A 
ATOM     33  C   UNK d   1      20.234  77.733  11.721  0.00  0.00     0.014 A 
ENDBRANCH   1  27
TORSDOF 6
ENDMDL
