/Users/jonathanwahrer/Desktop/Msc/3_Semester/Drug_Design_Praktikum/waehrer_HTS_screening/HTS_experiment/out/docking_results/vina_output/6e43/0309_docked.pdbqt
 OpenBabel03212219493D

 33 36  0  0  0  0  0  0  0  0999 V2000
   19.8170   77.5300    9.3270 C   0  0  0  0  0  0  0  0  0  0  0  0
   18.8720   78.4070    8.8500 C   0  0  0  0  0  0  0  0  0  0  0  0
   18.0540   78.1090    7.8590 O   0  0  0  0  0  0  0  0  0  0  0  0
   18.0930   76.9440    7.2640 C   0  0  0  0  0  0  0  0  0  0  0  0
   19.0010   76.0390    7.6870 C   0  0  0  0  0  0  0  0  0  0  0  0
   19.0640   74.8030    7.0830 C   0  0  0  0  0  3  0  0  0  0  0  0
   18.1930   74.5290    6.0600 C   0  0  0  0  0  3  0  0  0  0  0  0
   17.2490   75.4810    5.6270 C   0  0  0  0  0  0  0  0  0  0  0  0
   17.1690   76.7110    6.2090 C   0  0  0  0  0  0  0  0  0  0  0  0
   16.4550   75.0280    4.5870 O   0  0  0  0  0  1  0  0  0  0  0  0
   19.8910   76.2770    8.7160 C   0  0  0  0  0  0  0  0  0  0  0  0
   20.7210   75.4470    9.1010 O   0  0  0  0  0  0  0  0  0  0  0  0
   16.2760   77.7910    5.8650 C   0  0  0  0  0  2  0  0  0  0  0  0
   15.1980   78.1920    6.6720 N   0  0  0  0  0  4  0  0  0  0  0  0
   14.1100   77.2810    6.6200 C   0  0  0  0  0  2  0  0  0  0  0  0
   12.7400   77.7790    6.8620 C   0  0  0  0  0  2  0  0  0  0  0  0
   12.6070   79.1630    6.7070 N   0  0  0  0  0  0  0  0  0  0  0  0
   13.5830   79.9980    7.2580 C   0  0  0  0  0  2  0  0  0  0  0  0
   11.5180   79.6990    6.0040 C   0  0  0  0  0  1  0  0  0  0  0  0
   14.9540   79.5810    6.8300 C   0  0  0  0  0  2  0  0  0  0  0  0
   15.6140   77.9480    7.7020 H   0  0  0  0  0  0  0  0  0  0  0  0
   18.7790   79.7340    9.4780 C   0  0  0  0  0  0  0  0  0  0  0  0
   19.7170   80.5460    9.2800 O   0  0  0  0  0  0  0  0  0  0  0  0
   17.7360   80.1290   10.2580 O   0  0  0  0  0  0  0  0  0  0  0  0
   17.8480   81.2630   11.0840 C   0  0  0  0  0  2  0  0  0  0  0  0
   16.4840   81.6360   11.5940 C   0  0  0  0  0  1  0  0  0  0  0  0
   20.6660   77.8930   10.4300 C   0  0  0  0  0  0  0  0  0  0  0  0
   21.9410   78.4290   10.2670 C   0  0  0  0  0  3  0  0  0  0  0  0
   22.7510   78.7900   11.3220 C   0  0  0  0  0  3  0  0  0  0  0  0
   22.2960   78.6210   12.5970 C   0  0  0  0  0  0  0  0  0  0  0  0
   23.4320   79.1310   14.0490 Br  0  0  0  0  0  0  0  0  0  0  0  0
   21.0410   78.0930   12.8130 C   0  0  0  0  0  3  0  0  0  0  0  0
   20.2340   77.7330   11.7210 C   0  0  0  0  0  3  0  0  0  0  0  0
  1 27  1  0  0  0  0
  2  1  2  0  0  0  0
  2 22  1  0  0  0  0
  3  2  1  0  0  0  0
  4  5  1  0  0  0  0
  4  3  1  0  0  0  0
  5 11  1  0  0  0  0
  6  5  2  0  0  0  0
  7  6  1  0  0  0  0
  8  7  2  0  0  0  0
  8  9  1  0  0  0  0
  9  4  2  0  0  0  0
 10  8  1  0  0  0  0
 11 12  2  0  0  0  0
 11  1  1  0  0  0  0
 13  9  1  0  0  0  0
 13 14  1  0  0  0  0
 14 20  1  0  0  0  0
 14 21  1  0  0  0  0
 15 14  1  0  0  0  0
 15 16  1  0  0  0  0
 17 16  1  0  0  0  0
 17 18  1  0  0  0  0
 19 17  1  0  0  0  0
 20 18  1  0  0  0  0
 22 24  1  0  0  0  0
 23 22  2  0  0  0  0
 24 25  1  0  0  0  0
 25 26  1  0  0  0  0
 27 33  1  0  0  0  0
 28 27  2  0  0  0  0
 28 29  1  0  0  0  0
 29 30  2  0  0  0  0
 30 32  1  0  0  0  0
 30 31  1  0  0  0  0
 33 32  2  0  0  0  0
M  END
>  <Pose>
1

>  <Score>
-9.102

$$$$
