/Users/jonathanwahrer/Desktop/Msc/3_Semester/Drug_Design_Praktikum/waehrer_HTS_screening/HTS_experiment/out/docking_results/vina_output/6e43/0324_docked.pdbqt
 OpenBabel03212219493D

 34 38  0  0  1  0  0  0  0  0999 V2000
   21.1940   77.9800   12.9480 C   0  0  0  0  0  0  0  0  0  0  0  0
   22.4510   78.5800   13.1580 C   0  0  0  0  0  3  0  0  0  0  0  0
   22.9160   78.2950   14.3790 N   0  0  0  0  0  0  0  0  0  0  0  0
   23.9510   78.4900   15.2330 C   0  0  0  0  0  0  0  0  0  0  0  0
   23.6330   77.8070   16.3810 C   0  0  0  0  0  0  0  0  0  0  0  0
   22.4200   77.2160   16.1970 N   0  0  0  0  0  0  0  0  0  0  0  0
   21.9950   77.5290   14.9590 C   0  0  1  0  0  3  0  0  0  0  0  0
   20.9410   77.3340   14.0880 N   0  0  0  0  0  0  0  0  0  0  0  0
   24.5330   77.8420   17.4260 C   0  0  0  0  0  3  0  0  0  0  0  0
   25.7290   78.5440   17.3390 C   0  0  0  0  0  3  0  0  0  0  0  0
   26.0430   79.2260   16.1910 C   0  0  0  0  0  3  0  0  0  0  0  0
   25.1300   79.1890   15.1310 C   0  0  0  0  0  3  0  0  0  0  0  0
   21.9330   76.6310   16.9110 H   0  0  0  0  0  0  0  0  0  0  0  0
   19.7710   76.5580   14.4400 C   0  0  0  0  0  2  0  0  0  0  0  0
   19.9720   75.0640   14.3440 C   0  0  0  0  0  2  0  0  0  0  0  0
   18.8460   74.4090   13.5840 C   0  0  0  0  0  2  0  0  0  0  0  0
   19.2580   73.6080   12.4650 N   0  0  0  0  0  0  0  0  0  0  0  0
   18.1820   73.7010   11.4910 C   0  0  0  0  0  2  0  0  0  0  0  0
   17.7790   72.4100   10.8850 C   0  0  0  0  0  2  0  0  0  0  0  0
   17.6270   71.3060   11.7920 N   0  0  0  0  0  4  0  0  0  0  0  0
   18.3460   71.4770   13.0370 C   0  0  0  0  0  2  0  0  0  0  0  0
   18.1120   70.4780   11.3200 H   0  0  0  0  0  0  0  0  0  0  0  0
   19.6130   72.2580   12.7520 C   0  0  0  0  0  2  0  0  0  0  0  0
   16.2620   70.9110   11.9360 C   0  0  0  0  0  2  0  0  0  0  0  0
   15.8170   69.7700   11.0870 C   0  0  0  0  0  2  0  0  0  0  0  0
   15.3100   70.1570    9.8470 O   0  0  0  0  0  0  0  0  0  0  0  0
   14.3390   70.2040    9.8880 H   0  0  0  0  0  0  0  0  0  0  0  0
   20.4190   78.1400   11.7190 C   0  0  0  0  0  0  0  0  0  0  0  0
   20.1330   79.3140   11.0990 C   0  0  0  0  0  3  0  0  0  0  0  0
   19.4170   79.3850    9.8920 C   0  0  0  0  0  3  0  0  0  0  0  0
   18.9650   78.2480    9.2740 C   0  0  0  0  0  0  0  0  0  0  0  0
   17.9890   78.3430    7.6260 Br  0  0  0  0  0  0  0  0  0  0  0  0
   19.2410   77.0560    9.8830 C   0  0  0  0  0  3  0  0  0  0  0  0
   19.9480   76.9960   11.0740 C   0  0  0  0  0  3  0  0  0  0  0  0
  1  2  2  0  0  0  0
  1  8  1  0  0  0  0
  2  3  1  0  0  0  0
  3  7  1  0  0  0  0
  3  4  1  0  0  0  0
  4  5  1  0  0  0  0
  5  9  2  0  0  0  0
  6  5  1  0  0  0  0
  6 13  1  0  0  0  0
  7  8  1  1  0  0  0
  7  6  1  0  0  0  0
  8 14  1  0  0  0  0
 10  9  1  0  0  0  0
 11 10  2  0  0  0  0
 12  4  2  0  0  0  0
 12 11  1  0  0  0  0
 15 14  1  0  0  0  0
 16 15  1  0  0  0  0
 17 23  1  0  0  0  0
 17 16  1  0  0  0  0
 18 17  1  0  0  0  0
 19 18  1  0  0  0  0
 19 20  1  0  0  0  0
 20 24  1  0  0  0  0
 20 21  1  0  0  0  0
 22 20  1  0  0  0  0
 23 21  1  0  0  0  0
 25 24  1  0  0  0  0
 26 27  1  0  0  0  0
 26 25  1  0  0  0  0
 28  1  1  0  0  0  0
 29 28  1  0  0  0  0
 30 29  2  0  0  0  0
 31 33  2  0  0  0  0
 31 30  1  0  0  0  0
 32 31  1  0  0  0  0
 33 34  1  0  0  0  0
 34 28  2  0  0  0  0
M  END
>  <Pose>
1

>  <Score>
-9.665

$$$$
