MODEL 1
REMARK VINA RESULT:   -10.005      0.000      0.000
REMARK INTER + INTRA:         -14.940
REMARK INTER:                 -14.685
REMARK INTRA:                  -0.256
REMARK UNBOUND:                -0.256
REMARK  8 active torsions:
REMARK  status: ('A' for Active; 'I' for Inactive)
REMARK    1  A    between atoms: C_5  and  C_8 
REMARK    2  A    between atoms: N_9  and  C_26 
REMARK    3  A    between atoms: C_14  and  C_15 
REMARK    4  A    between atoms: C_15  and  C_17 
REMARK    5  A    between atoms: C_20  and  O_23 
REMARK    6  A    between atoms: C_26  and  C_27 
REMARK    7  A    between atoms: C_27  and  C_28 
REMARK    8  A    between atoms: C_28  and  N_29 
ROOT
ATOM      1  C   UNK d   1      20.584  78.115  12.812  0.00  0.00     0.161 A 
ATOM      2  N   UNK d   1      20.805  78.628  11.488  0.00  0.00    -0.332 N 
ATOM      3  C   UNK d   1      22.152  79.022  11.312  0.00  0.00     0.295 A 
ATOM      4  O   UNK d   1      22.694  79.535  10.284  0.00  0.00    -0.264 OA
ATOM      5  C   UNK d   1      22.902  78.741  12.557  0.00  0.00     0.250 A 
ATOM      6  O   UNK d   1      24.118  78.975  12.734  0.00  0.00    -0.282 OA
ATOM      7  C   UNK d   1      21.933  78.165  13.466  0.00  0.00     0.062 A 
ENDROOT
BRANCH   7   8
ATOM      8  C   UNK d   1      22.234  77.802  14.693  0.00  0.00     0.130 C 
ATOM      9  O   UNK d   1      23.145  76.737  14.856  0.00  0.00    -0.190 OA
BRANCH   8  10
ATOM     10  C   UNK d   1      21.728  78.396  15.904  0.00  0.00     0.002 A 
ATOM     11  C   UNK d   1      21.247  77.745  16.986  0.00  0.00     0.024 A 
ATOM     12  C   UNK d   1      20.823  78.438  18.100  0.00  0.00    -0.028 A 
ATOM     13  C   UNK d   1      20.859  79.813  18.191  0.00  0.00     0.074 A 
ATOM     14  C   UNK d   1      20.299  77.669  19.276  0.00  0.00     0.051 C 
ATOM     15  C   UNK d   1      21.354  80.455  17.073  0.00  0.00     0.038 A 
ATOM     16  C   UNK d   1      21.781  79.798  15.953  0.00  0.00     0.017 A 
BRANCH  13  17
ATOM     17  O   UNK d   1      20.431  80.506  19.317  0.00  0.00    -0.355 OA
ATOM     18  C   UNK d   1      19.243  81.282  19.265  0.00  0.00     0.210 C 
ENDBRANCH  13  17
ENDBRANCH   8  10
ENDBRANCH   7   8
BRANCH   1  19
ATOM     19  C   UNK d   1      20.013  76.766  12.825  0.00  0.00    -0.030 A 
ATOM     20  C   UNK d   1      19.477  76.214  11.681  0.00  0.00     0.011 A 
ATOM     21  C   UNK d   1      18.929  74.927  11.691  0.00  0.00     0.019 A 
ATOM     22  C   UNK d   1      18.912  74.179  12.846  0.00  0.00     0.011 A 
ATOM     23 Br   UNK d   1      18.150  72.415  12.823  0.00  0.00    -0.051 Br
ATOM     24  C   UNK d   1      19.442  74.719  13.985  0.00  0.00     0.019 A 
ATOM     25  C   UNK d   1      19.976  75.986  13.958  0.00  0.00     0.011 A 
ENDBRANCH   1  19
BRANCH   2  26
ATOM     26  C   UNK d   1      19.763  78.726  10.482  0.00  0.00     0.129 C 
BRANCH  26  27
ATOM     27  C   UNK d   1      20.160  78.146   9.152  0.00  0.00     0.048 C 
BRANCH  27  28
ATOM     28  C   UNK d   1      19.117  78.393   8.105  0.00  0.00     0.236 C 
BRANCH  28  29
ATOM     29  N   UNK d   1      18.845  77.243   7.293  0.00  0.00    -0.067 N 
ATOM     30  C   UNK d   1      17.455  77.131   6.903  0.00  0.00     0.261 C 
ATOM     31  C   UNK d   1      17.379  76.016   5.855  0.00  0.00     0.195 C 
ATOM     32  O   UNK d   1      18.574  75.314   5.798  0.00  0.00    -0.388 OA
ATOM     33  C   UNK d   1      18.940  74.866   7.087  0.00  0.00     0.195 C 
ATOM     34  C   UNK d   1      19.320  76.061   7.953  0.00  0.00     0.261 C 
ATOM     35  H   UNK d   1      19.395  77.335   6.387  0.00  0.00     0.280 HD
ENDBRANCH  28  29
ENDBRANCH  27  28
ENDBRANCH  26  27
ENDBRANCH   2  26
TORSDOF 8
ENDMDL
