/Users/jonathanwahrer/Desktop/Msc/3_Semester/Drug_Design_Praktikum/waehrer_HTS_screening/HTS_experiment/out/docking_results/vina_output/6e43/0347_docked.pdbqt
 OpenBabel03212219503D

 34 37  0  0  1  0  0  0  0  0999 V2000
   20.7390   78.7180   15.6760 C   0  0  2  0  0  3  0  0  0  0  0  0
   19.9710   78.8960   16.8910 N   0  0  0  0  0  0  0  0  0  0  0  0
   20.0230   77.6480   17.5860 C   0  0  0  0  0  0  0  0  0  0  0  0
   19.8960   77.4680   18.8230 O   0  0  0  0  0  0  0  0  0  0  0  0
   20.2530   76.6330   16.5640 C   0  0  0  0  0  0  0  0  0  0  0  0
   20.3730   75.3880   16.6880 O   0  0  0  0  0  0  0  0  0  0  0  0
   20.3310   77.3200   15.2790 C   0  0  0  0  0  0  0  0  0  0  0  0
   20.1290   76.8040   14.0920 C   0  0  0  0  0  0  0  0  0  0  0  0
   20.3200   77.6690   13.0000 O   0  0  0  0  0  1  0  0  0  0  0  0
   19.2680   80.1090   17.3420 C   0  0  0  0  0  2  0  0  0  0  0  0
   20.1040   80.8470   18.3990 C   0  0  0  0  0  2  0  0  0  0  0  0
   19.1850   81.6140   19.3060 C   0  0  0  0  0  2  0  0  0  0  0  0
   19.9760   82.4340   20.1930 N   0  0  0  0  0  4  0  0  0  0  0  0
   19.2200   83.0860   21.2160 C   0  0  0  0  0  2  0  0  0  0  0  0
   18.3830   84.2080   20.7040 C   0  0  0  0  0  2  0  0  0  0  0  0
   19.1560   85.1330   20.0250 O   0  0  0  0  0  0  0  0  0  0  0  0
   19.7350   84.4810   18.9350 C   0  0  0  0  0  2  0  0  0  0  0  0
   20.7140   83.4580   19.4760 C   0  0  0  0  0  2  0  0  0  0  0  0
   20.6940   81.8230   20.6470 H   0  0  0  0  0  0  0  0  0  0  0  0
   22.1690   78.8070   15.9350 C   0  0  0  0  0  0  0  0  0  0  0  0
   23.0750   78.6800   14.9110 C   0  0  0  0  0  3  0  0  0  0  0  0
   24.4510   78.7510   15.1470 C   0  0  0  0  0  3  0  0  0  0  0  0
   24.9250   78.9500   16.4220 C   0  0  0  0  0  0  0  0  0  0  0  0
   26.8040   79.0430   16.7390 Br  0  0  0  0  0  0  0  0  0  0  0  0
   24.0320   79.0770   17.4530 C   0  0  0  0  0  3  0  0  0  0  0  0
   22.6740   79.0050   17.2010 C   0  0  0  0  0  3  0  0  0  0  0  0
   19.7210   75.4190   13.8750 C   0  0  0  0  0  0  0  0  0  0  0  0
   18.4700   75.0400   13.4440 C   0  0  0  0  0  3  0  0  0  0  0  0
   18.0700   73.7290   13.2570 C   0  0  0  0  0  0  0  0  0  0  0  0
   18.9680   72.7330   13.5130 C   0  0  0  0  0  3  0  0  0  0  0  0
   20.2460   73.0700   13.9500 C   0  0  0  0  0  3  0  0  0  0  0  0
   20.6090   74.3880   14.1260 C   0  0  0  0  0  3  0  0  0  0  0  0
   16.7790   73.5340   12.8200 O   0  0  0  0  0  0  0  0  0  0  0  0
   16.1850   72.3450   12.4280 C   0  0  0  0  0  1  0  0  0  0  0  0
  1 20  1  1  0  0  0
  1  2  1  0  0  0  0
  2 10  1  0  0  0  0
  2  3  1  0  0  0  0
  3  4  2  0  0  0  0
  5  6  2  0  0  0  0
  5  3  1  0  0  0  0
  7  1  1  0  0  0  0
  7  5  1  0  0  0  0
  8  7  2  0  0  0  0
  9  8  1  0  0  0  0
 10 11  1  0  0  0  0
 11 12  1  0  0  0  0
 12 13  1  0  0  0  0
 13 19  1  0  0  0  0
 13 14  1  0  0  0  0
 15 14  1  0  0  0  0
 16 15  1  0  0  0  0
 17 18  1  0  0  0  0
 17 16  1  0  0  0  0
 18 13  1  0  0  0  0
 20 26  1  0  0  0  0
 21 22  1  0  0  0  0
 21 20  2  0  0  0  0
 22 23  2  0  0  0  0
 23 24  1  0  0  0  0
 23 25  1  0  0  0  0
 26 25  2  0  0  0  0
 27  8  1  0  0  0  0
 27 32  1  0  0  0  0
 28 27  2  0  0  0  0
 29 28  1  0  0  0  0
 29 30  2  0  0  0  0
 30 31  1  0  0  0  0
 31 32  2  0  0  0  0
 33 29  1  0  0  0  0
 34 33  1  0  0  0  0
M  END
>  <Pose>
1

>  <Score>
-8.911

$$$$
