/Users/jonathanwahrer/Desktop/Msc/3_Semester/Drug_Design_Praktikum/waehrer_HTS_screening/HTS_experiment/out/docking_results/vina_output/6e43/0349_docked.pdbqt
 OpenBabel03212219503D

 32 35  0  0  1  0  0  0  0  0999 V2000
   20.6810   76.6640   13.8470 C   0  0  1  0  0  3  0  0  0  0  0  0
   20.9020   77.7580   13.0040 N   0  0  0  0  0  0  0  0  0  0  0  0
   21.9290   78.5430   13.7200 C   0  0  0  0  0  0  0  0  0  0  0  0
   22.8190   79.2780   13.2100 O   0  0  0  0  0  0  0  0  0  0  0  0
   21.6710   78.2700   15.1380 C   0  0  0  0  0  0  0  0  0  0  0  0
   22.2860   78.7270   16.1500 O   0  0  0  0  0  0  0  0  0  0  0  0
   20.5240   77.3430   15.1640 C   0  0  0  0  0  0  0  0  0  0  0  0
   19.6070   77.2250   16.0970 C   0  0  0  0  0  0  0  0  0  0  0  0
   18.5440   76.3440   15.9320 O   0  0  0  0  0  1  0  0  0  0  0  0
   20.4480   78.2470   11.7110 C   0  0  0  0  0  2  0  0  0  0  0  0
   20.8040   77.3490   10.5550 C   0  0  0  0  0  2  0  0  0  0  0  0
   19.7740   77.2320    9.5750 N   0  0  0  0  0  4  0  0  0  0  0  0
   20.0370   76.1030    8.7040 C   0  0  0  0  0  2  0  0  0  0  0  0
   18.9090   75.9870    7.7120 C   0  0  0  0  0  2  0  0  0  0  0  0
   19.0250   77.0920    6.8530 O   0  0  0  0  0  0  0  0  0  0  0  0
   18.8110   78.2270    7.6000 C   0  0  0  0  0  2  0  0  0  0  0  0
   19.8340   78.4140    8.6910 C   0  0  0  0  0  2  0  0  0  0  0  0
   18.8290   77.1780    9.9800 H   0  0  0  0  0  0  0  0  0  0  0  0
   19.9420   75.4900   13.5830 C   0  0  0  0  0  0  0  0  0  0  0  0
   20.3930   74.2980   14.1690 C   0  0  0  0  0  3  0  0  0  0  0  0
   19.7630   73.1030   13.9740 C   0  0  0  0  0  3  0  0  0  0  0  0
   18.6390   73.0210   13.1800 C   0  0  0  0  0  0  0  0  0  0  0  0
   17.7320   71.3610   12.8860 Br  0  0  0  0  0  0  0  0  0  0  0  0
   18.1930   74.1850   12.6030 C   0  0  0  0  0  3  0  0  0  0  0  0
   18.8410   75.4040   12.8060 C   0  0  0  0  0  3  0  0  0  0  0  0
   19.6390   77.9770   17.3410 C   0  0  0  0  0  0  0  0  0  0  0  0
   20.1610   77.5510   18.5230 C   0  0  0  0  0  3  0  0  0  0  0  0
   20.1690   78.3880   19.6290 C   0  0  0  0  0  3  0  0  0  0  0  0
   19.6490   79.6600   19.5460 C   0  0  0  0  0  0  0  0  0  0  0  0
   19.1110   80.1280   18.3700 C   0  0  0  0  0  3  0  0  0  0  0  0
   19.6400   80.5890   20.7160 C   0  0  0  0  0  1  0  0  0  0  0  0
   19.1150   79.2730   17.2770 C   0  0  0  0  0  3  0  0  0  0  0  0
  1 19  1  6  0  0  0
  1  7  1  0  0  0  0
  2  3  1  0  0  0  0
  2  1  1  0  0  0  0
  3  5  1  0  0  0  0
  4  3  2  0  0  0  0
  5  7  1  0  0  0  0
  5  6  2  0  0  0  0
  7  8  2  0  0  0  0
  8 26  1  0  0  0  0
  9  8  1  0  0  0  0
 10  2  1  0  0  0  0
 11 10  1  0  0  0  0
 12 18  1  0  0  0  0
 12 11  1  0  0  0  0
 13 12  1  0  0  0  0
 14 13  1  0  0  0  0
 15 16  1  0  0  0  0
 15 14  1  0  0  0  0
 16 17  1  0  0  0  0
 17 12  1  0  0  0  0
 19 20  1  0  0  0  0
 21 20  2  0  0  0  0
 22 21  1  0  0  0  0
 23 22  1  0  0  0  0
 24 25  1  0  0  0  0
 24 22  2  0  0  0  0
 25 19  2  0  0  0  0
 26 27  1  0  0  0  0
 27 28  2  0  0  0  0
 29 28  1  0  0  0  0
 29 31  1  0  0  0  0
 30 29  2  0  0  0  0
 32 26  2  0  0  0  0
 32 30  1  0  0  0  0
M  END
>  <Pose>
1

>  <Score>
-9.188

$$$$
