/Users/jonathanwahrer/Desktop/Msc/3_Semester/Drug_Design_Praktikum/waehrer_HTS_screening/HTS_experiment/out/docking_results/vina_output/6e43/0354_docked.pdbqt
 OpenBabel03212219513D

 32 35  0  0  1  0  0  0  0  0999 V2000
   21.4070   77.1970   14.3910 C   0  0  1  0  0  3  0  0  0  0  0  0
   21.7720   78.2520   13.5010 N   0  0  0  0  0  0  0  0  0  0  0  0
   22.2290   79.3360   14.3500 C   0  0  0  0  0  0  0  0  0  0  0  0
   22.9620   80.2840   13.9650 O   0  0  0  0  0  0  0  0  0  0  0  0
   21.6930   79.1180   15.6800 C   0  0  0  0  0  0  0  0  0  0  0  0
   21.8550   79.8390   16.7110 O   0  0  0  0  0  0  0  0  0  0  0  0
   20.9200   77.8950   15.6100 C   0  0  0  0  0  0  0  0  0  0  0  0
   19.9690   77.5290   16.4520 C   0  0  0  0  0  0  0  0  0  0  0  0
   19.3130   76.3090   16.1590 O   0  0  0  0  0  1  0  0  0  0  0  0
   21.8120   78.3340   12.0400 C   0  0  0  0  0  2  0  0  0  0  0  0
   20.6490   79.0230   11.4120 C   0  0  0  0  0  2  0  0  0  0  0  0
   20.6430   78.8650    9.8990 C   0  0  0  0  0  2  0  0  0  0  0  0
   19.4830   78.1300    9.4520 N   0  0  0  0  0  4  0  0  0  0  0  0
   18.9270   78.6610    8.2280 C   0  0  0  0  0  2  0  0  0  0  0  0
   18.0160   77.5740    7.6530 C   0  0  0  0  0  2  0  0  0  0  0  0
   18.8160   76.5850    7.0830 O   0  0  0  0  0  0  0  0  0  0  0  0
   19.9430   76.3230    7.8620 C   0  0  0  0  0  2  0  0  0  0  0  0
   19.7260   76.7280    9.3060 C   0  0  0  0  0  2  0  0  0  0  0  0
   18.7520   78.2510   10.1940 H   0  0  0  0  0  0  0  0  0  0  0  0
   20.5050   76.1680   13.9120 C   0  0  0  0  0  0  0  0  0  0  0  0
   19.4920   76.3130   13.0260 C   0  0  0  0  0  3  0  0  0  0  0  0
   18.7060   75.2520   12.6200 C   0  0  0  0  0  3  0  0  0  0  0  0
   18.9120   73.9770   13.1010 C   0  0  0  0  0  0  0  0  0  0  0  0
   17.8380   72.4970   12.5540 Br  0  0  0  0  0  0  0  0  0  0  0  0
   19.9350   73.7930   14.0060 C   0  0  0  0  0  3  0  0  0  0  0  0
   20.7060   74.8640   14.3950 C   0  0  0  0  0  3  0  0  0  0  0  0
   19.5790   78.2820   17.6270 C   0  0  0  0  0  0  0  0  0  0  0  0
   20.0250   77.7800   18.8560 C   0  0  0  0  0  3  0  0  0  0  0  0
   19.7640   78.4190   20.0500 C   0  0  0  0  0  3  0  0  0  0  0  0
   19.0570   79.5640   20.0500 N   0  0  0  0  0  0  0  0  0  0  0  0
   18.6150   80.0710   18.8800 C   0  0  0  0  0  3  0  0  0  0  0  0
   18.8730   79.4350   17.6670 C   0  0  0  0  0  3  0  0  0  0  0  0
  1 20  1  6  0  0  0
  1  7  1  0  0  0  0
  2  3  1  0  0  0  0
  2  1  1  0  0  0  0
  3  5  1  0  0  0  0
  4  3  2  0  0  0  0
  5  6  2  0  0  0  0
  7  5  1  0  0  0  0
  7  8  2  0  0  0  0
  8 27  1  0  0  0  0
  9  8  1  0  0  0  0
 10  2  1  0  0  0  0
 11 10  1  0  0  0  0
 12 11  1  0  0  0  0
 13 12  1  0  0  0  0
 13 19  1  0  0  0  0
 14 13  1  0  0  0  0
 15 14  1  0  0  0  0
 16 15  1  0  0  0  0
 16 17  1  0  0  0  0
 17 18  1  0  0  0  0
 18 13  1  0  0  0  0
 20 26  1  0  0  0  0
 21 20  2  0  0  0  0
 22 21  1  0  0  0  0
 22 23  2  0  0  0  0
 23 25  1  0  0  0  0
 24 23  1  0  0  0  0
 25 26  2  0  0  0  0
 27 32  2  0  0  0  0
 27 28  1  0  0  0  0
 28 29  2  0  0  0  0
 29 30  1  0  0  0  0
 31 30  2  0  0  0  0
 32 31  1  0  0  0  0
M  END
>  <Pose>
1

>  <Score>
-8.756

$$$$
