/Users/jonathanwahrer/Desktop/Msc/3_Semester/Drug_Design_Praktikum/waehrer_HTS_screening/HTS_experiment/out/docking_results/vina_output/6e43/0361_docked.pdbqt
 OpenBabel03212219513D

 33 36  0  0  1  0  0  0  0  0999 V2000
   20.3930   77.4660    9.4920 C   0  0  1  0  0  3  0  0  0  0  0  0
   19.3820   78.3110    8.8290 N   0  0  0  0  0  0  0  0  0  0  0  0
   18.8100   79.0750    9.8840 C   0  0  0  0  0  0  0  0  0  0  0  0
   17.6490   79.5750    9.8520 O   0  0  0  0  0  0  0  0  0  0  0  0
   19.7790   79.1750   10.9710 C   0  0  0  0  0  0  0  0  0  0  0  0
   19.6310   79.7750   12.0560 O   0  0  0  0  0  0  0  0  0  0  0  0
   20.9390   78.4350   10.5120 C   0  0  0  0  0  0  0  0  0  0  0  0
   22.1900   78.5890   10.8640 C   0  0  0  0  0  0  0  0  0  0  0  0
   23.1950   77.8250   10.2880 O   0  0  0  0  0  1  0  0  0  0  0  0
   19.7460   76.3690   10.2460 C   0  0  0  0  0  0  0  0  0  0  0  0
   19.2510   75.2570    9.6080 C   0  0  0  0  0  3  0  0  0  0  0  0
   18.6510   74.2080   10.3020 C   0  0  0  0  0  3  0  0  0  0  0  0
   18.5370   74.2630   11.6800 C   0  0  0  0  0  0  0  0  0  0  0  0
   17.7130   72.8280   12.6550 Br  0  0  0  0  0  0  0  0  0  0  0  0
   19.0330   75.3750   12.3130 C   0  0  0  0  0  3  0  0  0  0  0  0
   19.6230   76.4050   11.6180 C   0  0  0  0  0  3  0  0  0  0  0  0
   22.5860   79.5550   11.8710 C   0  0  0  0  0  0  0  0  0  0  0  0
   22.8110   79.4270   13.1950 N   0  0  0  0  0  0  0  0  0  0  0  0
   23.1270   80.6100   13.7420 C   0  0  0  0  0  0  0  0  0  0  0  0
   22.7930   78.3480   14.0190 C   0  0  0  0  0  3  0  0  0  0  0  0
   23.1000   81.5070   12.7320 N   0  0  0  0  0  0  0  0  0  0  0  0
   23.4270   80.7670   15.0950 C   0  0  0  0  0  3  0  0  0  0  0  0
   22.7820   80.9250   11.5920 C   0  0  0  0  0  0  0  0  0  0  0  0
   22.6370   81.5190   10.2250 C   0  0  0  0  0  1  0  0  0  0  0  0
   23.4080   79.6780   15.9350 C   0  0  0  0  0  3  0  0  0  0  0  0
   23.0850   78.4720   15.3560 C   0  0  0  0  0  3  0  0  0  0  0  0
   19.0620   78.3170    7.4250 C   0  0  0  0  0  2  0  0  0  0  0  0
   17.8810   77.5690    6.9460 C   0  0  0  0  0  3  0  0  0  0  0  0
   18.0050   76.1640    6.5090 C   0  0  0  0  0  3  0  0  0  0  0  0
   16.8100   75.4640    6.1440 N   0  0  0  0  0  4  0  0  0  0  0  0
   15.8660   76.4850    5.6080 C   0  0  0  0  0  1  0  0  0  0  0  0
   17.0720   74.5970    5.0130 C   0  0  0  0  0  1  0  0  0  0  0  0
   16.3350   74.9440    6.8820 H   0  0  0  0  0  0  0  0  0  0  0  0
  1 10  1  1  0  0  0
  1  7  1  0  0  0  0
  2  1  1  0  0  0  0
  2  3  1  0  0  0  0
  3  5  1  0  0  0  0
  4  3  2  0  0  0  0
  5  6  2  0  0  0  0
  7  8  2  0  0  0  0
  7  5  1  0  0  0  0
  8 17  1  0  0  0  0
  9  8  1  0  0  0  0
 10 16  1  0  0  0  0
 11 10  2  0  0  0  0
 11 12  1  0  0  0  0
 12 13  2  0  0  0  0
 13 15  1  0  0  0  0
 13 14  1  0  0  0  0
 16 15  2  0  0  0  0
 17 18  1  0  0  0  0
 18 19  1  0  0  0  0
 18 20  1  0  0  0  0
 19 22  1  0  0  0  0
 20 26  2  0  0  0  0
 21 19  2  0  0  0  0
 22 25  2  0  0  0  0
 23 17  2  0  0  0  0
 23 21  1  0  0  0  0
 24 23  1  0  0  0  0
 26 25  1  0  0  0  0
 27  2  1  0  0  0  0
 28 27  1  0  0  0  0
 29 28  2  0  0  0  0
 30 29  1  0  0  0  0
 30 33  1  0  0  0  0
 31 30  1  0  0  0  0
 32 30  1  0  0  0  0
M  END
>  <Pose>
1

>  <Score>
-7.427

$$$$
