/Users/jonathanwahrer/Desktop/Msc/3_Semester/Drug_Design_Praktikum/waehrer_HTS_screening/HTS_experiment/out/docking_results/vina_output/6e43/0362_docked.pdbqt
 OpenBabel03212219523D

 36 40  0  0  1  0  0  0  0  0999 V2000
   20.2090   77.6260   12.3790 C   0  0  2  0  0  3  0  0  0  0  0  0
   20.9790   78.1350   11.3230 N   0  0  0  0  0  0  0  0  0  0  0  0
   21.4470   79.4040   11.8520 C   0  0  0  0  0  0  0  0  0  0  0  0
   21.7840   80.4520   11.2020 O   0  0  0  0  0  0  0  0  0  0  0  0
   21.4770   79.2920   13.3060 C   0  0  0  0  0  0  0  0  0  0  0  0
   21.8100   80.1340   14.2000 O   0  0  0  0  0  0  0  0  0  0  0  0
   21.0170   77.9330   13.5870 C   0  0  0  0  0  0  0  0  0  0  0  0
   21.2340   77.1990   14.6620 C   0  0  0  0  0  0  0  0  0  0  0  0
   20.6620   75.9390   14.7690 O   0  0  0  0  0  1  0  0  0  0  0  0
   19.6000   76.3320   12.3560 C   0  0  0  0  0  0  0  0  0  0  0  0
   19.2060   75.6810   13.4900 C   0  0  0  0  0  3  0  0  0  0  0  0
   18.6400   74.4270   13.4090 C   0  0  0  0  0  3  0  0  0  0  0  0
   18.4490   73.7830   12.2010 C   0  0  0  0  0  0  0  0  0  0  0  0
   17.6660   72.0460   12.0900 Br  0  0  0  0  0  0  0  0  0  0  0  0
   18.8510   74.4480   11.0580 C   0  0  0  0  0  3  0  0  0  0  0  0
   19.4140   75.6990   11.1590 C   0  0  0  0  0  3  0  0  0  0  0  0
   22.0660   77.6490   15.7670 C   0  0  0  0  0  0  0  0  0  0  0  0
   23.3850   77.9050   15.7580 N   0  0  0  0  0  0  0  0  0  0  0  0
   23.7820   78.3410   16.9760 C   0  0  0  0  0  0  0  0  0  0  0  0
   24.3740   77.8080   14.8220 C   0  0  0  0  0  3  0  0  0  0  0  0
   22.6840   78.3540   17.7490 N   0  0  0  0  0  0  0  0  0  0  0  0
   25.0920   78.6680   17.2540 C   0  0  0  0  0  3  0  0  0  0  0  0
   21.6230   77.9420   17.0580 C   0  0  0  0  0  0  0  0  0  0  0  0
   20.2080   77.7910   17.4890 C   0  0  0  0  0  1  0  0  0  0  0  0
   26.0670   78.5620   16.2900 C   0  0  0  0  0  3  0  0  0  0  0  0
   25.6800   78.1170   15.0450 C   0  0  0  0  0  3  0  0  0  0  0  0
   21.3620   77.7930    9.9920 C   0  0  0  0  0  2  0  0  0  0  0  0
   20.7430   78.3620    8.8140 C   0  0  0  0  0  2  0  0  0  0  0  0
   20.3070   77.4180    7.7180 C   0  0  0  0  0  2  0  0  0  0  0  0
   19.2540   76.5190    8.1790 N   0  0  0  0  0  4  0  0  0  0  0  0
   19.2170   75.2620    7.4910 C   0  0  0  0  0  2  0  0  0  0  0  0
   18.3910   75.2560    6.2390 C   0  0  0  0  0  2  0  0  0  0  0  0
   18.0590   76.5060    5.7890 O   0  0  0  0  0  0  0  0  0  0  0  0
   17.4740   77.3290    6.7160 C   0  0  0  0  0  2  0  0  0  0  0  0
   17.9580   77.1240    8.1140 C   0  0  0  0  0  2  0  0  0  0  0  0
   19.4710   76.3080    9.1850 H   0  0  0  0  0  0  0  0  0  0  0  0
  1 10  1  6  0  0  0
  1  7  1  0  0  0  0
  2  3  1  0  0  0  0
  2  1  1  0  0  0  0
  3  5  1  0  0  0  0
  4  3  2  0  0  0  0
  5  7  1  0  0  0  0
  5  6  2  0  0  0  0
  7  8  2  0  0  0  0
  8  9  1  0  0  0  0
  8 17  1  0  0  0  0
 10 11  1  0  0  0  0
 12 11  2  0  0  0  0
 13 12  1  0  0  0  0
 14 13  1  0  0  0  0
 15 16  1  0  0  0  0
 15 13  2  0  0  0  0
 16 10  2  0  0  0  0
 17 23  2  0  0  0  0
 18 17  1  0  0  0  0
 18 19  1  0  0  0  0
 19 22  1  0  0  0  0
 19 21  2  0  0  0  0
 20 26  2  0  0  0  0
 20 18  1  0  0  0  0
 23 24  1  0  0  0  0
 23 21  1  0  0  0  0
 25 22  2  0  0  0  0
 26 25  1  0  0  0  0
 27  2  1  0  0  0  0
 28 27  1  0  0  0  0
 29 30  1  0  0  0  0
 29 28  1  0  0  0  0
 30 36  1  0  0  0  0
 31 30  1  0  0  0  0
 32 31  1  0  0  0  0
 33 32  1  0  0  0  0
 33 34  1  0  0  0  0
 34 35  1  0  0  0  0
 35 30  1  0  0  0  0
M  END
>  <Pose>
1

>  <Score>
-10.727

$$$$
