/Users/jonathanwahrer/Desktop/Msc/3_Semester/Drug_Design_Praktikum/waehrer_HTS_screening/HTS_experiment/out/docking_results/vina_output/6e43/0381_docked.pdbqt
 OpenBabel03212219523D

 29 32  0  0  0  0  0  0  0  0999 V2000
   22.4930   79.4320   16.8060 N   0  0  0  0  0  0  0  0  0  0  0  0
   21.7930   80.3500   17.4660 N   0  0  0  0  0  0  0  0  0  0  0  0
   20.8380   80.0050   18.3760 C   0  0  0  0  0  0  0  0  0  0  0  0
   20.5940   78.7070   18.6120 N   0  0  0  0  0  0  0  0  0  0  0  0
   19.5350   78.5590   19.5850 C   0  0  0  0  0  3  0  0  0  0  0  0
   19.1080   79.9420   19.9790 C   0  0  0  0  0  3  0  0  0  0  0  0
   20.0040   80.7930   19.2180 N   0  0  0  0  0  0  0  0  0  0  0  0
   21.2670   77.7370   17.9780 C   0  0  0  0  0  0  0  0  0  0  0  0
   21.0370   76.5250   18.1990 O   0  0  0  0  0  0  0  0  0  0  0  0
   22.2230   78.1420   17.0680 C   0  0  0  0  0  0  0  0  0  0  0  0
   22.8800   77.2680   16.4470 O   0  0  0  0  0  0  0  0  0  0  0  0
   23.5510   79.7890   15.8450 C   0  0  0  0  0  2  0  0  0  0  0  0
   23.0500   79.7170   14.4740 C   0  0  0  0  0  0  0  0  0  0  0  0
   22.7250   78.5730   13.7350 N   0  0  0  0  0  0  0  0  0  0  0  0
   22.8650   77.6430   14.2220 H   0  0  0  0  0  0  0  0  0  0  0  0
   22.9100   80.8800   13.9210 O   0  0  0  0  0  0  0  0  0  0  0  0
   22.2420   78.5570   12.4240 C   0  0  0  0  0  0  0  0  0  0  0  0
   22.9420   78.8360   11.2770 C   0  0  0  0  0  3  0  0  0  0  0  0
   22.3710   78.7650    9.9980 C   0  0  0  0  0  3  0  0  0  0  0  0
   21.0600   78.4070    9.8220 C   0  0  0  0  0  0  0  0  0  0  0  0
   20.2670   78.3010    8.0870 Br  0  0  0  0  0  0  0  0  0  0  0  0
   20.3350   78.1220   10.9620 C   0  0  0  0  0  3  0  0  0  0  0  0
   20.8980   78.1940   12.2060 C   0  0  0  0  0  3  0  0  0  0  0  0
   20.0060   82.2020   19.3380 C   0  0  0  0  0  0  0  0  0  0  0  0
   20.3680   83.0520   18.3270 C   0  0  0  0  0  3  0  0  0  0  0  0
   20.3750   84.4270   18.4800 C   0  0  0  0  0  3  0  0  0  0  0  0
   20.0050   84.9810   19.6910 C   0  0  0  0  0  3  0  0  0  0  0  0
   19.6420   84.1540   20.7080 C   0  0  0  0  0  3  0  0  0  0  0  0
   19.6390   82.7850   20.5470 C   0  0  0  0  0  3  0  0  0  0  0  0
  1 10  1  0  0  0  0
  1  2  1  0  0  0  0
  2  3  2  0  0  0  0
  3  4  1  0  0  0  0
  3  7  1  0  0  0  0
  4  5  1  0  0  0  0
  5  6  2  0  0  0  0
  7 24  1  0  0  0  0
  7  6  1  0  0  0  0
  8  9  2  0  0  0  0
  8  4  1  0  0  0  0
 10  8  1  0  0  0  0
 11 10  2  0  0  0  0
 12  1  1  0  0  0  0
 13 12  1  0  0  0  0
 14 15  1  0  0  0  0
 14 13  1  0  0  0  0
 16 13  2  0  0  0  0
 17 14  1  0  0  0  0
 18 17  2  0  0  0  0
 19 18  1  0  0  0  0
 20 19  2  0  0  0  0
 20 22  1  0  0  0  0
 21 20  1  0  0  0  0
 22 23  2  0  0  0  0
 23 17  1  0  0  0  0
 24 29  1  0  0  0  0
 25 26  1  0  0  0  0
 25 24  2  0  0  0  0
 26 27  2  0  0  0  0
 27 28  1  0  0  0  0
 29 28  2  0  0  0  0
M  END
>  <Pose>
1

>  <Score>
-10.762

$$$$
