/Users/jonathanwahrer/Desktop/Msc/3_Semester/Drug_Design_Praktikum/waehrer_HTS_screening/HTS_experiment/out/docking_results/vina_output/6e43/0382_docked.pdbqt
 OpenBabel03212219523D

 31 34  0  0  0  0  0  0  0  0999 V2000
   20.9890   77.6720   16.4220 N   0  0  0  0  0  0  0  0  0  0  0  0
   20.7400   76.5400   17.0810 N   0  0  0  0  0  0  0  0  0  0  0  0
   20.2680   76.8240   18.2730 N   0  0  0  0  0  0  0  0  0  0  0  0
   20.2030   78.1710   18.3990 C   0  0  0  0  0  0  0  0  0  0  0  0
   20.6530   78.6800   17.2460 C   0  0  0  0  0  0  0  0  0  0  0  0
   20.5730   80.0470   17.4140 C   0  0  0  0  0  0  0  0  0  0  0  0
   20.9190   80.8660   16.5110 O   0  0  0  0  0  0  0  0  0  0  0  0
   20.0920   80.3780   18.6220 N   0  0  0  0  0  0  0  0  0  0  0  0
   19.8570   79.1930   19.2520 C   0  0  0  0  0  0  0  0  0  0  0  0
   19.3960   79.1220   20.4240 O   0  0  0  0  0  0  0  0  0  0  0  0
   20.9080   75.5970   16.6740 H   0  0  0  0  0  0  0  0  0  0  0  0
   19.9740   76.1640   19.0360 H   0  0  0  0  0  0  0  0  0  0  0  0
   21.5210   77.7360   15.0750 C   0  0  0  0  0  2  0  0  0  0  0  0
   20.7050   76.8100   14.1890 C   0  0  0  0  0  0  0  0  0  0  0  0
   20.3490   75.5360   14.6500 N   0  0  0  0  0  0  0  0  0  0  0  0
   20.6680   75.2410   15.6270 H   0  0  0  0  0  0  0  0  0  0  0  0
   20.3660   77.2030   13.0530 O   0  0  0  0  0  0  0  0  0  0  0  0
   19.5910   74.5770   13.9400 C   0  0  0  0  0  0  0  0  0  0  0  0
   18.4120   74.8260   13.2700 C   0  0  0  0  0  3  0  0  0  0  0  0
   17.7180   73.8520   12.5660 C   0  0  0  0  0  3  0  0  0  0  0  0
   18.1930   72.5660   12.5080 C   0  0  0  0  0  0  0  0  0  0  0  0
   17.2960   71.1840   11.5610 Br  0  0  0  0  0  0  0  0  0  0  0  0
   19.3700   72.2930   13.1700 C   0  0  0  0  0  3  0  0  0  0  0  0
   20.0470   73.2470   13.8590 C   0  0  0  0  0  3  0  0  0  0  0  0
   19.8600   81.6830   19.1720 C   0  0  0  0  0  0  0  0  0  0  0  0
   19.1750   81.8410   20.3580 C   0  0  0  0  0  3  0  0  0  0  0  0
   18.9570   83.0930   20.8990 C   0  0  0  0  0  3  0  0  0  0  0  0
   19.4090   84.2460   20.2840 C   0  0  0  0  0  0  0  0  0  0  0  0
   20.0950   84.0910   19.0980 C   0  0  0  0  0  3  0  0  0  0  0  0
   19.1610   85.5790   20.8970 C   0  0  0  0  0  1  0  0  0  0  0  0
   20.3110   82.8330   18.5600 C   0  0  0  0  0  3  0  0  0  0  0  0
  1  2  1  0  0  0  0
  1  5  1  0  0  0  0
  2  3  1  0  0  0  0
  3  4  1  0  0  0  0
  3 12  1  0  0  0  0
  4  9  1  0  0  0  0
  5  6  1  0  0  0  0
  5  4  2  0  0  0  0
  6  8  1  0  0  0  0
  7  6  2  0  0  0  0
  8 25  1  0  0  0  0
  8  9  1  0  0  0  0
  9 10  2  0  0  0  0
 11  2  1  0  0  0  0
 13  1  1  0  0  0  0
 14 15  1  0  0  0  0
 14 13  1  0  0  0  0
 15 16  1  0  0  0  0
 17 14  2  0  0  0  0
 18 15  1  0  0  0  0
 19 18  2  0  0  0  0
 20 19  1  0  0  0  0
 21 20  2  0  0  0  0
 21 23  1  0  0  0  0
 22 21  1  0  0  0  0
 23 24  2  0  0  0  0
 24 18  1  0  0  0  0
 25 26  1  0  0  0  0
 26 27  2  0  0  0  0
 28 30  1  0  0  0  0
 28 27  1  0  0  0  0
 29 28  2  0  0  0  0
 31 29  1  0  0  0  0
 31 25  2  0  0  0  0
M  END
>  <Pose>
1

>  <Score>
-12.172

$$$$
