MODEL 1
REMARK VINA RESULT:   -12.172      0.000      0.000
REMARK INTER + INTRA:         -13.733
REMARK INTER:                 -15.018
REMARK INTRA:                   1.285
REMARK UNBOUND:                 1.285
REMARK  4 active torsions:
REMARK  status: ('A' for Active; 'I' for Inactive)
REMARK    1  A    between atoms: C_5  and  N_8 
REMARK       I    between atoms: N_8  and  C_9 
REMARK    2  A    between atoms: C_9  and  C_11 
REMARK    3  A    between atoms: C_11  and  N_12 
REMARK    4  A    between atoms: N_19  and  C_22 
ROOT
ATOM      1  N   UNK d   1      20.989  77.672  16.422  0.00  0.00    -0.261 N 
ATOM      2  N   UNK d   1      20.740  76.540  17.081  0.00  0.00    -0.239 N 
ATOM      3  N   UNK d   1      20.268  76.824  18.273  0.00  0.00    -0.279 N 
ATOM      4  C   UNK d   1      20.203  78.171  18.399  0.00  0.00     0.152 A 
ATOM      5  C   UNK d   1      20.653  78.680  17.246  0.00  0.00     0.155 A 
ATOM      6  C   UNK d   1      20.573  80.047  17.414  0.00  0.00     0.286 A 
ATOM      7  O   UNK d   1      20.919  80.866  16.511  0.00  0.00    -0.265 OA
ATOM      8  N   UNK d   1      20.092  80.378  18.622  0.00  0.00    -0.241 N 
ATOM      9  C   UNK d   1      19.857  79.193  19.252  0.00  0.00     0.286 A 
ATOM     10  O   UNK d   1      19.396  79.122  20.424  0.00  0.00    -0.265 OA
ATOM     11  H   UNK d   1      20.908  75.597  16.674  0.00  0.00     0.208 HD
ATOM     12  H   UNK d   1      19.974  76.164  19.036  0.00  0.00     0.189 HD
ENDROOT
BRANCH   1  13
ATOM     13  C   UNK d   1      21.521  77.736  15.075  0.00  0.00     0.254 C 
BRANCH  13  14
ATOM     14  C   UNK d   1      20.705  76.810  14.189  0.00  0.00     0.242 C 
ATOM     15  N   UNK d   1      20.349  75.536  14.650  0.00  0.00    -0.326 N 
ATOM     16  H   UNK d   1      20.668  75.241  15.627  0.00  0.00     0.169 HD
ATOM     17  O   UNK d   1      20.366  77.203  13.053  0.00  0.00    -0.271 OA
BRANCH  15  18
ATOM     18  C   UNK d   1      19.591  74.577  13.940  0.00  0.00     0.034 A 
ATOM     19  C   UNK d   1      18.412  74.826  13.270  0.00  0.00     0.031 A 
ATOM     20  C   UNK d   1      17.718  73.852  12.566  0.00  0.00     0.021 A 
ATOM     21  C   UNK d   1      18.193  72.566  12.508  0.00  0.00     0.011 A 
ATOM     22 Br   UNK d   1      17.296  71.184  11.561  0.00  0.00    -0.051 Br
ATOM     23  C   UNK d   1      19.370  72.293  13.170  0.00  0.00     0.021 A 
ATOM     24  C   UNK d   1      20.047  73.247  13.859  0.00  0.00     0.031 A 
ENDBRANCH  15  18
ENDBRANCH  13  14
ENDBRANCH   1  13
BRANCH   8  25
ATOM     25  C   UNK d   1      19.860  81.683  19.172  0.00  0.00     0.046 A 
ATOM     26  C   UNK d   1      19.175  81.841  20.358  0.00  0.00     0.031 A 
ATOM     27  C   UNK d   1      18.957  83.093  20.899  0.00  0.00     0.009 A 
ATOM     28  C   UNK d   1      19.409  84.246  20.284  0.00  0.00    -0.062 A 
ATOM     29  C   UNK d   1      20.095  84.091  19.098  0.00  0.00     0.009 A 
ATOM     30  C   UNK d   1      19.161  85.579  20.897  0.00  0.00     0.048 C 
ATOM     31  C   UNK d   1      20.311  82.833  18.560  0.00  0.00     0.031 A 
ENDBRANCH   8  25
TORSDOF 4
ENDMDL
