MODEL 1
REMARK VINA RESULT:   -10.397      0.000      0.000
REMARK INTER + INTRA:         -13.115
REMARK INTER:                 -12.524
REMARK INTRA:                  -0.590
REMARK UNBOUND:                -0.590
REMARK  4 active torsions:
REMARK  status: ('A' for Active; 'I' for Inactive)
REMARK    1  A    between atoms: C_5  and  N_8 
REMARK       I    between atoms: N_8  and  C_9 
REMARK    2  A    between atoms: C_9  and  C_11 
REMARK    3  A    between atoms: C_18  and  N_23 
REMARK    4  A    between atoms: C_20  and  N_22 
ROOT
ATOM      1  C   UNK d   1      21.816  78.805  17.091  0.00  0.00     0.127 C 
ATOM      2  C   UNK d   1      23.313  78.887  17.118  0.00  0.00     0.122 C 
ATOM      3  C   UNK d   1      23.968  78.504  15.860  0.00  0.00     0.224 C 
ATOM      4  O   UNK d   1      25.063  79.060  15.572  0.00  0.00    -0.273 OA
ATOM      5  N   UNK d   1      23.372  77.541  15.009  0.00  0.00    -0.310 N 
ATOM      6  C   UNK d   1      22.016  77.189  15.182  0.00  0.00     0.160 A 
ATOM      7  N   UNK d   1      21.465  76.246  14.356  0.00  0.00    -0.044 NA
ATOM      8  C   UNK d   1      20.194  75.856  14.472  0.00  0.00     0.728 A 
ATOM      9  N   UNK d   1      19.455  76.422  15.434  0.00  0.00    -0.045 NA
ATOM     10  C   UNK d   1      19.954  77.368  16.282  0.00  0.00     0.151 A 
ATOM     11  C   UNK d   1      21.266  77.788  16.184  0.00  0.00     0.048 A 
ATOM     12  H   UNK d   1      23.920  77.067  14.234  0.00  0.00     0.170 HD
ENDROOT
BRANCH   1  13
ATOM     13  C   UNK d   1      21.340  80.225  16.717  0.00  0.00     0.231 C 
ATOM     14  N   UNK d   1      20.841  81.018  17.651  0.00  0.00    -0.327 N 
ATOM     15  H   UNK d   1      20.483  81.922  16.698  0.00  0.00     0.169 HD
ATOM     16  O   UNK d   1      21.520  80.421  15.450  0.00  0.00    -0.272 OA
BRANCH  14  17
ATOM     17  C   UNK d   1      20.323  81.841  18.619  0.00  0.00     0.034 A 
ATOM     18  C   UNK d   1      19.728  81.197  19.750  0.00  0.00     0.031 A 
ATOM     19  C   UNK d   1      19.253  81.902  20.795  0.00  0.00     0.021 A 
ATOM     20  C   UNK d   1      19.314  83.273  20.825  0.00  0.00     0.011 A 
ATOM     21 Br   UNK d   1      18.638  84.261  22.325  0.00  0.00    -0.051 Br
ATOM     22  C   UNK d   1      19.878  83.933  19.755  0.00  0.00     0.021 A 
ATOM     23  C   UNK d   1      20.365  83.217  18.689  0.00  0.00     0.031 A 
ENDBRANCH  14  17
ENDBRANCH   1  13
BRANCH  10  24
ATOM     24  N   UNK d   1      19.124  77.950  17.282  0.00  0.00    -0.383 N 
ATOM     25  H   UNK d   1      18.123  77.751  17.367  0.00  0.00     0.157 HD
ATOM     26  H   UNK d   1      19.559  78.623  17.964  0.00  0.00     0.157 HD
ENDBRANCH  10  24
BRANCH   8  27
ATOM     27  N   UNK d   1      19.633  74.860  13.586  0.00  0.00    -0.210 N 
ATOM     28  C   UNK d   1      19.854  73.497  13.923  0.00  0.00     0.167 C 
ATOM     29  C   UNK d   1      18.908  72.536  13.262  0.00  0.00     0.188 C 
ATOM     30  O   UNK d   1      17.932  73.181  12.511  0.00  0.00    -0.388 OA
ATOM     31  C   UNK d   1      18.482  74.104  11.631  0.00  0.00     0.188 C 
ATOM     32  C   UNK d   1      18.888  75.315  12.431  0.00  0.00     0.167 C 
ENDBRANCH   8  27
TORSDOF 4
ENDMDL
