MODEL 1
REMARK VINA RESULT:   -10.499      0.000      0.000
REMARK INTER + INTRA:         -14.286
REMARK INTER:                 -13.261
REMARK INTRA:                  -1.025
REMARK UNBOUND:                -1.025
REMARK  5 active torsions:
REMARK  status: ('A' for Active; 'I' for Inactive)
REMARK    1  A    between atoms: C_5  and  N_8 
REMARK    2  A    between atoms: C_9  and  C_11 
REMARK    3  A    between atoms: C_18  and  N_23 
REMARK    4  A    between atoms: C_20  and  O_22 
REMARK    5  A    between atoms: C_26  and  C_29 
REMARK       I    between atoms: C_29  and  N_31 
ROOT
ATOM      1  C   UNK d   1      22.941  78.266  16.481  0.00  0.00     0.113 C 
ATOM      2  C   UNK d   1      23.993  79.222  17.011  0.00  0.00     0.121 C 
ATOM      3  C   UNK d   1      25.237  79.022  16.207  0.00  0.00     0.224 C 
ATOM      4  O   UNK d   1      26.316  78.873  16.753  0.00  0.00    -0.273 OA
ATOM      5  N   UNK d   1      25.087  79.020  14.813  0.00  0.00    -0.310 N 
ATOM      6  C   UNK d   1      23.833  78.745  14.220  0.00  0.00     0.160 A 
ATOM      7  N   UNK d   1      23.652  78.836  12.887  0.00  0.00    -0.044 NA
ATOM      8  C   UNK d   1      22.488  78.684  12.254  0.00  0.00     0.729 A 
ATOM      9  N   UNK d   1      21.427  78.418  13.059  0.00  0.00    -0.038 NA
ATOM     10  C   UNK d   1      21.535  78.309  14.408  0.00  0.00     0.192 A 
ATOM     11  C   UNK d   1      22.725  78.460  15.052  0.00  0.00     0.054 A 
ATOM     12  H   UNK d   1      25.883  79.224  14.151  0.00  0.00     0.170 HD
ENDROOT
BRANCH   1  13
ATOM     13  C   UNK d   1      21.773  78.086  17.386  0.00  0.00     0.165 C 
ATOM     14  N   UNK d   1      21.155  79.124  17.981  0.00  0.00    -0.338 N 
ATOM     15  H   UNK d   1      20.206  78.296  18.460  0.00  0.00     0.168 HD
ATOM     16  O   UNK d   1      21.482  76.816  17.477  0.00  0.00    -0.176 OA
BRANCH  14  17
ATOM     17  C   UNK d   1      20.524  80.181  18.589  0.00  0.00     0.033 A 
ATOM     18  C   UNK d   1      20.679  81.429  17.903  0.00  0.00     0.031 A 
ATOM     19  C   UNK d   1      20.143  82.532  18.478  0.00  0.00     0.021 A 
ATOM     20  C   UNK d   1      19.460  82.508  19.682  0.00  0.00     0.011 A 
ATOM     21 Br   UNK d   1      18.751  84.112  20.394  0.00  0.00    -0.051 Br
ATOM     22  C   UNK d   1      19.304  81.326  20.348  0.00  0.00     0.021 A 
ATOM     23  C   UNK d   1      19.842  80.191  19.782  0.00  0.00     0.031 A 
ENDBRANCH  14  17
ENDBRANCH   1  13
BRANCH  10  24
ATOM     24  O   UNK d   1      20.395  78.038  15.159  0.00  0.00    -0.344 OA
ATOM     25  H   UNK d   1      19.925  77.135  15.130  0.00  0.00     0.219 HD
ENDBRANCH  10  24
BRANCH   8  26
ATOM     26  N   UNK d   1      22.334  78.734  10.849  0.00  0.00    -0.214 N 
ATOM     27  C   UNK d   1      21.636  77.780  10.027  0.00  0.00     0.142 C 
ATOM     28  C   UNK d   1      20.899  78.543   8.930  0.00  0.00     0.034 C 
ATOM     29  C   UNK d   1      20.503  79.923   9.367  0.00  0.00     0.081 C 
ATOM     30  C   UNK d   1      21.689  80.739   9.744  0.00  0.00     0.034 C 
ATOM     31  C   UNK d   1      22.911  79.866  10.114  0.00  0.00     0.142 C 
BRANCH  29  32
ATOM     32  C   UNK d   1      19.461  79.895  10.419  0.00  0.00     0.219 C 
ATOM     33  O   UNK d   1      18.888  78.808  10.639  0.00  0.00    -0.273 OA
ATOM     34  N   UNK d   1      19.078  81.023  11.179  0.00  0.00    -0.370 N 
ATOM     35  H   UNK d   1      19.753  81.751  11.478  0.00  0.00     0.159 HD
ATOM     36  H   UNK d   1      18.078  81.128  11.448  0.00  0.00     0.159 HD
ENDBRANCH  29  32
ENDBRANCH   8  26
TORSDOF 5
ENDMDL
