/Users/jonathanwahrer/Desktop/Msc/3_Semester/Drug_Design_Praktikum/waehrer_HTS_screening/HTS_experiment/out/docking_results/vina_output/6e43/0393_docked.pdbqt
 OpenBabel03212219533D

 27 30  0  0  0  0  0  0  0  0999 V2000
   20.2940   77.3290   11.8980 N   0  0  0  0  0  0  0  0  0  0  0  0
   19.9680   76.7590   13.0320 N   0  0  0  0  0  0  0  0  0  0  0  0
   20.6230   77.2930   14.0830 C   0  0  0  0  0  3  0  0  0  0  0  0
   21.4220   78.2750   13.5660 C   0  0  0  0  0  0  0  0  0  0  0  0
   21.2010   78.2790   12.2050 C   0  0  0  0  0  0  0  0  0  0  0  0
   22.3170   79.1260   14.3410 C   0  0  0  0  0  0  0  0  0  0  0  0
   21.8450   80.2180   14.7400 O   0  0  0  0  0  0  0  0  0  0  0  0
   23.6500   78.7790   14.6490 N   0  0  0  0  0  0  0  0  0  0  0  0
   24.4520   79.6950   15.4240 C   0  0  0  0  0  2  0  0  0  0  0  0
   24.3050   77.5550   14.2480 C   0  0  0  0  0  2  0  0  0  0  0  0
   24.7330   79.0560   16.7510 C   0  0  0  0  0  2  0  0  0  0  0  0
   24.5860   77.6060   16.7060 N   0  0  0  0  0  0  0  0  0  0  0  0
   24.6940   76.8610   15.4980 C   0  0  0  0  0  0  0  0  0  0  0  0
   24.3890   77.1050   17.6240 H   0  0  0  0  0  0  0  0  0  0  0  0
   25.1030   75.6750   15.5300 O   0  0  0  0  0  0  0  0  0  0  0  0
   21.8300   79.1550   11.2420 N   0  0  0  0  0  0  0  0  0  0  0  0
   21.5550   80.4240   10.9820 C   0  0  0  0  0  3  0  0  0  0  0  0
   22.3820   80.9040    9.9930 C   0  0  0  0  0  3  0  0  0  0  0  0
   23.1920   79.8470    9.6520 C   0  0  0  0  0  3  0  0  0  0  0  0
   22.8350   78.7740   10.4370 C   0  0  0  0  0  3  0  0  0  0  0  0
   19.7710   76.9850   10.6130 C   0  0  0  0  0  0  0  0  0  0  0  0
   19.7430   75.6790   10.1590 C   0  0  0  0  0  3  0  0  0  0  0  0
   19.2440   75.3220    8.9220 C   0  0  0  0  0  3  0  0  0  0  0  0
   18.7440   76.2940    8.0800 C   0  0  0  0  0  0  0  0  0  0  0  0
   18.0480   75.8240    6.3620 Br  0  0  0  0  0  0  0  0  0  0  0  0
   18.7660   77.6050    8.5170 C   0  0  0  0  0  3  0  0  0  0  0  0
   19.2680   77.9470    9.7570 C   0  0  0  0  0  3  0  0  0  0  0  0
  1  5  1  0  0  0  0
  1  2  1  0  0  0  0
  2  3  2  0  0  0  0
  4  3  1  0  0  0  0
  4  6  1  0  0  0  0
  5  4  2  0  0  0  0
  6  8  1  0  0  0  0
  6  7  2  0  0  0  0
  8  9  1  0  0  0  0
  9 11  1  0  0  0  0
 10  8  1  0  0  0  0
 10 13  1  0  0  0  0
 12 11  1  0  0  0  0
 12 14  1  0  0  0  0
 13 15  2  0  0  0  0
 13 12  1  0  0  0  0
 16  5  1  0  0  0  0
 17 16  1  0  0  0  0
 18 17  2  0  0  0  0
 19 18  1  0  0  0  0
 19 20  2  0  0  0  0
 20 16  1  0  0  0  0
 21  1  1  0  0  0  0
 22 21  1  0  0  0  0
 23 22  2  0  0  0  0
 24 26  2  0  0  0  0
 24 23  1  0  0  0  0
 25 24  1  0  0  0  0
 26 27  1  0  0  0  0
 27 21  2  0  0  0  0
M  END
>  <Pose>
1

>  <Score>
-8.509

$$$$
