MODEL 1
REMARK VINA RESULT:    -8.509      0.000      0.000
REMARK INTER + INTRA:         -10.937
REMARK INTER:                 -10.002
REMARK INTRA:                  -0.935
REMARK UNBOUND:                -0.935
REMARK  3 active torsions:
REMARK  status: ('A' for Active; 'I' for Inactive)
REMARK    1  A    between atoms: C_5  and  N_8 
REMARK    2  A    between atoms: C_11  and  C_18 
REMARK    3  A    between atoms: C_12  and  N_13 
REMARK       I    between atoms: C_18  and  N_20 
ROOT
ATOM      1  N   UNK d   1      20.294  77.329  11.898  0.00  0.00    -0.216 N 
ATOM      2  N   UNK d   1      19.968  76.759  13.032  0.00  0.00    -0.177 NA
ATOM      3  C   UNK d   1      20.623  77.293  14.083  0.00  0.00     0.160 A 
ATOM      4  C   UNK d   1      21.422  78.275  13.566  0.00  0.00     0.097 A 
ATOM      5  C   UNK d   1      21.201  78.279  12.205  0.00  0.00     0.153 A 
ENDROOT
BRANCH   4   6
ATOM      6  C   UNK d   1      22.317  79.126  14.341  0.00  0.00     0.259 C 
ATOM      7  O   UNK d   1      21.845  80.218  14.740  0.00  0.00    -0.267 OA
ATOM      8  N   UNK d   1      23.650  78.779  14.649  0.00  0.00    -0.338 N 
ATOM      9  C   UNK d   1      24.452  79.695  15.424  0.00  0.00     0.146 C 
ATOM     10  C   UNK d   1      24.305  77.555  14.248  0.00  0.00     0.228 C 
ATOM     11  C   UNK d   1      24.733  79.056  16.751  0.00  0.00     0.142 C 
ATOM     12  N   UNK d   1      24.586  77.606  16.706  0.00  0.00    -0.358 N 
ATOM     13  C   UNK d   1      24.694  76.861  15.498  0.00  0.00     0.235 C 
ATOM     14  H   UNK d   1      24.389  77.105  17.624  0.00  0.00     0.162 HD
ATOM     15  O   UNK d   1      25.103  75.675  15.530  0.00  0.00    -0.272 OA
ENDBRANCH   4   6
BRANCH   5  16
ATOM     16  N   UNK d   1      21.830  79.155  11.242  0.00  0.00    -0.317 N 
ATOM     17  C   UNK d   1      21.555  80.424  10.982  0.00  0.00     0.098 A 
ATOM     18  C   UNK d   1      22.382  80.904   9.993  0.00  0.00     0.019 A 
ATOM     19  C   UNK d   1      23.192  79.847   9.652  0.00  0.00     0.019 A 
ATOM     20  C   UNK d   1      22.835  78.774  10.437  0.00  0.00     0.098 A 
ENDBRANCH   5  16
BRANCH   1  21
ATOM     21  C   UNK d   1      19.771  76.985  10.613  0.00  0.00     0.060 A 
ATOM     22  C   UNK d   1      19.743  75.679  10.159  0.00  0.00     0.033 A 
ATOM     23  C   UNK d   1      19.244  75.322   8.922  0.00  0.00     0.021 A 
ATOM     24  C   UNK d   1      18.744  76.294   8.080  0.00  0.00     0.011 A 
ATOM     25 Br   UNK d   1      18.048  75.824   6.362  0.00  0.00    -0.051 Br
ATOM     26  C   UNK d   1      18.766  77.605   8.517  0.00  0.00     0.021 A 
ATOM     27  C   UNK d   1      19.268  77.947   9.757  0.00  0.00     0.033 A 
ENDBRANCH   1  21
TORSDOF 3
ENDMDL
