MODEL 1
REMARK VINA RESULT:    -9.476      0.000      0.000
REMARK INTER + INTRA:         -11.700
REMARK INTER:                 -11.138
REMARK INTRA:                  -0.562
REMARK UNBOUND:                -0.562
REMARK  3 active torsions:
REMARK  status: ('A' for Active; 'I' for Inactive)
REMARK    1  A    between atoms: C_5  and  N_8 
REMARK    2  A    between atoms: C_11  and  N_15 
REMARK    3  A    between atoms: N_18  and  C_21 
ROOT
ATOM      1  N   UNK d   1      20.987  78.805   9.931  0.00  0.00    -0.251 N 
ATOM      2  C   UNK d   1      20.540  79.339  11.172  0.00  0.00     0.262 C 
ATOM      3  O   UNK d   1      19.399  79.172  11.655  0.00  0.00    -0.270 OA
ATOM      4  C   UNK d   1      21.597  80.124  11.827  0.00  0.00     0.289 C 
ATOM      5  C   UNK d   1      22.478  80.518  10.647  0.00  0.00     0.146 C 
ATOM      6  C   UNK d   1      22.297  79.365   9.710  0.00  0.00     0.233 C 
ATOM      7  O   UNK d   1      23.197  79.034   8.916  0.00  0.00    -0.273 OA
ENDROOT
BRANCH   4   8
ATOM      8  N   UNK d   1      22.372  79.409  12.816  0.00  0.00    -0.055 N 
ATOM      9  C   UNK d   1      23.152  80.293  13.648  0.00  0.00     0.255 C 
ATOM     10  C   UNK d   1      22.517  80.616  14.982  0.00  0.00     0.150 C 
ATOM     11  N   UNK d   1      21.902  79.452  15.567  0.00  0.00    -0.378 N 
ATOM     12  C   UNK d   1      22.222  78.211  14.903  0.00  0.00     0.150 C 
ATOM     13  C   UNK d   1      21.649  78.388  13.484  0.00  0.00     0.255 C 
ATOM     14  H   UNK d   1      23.116  78.900  12.228  0.00  0.00     0.281 HD
BRANCH  11  15
ATOM     15  C   UNK d   1      21.046  79.493  16.673  0.00  0.00     0.030 A 
ATOM     16  C   UNK d   1      20.438  78.399  17.255  0.00  0.00     0.032 A 
ATOM     17  C   UNK d   1      19.578  78.499  18.337  0.00  0.00     0.042 A 
ATOM     18  C   UNK d   1      19.295  79.724  18.878  0.00  0.00     0.107 A 
ATOM     19  C   UNK d   1      19.875  80.852  18.334  0.00  0.00     0.042 A 
ATOM     20  O   UNK d   1      18.438  79.894  19.967  0.00  0.00    -0.192 OA
ATOM     21  C   UNK d   1      20.731  80.727  17.255  0.00  0.00     0.032 A 
ENDBRANCH  11  15
ENDBRANCH   4   8
BRANCH   1  22
ATOM     22  C   UNK d   1      20.323  77.897   9.049  0.00  0.00     0.045 A 
ATOM     23  C   UNK d   1      19.440  78.333   8.105  0.00  0.00     0.031 A 
ATOM     24  C   UNK d   1      18.791  77.441   7.245  0.00  0.00     0.021 A 
ATOM     25  C   UNK d   1      19.016  76.093   7.315  0.00  0.00     0.011 A 
ATOM     26 Br   UNK d   1      18.133  74.864   6.141  0.00  0.00    -0.051 Br
ATOM     27  C   UNK d   1      19.907  75.649   8.264  0.00  0.00     0.021 A 
ATOM     28  C   UNK d   1      20.552  76.553   9.122  0.00  0.00     0.031 A 
ENDBRANCH   1  22
TORSDOF 3
ENDMDL
