/Users/jonathanwahrer/Desktop/Msc/3_Semester/Drug_Design_Praktikum/waehrer_HTS_screening/HTS_experiment/out/docking_results/vina_output/6e43/0400_docked.pdbqt
 OpenBabel03212219533D

 31 34  0  0  1  0  0  0  0  0999 V2000
   21.9460   79.4610   16.8760 N   0  0  2  0  0  0  0  0  0  0  0  0
   21.1140   80.5930   16.7880 C   0  0  0  0  0  2  0  0  0  0  0  0
   19.9110   80.3890   17.7180 C   0  0  0  0  0  2  0  0  0  0  0  0
   20.3360   80.3930   19.1700 C   0  0  1  0  0  0  0  0  0  0  0  0
   21.5980   79.6430   19.3180 C   0  0  0  0  0  2  0  0  0  0  0  0
   21.8910   78.7820   18.1150 C   0  0  0  0  0  2  0  0  0  0  0  0
   23.1810   79.4580   16.2030 C   0  0  2  0  0  3  0  0  0  0  0  0
   22.9960   79.9560   14.8150 C   0  0  0  0  0  0  0  0  0  0  0  0
   23.2060   78.8530   13.9270 N   0  0  0  0  0  0  0  0  0  0  0  0
   22.7060   81.1390   14.5140 O   0  0  0  0  0  0  0  0  0  0  0  0
   24.0680   77.9680   14.6300 C   0  0  0  0  0  0  0  0  0  0  0  0
   23.8220   78.0930   16.0910 C   0  0  0  0  0  2  0  0  0  0  0  0
   24.9190   77.1900   14.0700 O   0  0  0  0  0  0  0  0  0  0  0  0
   22.6590   78.6940   12.6150 C   0  0  0  0  0  0  0  0  0  0  0  0
   21.3400   78.3590   12.4590 C   0  0  0  0  0  3  0  0  0  0  0  0
   20.7870   78.2010   11.1830 C   0  0  0  0  0  3  0  0  0  0  0  0
   21.5360   78.3730   10.0420 C   0  0  0  0  0  0  0  0  0  0  0  0
   20.7900   78.1600    8.2940 Br  0  0  0  0  0  0  0  0  0  0  0  0
   22.8630   78.7110   10.1980 C   0  0  0  0  0  3  0  0  0  0  0  0
   23.3990   78.8660   11.4660 C   0  0  0  0  0  3  0  0  0  0  0  0
   20.3270   81.7180   19.6330 N   0  0  0  0  0  0  0  0  0  0  0  0
   20.7740   81.9840   20.9350 C   0  0  0  0  0  2  0  0  0  0  0  0
   19.6380   82.7370   21.6490 C   0  0  0  0  0  2  0  0  0  0  0  0
   19.5070   84.0630   20.9270 C   0  0  0  0  0  2  0  0  0  0  0  0
   20.1680   84.0790   19.5890 C   0  0  0  0  0  2  0  0  0  0  0  0
   19.9690   82.7700   18.8100 C   0  0  0  0  0  2  0  0  0  0  0  0
   19.2540   79.6450   19.9040 C   0  0  0  0  0  0  0  0  0  0  0  0
   18.0790   80.1200   19.9510 O   0  0  0  0  0  0  0  0  0  0  0  0
   19.4810   78.4110   20.5580 N   0  0  0  0  0  0  0  0  0  0  0  0
   19.3520   78.3430   21.5750 H   0  0  0  0  0  0  0  0  0  0  0  0
   19.7750   77.5700   20.0250 H   0  0  0  0  0  0  0  0  0  0  0  0
  1  2  1  1  0  0  0
  1  6  1  0  0  0  0
  2  3  1  0  0  0  0
  3  4  1  0  0  0  0
  4  5  1  0  0  0  0
  4 21  1  0  0  0  0
  4 27  1  1  0  0  0
  6  5  1  0  0  0  0
  7 12  1  6  0  0  0
  7  1  1  0  0  0  0
  8  7  1  0  0  0  0
  9 11  1  0  0  0  0
  9  8  1  0  0  0  0
 10  8  2  0  0  0  0
 11 12  1  0  0  0  0
 13 11  2  0  0  0  0
 14  9  1  0  0  0  0
 15 14  1  0  0  0  0
 16 15  2  0  0  0  0
 17 19  2  0  0  0  0
 17 16  1  0  0  0  0
 18 17  1  0  0  0  0
 19 20  1  0  0  0  0
 20 14  2  0  0  0  0
 21 22  1  0  0  0  0
 22 23  1  0  0  0  0
 24 23  1  0  0  0  0
 25 24  1  0  0  0  0
 26 25  1  0  0  0  0
 26 21  1  0  0  0  0
 27 28  2  0  0  0  0
 27 29  1  0  0  0  0
 29 30  1  0  0  0  0
 31 29  1  0  0  0  0
M  END
>  <Pose>
1

>  <Score>
-9.745

$$$$
