MODEL 1
REMARK VINA RESULT:    -9.745      0.000      0.000
REMARK INTER + INTRA:         -12.346
REMARK INTER:                 -12.024
REMARK INTRA:                  -0.322
REMARK UNBOUND:                -0.322
REMARK  4 active torsions:
REMARK  status: ('A' for Active; 'I' for Inactive)
REMARK    1  A    between atoms: C_5  and  N_8 
REMARK    2  A    between atoms: C_11  and  N_15 
REMARK    3  A    between atoms: C_18  and  N_21 
REMARK    4  A    between atoms: C_18  and  C_27 
REMARK       I    between atoms: C_27  and  N_29 
ROOT
ATOM      1  N   UNK d   1      21.946  79.461  16.876  0.00  0.00    -0.399 N 
ATOM      2  C   UNK d   1      21.114  80.593  16.788  0.00  0.00     0.120 C 
ATOM      3  C   UNK d   1      19.911  80.389  17.718  0.00  0.00     0.060 C 
ATOM      4  C   UNK d   1      20.336  80.393  19.170  0.00  0.00     0.112 C 
ATOM      5  C   UNK d   1      21.598  79.643  19.318  0.00  0.00     0.060 C 
ATOM      6  C   UNK d   1      21.891  78.782  18.115  0.00  0.00     0.120 C 
ENDROOT
BRANCH   1   7
ATOM      7  C   UNK d   1      23.181  79.458  16.203  0.00  0.00     0.181 C 
ATOM      8  C   UNK d   1      22.996  79.956  14.815  0.00  0.00     0.254 C 
ATOM      9  N   UNK d   1      23.206  78.853  13.927  0.00  0.00    -0.251 N 
ATOM     10  O   UNK d   1      22.706  81.139  14.514  0.00  0.00    -0.270 OA
ATOM     11  C   UNK d   1      24.068  77.968  14.630  0.00  0.00     0.233 C 
ATOM     12  C   UNK d   1      23.822  78.093  16.091  0.00  0.00     0.138 C 
ATOM     13  O   UNK d   1      24.919  77.190  14.070  0.00  0.00    -0.273 OA
BRANCH   9  14
ATOM     14  C   UNK d   1      22.659  78.694  12.615  0.00  0.00     0.045 A 
ATOM     15  C   UNK d   1      21.340  78.359  12.459  0.00  0.00     0.031 A 
ATOM     16  C   UNK d   1      20.787  78.201  11.183  0.00  0.00     0.021 A 
ATOM     17  C   UNK d   1      21.536  78.373  10.042  0.00  0.00     0.011 A 
ATOM     18 Br   UNK d   1      20.790  78.160   8.294  0.00  0.00    -0.051 Br
ATOM     19  C   UNK d   1      22.863  78.711  10.198  0.00  0.00     0.021 A 
ATOM     20  C   UNK d   1      23.399  78.866  11.466  0.00  0.00     0.031 A 
ENDBRANCH   9  14
ENDBRANCH   1   7
BRANCH   4  21
ATOM     21  N   UNK d   1      20.327  81.718  19.633  0.00  0.00    -0.396 N 
ATOM     22  C   UNK d   1      20.774  81.984  20.935  0.00  0.00     0.118 C 
ATOM     23  C   UNK d   1      19.638  82.737  21.649  0.00  0.00     0.019 C 
ATOM     24  C   UNK d   1      19.507  84.063  20.927  0.00  0.00     0.003 C 
ATOM     25  C   UNK d   1      20.168  84.079  19.589  0.00  0.00     0.019 C 
ATOM     26  C   UNK d   1      19.969  82.770  18.810  0.00  0.00     0.118 C 
ENDBRANCH   4  21
BRANCH   4  27
ATOM     27  C   UNK d   1      19.254  79.645  19.904  0.00  0.00     0.243 C 
ATOM     28  O   UNK d   1      18.079  80.120  19.951  0.00  0.00    -0.271 OA
ATOM     29  N   UNK d   1      19.481  78.411  20.558  0.00  0.00    -0.368 N 
ATOM     30  H   UNK d   1      19.352  78.343  21.575  0.00  0.00     0.159 HD
ATOM     31  H   UNK d   1      19.775  77.570  20.025  0.00  0.00     0.159 HD
ENDBRANCH   4  27
TORSDOF 4
ENDMDL
