MODEL 1
REMARK VINA RESULT:   -10.251      0.000      0.000
REMARK INTER + INTRA:         -13.203
REMARK INTER:                 -12.648
REMARK INTRA:                  -0.555
REMARK UNBOUND:                -0.555
REMARK  4 active torsions:
REMARK  status: ('A' for Active; 'I' for Inactive)
REMARK    1  A    between atoms: C_5  and  N_8 
REMARK    2  A    between atoms: N_15  and  C_16 
REMARK    3  A    between atoms: C_16  and  C_17 
REMARK       I    between atoms: C_17  and  N_19 
REMARK    4  A    between atoms: N_19  and  C_20 
ROOT
ATOM      1  N   UNK d   1      21.495  78.257  14.843  0.00  0.00    -0.241 N 
ATOM      2  C   UNK d   1      21.763  78.987  15.939  0.00  0.00     0.286 A 
ATOM      3  O   UNK d   1      22.465  80.045  15.926  0.00  0.00    -0.265 OA
ATOM      4  C   UNK d   1      21.171  78.427  17.071  0.00  0.00     0.155 A 
ATOM      5  C   UNK d   1      20.537  77.342  16.637  0.00  0.00     0.152 A 
ATOM      6  N   UNK d   1      19.975  76.819  17.742  0.00  0.00    -0.279 N 
ATOM      7  N   UNK d   1      20.259  77.562  18.798  0.00  0.00    -0.239 N 
ATOM      8  N   UNK d   1      21.001  78.564  18.392  0.00  0.00    -0.261 N 
ATOM      9  C   UNK d   1      20.730  77.229  15.275  0.00  0.00     0.286 A 
ATOM     10  O   UNK d   1      20.287  76.335  14.521  0.00  0.00    -0.265 OA
ATOM     11  H   UNK d   1      19.401  75.939  17.698  0.00  0.00     0.189 HD
ATOM     12  H   UNK d   1      19.922  77.338  19.763  0.00  0.00     0.208 HD
ENDROOT
BRANCH   8  13
ATOM     13  C   UNK d   1      21.548  79.628  19.195  0.00  0.00     0.254 C 
BRANCH  13  14
ATOM     14  C   UNK d   1      20.490  80.600  19.630  0.00  0.00     0.242 C 
ATOM     15  O   UNK d   1      19.321  80.265  19.323  0.00  0.00    -0.271 OA
ATOM     16  N   UNK d   1      20.788  81.778  20.320  0.00  0.00    -0.325 N 
ATOM     17  H   UNK d   1      21.836  81.926  20.510  0.00  0.00     0.169 HD
BRANCH  16  18
ATOM     18  C   UNK d   1      19.886  82.748  20.771  0.00  0.00     0.040 A 
ATOM     19  C   UNK d   1      19.926  83.077  22.136  0.00  0.00    -0.035 A 
ATOM     20  C   UNK d   1      19.060  84.024  22.621  0.00  0.00     0.009 A 
ATOM     21  C   UNK d   1      20.879  82.427  23.056  0.00  0.00     0.050 C 
ATOM     22  C   UNK d   1      18.142  84.676  21.825  0.00  0.00     0.001 A 
ATOM     23  C   UNK d   1      18.096  84.362  20.500  0.00  0.00     0.002 A 
ATOM     24  C   UNK d   1      18.962  83.411  20.001  0.00  0.00     0.030 A 
ENDBRANCH  16  18
ENDBRANCH  13  14
ENDBRANCH   8  13
BRANCH   1  25
ATOM     25  C   UNK d   1      21.924  78.509  13.508  0.00  0.00     0.046 A 
ATOM     26  C   UNK d   1      23.271  78.635  13.214  0.00  0.00     0.031 A 
ATOM     27  C   UNK d   1      23.710  78.880  11.926  0.00  0.00     0.021 A 
ATOM     28  C   UNK d   1      22.820  79.009  10.882  0.00  0.00     0.011 A 
ATOM     29 Br   UNK d   1      23.433  79.349   9.094  0.00  0.00    -0.051 Br
ATOM     30  C   UNK d   1      21.478  78.886  11.162  0.00  0.00     0.021 A 
ATOM     31  C   UNK d   1      21.050  78.642  12.447  0.00  0.00     0.031 A 
ENDBRANCH   1  25
TORSDOF 4
ENDMDL
