MODEL 1
REMARK VINA RESULT:    -9.982      0.000      0.000
REMARK INTER + INTRA:         -15.060
REMARK INTER:                 -14.066
REMARK INTRA:                  -0.994
REMARK UNBOUND:                -0.994
REMARK  7 active torsions:
REMARK  status: ('A' for Active; 'I' for Inactive)
REMARK    1  A    between atoms: C_5  and  N_8 
REMARK    2  A    between atoms: N_15  and  C_16 
REMARK    3  A    between atoms: C_16  and  C_17 
REMARK       I    between atoms: C_17  and  N_19 
REMARK    4  A    between atoms: N_19  and  C_20 
REMARK    5  A    between atoms: C_23  and  C_26 
REMARK    6  A    between atoms: C_26  and  O_28 
REMARK    7  A    between atoms: O_28  and  C_29 
ROOT
ATOM      1  N   UNK d   1      20.640  78.652  10.675  0.00  0.00    -0.241 N 
ATOM      2  C   UNK d   1      20.648  78.160  11.940  0.00  0.00     0.286 A 
ATOM      3  O   UNK d   1      20.018  77.136  12.350  0.00  0.00    -0.265 OA
ATOM      4  C   UNK d   1      21.457  78.949  12.739  0.00  0.00     0.155 A 
ATOM      5  C   UNK d   1      21.925  79.906  11.940  0.00  0.00     0.152 A 
ATOM      6  N   UNK d   1      22.722  80.695  12.700  0.00  0.00    -0.279 N 
ATOM      7  N   UNK d   1      22.717  80.196  13.933  0.00  0.00    -0.239 N 
ATOM      8  N   UNK d   1      21.950  79.124  13.995  0.00  0.00    -0.261 N 
ATOM      9  C   UNK d   1      21.430  79.735  10.669  0.00  0.00     0.286 A 
ATOM     10  O   UNK d   1      21.660  80.447   9.667  0.00  0.00    -0.265 OA
ATOM     11  H   UNK d   1      23.239  81.533  12.366  0.00  0.00     0.189 HD
ATOM     12  H   UNK d   1      23.242  80.599  14.728  0.00  0.00     0.208 HD
ENDROOT
BRANCH   8  13
ATOM     13  C   UNK d   1      21.654  78.265  15.135  0.00  0.00     0.254 C 
BRANCH  13  14
ATOM     14  C   UNK d   1      21.530  79.116  16.375  0.00  0.00     0.242 C 
ATOM     15  O   UNK d   1      22.607  79.193  17.016  0.00  0.00    -0.271 OA
ATOM     16  N   UNK d   1      20.310  79.712  16.690  0.00  0.00    -0.326 N 
ATOM     17  H   UNK d   1      19.512  79.518  16.005  0.00  0.00     0.169 HD
BRANCH  16  18
ATOM     18  C   UNK d   1      20.020  80.535  17.806  0.00  0.00     0.034 A 
ATOM     19  C   UNK d   1      19.412  80.114  18.965  0.00  0.00     0.030 A 
ATOM     20  C   UNK d   1      19.159  80.993  20.027  0.00  0.00     0.020 A 
ATOM     21  C   UNK d   1      19.510  82.319  19.957  0.00  0.00     0.039 A 
ATOM     22  C   UNK d   1      20.119  82.751  18.804  0.00  0.00     0.020 A 
ATOM     23  C   UNK d   1      20.367  81.883  17.758  0.00  0.00     0.030 A 
BRANCH  21  24
ATOM     24  C   UNK d   1      19.227  83.197  21.088  0.00  0.00     0.293 C 
ATOM     25  O   UNK d   1      18.240  83.970  21.005  0.00  0.00    -0.259 OA
BRANCH  24  26
ATOM     26  O   UNK d   1      19.966  83.239  22.237  0.00  0.00    -0.318 OA
BRANCH  26  27
ATOM     27  C   UNK d   1      21.075  82.442  22.538  0.00  0.00     0.174 C 
ATOM     28  C   UNK d   1      21.068  82.243  24.061  0.00  0.00     0.034 C 
ENDBRANCH  26  27
ENDBRANCH  24  26
ENDBRANCH  21  24
ENDBRANCH  16  18
ENDBRANCH  13  14
ENDBRANCH   8  13
BRANCH   1  29
ATOM     29  C   UNK d   1      19.901  78.068   9.605  0.00  0.00     0.046 A 
ATOM     30  C   UNK d   1      20.321  76.863   9.061  0.00  0.00     0.031 A 
ATOM     31  C   UNK d   1      19.641  76.278   8.040  0.00  0.00     0.021 A 
ATOM     32  C   UNK d   1      18.508  76.850   7.500  0.00  0.00     0.011 A 
ATOM     33 Br   UNK d   1      17.527  76.065   6.073  0.00  0.00    -0.051 Br
ATOM     34  C   UNK d   1      18.102  78.045   8.049  0.00  0.00     0.021 A 
ATOM     35  C   UNK d   1      18.776  78.647   9.077  0.00  0.00     0.031 A 
ENDBRANCH   1  29
TORSDOF 7
ENDMDL
