MODEL 1
REMARK VINA RESULT:    -9.624      0.000      0.000
REMARK INTER + INTRA:         -14.092
REMARK INTER:                 -13.000
REMARK INTRA:                  -1.092
REMARK UNBOUND:                -1.092
REMARK  6 active torsions:
REMARK  status: ('A' for Active; 'I' for Inactive)
REMARK    1  A    between atoms: C_5  and  N_8 
REMARK    2  A    between atoms: N_15  and  C_16 
REMARK    3  A    between atoms: C_16  and  C_17 
REMARK       I    between atoms: C_17  and  N_19 
REMARK    4  A    between atoms: N_19  and  C_20 
REMARK    5  A    between atoms: C_23  and  O_26 
REMARK    6  A    between atoms: O_26  and  C_27 
ROOT
ATOM      1  N   UNK d   1      20.602  77.980  10.548  0.00  0.00    -0.241 N 
ATOM      2  C   UNK d   1      20.463  77.604  11.850  0.00  0.00     0.286 A 
ATOM      3  O   UNK d   1      19.581  76.809  12.254  0.00  0.00    -0.265 OA
ATOM      4  C   UNK d   1      21.412  78.211  12.642  0.00  0.00     0.155 A 
ATOM      5  C   UNK d   1      22.137  78.963  11.827  0.00  0.00     0.152 A 
ATOM      6  N   UNK d   1      23.075  79.572  12.575  0.00  0.00    -0.279 N 
ATOM      7  N   UNK d   1      22.911  79.186  13.832  0.00  0.00    -0.239 N 
ATOM      8  N   UNK d   1      21.895  78.347  13.909  0.00  0.00    -0.261 N 
ATOM      9  C   UNK d   1      21.645  78.823  10.549  0.00  0.00     0.286 A 
ATOM     10  O   UNK d   1      22.084  79.390   9.499  0.00  0.00    -0.265 OA
ATOM     11  H   UNK d   1      23.811  80.228  12.261  0.00  0.00     0.189 HD
ATOM     12  H   UNK d   1      23.513  79.508  14.645  0.00  0.00     0.208 HD
ENDROOT
BRANCH   8  13
ATOM     13  C   UNK d   1      21.366  77.700  15.074  0.00  0.00     0.254 C 
BRANCH  13  14
ATOM     14  C   UNK d   1      21.329  78.593  16.292  0.00  0.00     0.242 C 
ATOM     15  O   UNK d   1      22.416  78.731  16.894  0.00  0.00    -0.271 OA
ATOM     16  N   UNK d   1      20.158  79.222  16.709  0.00  0.00    -0.326 N 
ATOM     17  H   UNK d   1      19.286  79.015  16.107  0.00  0.00     0.169 HD
BRANCH  16  18
ATOM     18  C   UNK d   1      19.930  80.084  17.795  0.00  0.00     0.034 A 
ATOM     19  C   UNK d   1      19.263  79.620  18.928  0.00  0.00     0.032 A 
ATOM     20  C   UNK d   1      19.004  80.430  20.001  0.00  0.00     0.039 A 
ATOM     21  C   UNK d   1      19.408  81.766  19.989  0.00  0.00     0.068 A 
ATOM     22  C   UNK d   1      20.064  82.192  18.860  0.00  0.00     0.039 A 
ATOM     23  C   UNK d   1      20.328  81.382  17.780  0.00  0.00     0.032 A 
BRANCH  21  24
ATOM     24  O   UNK d   1      19.124  82.545  21.086  0.00  0.00    -0.352 OA
BRANCH  24  25
ATOM     25  C   UNK d   1      20.031  83.270  21.851  0.00  0.00     0.171 C 
ATOM     26  C   UNK d   1      21.099  82.447  22.486  0.00  0.00     0.034 C 
ENDBRANCH  24  25
ENDBRANCH  21  24
ENDBRANCH  16  18
ENDBRANCH  13  14
ENDBRANCH   8  13
BRANCH   1  27
ATOM     27  C   UNK d   1      19.813  77.575   9.433  0.00  0.00     0.046 A 
ATOM     28  C   UNK d   1      18.858  78.375   8.840  0.00  0.00     0.031 A 
ATOM     29  C   UNK d   1      18.106  77.942   7.758  0.00  0.00     0.021 A 
ATOM     30  C   UNK d   1      18.279  76.685   7.219  0.00  0.00     0.011 A 
ATOM     31 Br   UNK d   1      17.254  76.066   5.734  0.00  0.00    -0.051 Br
ATOM     32  C   UNK d   1      19.243  75.882   7.817  0.00  0.00     0.021 A 
ATOM     33  C   UNK d   1      19.990  76.313   8.894  0.00  0.00     0.031 A 
ENDBRANCH   1  27
TORSDOF 6
ENDMDL
