/Users/jonathanwahrer/Desktop/Msc/3_Semester/Drug_Design_Praktikum/waehrer_HTS_screening/HTS_experiment/out/docking_results/vina_output/6e43/0421_docked.pdbqt
 OpenBabel03212219553D

 28 31  0  0  0  0  0  0  0  0999 V2000
   21.3880   78.3380   14.7440 N   0  0  0  0  0  0  0  0  0  0  0  0
   21.0970   79.2800   15.6680 C   0  0  0  0  0  0  0  0  0  0  0  0
   21.2590   80.5380   15.5700 O   0  0  0  0  0  0  0  0  0  0  0  0
   20.5720   78.7020   16.8090 C   0  0  0  0  0  0  0  0  0  0  0  0
   20.5500   77.3920   16.5560 C   0  0  0  0  0  0  0  0  0  0  0  0
   20.0340   76.8230   17.6730 N   0  0  0  0  0  0  0  0  0  0  0  0
   19.7660   77.7790   18.5460 N   0  0  0  0  0  0  0  0  0  0  0  0
   20.0890   78.9570   18.0380 N   0  0  0  0  0  0  0  0  0  0  0  0
   21.0490   77.1590   15.2930 C   0  0  0  0  0  0  0  0  0  0  0  0
   21.1860   76.0580   14.7030 O   0  0  0  0  0  0  0  0  0  0  0  0
   19.8840   75.7880   17.7970 H   0  0  0  0  0  0  0  0  0  0  0  0
   19.3580   77.6680   19.5110 H   0  0  0  0  0  0  0  0  0  0  0  0
   19.9490   80.2340   18.6740 C   0  0  0  0  0  0  0  0  0  0  0  0
   20.3820   81.3880   18.0550 C   0  0  0  0  0  3  0  0  0  0  0  0
   20.2590   82.6400   18.6460 C   0  0  0  0  0  3  0  0  0  0  0  0
   19.6880   82.7600   19.8940 C   0  0  0  0  0  0  0  0  0  0  0  0
   19.2540   81.6080   20.5150 C   0  0  0  0  0  3  0  0  0  0  0  0
   19.3780   80.3610   19.9230 C   0  0  0  0  0  3  0  0  0  0  0  0
   19.5480   84.0300   20.5260 N   0  0  0  0  0  0  0  0  0  0  0  0
   19.6320   84.1700   21.7610 O   0  0  0  0  0  0  0  0  0  0  0  0
   19.3150   85.1300   19.7620 O   0  0  0  0  0  0  0  0  0  0  0  0
   21.9470   78.5760   13.4450 C   0  0  0  0  0  0  0  0  0  0  0  0
   23.2980   78.7630   13.2430 C   0  0  0  0  0  3  0  0  0  0  0  0
   23.8100   78.9930   11.9690 C   0  0  0  0  0  3  0  0  0  0  0  0
   22.9810   79.0400   10.8670 C   0  0  0  0  0  0  0  0  0  0  0  0
   23.6650   79.3530    9.1070 Br  0  0  0  0  0  0  0  0  0  0  0  0
   21.6290   78.8520   11.0660 C   0  0  0  0  0  3  0  0  0  0  0  0
   21.1300   78.6250   12.3350 C   0  0  0  0  0  3  0  0  0  0  0  0
  1  9  1  0  0  0  0
  1  2  1  0  0  0  0
  2  4  1  0  0  0  0
  3  2  2  0  0  0  0
  4  8  1  0  0  0  0
  5  4  2  0  0  0  0
  5  6  1  0  0  0  0
  6 11  1  0  0  0  0
  6  7  1  0  0  0  0
  7 12  1  0  0  0  0
  8  7  1  0  0  0  0
  8 13  1  0  0  0  0
  9  5  1  0  0  0  0
 10  9  2  0  0  0  0
 13 18  1  0  0  0  0
 14 15  1  0  0  0  0
 14 13  2  0  0  0  0
 15 16  2  0  0  0  0
 16 17  1  0  0  0  0
 16 19  1  0  0  0  0
 18 17  2  0  0  0  0
 19 20  2  0  0  0  0
 21 19  2  0  0  0  0
 22  1  1  0  0  0  0
 23 22  1  0  0  0  0
 24 23  2  0  0  0  0
 25 27  2  0  0  0  0
 25 24  1  0  0  0  0
 26 25  1  0  0  0  0
 27 28  1  0  0  0  0
 28 22  2  0  0  0  0
M  END
>  <Pose>
1

>  <Score>
-9.709

$$$$
