MODEL 1
REMARK VINA RESULT:    -9.709      0.000      0.000
REMARK INTER + INTRA:         -11.275
REMARK INTER:                 -11.412
REMARK INTRA:                   0.138
REMARK UNBOUND:                 0.138
REMARK  3 active torsions:
REMARK  status: ('A' for Active; 'I' for Inactive)
REMARK    1  A    between atoms: C_5  and  N_8 
REMARK    2  A    between atoms: N_15  and  C_16 
REMARK    3  A    between atoms: C_19  and  N_22 
ROOT
ATOM      1  N   UNK d   1      21.388  78.338  14.744  0.00  0.00    -0.241 N 
ATOM      2  C   UNK d   1      21.097  79.280  15.668  0.00  0.00     0.286 A 
ATOM      3  O   UNK d   1      21.259  80.538  15.570  0.00  0.00    -0.265 OA
ATOM      4  C   UNK d   1      20.572  78.702  16.809  0.00  0.00     0.160 A 
ATOM      5  C   UNK d   1      20.550  77.392  16.556  0.00  0.00     0.152 A 
ATOM      6  N   UNK d   1      20.034  76.823  17.673  0.00  0.00    -0.278 N 
ATOM      7  N   UNK d   1      19.766  77.779  18.546  0.00  0.00    -0.234 N 
ATOM      8  N   UNK d   1      20.089  78.957  18.038  0.00  0.00    -0.234 N 
ATOM      9  C   UNK d   1      21.049  77.159  15.293  0.00  0.00     0.286 A 
ATOM     10  O   UNK d   1      21.186  76.058  14.703  0.00  0.00    -0.265 OA
ATOM     11  H   UNK d   1      19.884  75.788  17.797  0.00  0.00     0.189 HD
ATOM     12  H   UNK d   1      19.358  77.668  19.511  0.00  0.00     0.209 HD
ENDROOT
BRANCH   8  13
ATOM     13  C   UNK d   1      19.949  80.234  18.674  0.00  0.00     0.058 A 
ATOM     14  C   UNK d   1      20.382  81.388  18.055  0.00  0.00     0.034 A 
ATOM     15  C   UNK d   1      20.259  82.640  18.646  0.00  0.00     0.038 A 
ATOM     16  C   UNK d   1      19.688  82.760  19.894  0.00  0.00     0.103 A 
ATOM     17  C   UNK d   1      19.254  81.608  20.515  0.00  0.00     0.038 A 
ATOM     18  C   UNK d   1      19.378  80.361  19.923  0.00  0.00     0.034 A 
BRANCH  16  19
ATOM     19  N   UNK d   1      19.548  84.030  20.526  0.00  0.00    -0.116 N 
ATOM     20  O   UNK d   1      19.632  84.170  21.761  0.00  0.00    -0.532 OA
ATOM     21  O   UNK d   1      19.315  85.130  19.762  0.00  0.00    -0.532 OA
ENDBRANCH  16  19
ENDBRANCH   8  13
BRANCH   1  22
ATOM     22  C   UNK d   1      21.947  78.576  13.445  0.00  0.00     0.046 A 
ATOM     23  C   UNK d   1      23.298  78.763  13.243  0.00  0.00     0.031 A 
ATOM     24  C   UNK d   1      23.810  78.993  11.969  0.00  0.00     0.021 A 
ATOM     25  C   UNK d   1      22.981  79.040  10.867  0.00  0.00     0.011 A 
ATOM     26 Br   UNK d   1      23.665  79.353   9.107  0.00  0.00    -0.051 Br
ATOM     27  C   UNK d   1      21.629  78.852  11.066  0.00  0.00     0.021 A 
ATOM     28  C   UNK d   1      21.130  78.625  12.335  0.00  0.00     0.031 A 
ENDBRANCH   1  22
TORSDOF 3
ENDMDL
