/Users/jonathanwahrer/Desktop/Msc/3_Semester/Drug_Design_Praktikum/waehrer_HTS_screening/HTS_experiment/out/docking_results/vina_output/6e43/0426_docked.pdbqt
 OpenBabel03212219553D

 29 32  0  0  1  0  0  0  0  0999 V2000
   20.3030   80.3810   18.5510 N   0  0  0  0  0  0  0  0  0  0  0  0
   20.0110   79.0770   19.0900 C   0  0  0  0  0  0  0  0  0  0  0  0
   19.1060   78.8010   19.9270 O   0  0  0  0  0  0  0  0  0  0  0  0
   20.9720   78.1340   18.4730 C   0  0  1  0  0  3  0  0  0  0  0  0
   20.4410   76.8060   18.2380 N   0  0  0  0  0  0  0  0  0  0  0  0
   21.1090   76.5210   17.0070 N   0  0  0  0  0  0  0  0  0  0  0  0
   21.0970   77.6990   16.2010 C   0  0  0  0  0  0  0  0  0  0  0  0
   21.0120   78.6990   17.0710 C   0  0  0  0  0  0  0  0  0  0  0  0
   20.9300   80.1380   17.2860 C   0  0  0  0  0  0  0  0  0  0  0  0
   21.3690   80.9600   16.4340 O   0  0  0  0  0  0  0  0  0  0  0  0
   19.4310   76.9590   17.9620 H   0  0  0  0  0  0  0  0  0  0  0  0
   21.5340   75.6140   16.7340 H   0  0  0  0  0  0  0  0  0  0  0  0
   21.1670   77.8010   14.7470 C   0  0  0  0  0  0  0  0  0  0  0  0
   20.6890   76.9150   14.0000 O   0  0  0  0  0  0  0  0  0  0  0  0
   21.7640   78.8790   14.1110 O   0  0  0  0  0  0  0  0  0  0  0  0
   23.0750   78.7940   13.5690 C   0  0  0  0  0  2  0  0  0  0  0  0
   24.0630   78.6350   14.6880 C   0  0  0  0  0  0  0  0  0  0  0  0
   24.2860   79.6790   15.5840 C   0  0  0  0  0  3  0  0  0  0  0  0
   25.1740   79.5740   16.6200 C   0  0  0  0  0  3  0  0  0  0  0  0
   25.8800   78.3850   16.7850 C   0  0  0  0  0  3  0  0  0  0  0  0
   25.6570   77.3560   15.8970 C   0  0  0  0  0  3  0  0  0  0  0  0
   24.7470   77.4740   14.8440 C   0  0  0  0  0  3  0  0  0  0  0  0
   20.0370   81.6470   19.1190 C   0  0  0  0  0  0  0  0  0  0  0  0
   19.4530   81.7420   20.3880 C   0  0  0  0  0  3  0  0  0  0  0  0
   19.1640   82.9160   21.0050 C   0  0  0  0  0  3  0  0  0  0  0  0
   19.4550   84.0900   20.3590 C   0  0  0  0  0  0  0  0  0  0  0  0
   19.0560   85.7710   21.2140 Br  0  0  0  0  0  0  0  0  0  0  0  0
   20.0320   84.0400   19.1040 C   0  0  0  0  0  3  0  0  0  0  0  0
   20.3170   82.8320   18.4950 C   0  0  0  0  0  3  0  0  0  0  0  0
  1  2  1  0  0  0  0
  1 23  1  0  0  0  0
  2  3  2  0  0  0  0
  4  8  1  6  0  0  0
  4  2  1  0  0  0  0
  5  4  1  0  0  0  0
  6  5  1  0  0  0  0
  7  6  1  0  0  0  0
  7  8  2  0  0  0  0
  8  9  1  0  0  0  0
  9  1  1  0  0  0  0
 10  9  2  0  0  0  0
 11  5  1  0  0  0  0
 12  6  1  0  0  0  0
 13  7  1  0  0  0  0
 14 13  2  0  0  0  0
 15 13  1  0  0  0  0
 16 15  1  0  0  0  0
 16 17  1  0  0  0  0
 17 22  2  0  0  0  0
 17 18  1  0  0  0  0
 18 19  2  0  0  0  0
 19 20  1  0  0  0  0
 21 20  2  0  0  0  0
 22 21  1  0  0  0  0
 23 24  1  0  0  0  0
 24 25  2  0  0  0  0
 26 25  1  0  0  0  0
 26 27  1  0  0  0  0
 28 26  2  0  0  0  0
 29 28  1  0  0  0  0
 29 23  2  0  0  0  0
M  END
>  <Pose>
1

>  <Score>
-10.586

$$$$
