/Users/jonathanwahrer/Desktop/Msc/3_Semester/Drug_Design_Praktikum/waehrer_HTS_screening/HTS_experiment/out/docking_results/vina_output/6e43/0428_docked.pdbqt
 OpenBabel03212219553D

 28 31  0  0  1  0  0  0  0  0999 V2000
   20.3890   77.2470   12.6240 N   0  0  0  0  0  0  0  0  0  0  0  0
   20.4100   78.1030   11.4660 C   0  0  0  0  0  0  0  0  0  0  0  0
   19.6940   77.8150   10.4670 O   0  0  0  0  0  0  0  0  0  0  0  0
   21.2460   79.2360   11.5200 N   0  0  0  0  0  2  0  0  0  0  0  0
   21.9730   79.5450   12.5120 C   0  0  0  0  0  0  0  0  0  0  0  0
   22.0810   78.7880   13.7840 C   0  0  1  0  0  0  0  0  0  0  0  0
   23.5180   78.4750   14.0180 C   0  0  0  0  0  2  0  0  0  0  0  0
   23.9370   78.3310   15.3650 N   0  0  0  0  0  4  0  0  0  0  0  0
   22.9090   78.2560   16.3260 C   0  0  0  0  0  0  0  0  0  0  0  0
   21.7120   78.9580   16.1410 C   0  0  0  0  0  0  0  0  0  0  0  0
   20.7270   78.8730   17.0850 C   0  0  0  0  0  3  0  0  0  0  0  0
   20.8340   78.1250   18.2340 C   0  0  0  0  0  0  0  0  0  0  0  0
   22.0140   77.4340   18.4120 C   0  0  0  0  0  3  0  0  0  0  0  0
   23.0340   77.5010   17.4720 C   0  0  0  0  0  3  0  0  0  0  0  0
   19.7420   78.0560   19.2340 C   0  0  0  0  0  1  0  0  0  0  0  0
   21.6380   79.7530   14.8880 C   0  0  0  0  0  2  0  0  0  0  0  0
   24.9290   79.3470   15.7530 C   0  0  0  0  0  1  0  0  0  0  0  0
   21.2060   77.5970   13.7350 C   0  0  0  0  0  0  0  0  0  0  0  0
   21.1420   76.7970   14.7260 O   0  0  0  0  0  0  0  0  0  0  0  0
   22.7640   80.7120   12.4300 O   0  0  0  0  0  0  0  0  0  0  0  0
   24.4740   77.4150   15.4350 H   0  0  0  0  0  0  0  0  0  0  0  0
   19.5690   76.0880   12.6450 C   0  0  0  0  0  0  0  0  0  0  0  0
   19.3180   75.4530   11.4500 C   0  0  0  0  0  3  0  0  0  0  0  0
   18.5250   74.3140   11.3770 C   0  0  0  0  0  3  0  0  0  0  0  0
   17.9760   73.8030   12.5220 C   0  0  0  0  0  0  0  0  0  0  0  0
   16.8890   72.2390   12.4120 Br  0  0  0  0  0  0  0  0  0  0  0  0
   18.2120   74.4230   13.7390 C   0  0  0  0  0  3  0  0  0  0  0  0
   19.0060   75.5570   13.7850 C   0  0  0  0  0  3  0  0  0  0  0  0
  1 22  1  0  0  0  0
  1 18  1  0  0  0  0
  2  4  1  0  0  0  0
  2  1  1  0  0  0  0
  3  2  2  0  0  0  0
  4  5  1  0  0  0  0
  5  6  1  0  0  0  0
  6  7  1  1  0  0  0
  6 16  1  0  0  0  0
  7  8  1  0  0  0  0
  8 21  1  0  0  0  0
  8 17  1  0  0  0  0
  8  9  1  0  0  0  0
  9 14  1  0  0  0  0
 10  9  2  0  0  0  0
 10 11  1  0  0  0  0
 11 12  2  0  0  0  0
 12 13  1  0  0  0  0
 12 15  1  0  0  0  0
 14 13  2  0  0  0  0
 16 10  1  0  0  0  0
 18  6  1  0  0  0  0
 18 19  2  0  0  0  0
 20  5  2  0  0  0  0
 22 28  1  0  0  0  0
 23 22  2  0  0  0  0
 24 23  1  0  0  0  0
 24 25  2  0  0  0  0
 25 27  1  0  0  0  0
 26 25  1  0  0  0  0
 27 28  2  0  0  0  0
M  END
>  <Pose>
1

>  <Score>
-10.459

$$$$
