MODEL 1
REMARK VINA RESULT:   -10.459      0.000      0.000
REMARK INTER + INTRA:          -9.949
REMARK INTER:                 -11.070
REMARK INTRA:                   1.121
REMARK UNBOUND:                 1.121
REMARK  1 active torsions:
REMARK  status: ('A' for Active; 'I' for Inactive)
REMARK    1  A    between atoms: C_5  and  N_8 
ROOT
ATOM      1  N   UNK d   1      20.389  77.247  12.624  0.00  0.00    -0.231 N 
ATOM      2  C   UNK d   1      20.410  78.103  11.466  0.00  0.00     0.357 A 
ATOM      3  O   UNK d   1      19.694  77.815  10.467  0.00  0.00    -0.244 OA
ATOM      4  N   UNK d   1      21.246  79.236  11.520  0.00  0.00    -0.169 NA
ATOM      5  C   UNK d   1      21.973  79.545  12.512  0.00  0.00     0.202 A 
ATOM      6  C   UNK d   1      22.081  78.788  13.784  0.00  0.00     0.140 A 
ATOM      7  C   UNK d   1      23.518  78.475  14.018  0.00  0.00     0.269 C 
ATOM      8  N   UNK d   1      23.937  78.331  15.365  0.00  0.00    -0.043 N 
ATOM      9  C   UNK d   1      22.909  78.256  16.326  0.00  0.00     0.140 A 
ATOM     10  C   UNK d   1      21.712  78.958  16.141  0.00  0.00    -0.021 A 
ATOM     11  C   UNK d   1      20.727  78.873  17.085  0.00  0.00     0.016 A 
ATOM     12  C   UNK d   1      20.834  78.125  18.234  0.00  0.00    -0.061 A 
ATOM     13  C   UNK d   1      22.014  77.434  18.412  0.00  0.00     0.009 A 
ATOM     14  C   UNK d   1      23.034  77.501  17.472  0.00  0.00     0.038 A 
ATOM     15  C   UNK d   1      19.742  78.056  19.234  0.00  0.00     0.048 C 
ATOM     16  C   UNK d   1      21.638  79.753  14.888  0.00  0.00     0.070 C 
ATOM     17  C   UNK d   1      24.929  79.347  15.753  0.00  0.00     0.276 C 
ATOM     18  C   UNK d   1      21.206  77.597  13.735  0.00  0.00     0.251 A 
ATOM     19  O   UNK d   1      21.142  76.797  14.726  0.00  0.00    -0.271 OA
ATOM     20  O   UNK d   1      22.764  80.712  12.430  0.00  0.00    -0.173 OA
ATOM     21  H   UNK d   1      24.474  77.415  15.435  0.00  0.00     0.286 HD
ENDROOT
BRANCH   1  22
ATOM     22  C   UNK d   1      19.569  76.088  12.645  0.00  0.00     0.047 A 
ATOM     23  C   UNK d   1      19.318  75.453  11.450  0.00  0.00     0.031 A 
ATOM     24  C   UNK d   1      18.525  74.314  11.377  0.00  0.00     0.021 A 
ATOM     25  C   UNK d   1      17.976  73.803  12.522  0.00  0.00     0.011 A 
ATOM     26 Br   UNK d   1      16.889  72.239  12.412  0.00  0.00    -0.051 Br
ATOM     27  C   UNK d   1      18.212  74.423  13.739  0.00  0.00     0.021 A 
ATOM     28  C   UNK d   1      19.006  75.557  13.785  0.00  0.00     0.031 A 
ENDBRANCH   1  22
TORSDOF 1
ENDMDL
