MODEL 1
REMARK VINA RESULT:    -9.685      0.000      0.000
REMARK INTER + INTRA:         -12.854
REMARK INTER:                 -11.950
REMARK INTRA:                  -0.904
REMARK UNBOUND:                -0.904
REMARK  4 active torsions:
REMARK  status: ('A' for Active; 'I' for Inactive)
REMARK    1  A    between atoms: C_5  and  N_8 
REMARK    2  A    between atoms: C_15  and  N_16 
REMARK    3  A    between atoms: N_16  and  N_17 
REMARK    4  A    between atoms: N_17  and  C_18 
ROOT
ATOM      1  N   UNK d   1      18.963  76.287   7.811  0.00  0.00    -0.229 N 
ATOM      2  C   UNK d   1      19.449  75.011   7.390  0.00  0.00     0.337 A 
ATOM      3  O   UNK d   1      20.491  74.562   7.965  0.00  0.00    -0.246 OA
ATOM      4  N   UNK d   1      18.770  74.302   6.369  0.00  0.00    -0.274 N 
ATOM      5  C   UNK d   1      17.602  74.785   5.712  0.00  0.00     0.266 A 
ATOM      6  O   UNK d   1      17.018  74.130   4.804  0.00  0.00    -0.267 OA
ATOM      7  C   UNK d   1      17.073  76.098   6.121  0.00  0.00     0.117 A 
ATOM      8  C   UNK d   1      15.991  76.602   5.547  0.00  0.00     0.130 C 
ATOM      9  C   UNK d   1      17.794  76.802   7.175  0.00  0.00     0.273 A 
ATOM     10  O   UNK d   1      17.380  77.926   7.558  0.00  0.00    -0.266 OA
ATOM     11  H   UNK d   1      19.158  73.371   6.090  0.00  0.00     0.173 HD
ENDROOT
BRANCH   8  12
ATOM     12  N   UNK d   1      15.505  77.870   5.964  0.00  0.00    -0.296 N 
ATOM     13  H   UNK d   1      16.044  78.703   5.600  0.00  0.00     0.186 HD
BRANCH  12  14
ATOM     14  N   UNK d   1      14.411  78.078   6.787  0.00  0.00    -0.130 N 
ATOM     15  H   UNK d   1      14.202  77.284   7.460  0.00  0.00     0.205 HD
BRANCH  14  16
ATOM     16  C   UNK d   1      13.596  79.244   6.770  0.00  0.00     0.723 A 
ATOM     17  N   UNK d   1      13.910  80.411   7.341  0.00  0.00    -0.175 N 
ATOM     18  C   UNK d   1      12.921  81.295   7.131  0.00  0.00     0.166 A 
ATOM     19  C   UNK d   1      15.113  80.778   8.098  0.00  0.00     0.176 C 
ATOM     20  C   UNK d   1      11.941  80.646   6.392  0.00  0.00     0.186 A 
ATOM     21  C   UNK d   1      12.683  82.601   7.463  0.00  0.00     0.282 A 
ATOM     22  N   UNK d   1      12.401  79.410   6.202  0.00  0.00    -0.042 NA
ATOM     23  N   UNK d   1      10.809  81.269   6.017  0.00  0.00    -0.285 N 
ATOM     24  C   UNK d   1      10.630  82.543   6.368  0.00  0.00     0.332 A 
ATOM     25  C   UNK d   1       9.843  80.534   5.257  0.00  0.00     0.163 C 
ATOM     26  O   UNK d   1       9.577  83.168   6.035  0.00  0.00    -0.246 OA
ATOM     27  N   UNK d   1      11.548  83.238   7.091  0.00  0.00    -0.269 N 
ATOM     28  C   UNK d   1      11.308  84.615   7.443  0.00  0.00     0.164 C 
ATOM     29  O   UNK d   1      13.528  83.236   8.127  0.00  0.00    -0.265 OA
ENDBRANCH  14  16
ENDBRANCH  12  14
ENDBRANCH   8  12
BRANCH   1  30
ATOM     30  C   UNK d   1      19.636  76.986   8.819  0.00  0.00     0.047 A 
ATOM     31  C   UNK d   1      20.634  77.881   8.488  0.00  0.00     0.031 A 
ATOM     32  C   UNK d   1      21.324  78.595   9.449  0.00  0.00     0.021 A 
ATOM     33  C   UNK d   1      21.028  78.430  10.791  0.00  0.00     0.011 A 
ATOM     34 Br   UNK d   1      21.978  79.413  12.132  0.00  0.00    -0.051 Br
ATOM     35  C   UNK d   1      20.029  77.531  11.098  0.00  0.00     0.021 A 
ATOM     36  C   UNK d   1      19.330  76.810  10.152  0.00  0.00     0.031 A 
ENDBRANCH   1  30
TORSDOF 4
ENDMDL
