MODEL 1
REMARK VINA RESULT:    -8.612      0.000      0.000
REMARK INTER + INTRA:         -11.506
REMARK INTER:                 -10.626
REMARK INTRA:                  -0.880
REMARK UNBOUND:                -0.880
REMARK  4 active torsions:
REMARK  status: ('A' for Active; 'I' for Inactive)
REMARK    1  A    between atoms: C_5  and  N_8 
REMARK    2  A    between atoms: C_12  and  C_13 
REMARK    3  A    between atoms: C_13  and  N_14 
REMARK    4  A    between atoms: N_14  and  C_15 
ROOT
ATOM      1  N   UNK d   1      20.365  78.126   9.237  0.00  0.00    -0.220 N 
ATOM      2  N   UNK d   1      21.217  79.092   8.911  0.00  0.00    -0.291 N 
ATOM      3  C   UNK d   1      21.702  79.685  10.017  0.00  0.00     0.056 A 
ATOM      4  C   UNK d   1      22.574  80.684  10.055  0.00  0.00     0.045 C 
ATOM      5  C   UNK d   1      21.142  79.077  11.122  0.00  0.00     0.076 A 
ATOM      6  C   UNK d   1      20.310  78.106  10.585  0.00  0.00     0.280 A 
ATOM      7  O   UNK d   1      19.610  77.329  11.274  0.00  0.00    -0.265 OA
ATOM      8  H   UNK d   1      21.473  79.352   7.938  0.00  0.00     0.187 HD
ENDROOT
BRANCH   5   9
ATOM      9  C   UNK d   1      21.341  79.350  12.415  0.00  0.00     0.103 C 
BRANCH   9  10
ATOM     10  N   UNK d   1      21.799  78.296  13.254  0.00  0.00    -0.384 N 
ATOM     11  H   UNK d   1      21.720  77.331  12.902  0.00  0.00     0.159 HD
BRANCH  10  12
ATOM     12  C   UNK d   1      22.359  78.541  14.552  0.00  0.00     0.109 C 
ATOM     13  C   UNK d   1      21.738  77.645  15.576  0.00  0.00     0.311 C 
ATOM     14  N   UNK d   1      22.400  77.856  16.856  0.00  0.00     0.147 N 
ATOM     15  C   UNK d   1      23.811  77.531  16.684  0.00  0.00     0.547 C 
ATOM     16  C   UNK d   1      22.231  79.230  17.254  0.00  0.00     0.547 C 
ATOM     17  N   UNK d   1      24.455  78.424  15.752  0.00  0.00     0.147 N 
ATOM     18  C   UNK d   1      24.239  79.806  16.172  0.00  0.00     0.547 C 
ATOM     19  C   UNK d   1      23.862  78.266  14.450  0.00  0.00     0.311 C 
ATOM     20  N   UNK d   1      22.833  80.117  16.286  0.00  0.00     0.147 N 
ATOM     21  C   UNK d   1      22.180  79.971  15.007  0.00  0.00     0.311 C 
ENDBRANCH  10  12
ENDBRANCH   9  10
ENDBRANCH   5   9
BRANCH   1  22
ATOM     22  C   UNK d   1      19.642  77.269   8.362  0.00  0.00     0.060 A 
ATOM     23  C   UNK d   1      18.527  77.737   7.698  0.00  0.00     0.033 A 
ATOM     24  C   UNK d   1      17.795  76.926   6.834  0.00  0.00     0.021 A 
ATOM     25  C   UNK d   1      18.173  75.633   6.627  0.00  0.00     0.011 A 
ATOM     26 Br   UNK d   1      17.199  74.469   5.445  0.00  0.00    -0.051 Br
ATOM     27  C   UNK d   1      19.289  75.134   7.279  0.00  0.00     0.021 A 
ATOM     28  C   UNK d   1      19.994  75.957   8.127  0.00  0.00     0.033 A 
ENDBRANCH   1  22
TORSDOF 4
ENDMDL
