/Users/jonathanwahrer/Desktop/Msc/3_Semester/Drug_Design_Praktikum/waehrer_HTS_screening/HTS_experiment/out/docking_results/vina_output/6e43/0439_docked.pdbqt
 OpenBabel03212219563D

 28 32  0  0  1  0  0  0  0  0999 V2000
   20.3650   78.1260    9.2370 N   0  0  0  0  0  0  0  0  0  0  0  0
   21.2170   79.0920    8.9110 N   0  0  0  0  0  0  0  0  0  0  0  0
   21.7020   79.6850   10.0170 C   0  0  0  0  0  0  0  0  0  0  0  0
   22.5740   80.6840   10.0550 C   0  0  0  0  0  2  0  0  0  0  0  0
   21.1420   79.0770   11.1220 C   0  0  2  0  0  3  0  0  0  0  0  0
   20.3100   78.1060   10.5850 C   0  0  0  0  0  0  0  0  0  0  0  0
   19.6100   77.3290   11.2740 O   0  0  0  0  0  0  0  0  0  0  0  0
   21.4730   79.3520    7.9380 H   0  0  0  0  0  0  0  0  0  0  0  0
   21.3410   79.3500   12.4150 C   0  0  0  0  0  2  0  0  0  0  0  0
   21.7990   78.2960   13.2540 N   0  0  0  0  0  0  0  0  0  0  0  0
   21.7200   77.3310   12.9020 H   0  0  0  0  0  0  0  0  0  0  0  0
   22.3590   78.5410   14.5520 C   0  0  1  0  0  0  0  0  0  0  0  0
   21.7380   77.6450   15.5760 C   0  0  0  0  0  2  0  0  0  0  0  0
   22.4000   77.8560   16.8560 N   0  0  1  0  0  0  0  0  0  0  0  0
   23.8110   77.5310   16.6840 C   0  0  0  0  0  2  0  0  0  0  0  0
   22.2310   79.2300   17.2540 C   0  0  0  0  0  2  0  0  0  0  0  0
   24.4550   78.4240   15.7520 N   0  0  2  0  0  0  0  0  0  0  0  0
   24.2390   79.8060   16.1720 C   0  0  0  0  0  2  0  0  0  0  0  0
   23.8620   78.2660   14.4500 C   0  0  0  0  0  2  0  0  0  0  0  0
   22.8330   80.1170   16.2860 N   0  0  1  0  0  0  0  0  0  0  0  0
   22.1800   79.9710   15.0070 C   0  0  0  0  0  2  0  0  0  0  0  0
   19.6420   77.2690    8.3620 C   0  0  0  0  0  0  0  0  0  0  0  0
   18.5270   77.7370    7.6980 C   0  0  0  0  0  3  0  0  0  0  0  0
   17.7950   76.9260    6.8340 C   0  0  0  0  0  3  0  0  0  0  0  0
   18.1730   75.6330    6.6270 C   0  0  0  0  0  0  0  0  0  0  0  0
   17.1990   74.4690    5.4450 Br  0  0  0  0  0  0  0  0  0  0  0  0
   19.2890   75.1340    7.2790 C   0  0  0  0  0  3  0  0  0  0  0  0
   19.9940   75.9570    8.1270 C   0  0  0  0  0  3  0  0  0  0  0  0
  1  6  1  0  0  0  0
  2  1  1  0  0  0  0
  2  3  1  0  0  0  0
  3  4  2  0  0  0  0
  3  5  1  0  0  0  0
  5  9  1  6  0  0  0
  6  5  1  0  0  0  0
  6  7  2  0  0  0  0
  8  2  1  0  0  0  0
  9 10  1  0  0  0  0
 11 10  1  0  0  0  0
 12 10  1  6  0  0  0
 12 21  1  0  0  0  0
 12 13  1  0  0  0  0
 14 13  1  6  0  0  0
 14 16  1  0  0  0  0
 15 14  1  0  0  0  0
 17 19  1  6  0  0  0
 17 18  1  0  0  0  0
 17 15  1  0  0  0  0
 18 20  1  0  0  0  0
 19 12  1  0  0  0  0
 20 21  1  6  0  0  0
 20 16  1  0  0  0  0
 22  1  1  0  0  0  0
 23 22  2  0  0  0  0
 24 23  1  0  0  0  0
 25 24  2  0  0  0  0
 25 27  1  0  0  0  0
 26 25  1  0  0  0  0
 27 28  2  0  0  0  0
 28 22  1  0  0  0  0
M  END
>  <Pose>
1

>  <Score>
-8.612

$$$$
