/Users/jonathanwahrer/Desktop/Msc/3_Semester/Drug_Design_Praktikum/waehrer_HTS_screening/HTS_experiment/out/docking_results/vina_output/6e43/0441_docked.pdbqt
 OpenBabel03212219563D

 36 39  0  0  1  0  0  0  0  0999 V2000
   21.1630   79.5920   16.3680 C   0  0  0  0  0  0  0  0  0  0  0  0
   21.0520   80.5330   17.3240 N   0  0  0  0  0  0  0  0  0  0  0  0
   20.4160   80.2510   18.4490 C   0  0  0  0  0  0  0  0  0  0  0  0
   20.1780   81.0080   19.5290 N   0  0  0  0  0  0  0  0  0  0  0  0
   19.4860   80.2180   20.3820 C   0  0  0  0  0  3  0  0  0  0  0  0
   19.3030   79.0080   19.8450 N   0  0  0  0  0  0  0  0  0  0  0  0
   19.8670   78.9770   18.6350 C   0  0  0  0  0  0  0  0  0  0  0  0
   19.9770   78.0050   17.6590 C   0  0  0  0  0  0  0  0  0  0  0  0
   20.6300   78.3470   16.5440 N   0  0  0  0  0  0  0  0  0  0  0  0
   21.8370   79.8590   15.1410 N   0  0  0  0  0  0  0  0  0  0  0  0
   23.0700   79.2650   14.8030 C   0  0  0  0  0  0  0  0  0  0  0  0
   23.6200   78.4730   15.5880 O   0  0  0  0  0  0  0  0  0  0  0  0
   21.3670   80.5350   14.4720 H   0  0  0  0  0  0  0  0  0  0  0  0
   23.7080   79.5890   13.5140 C   0  0  0  0  0  2  0  0  0  0  0  0
   22.9550   80.4700   12.7320 O   0  0  0  0  0  0  0  0  0  0  0  0
   22.2440   79.9870   11.6550 C   0  0  0  0  0  0  0  0  0  0  0  0
   21.8310   78.6760   11.6210 C   0  0  0  0  0  3  0  0  0  0  0  0
   21.1110   78.1760   10.5330 C   0  0  0  0  0  3  0  0  0  0  0  0
   20.8070   79.0070    9.4770 C   0  0  0  0  0  0  0  0  0  0  0  0
   19.8170   78.3210    7.9810 Br  0  0  0  0  0  0  0  0  0  0  0  0
   21.2240   80.3210    9.5140 C   0  0  0  0  0  3  0  0  0  0  0  0
   21.9330   80.7980   10.5920 C   0  0  0  0  0  3  0  0  0  0  0  0
   19.4130   76.7600   17.8960 O   0  0  0  0  0  0  0  0  0  0  0  0
   19.1730   76.2150   17.0600 H   0  0  0  0  0  0  0  0  0  0  0  0
   20.5230   82.3450   19.8250 C   0  0  2  0  0  3  0  0  0  0  0  0
   20.4750   82.6050   21.2010 O   0  0  0  0  0  0  0  0  0  0  0  0
   19.2290   83.2080   21.3540 C   0  0  2  0  0  3  0  0  0  0  0  0
   19.3130   84.2800   20.2770 C   0  0  1  0  0  3  0  0  0  0  0  0
   19.7990   83.4120   19.1190 C   0  0  1  0  0  3  0  0  0  0  0  0
   19.0380   83.7940   22.7230 C   0  0  0  0  0  2  0  0  0  0  0  0
   17.7670   84.2410   22.9630 O   0  0  0  0  0  0  0  0  0  0  0  0
   17.2070   83.4680   23.2360 H   0  0  0  0  0  0  0  0  0  0  0  0
   18.1220   84.9020   20.0290 O   0  0  0  0  0  0  0  0  0  0  0  0
   18.1530   85.8990   20.1870 H   0  0  0  0  0  0  0  0  0  0  0  0
   20.6490   84.1660   18.2790 O   0  0  0  0  0  0  0  0  0  0  0  0
   21.5570   84.0560   18.6570 H   0  0  0  0  0  0  0  0  0  0  0  0
  1  9  1  0  0  0  0
  1  2  2  0  0  0  0
  2  3  1  0  0  0  0
  3  7  2  0  0  0  0
  3  4  1  0  0  0  0
  4  5  1  0  0  0  0
  6  5  2  0  0  0  0
  7  6  1  0  0  0  0
  8 23  1  0  0  0  0
  8  7  1  0  0  0  0
  9  8  2  0  0  0  0
 10  1  1  0  0  0  0
 11 10  1  0  0  0  0
 11 12  2  0  0  0  0
 13 10  1  0  0  0  0
 14 11  1  0  0  0  0
 15 14  1  0  0  0  0
 16 15  1  0  0  0  0
 17 16  1  0  0  0  0
 18 17  2  0  0  0  0
 19 21  2  0  0  0  0
 19 18  1  0  0  0  0
 20 19  1  0  0  0  0
 21 22  1  0  0  0  0
 22 16  2  0  0  0  0
 24 23  1  0  0  0  0
 25  4  1  1  0  0  0
 25 26  1  0  0  0  0
 26 27  1  0  0  0  0
 27 30  1  1  0  0  0
 28 33  1  6  0  0  0
 28 27  1  0  0  0  0
 29 35  1  6  0  0  0
 29 25  1  0  0  0  0
 29 28  1  0  0  0  0
 30 31  1  0  0  0  0
 31 32  1  0  0  0  0
 33 34  1  0  0  0  0
 35 36  1  0  0  0  0
M  END
>  <Pose>
1

>  <Score>
-9.499

$$$$
