MODEL 1
REMARK VINA RESULT:    -9.499      0.000      0.000
REMARK INTER + INTRA:         -14.563
REMARK INTER:                 -13.941
REMARK INTRA:                  -0.622
REMARK UNBOUND:                -0.622
REMARK  10 active torsions:
REMARK  status: ('A' for Active; 'I' for Inactive)
REMARK    1  A    between atoms: C_5  and  O_8 
REMARK    2  A    between atoms: O_8  and  C_9 
REMARK    3  A    between atoms: C_9  and  C_10 
REMARK       I    between atoms: C_10  and  N_12 
REMARK    4  A    between atoms: N_12  and  C_13 
REMARK    5  A    between atoms: N_16  and  C_23 
REMARK    6  A    between atoms: C_20  and  O_22 
REMARK    7  A    between atoms: C_25  and  C_30 
REMARK    8  A    between atoms: C_26  and  O_29 
REMARK    9  A    between atoms: C_27  and  O_28 
REMARK   10  A    between atoms: C_30  and  O_31 
ROOT
ATOM      1  C   UNK d   1      21.163  79.592  16.368  0.00  0.00     0.733 A 
ATOM      2  N   UNK d   1      21.052  80.533  17.324  0.00  0.00    -0.042 NA
ATOM      3  C   UNK d   1      20.416  80.251  18.449  0.00  0.00     0.185 A 
ATOM      4  N   UNK d   1      20.178  81.008  19.529  0.00  0.00    -0.293 N 
ATOM      5  C   UNK d   1      19.486  80.218  20.382  0.00  0.00     0.214 A 
ATOM      6  N   UNK d   1      19.303  79.008  19.845  0.00  0.00    -0.235 NA
ATOM      7  C   UNK d   1      19.867  78.977  18.635  0.00  0.00     0.158 A 
ATOM      8  C   UNK d   1      19.977  78.005  17.659  0.00  0.00     0.214 A 
ATOM      9  N   UNK d   1      20.630  78.347  16.544  0.00  0.00    -0.036 NA
ENDROOT
BRANCH   1  10
ATOM     10  N   UNK d   1      21.837  79.859  15.141  0.00  0.00    -0.154 N 
ATOM     11  C   UNK d   1      23.070  79.265  14.803  0.00  0.00     0.260 C 
ATOM     12  O   UNK d   1      23.620  78.473  15.588  0.00  0.00    -0.270 OA
ATOM     13  H   UNK d   1      21.367  80.535  14.472  0.00  0.00     0.187 HD
BRANCH  11  14
ATOM     14  C   UNK d   1      23.708  79.589  13.514  0.00  0.00     0.279 C 
BRANCH  14  15
ATOM     15  O   UNK d   1      22.955  80.470  12.732  0.00  0.00    -0.342 OA
BRANCH  15  16
ATOM     16  C   UNK d   1      22.244  79.987  11.655  0.00  0.00     0.069 A 
ATOM     17  C   UNK d   1      21.831  78.676  11.621  0.00  0.00     0.038 A 
ATOM     18  C   UNK d   1      21.111  78.176  10.533  0.00  0.00     0.022 A 
ATOM     19  C   UNK d   1      20.807  79.007   9.477  0.00  0.00     0.011 A 
ATOM     20 Br   UNK d   1      19.817  78.321   7.981  0.00  0.00    -0.051 Br
ATOM     21  C   UNK d   1      21.224  80.321   9.514  0.00  0.00     0.022 A 
ATOM     22  C   UNK d   1      21.933  80.798  10.592  0.00  0.00     0.038 A 
ENDBRANCH  15  16
ENDBRANCH  14  15
ENDBRANCH  11  14
ENDBRANCH   1  10
BRANCH   8  23
ATOM     23  O   UNK d   1      19.413  76.760  17.896  0.00  0.00    -0.343 OA
ATOM     24  H   UNK d   1      19.173  76.215  17.060  0.00  0.00     0.219 HD
ENDBRANCH   8  23
BRANCH   4  25
ATOM     25  C   UNK d   1      20.523  82.345  19.825  0.00  0.00     0.262 C 
ATOM     26  O   UNK d   1      20.475  82.605  21.201  0.00  0.00    -0.353 OA
ATOM     27  C   UNK d   1      19.229  83.208  21.354  0.00  0.00     0.179 C 
ATOM     28  C   UNK d   1      19.313  84.280  20.277  0.00  0.00     0.182 C 
ATOM     29  C   UNK d   1      19.799  83.412  19.119  0.00  0.00     0.198 C 
BRANCH  27  30
ATOM     30  C   UNK d   1      19.038  83.794  22.723  0.00  0.00     0.198 C 
BRANCH  30  31
ATOM     31  O   UNK d   1      17.767  84.241  22.963  0.00  0.00    -0.398 OA
ATOM     32  H   UNK d   1      17.207  83.468  23.236  0.00  0.00     0.209 HD
ENDBRANCH  30  31
ENDBRANCH  27  30
BRANCH  28  33
ATOM     33  O   UNK d   1      18.122  84.902  20.029  0.00  0.00    -0.390 OA
ATOM     34  H   UNK d   1      18.153  85.899  20.187  0.00  0.00     0.210 HD
ENDBRANCH  28  33
BRANCH  29  35
ATOM     35  O   UNK d   1      20.649  84.166  18.279  0.00  0.00    -0.388 OA
ATOM     36  H   UNK d   1      21.557  84.056  18.657  0.00  0.00     0.210 HD
ENDBRANCH  29  35
ENDBRANCH   4  25
TORSDOF 10
ENDMDL
