/Users/jonathanwahrer/Desktop/Msc/3_Semester/Drug_Design_Praktikum/waehrer_HTS_screening/HTS_experiment/out/docking_results/vina_output/6e43/0444_docked.pdbqt
 OpenBabel03212219573D

 33 36  0  0  1  0  0  0  0  0999 V2000
   20.8400   78.5770   17.0460 N   0  0  0  0  0  0  0  0  0  0  0  0
   20.2280   79.1880   18.0870 C   0  0  0  0  0  0  0  0  0  0  0  0
   20.4630   80.5410   17.9940 C   0  0  0  0  0  0  0  0  0  0  0  0
   21.2030   80.6930   16.9160 N   0  0  0  0  0  0  0  0  0  0  0  0
   21.4650   79.4990   16.2970 C   0  0  0  0  0  0  0  0  0  0  0  0
   19.9900   81.4600   18.8860 N   0  0  0  0  0  0  0  0  0  0  0  0
   19.2570   81.0060   19.9040 C   0  0  0  0  0  0  0  0  0  0  0  0
   18.8110   81.8410   20.7360 O   0  0  0  0  0  0  0  0  0  0  0  0
   19.0130   79.6940   20.0210 N   0  0  0  0  0  0  0  0  0  0  0  0
   19.4680   78.7600   19.1530 C   0  0  0  0  0  0  0  0  0  0  0  0
   19.2270   77.5520   19.2880 O   0  0  0  0  0  0  0  0  0  0  0  0
   20.2870   82.8810   18.6970 C   0  0  0  0  0  1  0  0  0  0  0  0
   18.4370   79.3780   20.8280 H   0  0  0  0  0  0  0  0  0  0  0  0
   20.7900   77.1640   16.7420 C   0  0  0  0  0  2  0  0  0  0  0  0
   19.9160   76.7830   15.5820 C   0  0  1  0  0  3  0  0  0  0  0  0
   20.4300   75.7110   14.6730 C   0  0  0  0  0  2  0  0  0  0  0  0
   19.5130   75.0470   14.0020 O   0  0  0  0  0  0  0  0  0  0  0  0
   18.9150   73.9880   13.5130 C   0  0  0  0  0  0  0  0  0  0  0  0
   19.5320   72.7800   13.2570 C   0  0  0  0  0  3  0  0  0  0  0  0
   18.8500   71.7000   12.7400 C   0  0  0  0  0  3  0  0  0  0  0  0
   17.5140   71.8220   12.4700 C   0  0  0  0  0  0  0  0  0  0  0  0
   16.5790   70.3290   11.7570 Br  0  0  0  0  0  0  0  0  0  0  0  0
   16.8690   73.0170   12.7170 C   0  0  0  0  0  3  0  0  0  0  0  0
   17.5350   74.0820   13.2250 C   0  0  0  0  0  3  0  0  0  0  0  0
   18.6290   76.4060   15.9920 O   0  0  0  0  0  0  0  0  0  0  0  0
   17.9530   76.9620   15.4870 H   0  0  0  0  0  0  0  0  0  0  0  0
   22.3090   79.3700   15.1360 N   0  0  0  0  0  0  0  0  0  0  0  0
   22.2880   80.5600   14.2580 C   0  0  0  0  0  2  0  0  0  0  0  0
   23.3530   80.5910   13.2380 C   0  0  0  0  0  2  0  0  0  0  0  0
   23.6960   79.2880   12.7250 N   0  0  0  0  0  0  0  0  0  0  0  0
   24.2190   78.5520   13.8320 C   0  0  0  0  0  2  0  0  0  0  0  0
   22.6160   78.6680   12.0300 C   0  0  0  0  0  1  0  0  0  0  0  0
   23.1370   78.2480   14.8670 C   0  0  0  0  0  2  0  0  0  0  0  0
  1  2  1  0  0  0  0
  2 10  1  0  0  0  0
  3  2  2  0  0  0  0
  3  6  1  0  0  0  0
  4  3  1  0  0  0  0
  5  4  2  0  0  0  0
  5  1  1  0  0  0  0
  6  7  1  0  0  0  0
  7  9  1  0  0  0  0
  7  8  2  0  0  0  0
  9 13  1  0  0  0  0
 10 11  2  0  0  0  0
 10  9  1  0  0  0  0
 12  6  1  0  0  0  0
 14  1  1  0  0  0  0
 15 16  1  1  0  0  0
 15 25  1  0  0  0  0
 15 14  1  0  0  0  0
 17 16  1  0  0  0  0
 18 17  1  0  0  0  0
 19 18  1  0  0  0  0
 20 19  2  0  0  0  0
 21 23  2  0  0  0  0
 21 20  1  0  0  0  0
 22 21  1  0  0  0  0
 23 24  1  0  0  0  0
 24 18  2  0  0  0  0
 26 25  1  0  0  0  0
 27  5  1  0  0  0  0
 28 27  1  0  0  0  0
 29 28  1  0  0  0  0
 30 29  1  0  0  0  0
 30 31  1  0  0  0  0
 31 33  1  0  0  0  0
 32 30  1  0  0  0  0
 33 27  1  0  0  0  0
M  END
>  <Pose>
1

>  <Score>
-9.290

$$$$
