MODEL 1
REMARK VINA RESULT:    -9.290      0.000      0.000
REMARK INTER + INTRA:         -13.489
REMARK INTER:                 -12.820
REMARK INTRA:                  -0.669
REMARK UNBOUND:                -0.669
REMARK  7 active torsions:
REMARK  status: ('A' for Active; 'I' for Inactive)
REMARK    1  A    between atoms: C_5  and  O_8 
REMARK    2  A    between atoms: O_8  and  C_9 
REMARK    3  A    between atoms: C_9  and  C_10 
REMARK    4  A    between atoms: C_10  and  O_11 
REMARK    5  A    between atoms: C_10  and  C_12 
REMARK    6  A    between atoms: C_12  and  N_13 
REMARK    7  A    between atoms: C_17  and  N_18 
ROOT
ATOM      1  N   UNK d   1      20.840  78.577  17.046  0.00  0.00    -0.170 N 
ATOM      2  C   UNK d   1      20.228  79.188  18.087  0.00  0.00     0.166 A 
ATOM      3  C   UNK d   1      20.463  80.541  17.994  0.00  0.00     0.185 A 
ATOM      4  N   UNK d   1      21.203  80.693  16.916  0.00  0.00    -0.044 NA
ATOM      5  C   UNK d   1      21.465  79.499  16.297  0.00  0.00     0.707 A 
ATOM      6  N   UNK d   1      19.990  81.460  18.886  0.00  0.00    -0.286 N 
ATOM      7  C   UNK d   1      19.257  81.006  19.904  0.00  0.00     0.330 A 
ATOM      8  O   UNK d   1      18.811  81.841  20.736  0.00  0.00    -0.246 OA
ATOM      9  N   UNK d   1      19.013  79.694  20.021  0.00  0.00    -0.273 N 
ATOM     10  C   UNK d   1      19.468  78.760  19.153  0.00  0.00     0.280 A 
ATOM     11  O   UNK d   1      19.227  77.552  19.288  0.00  0.00    -0.265 OA
ATOM     12  C   UNK d   1      20.287  82.881  18.697  0.00  0.00     0.163 C 
ATOM     13  H   UNK d   1      18.437  79.378  20.828  0.00  0.00     0.173 HD
ENDROOT
BRANCH   1  14
ATOM     14  C   UNK d   1      20.790  77.164  16.742  0.00  0.00     0.182 C 
BRANCH  14  15
ATOM     15  C   UNK d   1      19.916  76.783  15.582  0.00  0.00     0.161 C 
BRANCH  15  16
ATOM     16  C   UNK d   1      20.430  75.711  14.673  0.00  0.00     0.209 C 
BRANCH  16  17
ATOM     17  O   UNK d   1      19.513  75.047  14.002  0.00  0.00    -0.349 OA
BRANCH  17  18
ATOM     18  C   UNK d   1      18.915  73.988  13.513  0.00  0.00     0.069 A 
ATOM     19  C   UNK d   1      19.532  72.780  13.257  0.00  0.00     0.038 A 
ATOM     20  C   UNK d   1      18.850  71.700  12.740  0.00  0.00     0.022 A 
ATOM     21  C   UNK d   1      17.514  71.822  12.470  0.00  0.00     0.011 A 
ATOM     22 Br   UNK d   1      16.579  70.329  11.757  0.00  0.00    -0.051 Br
ATOM     23  C   UNK d   1      16.869  73.017  12.717  0.00  0.00     0.022 A 
ATOM     24  C   UNK d   1      17.535  74.082  13.225  0.00  0.00     0.038 A 
ENDBRANCH  17  18
ENDBRANCH  16  17
ENDBRANCH  15  16
BRANCH  15  25
ATOM     25  O   UNK d   1      18.629  76.406  15.992  0.00  0.00    -0.392 OA
ATOM     26  H   UNK d   1      17.953  76.962  15.487  0.00  0.00     0.210 HD
ENDBRANCH  15  25
ENDBRANCH  14  15
ENDBRANCH   1  14
BRANCH   5  27
ATOM     27  N   UNK d   1      22.309  79.370  15.136  0.00  0.00    -0.212 N 
ATOM     28  C   UNK d   1      22.288  80.560  14.258  0.00  0.00     0.171 C 
ATOM     29  C   UNK d   1      23.353  80.591  13.238  0.00  0.00     0.292 C 
ATOM     30  N   UNK d   1      23.696  79.288  12.725  0.00  0.00     0.087 N 
ATOM     31  C   UNK d   1      24.219  78.552  13.832  0.00  0.00     0.292 C 
ATOM     32  C   UNK d   1      22.616  78.668  12.030  0.00  0.00     0.310 C 
ATOM     33  C   UNK d   1      23.137  78.248  14.867  0.00  0.00     0.171 C 
ENDBRANCH   5  27
TORSDOF 7
ENDMDL
