MODEL 1
REMARK VINA RESULT:    -8.433      0.000      0.000
REMARK INTER + INTRA:          -9.712
REMARK INTER:                  -9.419
REMARK INTRA:                  -0.293
REMARK UNBOUND:                -0.293
REMARK  2 active torsions:
REMARK  status: ('A' for Active; 'I' for Inactive)
REMARK    1  A    between atoms: C_7  and  C_8 
REMARK    2  A    between atoms: C_8  and  N_9 
ROOT
ATOM      1  C   UNK d   1      20.727  79.846  16.776  0.00  0.00     0.284 C 
ENDROOT
BRANCH   1   2
ATOM      2  C   UNK d   1      20.351  80.605  17.969  0.00  0.00    -0.012 A 
ATOM      3  C   UNK d   1      19.813  79.888  19.051  0.00  0.00     0.021 A 
ATOM      4 Br   UNK d   1      19.708  77.979  19.098  0.00  0.00    -0.050 Br
ATOM      5  C   UNK d   1      19.333  80.639  20.109  0.00  0.00     0.059 A 
ATOM      6  C   UNK d   1      19.396  82.018  20.088  0.00  0.00     0.106 A 
ATOM      7  C   UNK d   1      19.915  82.749  19.046  0.00  0.00     0.105 A 
ATOM      8  O   UNK d   1      18.951  82.943  21.081  0.00  0.00    -0.323 OA
ATOM      9  C   UNK d   1      20.386  82.001  18.002  0.00  0.00     0.050 A 
ATOM     10  O   UNK d   1      19.771  84.074  19.427  0.00  0.00    -0.323 OA
ATOM     11  C   UNK d   1      18.632  84.151  20.329  0.00  0.00     0.352 C 
ENDBRANCH   1   2
BRANCH   1  12
ATOM     12  N   UNK d   1      22.004  79.274  16.672  0.00  0.00     0.016 N 
ATOM     13  C   UNK d   1      22.666  80.236  15.720  0.00  0.00     0.517 C 
ATOM     14  N   UNK d   1      23.874  79.782  15.173  0.00  0.00     0.171 N 
ATOM     15  C   UNK d   1      23.603  78.515  14.517  0.00  0.00     0.551 C 
ATOM     16  C   UNK d   1      24.808  79.657  16.298  0.00  0.00     0.551 C 
ATOM     17  N   UNK d   1      23.213  77.578  15.542  0.00  0.00     0.171 N 
ATOM     18  C   UNK d   1      21.950  77.925  16.110  0.00  0.00     0.517 C 
ATOM     19  C   UNK d   1      24.190  77.456  16.630  0.00  0.00     0.551 C 
ATOM     20  N   UNK d   1      24.263  78.753  17.282  0.00  0.00     0.171 N 
ATOM     21  C   UNK d   1      22.934  79.196  17.754  0.00  0.00     0.517 C 
ENDBRANCH   1  12
TORSDOF 2
ENDMDL
