MODEL 1
REMARK VINA RESULT:    -9.169      0.000      0.000
REMARK INTER + INTRA:         -12.261
REMARK INTER:                 -11.850
REMARK INTRA:                  -0.411
REMARK UNBOUND:                -0.411
REMARK  5 active torsions:
REMARK  status: ('A' for Active; 'I' for Inactive)
REMARK    1  A    between atoms: C_7  and  C_8 
REMARK    2  A    between atoms: C_8  and  N_9 
REMARK    3  A    between atoms: N_12  and  C_15 
REMARK    4  A    between atoms: C_15  and  C_16 
REMARK       I    between atoms: C_16  and  N_18 
REMARK    5  A    between atoms: N_18  and  C_19 
ROOT
ATOM      1  N   UNK d   1      21.217  77.632  16.664  0.00  0.00     0.095 N 
ATOM      2  C   UNK d   1      20.090  76.769  16.223  0.00  0.00     0.292 C 
ATOM      3  C   UNK d   1      18.919  77.276  17.059  0.00  0.00     0.147 C 
ATOM      4  N   UNK d   1      19.297  78.147  18.111  0.00  0.00    -0.401 N 
ATOM      5  C   UNK d   1      20.386  77.636  18.902  0.00  0.00     0.147 C 
ATOM      6  C   UNK d   1      21.483  77.128  18.013  0.00  0.00     0.292 C 
ENDROOT
BRANCH   1   7
ATOM      7  C   UNK d   1      22.360  77.406  15.800  0.00  0.00     0.312 C 
BRANCH   7   8
ATOM      8  C   UNK d   1      22.322  78.328  14.638  0.00  0.00    -0.010 A 
ATOM      9  C   UNK d   1      23.121  79.469  14.596  0.00  0.00     0.021 A 
ATOM     10 Br   UNK d   1      24.239  79.806  16.108  0.00  0.00    -0.050 Br
ATOM     11  C   UNK d   1      23.122  80.329  13.523  0.00  0.00     0.059 A 
ATOM     12  C   UNK d   1      22.325  80.100  12.429  0.00  0.00     0.103 A 
ATOM     13  C   UNK d   1      21.529  78.990  12.438  0.00  0.00     0.102 A 
ATOM     14  O   UNK d   1      22.298  80.944  11.326  0.00  0.00    -0.346 OA
ATOM     15  C   UNK d   1      21.530  78.120  13.527  0.00  0.00     0.050 A 
ATOM     16  O   UNK d   1      20.717  78.741  11.343  0.00  0.00    -0.346 OA
ATOM     17  C   UNK d   1      20.458  79.685  10.336  0.00  0.00     0.202 C 
ATOM     18  C   UNK d   1      21.616  80.611  10.144  0.00  0.00     0.202 C 
ENDBRANCH   7   8
ENDBRANCH   1   7
BRANCH   4  19
ATOM     19  C   UNK d   1      19.321  79.536  17.849  0.00  0.00     0.219 C 
BRANCH  19  20
ATOM     20  C   UNK d   1      19.096  80.411  18.985  0.00  0.00     0.235 C 
ATOM     21  O   UNK d   1      18.403  80.042  19.957  0.00  0.00    -0.272 OA
ATOM     22  N   UNK d   1      19.657  81.708  19.026  0.00  0.00    -0.355 N 
ATOM     23  H   UNK d   1      20.259  82.093  18.242  0.00  0.00     0.162 HD
BRANCH  22  24
ATOM     24  C   UNK d   1      19.453  82.615  20.149  0.00  0.00     0.084 A 
ATOM     25  C   UNK d   1      20.248  83.847  20.271  0.00  0.00     0.027 A 
ATOM     26  C   UNK d   1      20.615  82.679  21.137  0.00  0.00     0.027 A 
ENDBRANCH  22  24
ENDBRANCH  19  20
ENDBRANCH   4  19
TORSDOF 5
ENDMDL
