MODEL 1
REMARK VINA RESULT:    -9.923      0.000      0.000
REMARK INTER + INTRA:         -14.163
REMARK INTER:                 -13.403
REMARK INTRA:                  -0.760
REMARK UNBOUND:                -0.760
REMARK  6 active torsions:
REMARK  status: ('A' for Active; 'I' for Inactive)
REMARK    1  A    between atoms: C_7  and  C_8 
REMARK    2  A    between atoms: C_8  and  O_9 
REMARK    3  A    between atoms: O_9  and  C_10 
REMARK    4  A    between atoms: C_13  and  C_16 
REMARK    5  A    between atoms: N_18  and  C_21 
REMARK    6  A    between atoms: C_21  and  C_22 
REMARK       I    between atoms: C_22  and  N_24 
ROOT
ATOM      1  C   UNK d   1      21.590  78.669  11.720  0.00  0.00     0.069 A 
ATOM      2  C   UNK d   1      20.435  77.884  11.849  0.00  0.00     0.038 A 
ATOM      3  C   UNK d   1      19.795  77.314  10.773  0.00  0.00     0.018 A 
ATOM      4  C   UNK d   1      20.276  77.498   9.495  0.00  0.00     0.015 A 
ATOM      5  C   UNK d   1      21.410  78.269   9.349  0.00  0.00     0.018 A 
ATOM      6  C   UNK d   1      22.062  78.848  10.439  0.00  0.00     0.038 A 
ENDROOT
BRANCH   1   7
ATOM      7  O   UNK d   1      22.191  79.222  12.837  0.00  0.00    -0.347 OA
BRANCH   7   8
ATOM      8  C   UNK d   1      23.146  78.565  13.615  0.00  0.00     0.215 C 
BRANCH   8   9
ATOM      9  C   UNK d   1      22.693  78.238  14.978  0.00  0.00    -0.014 A 
ATOM     10  C   UNK d   1      23.604  78.227  16.043  0.00  0.00     0.022 A 
ATOM     11 Br   UNK d   1      25.437  78.597  15.629  0.00  0.00    -0.050 Br
ATOM     12  C   UNK d   1      23.196  77.961  17.327  0.00  0.00     0.059 A 
ATOM     13  C   UNK d   1      21.871  77.696  17.607  0.00  0.00     0.106 A 
ATOM     14  C   UNK d   1      20.954  77.701  16.577  0.00  0.00     0.105 A 
ATOM     15  O   UNK d   1      21.169  77.398  18.777  0.00  0.00    -0.323 OA
ATOM     16  C   UNK d   1      21.376  77.973  15.277  0.00  0.00     0.050 A 
ATOM     17  O   UNK d   1      19.724  77.409  17.133  0.00  0.00    -0.323 OA
ATOM     18  C   UNK d   1      19.782  77.513  18.545  0.00  0.00     0.352 C 
ENDBRANCH   8   9
ENDBRANCH   7   8
ENDBRANCH   1   7
BRANCH   4  19
ATOM     19  C   UNK d   1      19.606  76.898   8.339  0.00  0.00     0.198 A 
ATOM     20  N   UNK d   1      19.517  75.602   7.998  0.00  0.00    -0.136 NA
ATOM     21  N   UNK d   1      18.812  75.505   6.866  0.00  0.00    -0.182 N 
ATOM     22  N   UNK d   1      18.455  76.724   6.490  0.00  0.00     0.025 NA
ATOM     23  N   UNK d   1      18.939  77.567   7.386  0.00  0.00    -0.136 NA
BRANCH  21  24
ATOM     24  C   UNK d   1      18.463  74.309   6.128  0.00  0.00     0.272 C 
BRANCH  24  25
ATOM     25  C   UNK d   1      17.180  74.503   5.417  0.00  0.00     0.236 C 
ATOM     26  O   UNK d   1      17.184  74.741   4.198  0.00  0.00    -0.272 OA
ATOM     27  N   UNK d   1      15.970  74.414   6.138  0.00  0.00    -0.369 N 
ATOM     28  H   UNK d   1      15.895  74.674   7.161  0.00  0.00     0.159 HD
ATOM     29  H   UNK d   1      15.104  74.082   5.663  0.00  0.00     0.159 HD
ENDBRANCH  24  25
ENDBRANCH  21  24
ENDBRANCH   4  19
TORSDOF 6
ENDMDL
