/Users/jonathanwahrer/Desktop/Msc/3_Semester/Drug_Design_Praktikum/waehrer_HTS_screening/HTS_experiment/out/docking_results/vina_output/6e43/0467_docked.pdbqt
 OpenBabel03212219573D

 28 31  0  0  1  0  0  0  0  0999 V2000
   18.9410   75.2400   13.4140 C   0  0  1  0  0  3  0  0  0  0  0  0
   19.3220   76.1160   12.4700 N   0  0  0  0  0  0  0  0  0  0  0  0
   19.2310   75.8480   11.1390 C   0  0  0  0  0  0  0  0  0  0  0  0
   18.7370   74.6540   10.8190 N   0  0  0  0  0  0  0  0  0  0  0  0
   18.3420   73.7420   11.7050 C   0  0  0  0  0  0  0  0  0  0  0  0
   18.4530   74.0620   13.0290 N   0  0  0  0  0  0  0  0  0  0  0  0
   19.1240   75.6420   14.7550 N   0  0  0  0  0  0  0  0  0  0  0  0
   18.3730   75.4310   15.4480 H   0  0  0  0  0  0  0  0  0  0  0  0
   20.2550   76.3040   15.1880 N   0  0  0  0  0  0  0  0  0  0  0  0
   20.3690   77.1190   16.1480 C   0  0  0  0  0  3  0  0  0  0  0  0
   21.6370   77.7380   16.4780 C   0  0  0  0  0  0  0  0  0  0  0  0
   21.7610   78.6410   17.5110 C   0  0  0  0  0  0  0  0  0  0  0  0
   20.2330   79.0870   18.5390 Br  0  0  0  0  0  0  0  0  0  0  0  0
   22.9840   79.2180   17.7980 C   0  0  0  0  0  3  0  0  0  0  0  0
   24.1360   78.9210   17.0670 C   0  0  0  0  0  0  0  0  0  0  0  0
   24.0210   78.0090   16.0210 C   0  0  0  0  0  0  0  0  0  0  0  0
   25.4570   79.3330   17.1230 O   0  0  0  0  0  0  0  0  0  0  0  0
   22.7900   77.4460   15.7530 C   0  0  0  0  0  3  0  0  0  0  0  0
   25.2760   77.8900   15.4670 O   0  0  0  0  0  0  0  0  0  0  0  0
   26.1650   78.8430   16.0150 C   0  0  0  0  0  2  0  0  0  0  0  0
   19.6400   76.8190   10.2230 N   0  0  0  0  0  0  0  0  0  0  0  0
   19.9350   76.4810    8.8510 C   0  0  0  0  0  2  0  0  0  0  0  0
   19.9570   77.7170    7.9770 C   0  0  0  0  0  2  0  0  0  0  0  0
   19.0870   78.7000    8.3210 O   0  0  0  0  0  0  0  0  0  0  0  0
   18.8610   78.9570    9.6370 C   0  0  0  0  0  2  0  0  0  0  0  0
   19.7680   78.2030   10.6050 C   0  0  0  0  0  2  0  0  0  0  0  0
   17.8320   72.5080   11.3390 O   0  0  0  0  0  0  0  0  0  0  0  0
   17.9060   71.4150   12.2150 C   0  0  0  0  0  1  0  0  0  0  0  0
  1  7  1  1  0  0  0
  2  1  1  0  0  0  0
  3  2  2  0  0  0  0
  4  3  1  0  0  0  0
  4  5  2  0  0  0  0
  5  6  2  0  0  0  0
  6  1  1  0  0  0  0
  7  9  1  0  0  0  0
  7  8  1  0  0  0  0
  9 10  2  0  0  0  0
 10 11  1  0  0  0  0
 11 12  1  0  0  0  0
 12 14  2  0  0  0  0
 12 13  1  0  0  0  0
 15 17  1  0  0  0  0
 15 14  1  0  0  0  0
 16 15  2  0  0  0  0
 18 16  1  0  0  0  0
 18 11  2  0  0  0  0
 19 20  1  0  0  0  0
 19 16  1  0  0  0  0
 20 17  1  0  0  0  0
 21 26  1  0  0  0  0
 21  3  1  0  0  0  0
 22 21  1  0  0  0  0
 23 24  1  0  0  0  0
 23 22  1  0  0  0  0
 24 25  1  0  0  0  0
 25 26  1  0  0  0  0
 27  5  1  0  0  0  0
 27 28  1  0  0  0  0
M  END
>  <Pose>
1

>  <Score>
-9.294

$$$$
