MODEL 1
REMARK VINA RESULT:   -10.014      0.000      0.000
REMARK INTER + INTRA:         -12.333
REMARK INTER:                 -11.770
REMARK INTRA:                  -0.563
REMARK UNBOUND:                -0.563
REMARK  3 active torsions:
REMARK  status: ('A' for Active; 'I' for Inactive)
REMARK    1  A    between atoms: C_11  and  C_13 
REMARK       I    between atoms: C_13  and  N_15 
REMARK    2  A    between atoms: N_18  and  C_21 
REMARK    3  A    between atoms: C_21  and  C_22 
ROOT
ATOM      1  C   UNK d   1      21.406  77.952  17.735  0.00  0.00     0.277 C 
ATOM      2  O   UNK d   1      21.858  77.041  18.487  0.00  0.00    -0.265 OA
ATOM      3  N   UNK d   1      20.272  78.683  18.142  0.00  0.00    -0.343 N 
ATOM      4  C   UNK d   1      19.658  78.370  19.407  0.00  0.00     0.145 C 
ATOM      5  C   UNK d   1      19.530  79.576  20.313  0.00  0.00     0.137 C 
ATOM      6  N   UNK d   1      19.369  80.728  19.507  0.00  0.00    -0.404 N 
ATOM      7  C   UNK d   1      18.671  80.469  18.310  0.00  0.00     0.137 C 
ATOM      8  C   UNK d   1      19.660  79.744  17.378  0.00  0.00     0.145 C 
ENDROOT
BRANCH   1   9
ATOM      9  C   UNK d   1      22.097  78.199  16.464  0.00  0.00     0.147 A 
ATOM     10  C   UNK d   1      23.450  78.448  16.454  0.00  0.00     0.098 A 
ATOM     11  C   UNK d   1      24.140  78.685  15.285  0.00  0.00     0.187 A 
ATOM     12  C   UNK d   1      23.450  78.673  14.086  0.00  0.00     0.048 A 
ATOM     13  O   UNK d   1      25.395  78.913  15.286  0.00  0.00    -0.287 OA
ATOM     14  C   UNK d   1      22.094  78.420  14.161  0.00  0.00     0.091 A 
ATOM     15  C   UNK d   1      24.112  78.907  12.906  0.00  0.00     0.020 A 
ATOM     16  C   UNK d   1      21.407  78.409  12.956  0.00  0.00     0.057 A 
ATOM     17  O   UNK d   1      21.490  78.200  15.303  0.00  0.00    -0.304 OA
ATOM     18  C   UNK d   1      22.049  78.641  11.751  0.00  0.00     0.013 A 
ATOM     19 Br   UNK d   1      21.067  78.619  10.116  0.00  0.00    -0.051 Br
ATOM     20  C   UNK d   1      23.408  78.891  11.726  0.00  0.00     0.020 A 
ENDBRANCH   1   9
BRANCH   6  21
ATOM     21  C   UNK d   1      20.443  81.637  19.458  0.00  0.00     0.181 C 
BRANCH  21  22
ATOM     22  C   UNK d   1      20.090  83.020  19.152  0.00  0.00     0.108 A 
ATOM     23  N   UNK d   1      20.412  83.676  18.025  0.00  0.00    -0.106 NA
ATOM     24  O   UNK d   1      19.930  84.863  18.123  0.00  0.00    -0.106 OA
ATOM     25  N   UNK d   1      19.301  85.031  19.260  0.00  0.00    -0.108 NA
ATOM     26  C   UNK d   1      19.380  83.873  19.952  0.00  0.00     0.088 A 
ATOM     27  C   UNK d   1      18.808  83.594  21.303  0.00  0.00     0.075 C 
ENDBRANCH  21  22
ENDBRANCH   6  21
TORSDOF 3
ENDMDL
