MODEL 1
REMARK VINA RESULT:   -10.325      0.000      0.000
REMARK INTER + INTRA:         -14.069
REMARK INTER:                 -13.342
REMARK INTRA:                  -0.726
REMARK UNBOUND:                -0.726
REMARK  5 active torsions:
REMARK  status: ('A' for Active; 'I' for Inactive)
REMARK    1  A    between atoms: N_10  and  C_13 
REMARK    2  A    between atoms: C_13  and  C_14 
REMARK    3  A    between atoms: C_14  and  C_15 
REMARK    4  A    between atoms: C_15  and  C_16 
REMARK       I    between atoms: C_16  and  N_18 
REMARK    5  A    between atoms: N_21  and  C_24 
ROOT
ATOM      1  C   UNK d   1      22.788  78.520  17.752  0.00  0.00     0.104 C 
ENDROOT
BRANCH   1   2
ATOM      2  C   UNK d   1      21.467  77.843  17.984  0.00  0.00     0.029 C 
BRANCH   2   3
ATOM      3  C   UNK d   1      20.365  78.714  17.508  0.00  0.00     0.136 C 
BRANCH   3   4
ATOM      4  N   UNK d   1      20.145  79.878  18.338  0.00  0.00    -0.280 N 
ATOM      5  C   UNK d   1      20.501  81.193  17.939  0.00  0.00     0.261 A 
ATOM      6  C   UNK d   1      20.140  82.106  19.010  0.00  0.00     0.048 A 
ATOM      7  O   UNK d   1      21.042  81.561  16.848  0.00  0.00    -0.267 OA
ATOM      8  C   UNK d   1      19.583  81.347  20.021  0.00  0.00     0.049 A 
ATOM      9  C   UNK d   1      20.262  83.474  19.145  0.00  0.00     0.019 A 
ATOM     10  C   UNK d   1      19.158  82.007  21.159  0.00  0.00     0.037 A 
ATOM     11  C   UNK d   1      19.574  79.931  19.622  0.00  0.00     0.261 A 
ATOM     12  C   UNK d   1      19.285  83.375  21.283  0.00  0.00     0.011 A 
ATOM     13 Br   UNK d   1      18.676  84.219  22.883  0.00  0.00    -0.051 Br
ATOM     14  C   UNK d   1      19.840  84.139  20.278  0.00  0.00     0.020 A 
ATOM     15  O   UNK d   1      19.132  78.976  20.318  0.00  0.00    -0.267 OA
ENDBRANCH   3   4
ENDBRANCH   2   3
ENDBRANCH   1   2
BRANCH   1  16
ATOM     16  C   UNK d   1      23.559  77.979  16.609  0.00  0.00     0.219 C 
ATOM     17  O   UNK d   1      23.919  76.777  16.517  0.00  0.00    -0.273 OA
ATOM     18  N   UNK d   1      23.942  78.836  15.515  0.00  0.00    -0.349 N 
ATOM     19  C   UNK d   1      24.692  78.318  14.394  0.00  0.00     0.145 C 
ATOM     20  C   UNK d   1      23.598  80.245  15.483  0.00  0.00     0.145 C 
ATOM     21  C   UNK d   1      24.190  78.791  13.071  0.00  0.00     0.144 C 
ATOM     22  N   UNK d   1      23.058  79.684  13.149  0.00  0.00    -0.362 N 
ATOM     23  C   UNK d   1      22.789  80.568  14.251  0.00  0.00     0.144 C 
BRANCH  22  24
ATOM     24  C   UNK d   1      22.141  79.692  12.051  0.00  0.00     0.143 A 
ATOM     25  N   UNK d   1      22.200  80.642  11.078  0.00  0.00    -0.241 NA
ATOM     26  C   UNK d   1      21.366  80.684  10.041  0.00  0.00     0.138 A 
ATOM     27  C   UNK d   1      20.380  79.714   9.936  0.00  0.00     0.135 A 
ATOM     28  N   UNK d   1      20.293  78.754  10.887  0.00  0.00    -0.268 NA
ATOM     29  C   UNK d   1      21.152  78.744  11.918  0.00  0.00     0.166 A 
ENDBRANCH  22  24
ENDBRANCH   1  16
TORSDOF 5
ENDMDL
