MODEL 1
REMARK VINA RESULT:   -10.077      0.000      0.000
REMARK INTER + INTRA:         -15.696
REMARK INTER:                 -14.789
REMARK INTRA:                  -0.906
REMARK UNBOUND:                -0.906
REMARK  8 active torsions:
REMARK  status: ('A' for Active; 'I' for Inactive)
REMARK    1  A    between atoms: N_8  and  C_28 
REMARK    2  A    between atoms: C_11  and  N_12 
REMARK       I    between atoms: N_13  and  C_14 
REMARK    3  A    between atoms: C_14  and  C_16 
REMARK    4  A    between atoms: C_16  and  O_17 
REMARK    5  A    between atoms: O_17  and  N_18 
REMARK    6  A    between atoms: C_19  and  C_20 
REMARK    7  A    between atoms: C_23  and  O_26 
REMARK    8  A    between atoms: C_28  and  N_29 
ROOT
ATOM      1 Br   UNK d   1      21.473  80.216   9.594  0.00  0.00    -0.051 Br
ATOM      2  C   UNK d   1      20.799  78.788  10.668  0.00  0.00     0.011 A 
ATOM      3  C   UNK d   1      21.206  78.614  11.999  0.00  0.00     0.035 A 
ATOM      4  C   UNK d   1      20.652  77.565  12.673  0.00  0.00     0.028 A 
ATOM      5  C   UNK d   1      19.738  76.688  12.127  0.00  0.00     0.052 A 
ATOM      6  C   UNK d   1      19.345  76.858  10.819  0.00  0.00     0.032 A 
ATOM      7  C   UNK d   1      19.888  77.929  10.094  0.00  0.00     0.021 A 
ATOM      8  N   UNK d   1      19.332  75.694  13.059  0.00  0.00    -0.295 N 
ATOM      9  C   UNK d   1      20.060  75.972  14.283  0.00  0.00     0.281 A 
ATOM     10  O   UNK d   1      19.958  75.320  15.343  0.00  0.00    -0.265 OA
ATOM     11  C   UNK d   1      20.884  77.130  14.015  0.00  0.00     0.157 A 
ENDROOT
BRANCH  11  12
ATOM     12  N   UNK d   1      21.804  77.635  14.742  0.00  0.00    -0.166 NA
ATOM     13  N   UNK d   1      22.270  78.598  15.209  0.00  0.00    -0.244 N 
ATOM     14  C   UNK d   1      22.830  79.774  15.756  0.00  0.00     0.264 C 
ATOM     15  H   UNK d   1      22.144  79.314  14.026  0.00  0.00     0.192 HD
ATOM     16  O   UNK d   1      22.969  80.895  15.321  0.00  0.00    -0.269 OA
BRANCH  14  17
ATOM     17  C   UNK d   1      23.355  79.472  17.178  0.00  0.00     0.308 C 
BRANCH  17  18
ATOM     18  O   UNK d   1      22.171  79.087  17.910  0.00  0.00    -0.247 OA
BRANCH  18  19
ATOM     19  N   UNK d   1      21.585  80.135  18.675  0.00  0.00    -0.145 NA
ATOM     20  C   UNK d   1      20.664  80.875  18.195  0.00  0.00     0.157 C 
BRANCH  20  21
ATOM     21  C   UNK d   1      20.097  81.943  18.986  0.00  0.00    -0.016 A 
ATOM     22  C   UNK d   1      19.335  81.782  20.095  0.00  0.00     0.015 A 
ATOM     23  C   UNK d   1      18.813  82.964  20.681  0.00  0.00     0.037 A 
ATOM     24  C   UNK d   1      19.003  84.215  20.266  0.00  0.00     0.068 A 
ATOM     25  C   UNK d   1      19.774  84.323  19.159  0.00  0.00     0.037 A 
ATOM     26  C   UNK d   1      20.344  83.328  18.460  0.00  0.00     0.015 A 
BRANCH  24  27
ATOM     27  O   UNK d   1      18.430  85.293  20.949  0.00  0.00    -0.356 OA
ATOM     28  C   UNK d   1      17.432  85.077  21.940  0.00  0.00     0.210 C 
ENDBRANCH  24  27
ENDBRANCH  20  21
ENDBRANCH  18  19
ENDBRANCH  17  18
ENDBRANCH  14  17
ENDBRANCH  11  12
BRANCH   8  29
ATOM     29  C   UNK d   1      18.365  74.613  12.972  0.00  0.00     0.253 C 
BRANCH  29  30
ATOM     30  N   UNK d   1      18.873  73.514  12.311  0.00  0.00    -0.392 N 
ATOM     31  C   UNK d   1      19.488  72.595  13.181  0.00  0.00     0.145 C 
ATOM     32  C   UNK d   1      19.053  71.173  12.817  0.00  0.00     0.187 C 
ATOM     33  O   UNK d   1      17.634  71.266  12.793  0.00  0.00    -0.388 OA
ATOM     34  C   UNK d   1      17.238  71.907  11.612  0.00  0.00     0.187 C 
ATOM     35  C   UNK d   1      18.143  73.030  11.210  0.00  0.00     0.145 C 
ENDBRANCH  29  30
ENDBRANCH   8  29
TORSDOF 8
ENDMDL
