MODEL 1
REMARK VINA RESULT:   -10.084      0.000      0.000
REMARK INTER + INTRA:         -15.478
REMARK INTER:                 -14.211
REMARK INTRA:                  -1.267
REMARK UNBOUND:                -1.267
REMARK  7 active torsions:
REMARK  status: ('A' for Active; 'I' for Inactive)
REMARK    1  A    between atoms: N_8  and  C_26 
REMARK    2  A    between atoms: N_12  and  N_13 
REMARK       I    between atoms: N_13  and  C_14 
REMARK    3  A    between atoms: C_14  and  C_16 
REMARK    4  A    between atoms: C_16  and  O_17 
REMARK    5  A    between atoms: O_17  and  C_18 
REMARK    6  A    between atoms: C_19  and  O_24 
REMARK    7  A    between atoms: C_26  and  N_27 
ROOT
ATOM      1 Br   UNK d   1      17.798  70.822  13.431  0.00  0.00    -0.051 Br
ATOM      2  C   UNK d   1      18.298  72.550  12.753  0.00  0.00     0.011 A 
ATOM      3  C   UNK d   1      18.906  73.488  13.555  0.00  0.00     0.035 A 
ATOM      4  C   UNK d   1      19.285  74.750  13.110  0.00  0.00     0.028 A 
ATOM      5  C   UNK d   1      19.035  75.081  11.775  0.00  0.00     0.052 A 
ATOM      6  C   UNK d   1      18.426  74.140  10.970  0.00  0.00     0.032 A 
ATOM      7  C   UNK d   1      18.055  72.882  11.437  0.00  0.00     0.021 A 
ATOM      8  N   UNK d   1      19.496  76.413  11.506  0.00  0.00    -0.295 N 
ATOM      9  C   UNK d   1      20.043  76.908  12.721  0.00  0.00     0.281 A 
ATOM     10  O   UNK d   1      20.546  78.042  12.879  0.00  0.00    -0.265 OA
ATOM     11  C   UNK d   1      19.926  75.887  13.745  0.00  0.00     0.157 A 
ATOM     12  N   UNK d   1      20.308  75.964  14.969  0.00  0.00    -0.166 NA
ENDROOT
BRANCH  12  13
ATOM     13  N   UNK d   1      20.917  77.092  15.507  0.00  0.00    -0.244 N 
ATOM     14  C   UNK d   1      20.929  77.283  16.905  0.00  0.00     0.261 C 
ATOM     15  O   UNK d   1      20.391  76.438  17.701  0.00  0.00    -0.269 OA
ATOM     16  H   UNK d   1      21.355  77.781  14.880  0.00  0.00     0.192 HD
BRANCH  14  17
ATOM     17  C   UNK d   1      21.557  78.456  17.563  0.00  0.00     0.280 C 
BRANCH  17  18
ATOM     18  O   UNK d   1      22.261  79.240  16.601  0.00  0.00    -0.339 OA
BRANCH  18  19
ATOM     19  C   UNK d   1      23.625  79.068  16.436  0.00  0.00     0.102 A 
ATOM     20  C   UNK d   1      24.136  78.735  15.199  0.00  0.00     0.101 A 
ATOM     21  C   UNK d   1      25.508  78.563  15.041  0.00  0.00     0.039 A 
ATOM     22  C   UNK d   1      26.363  78.722  16.114  0.00  0.00     0.003 A 
ATOM     23  C   UNK d   1      25.843  79.051  17.331  0.00  0.00     0.003 A 
ATOM     24  C   UNK d   1      24.477  79.222  17.487  0.00  0.00     0.039 A 
BRANCH  20  25
ATOM     25  O   UNK d   1      23.314  78.569  14.114  0.00  0.00    -0.353 OA
ATOM     26  C   UNK d   1      23.821  78.684  12.808  0.00  0.00     0.210 C 
ENDBRANCH  20  25
ENDBRANCH  18  19
ENDBRANCH  17  18
ENDBRANCH  14  17
ENDBRANCH  12  13
BRANCH   8  27
ATOM     27  C   UNK d   1      19.400  77.081  10.219  0.00  0.00     0.253 C 
BRANCH  27  28
ATOM     28  N   UNK d   1      20.180  78.259  10.098  0.00  0.00    -0.393 N 
ATOM     29  C   UNK d   1      21.390  78.131   9.359  0.00  0.00     0.148 C 
ATOM     30  C   UNK d   1      22.197  79.432   9.350  0.00  0.00     0.291 C 
ATOM     31  N   UNK d   1      21.625  80.282  10.355  0.00  0.00     0.087 N 
ATOM     32  C   UNK d   1      20.296  80.707  10.039  0.00  0.00     0.291 C 
ATOM     33  C   UNK d   1      22.498  81.332  10.795  0.00  0.00     0.310 C 
ATOM     34  C   UNK d   1      19.446  79.465   9.842  0.00  0.00     0.148 C 
ENDBRANCH  27  28
ENDBRANCH   8  27
TORSDOF 7
ENDMDL
