MODEL 1
REMARK VINA RESULT:    -6.486      0.000      0.000
REMARK INTER + INTRA:          -6.676
REMARK INTER:                  -6.676
REMARK INTRA:                   0.000
REMARK UNBOUND:                 0.000
REMARK  1 active torsions:
REMARK  status: ('A' for Active; 'I' for Inactive)
REMARK    1  A    between atoms: C_19  and  N_23 
ROOT
ATOM      1 Br   UNK d   1      18.875  80.859  18.365  0.00  0.00    -0.051 Br
ATOM      2  C   UNK d   1      20.377  79.870  17.671  0.00  0.00     0.011 A 
ATOM      3  C   UNK d   1      20.502  79.624  16.330  0.00  0.00     0.030 A 
ATOM      4  C   UNK d   1      21.586  78.914  15.857  0.00  0.00    -0.002 A 
ATOM      5  C   UNK d   1      22.507  78.478  16.770  0.00  0.00     0.045 A 
ATOM      6  C   UNK d   1      22.377  78.732  18.150  0.00  0.00     0.031 A 
ATOM      7  C   UNK d   1      21.294  79.439  18.602  0.00  0.00     0.021 A 
ATOM      8  N   UNK d   1      23.562  77.764  16.132  0.00  0.00    -0.320 N 
ATOM      9  C   UNK d   1      23.300  77.746  14.757  0.00  0.00     0.247 A 
ATOM     10  O   UNK d   1      24.034  77.194  13.880  0.00  0.00    -0.271 OA
ATOM     11  C   UNK d   1      22.014  78.485  14.503  0.00  0.00     0.145 A 
ATOM     12  C   UNK d   1      22.360  79.602  13.631  0.00  0.00     0.049 A 
ATOM     13  C   UNK d   1      21.854  79.698  12.372  0.00  0.00     0.200 A 
ATOM     14  N   UNK d   1      22.368  80.842  11.831  0.00  0.00    -0.148 NA
ATOM     15  N   UNK d   1      23.158  81.440  12.698  0.00  0.00    -0.280 N 
ATOM     16  C   UNK d   1      23.184  80.716  13.815  0.00  0.00     0.036 A 
ATOM     17  C   UNK d   1      23.928  80.968  15.089  0.00  0.00     0.070 C 
ATOM     18  O   UNK d   1      20.979  78.749  11.833  0.00  0.00    -0.272 OA
ATOM     19  C   UNK d   1      20.651  77.685  12.667  0.00  0.00     0.162 A 
ATOM     20  C   UNK d   1      21.105  77.538  13.884  0.00  0.00     0.100 A 
ATOM     21  C   UNK d   1      20.650  76.348  14.625  0.00  0.00     0.101 C 
ATOM     22  N   UNK d   1      20.302  75.412  15.230  0.00  0.00    -0.191 NA
ATOM     23  C   UNK d   1      24.726  77.150  16.789  0.00  0.00     0.159 C 
ATOM     24  H   UNK d   1      23.699  82.335  12.582  0.00  0.00     0.189 HD
ENDROOT
BRANCH  19  25
ATOM     25  N   UNK d   1      19.744  76.665  12.161  0.00  0.00    -0.379 N 
ATOM     26  H   UNK d   1      19.065  77.003  11.450  0.00  0.00     0.158 HD
ATOM     27  H   UNK d   1      19.760  75.695  12.470  0.00  0.00     0.158 HD
ENDBRANCH  19  25
TORSDOF 1
ENDMDL
