MODEL 1
REMARK VINA RESULT:    -6.972      0.000      0.000
REMARK INTER + INTRA:          -7.176
REMARK INTER:                  -7.176
REMARK INTRA:                   0.000
REMARK UNBOUND:                 0.000
REMARK  1 active torsions:
REMARK  status: ('A' for Active; 'I' for Inactive)
REMARK    1  A    between atoms: C_15  and  N_19 
ROOT
ATOM      1 Br   UNK d   1      26.329  75.654  15.126  0.00  0.00    -0.051 Br
ATOM      2  C   UNK d   1      25.019  76.896  15.718  0.00  0.00     0.011 A 
ATOM      3  C   UNK d   1      23.869  77.165  15.016  0.00  0.00     0.030 A 
ATOM      4  C   UNK d   1      22.957  78.092  15.519  0.00  0.00    -0.002 A 
ATOM      5  C   UNK d   1      23.140  78.757  16.684  0.00  0.00     0.045 A 
ATOM      6  C   UNK d   1      24.310  78.483  17.399  0.00  0.00     0.031 A 
ATOM      7  C   UNK d   1      25.222  77.571  16.917  0.00  0.00     0.021 A 
ATOM      8  N   UNK d   1      22.072  79.638  16.971  0.00  0.00    -0.320 N 
ATOM      9  C   UNK d   1      21.141  79.532  15.920  0.00  0.00     0.247 A 
ATOM     10  O   UNK d   1      20.054  80.166  15.822  0.00  0.00    -0.271 OA
ATOM     11  C   UNK d   1      21.652  78.539  14.934  0.00  0.00     0.146 A 
ATOM     12  C   UNK d   1      21.890  79.189  13.620  0.00  0.00     0.071 A 
ATOM     13  C   UNK d   1      21.394  78.740  12.525  0.00  0.00     0.060 A 
ATOM     14  N   UNK d   1      20.553  77.554  12.471  0.00  0.00    -0.342 N 
ATOM     15  C   UNK d   1      20.319  76.925  13.714  0.00  0.00     0.118 A 
ATOM     16  C   UNK d   1      20.813  77.365  14.838  0.00  0.00     0.093 A 
ATOM     17  C   UNK d   1      20.484  76.612  16.043  0.00  0.00     0.101 C 
ATOM     18  N   UNK d   1      20.233  76.027  17.011  0.00  0.00    -0.191 NA
ATOM     19  C   UNK d   1      21.828  79.626  11.401  0.00  0.00     0.106 A 
ATOM     20  O   UNK d   1      22.609  80.602  11.985  0.00  0.00    -0.301 OA
ATOM     21  C   UNK d   1      22.702  80.416  13.331  0.00  0.00     0.294 A 
ATOM     22  O   UNK d   1      23.320  81.092  14.208  0.00  0.00    -0.259 OA
ATOM     23  C   UNK d   1      20.615  80.175  10.676  0.00  0.00     0.053 C 
ATOM     24  C   UNK d   1      22.692  78.858  10.417  0.00  0.00     0.053 C 
ATOM     25  C   UNK d   1      21.922  80.520  18.139  0.00  0.00     0.159 C 
ATOM     26  H   UNK d   1      20.179  77.235  11.561  0.00  0.00     0.167 HD
ENDROOT
BRANCH  15  27
ATOM     27  N   UNK d   1      19.485  75.734  13.721  0.00  0.00    -0.384 N 
ATOM     28  H   UNK d   1      19.686  75.015  12.997  0.00  0.00     0.157 HD
ATOM     29  H   UNK d   1      18.729  75.609  14.409  0.00  0.00     0.157 HD
ENDBRANCH  15  27
TORSDOF 1
ENDMDL
