MODEL 1
REMARK VINA RESULT:   -10.298      0.000      0.000
REMARK INTER + INTRA:         -13.091
REMARK INTER:                 -12.706
REMARK INTRA:                  -0.385
REMARK UNBOUND:                -0.385
REMARK  4 active torsions:
REMARK  status: ('A' for Active; 'I' for Inactive)
REMARK    1  A    between atoms: C_12  and  N_13 
REMARK    2  A    between atoms: N_13  and  N_14 
REMARK       I    between atoms: N_14  and  C_15 
REMARK    3  A    between atoms: C_15  and  C_17 
REMARK    4  A    between atoms: C_17  and  N_18 
ROOT
ATOM      1  N   UNK d   1      20.536  76.829  14.721  0.00  0.00    -0.269 N 
ATOM      2  C   UNK d   1      21.758  77.489  15.018  0.00  0.00     0.254 C 
ATOM      3  O   UNK d   1      22.359  78.021  14.072  0.00  0.00    -0.270 OA
ATOM      4  H   UNK d   1      20.039  76.370  15.515  0.00  0.00     0.190 HD
ENDROOT
BRANCH   1   5
ATOM      5  N   UNK d   1      19.987  76.764  13.453  0.00  0.00    -0.308 N 
ATOM      6  H   UNK d   1      20.016  77.615  12.827  0.00  0.00     0.186 HD
BRANCH   5   7
ATOM      7  C   UNK d   1      19.376  75.624  12.915  0.00  0.00     0.125 C 
ATOM      8  C   UNK d   1      19.201  75.390  11.632  0.00  0.00     0.061 A 
ATOM      9  C   UNK d   1      19.577  76.215  10.479  0.00  0.00     0.009 A 
ATOM     10  C   UNK d   1      18.560  74.199  11.050  0.00  0.00     0.258 A 
ATOM     11  C   UNK d   1      20.206  77.437  10.372  0.00  0.00     0.034 A 
ATOM     12  C   UNK d   1      19.209  75.601   9.306  0.00  0.00     0.046 A 
ATOM     13  C   UNK d   1      20.475  78.051   9.150  0.00  0.00     0.011 A 
ATOM     14 Br   UNK d   1      21.359  79.748   9.088  0.00  0.00    -0.051 Br
ATOM     15  C   UNK d   1      20.093  77.406   8.002  0.00  0.00     0.021 A 
ATOM     16  C   UNK d   1      19.464  76.189   8.058  0.00  0.00     0.032 A 
ATOM     17  N   UNK d   1      18.588  74.369   9.644  0.00  0.00    -0.322 N 
ATOM     18  H   UNK d   1      18.200  73.675   8.963  0.00  0.00     0.169 HD
ATOM     19  O   UNK d   1      18.094  73.244  11.716  0.00  0.00    -0.267 OA
ENDBRANCH   5   7
ENDBRANCH   1   5
BRANCH   2  20
ATOM     20  C   UNK d   1      22.328  77.566  16.382  0.00  0.00     0.236 C 
BRANCH  20  21
ATOM     21  N   UNK d   1      21.372  77.877  17.339  0.00  0.00    -0.316 N 
ATOM     22  C   UNK d   1      20.905  79.040  17.790  0.00  0.00     0.149 A 
ATOM     23  C   UNK d   1      19.991  78.793  18.806  0.00  0.00     0.170 A 
ATOM     24  N   UNK d   1      21.193  80.295  17.389  0.00  0.00    -0.287 N 
ATOM     25  N   UNK d   1      19.924  77.456  18.948  0.00  0.00    -0.234 NA
ATOM     26  C   UNK d   1      19.354  79.846  19.433  0.00  0.00     0.283 A 
ATOM     27  C   UNK d   1      20.742  76.910  18.078  0.00  0.00     0.212 A 
ATOM     28  O   UNK d   1      18.534  79.591  20.352  0.00  0.00    -0.265 OA
ATOM     29  N   UNK d   1      19.653  81.071  19.027  0.00  0.00    -0.269 N 
ATOM     30  C   UNK d   1      20.538  81.298  18.041  0.00  0.00     0.332 A 
ATOM     31  C   UNK d   1      19.005  82.229  19.665  0.00  0.00     0.164 C 
ATOM     32  O   UNK d   1      20.791  82.474  17.686  0.00  0.00    -0.246 OA
ATOM     33  C   UNK d   1      22.105  80.569  16.316  0.00  0.00     0.163 C 
ENDBRANCH  20  21
ENDBRANCH   2  20
TORSDOF 4
ENDMDL
