MODEL 1
REMARK VINA RESULT:   -10.890      0.000      0.000
REMARK INTER + INTRA:         -14.031
REMARK INTER:                 -13.436
REMARK INTRA:                  -0.595
REMARK UNBOUND:                -0.595
REMARK  4 active torsions:
REMARK  status: ('A' for Active; 'I' for Inactive)
REMARK    1  A    between atoms: N_12  and  N_13 
REMARK       I    between atoms: N_13  and  C_14 
REMARK    2  A    between atoms: C_14  and  C_16 
REMARK    3  A    between atoms: C_16  and  N_17 
REMARK       I    between atoms: N_17  and  C_18 
REMARK    4  A    between atoms: C_18  and  C_20 
ROOT
ATOM      1  N   UNK d   1      20.998  76.820  16.403  0.00  0.00    -0.245 N 
ATOM      2  C   UNK d   1      20.203  77.212  17.496  0.00  0.00     0.255 C 
ATOM      3  O   UNK d   1      18.939  77.007  17.428  0.00  0.00    -0.270 OA
ATOM      4  H   UNK d   1      22.039  76.993  16.438  0.00  0.00     0.192 HD
ENDROOT
BRANCH   2   5
ATOM      5  C   UNK d   1      20.649  77.836  18.745  0.00  0.00     0.227 C 
BRANCH   5   6
ATOM      6  N   UNK d   1      20.675  79.271  18.765  0.00  0.00    -0.348 N 
ATOM      7  C   UNK d   1      19.671  80.027  19.432  0.00  0.00     0.252 C 
ATOM      8  O   UNK d   1      18.742  79.338  20.008  0.00  0.00    -0.268 OA
ATOM      9  H   UNK d   1      21.409  79.814  18.284  0.00  0.00     0.163 HD
BRANCH   7  10
ATOM     10  C   UNK d   1      19.597  81.454  19.518  0.00  0.00     0.034 A 
ATOM     11  C   UNK d   1      18.844  82.166  20.439  0.00  0.00     0.056 A 
ATOM     12  C   UNK d   1      18.825  83.519  20.472  0.00  0.00     0.106 A 
ATOM     13  C   UNK d   1      19.564  84.264  19.576  0.00  0.00     0.105 A 
ATOM     14  O   UNK d   1      18.166  84.506  21.295  0.00  0.00    -0.323 OA
ATOM     15  C   UNK d   1      20.314  83.608  18.651  0.00  0.00     0.041 A 
ATOM     16  O   UNK d   1      19.357  85.626  19.851  0.00  0.00    -0.323 OA
ATOM     17  C   UNK d   1      20.350  82.206  18.604  0.00  0.00     0.020 A 
ATOM     18  C   UNK d   1      19.136  85.613  21.282  0.00  0.00     0.352 C 
ENDBRANCH   7  10
ENDBRANCH   5   6
ENDBRANCH   2   5
BRANCH   1  19
ATOM     19  N   UNK d   1      20.437  76.232  15.325  0.00  0.00    -0.166 NA
ATOM     20  C   UNK d   1      20.248  76.389  14.160  0.00  0.00     0.157 A 
ATOM     21  C   UNK d   1      19.574  75.559  13.153  0.00  0.00     0.028 A 
ATOM     22  C   UNK d   1      20.756  77.608  13.463  0.00  0.00     0.277 A 
ATOM     23  C   UNK d   1      18.938  74.343  13.273  0.00  0.00     0.035 A 
ATOM     24  C   UNK d   1      19.666  76.218  11.968  0.00  0.00     0.048 A 
ATOM     25  C   UNK d   1      18.359  73.732  12.197  0.00  0.00     0.011 A 
ATOM     26 Br   UNK d   1      17.474  72.060  12.346  0.00  0.00    -0.051 Br
ATOM     27  C   UNK d   1      18.441  74.388  10.975  0.00  0.00     0.021 A 
ATOM     28  C   UNK d   1      19.077  75.599  10.861  0.00  0.00     0.032 A 
ATOM     29  N   UNK d   1      20.361  77.440  12.099  0.00  0.00    -0.321 N 
ATOM     30  H   UNK d   1      20.570  78.140  11.347  0.00  0.00     0.169 HD
ATOM     31  O   UNK d   1      21.373  78.519  14.018  0.00  0.00    -0.266 OA
ENDBRANCH   1  19
TORSDOF 4
ENDMDL
