MODEL 1
REMARK VINA RESULT:    -9.018      0.000      0.000
REMARK INTER + INTRA:         -10.477
REMARK INTER:                 -10.072
REMARK INTRA:                  -0.404
REMARK UNBOUND:                -0.404
REMARK  2 active torsions:
REMARK  status: ('A' for Active; 'I' for Inactive)
REMARK    1  A    between atoms: N_18  and  C_21 
REMARK    2  A    between atoms: C_21  and  C_22 
ROOT
ATOM      1 Br   UNK d   1      23.047  80.666  10.005  0.00  0.00    -0.051 Br
ATOM      2  C   UNK d   1      22.168  79.521  11.251  0.00  0.00     0.011 A 
ATOM      3  C   UNK d   1      22.635  79.345  12.549  0.00  0.00     0.031 A 
ATOM      4  C   UNK d   1      21.999  78.521  13.438  0.00  0.00     0.019 A 
ATOM      5  C   UNK d   1      20.862  77.863  12.994  0.00  0.00     0.044 A 
ATOM      6  C   UNK d   1      20.394  78.033  11.708  0.00  0.00     0.031 A 
ATOM      7  C   UNK d   1      21.041  78.862  10.822  0.00  0.00     0.021 A 
ATOM      8  N   UNK d   1      20.322  77.052  14.040  0.00  0.00    -0.324 N 
ATOM      9  C   UNK d   1      21.134  77.194  15.186  0.00  0.00     0.267 A 
ATOM     10  O   UNK d   1      20.926  76.621  16.265  0.00  0.00    -0.270 OA
ATOM     11  C   UNK d   1      22.223  78.127  14.827  0.00  0.00     0.281 A 
ATOM     12  N   UNK d   1      23.460  77.459  15.101  0.00  0.00     0.118 N 
ATOM     13  C   UNK d   1      23.580  77.517  16.556  0.00  0.00     0.239 C 
ATOM     14  C   UNK d   1      22.938  78.797  16.981  0.00  0.00     0.128 C 
ATOM     15  C   UNK d   1      22.288  79.320  15.747  0.00  0.00     0.147 C 
ATOM     16  C   UNK d   1      20.978  79.794  16.183  0.00  0.00     0.235 C 
ATOM     17  O   UNK d   1      20.158  80.442  15.494  0.00  0.00    -0.272 OA
ATOM     18  N   UNK d   1      20.763  79.410  17.517  0.00  0.00    -0.285 N 
ATOM     19  C   UNK d   1      21.842  78.582  17.979  0.00  0.00     0.233 C 
ATOM     20  O   UNK d   1      21.888  77.832  18.986  0.00  0.00    -0.272 OA
ATOM     21  C   UNK d   1      25.072  77.618  16.837  0.00  0.00     0.038 C 
ATOM     22  C   UNK d   1      25.755  77.571  15.486  0.00  0.00     0.032 C 
ATOM     23  C   UNK d   1      24.638  78.134  14.596  0.00  0.00     0.275 C 
ATOM     24  H   UNK d   1      19.452  76.450  13.947  0.00  0.00     0.169 HD
ENDROOT
BRANCH  18  25
ATOM     25  C   UNK d   1      19.643  79.772  18.328  0.00  0.00     0.166 C 
BRANCH  25  26
ATOM     26  C   UNK d   1      19.868  80.918  19.245  0.00  0.00     0.140 C 
ATOM     27  O   UNK d   1      18.795  81.181  20.090  0.00  0.00    -0.384 OA
ATOM     28  C   UNK d   1      19.121  82.402  20.664  0.00  0.00     0.168 C 
ATOM     29  C   UNK d   1      19.806  83.237  19.628  0.00  0.00     0.029 C 
ATOM     30  C   UNK d   1      20.243  82.203  18.590  0.00  0.00     0.035 C 
ENDBRANCH  25  26
ENDBRANCH  18  25
TORSDOF 2
ENDMDL
