/Users/jonathanwahrer/Desktop/Msc/3_Semester/Drug_Design_Praktikum/waehrer_HTS_screening/HTS_experiment/out/docking_results/vina_output/6e43/0550_docked.pdbqt
 OpenBabel03212220003D

 30 35  0  0  1  0  0  0  0  0999 V2000
   23.0470   80.6660   10.0050 Br  0  0  0  0  0  0  0  0  0  0  0  0
   22.1680   79.5210   11.2510 C   0  0  0  0  0  0  0  0  0  0  0  0
   22.6350   79.3450   12.5490 C   0  0  0  0  0  3  0  0  0  0  0  0
   21.9990   78.5210   13.4380 C   0  0  0  0  0  0  0  0  0  0  0  0
   20.8620   77.8630   12.9940 C   0  0  0  0  0  0  0  0  0  0  0  0
   20.3940   78.0330   11.7080 C   0  0  0  0  0  3  0  0  0  0  0  0
   21.0410   78.8620   10.8220 C   0  0  0  0  0  3  0  0  0  0  0  0
   20.3220   77.0520   14.0400 N   0  0  0  0  0  0  0  0  0  0  0  0
   21.1340   77.1940   15.1860 C   0  0  0  0  0  0  0  0  0  0  0  0
   20.9260   76.6210   16.2650 O   0  0  0  0  0  0  0  0  0  0  0  0
   22.2230   78.1270   14.8270 C   0  0  1  0  0  0  0  0  0  0  0  0
   23.4600   77.4590   15.1010 N   0  0  2  0  0  0  0  0  0  0  0  0
   23.5800   77.5170   16.5560 C   0  0  2  0  0  3  0  0  0  0  0  0
   22.9380   78.7970   16.9810 C   0  0  1  0  0  3  0  0  0  0  0  0
   22.2880   79.3200   15.7470 C   0  0  2  0  0  3  0  0  0  0  0  0
   20.9780   79.7940   16.1830 C   0  0  0  0  0  0  0  0  0  0  0  0
   20.1580   80.4420   15.4940 O   0  0  0  0  0  0  0  0  0  0  0  0
   20.7630   79.4100   17.5170 N   0  0  0  0  0  0  0  0  0  0  0  0
   21.8420   78.5820   17.9790 C   0  0  0  0  0  0  0  0  0  0  0  0
   21.8880   77.8320   18.9860 O   0  0  0  0  0  0  0  0  0  0  0  0
   25.0720   77.6180   16.8370 C   0  0  0  0  0  2  0  0  0  0  0  0
   25.7550   77.5710   15.4860 C   0  0  0  0  0  2  0  0  0  0  0  0
   24.6380   78.1340   14.5960 C   0  0  0  0  0  2  0  0  0  0  0  0
   19.4520   76.4500   13.9470 H   0  0  0  0  0  0  0  0  0  0  0  0
   19.6430   79.7720   18.3280 C   0  0  0  0  0  2  0  0  0  0  0  0
   19.8680   80.9180   19.2450 C   0  0  2  0  0  3  0  0  0  0  0  0
   18.7950   81.1810   20.0900 O   0  0  0  0  0  0  0  0  0  0  0  0
   19.1210   82.4020   20.6640 C   0  0  0  0  0  2  0  0  0  0  0  0
   19.8060   83.2370   19.6280 C   0  0  0  0  0  2  0  0  0  0  0  0
   20.2430   82.2030   18.5900 C   0  0  0  0  0  2  0  0  0  0  0  0
  1  2  1  0  0  0  0
  2  3  1  0  0  0  0
  3  4  2  0  0  0  0
  5  4  1  0  0  0  0
  5  8  1  0  0  0  0
  6  5  2  0  0  0  0
  7  2  2  0  0  0  0
  7  6  1  0  0  0  0
  8  9  1  0  0  0  0
  9 10  2  0  0  0  0
 11  4  1  6  0  0  0
 11 12  1  0  0  0  0
 11  9  1  0  0  0  0
 11 15  1  0  0  0  0
 12 23  1  6  0  0  0
 12 13  1  0  0  0  0
 13 21  1  6  0  0  0
 13 14  1  0  0  0  0
 14 19  1  1  0  0  0
 15 16  1  1  0  0  0
 15 14  1  0  0  0  0
 16 18  1  0  0  0  0
 17 16  2  0  0  0  0
 18 19  1  0  0  0  0
 18 25  1  0  0  0  0
 19 20  2  0  0  0  0
 22 21  1  0  0  0  0
 23 22  1  0  0  0  0
 24  8  1  0  0  0  0
 26 25  1  6  0  0  0
 26 27  1  0  0  0  0
 27 28  1  0  0  0  0
 29 28  1  0  0  0  0
 30 26  1  0  0  0  0
 30 29  1  0  0  0  0
M  END
>  <Pose>
1

>  <Score>
-9.018

$$$$
