/Users/jonathanwahrer/Desktop/Msc/3_Semester/Drug_Design_Praktikum/waehrer_HTS_screening/HTS_experiment/out/docking_results/vina_output/6e43/0556_docked.pdbqt
 OpenBabel03212220003D

 30 33  0  0  1  0  0  0  0  0999 V2000
   26.6720   75.3170   15.0670 Br  0  0  0  0  0  0  0  0  0  0  0  0
   25.6960   76.9190   15.4130 C   0  0  0  0  0  0  0  0  0  0  0  0
   24.3700   76.9350   15.0570 C   0  0  0  0  0  3  0  0  0  0  0  0
   23.6120   78.0870   15.2910 C   0  0  0  0  0  0  0  0  0  0  0  0
   24.2040   79.1650   15.8650 C   0  0  0  0  0  0  0  0  0  0  0  0
   25.5620   79.1700   16.2380 C   0  0  0  0  0  3  0  0  0  0  0  0
   26.2810   78.0240   15.9960 C   0  0  0  0  0  3  0  0  0  0  0  0
   23.2790   80.2260   16.0110 N   0  0  0  0  0  0  0  0  0  0  0  0
   22.0530   79.7900   15.5050 C   0  0  0  0  0  0  0  0  0  0  0  0
   20.9510   80.4610   15.4450 O   0  0  0  0  0  0  0  0  0  0  0  0
   22.2130   78.3830   15.0280 C   0  0  2  0  0  0  0  0  0  0  0  0
   21.2340   77.6070   15.7430 C   0  0  0  0  0  0  0  0  0  0  0  0
   20.1860   77.0480   15.1120 C   0  0  0  0  0  0  0  0  0  0  0  0
   19.4530   76.3850   16.0670 N   0  0  0  0  0  0  0  0  0  0  0  0
   20.0450   76.5430   17.2310 N   0  0  0  0  0  0  0  0  0  0  0  0
   21.1470   77.2830   17.1120 C   0  0  0  0  0  0  0  0  0  0  0  0
   22.1070   77.7010   18.1740 C   0  0  0  0  0  1  0  0  0  0  0  0
   19.9600   77.1710   13.7290 O   0  0  0  0  0  0  0  0  0  0  0  0
   20.8940   77.9170   13.0200 C   0  0  0  0  0  0  0  0  0  0  0  0
   21.9240   78.4790   13.5760 C   0  0  0  0  0  0  0  0  0  0  0  0
   23.4470   81.1880   16.4240 H   0  0  0  0  0  0  0  0  0  0  0  0
   18.5740   75.8480   15.8930 H   0  0  0  0  0  0  0  0  0  0  0  0
   22.8680   79.2590   12.7240 C   0  0  0  0  0  0  0  0  0  0  0  0
   22.7740   80.4990   12.7370 O   0  0  0  0  0  0  0  0  0  0  0  0
   23.8240   78.6760   11.9380 O   0  0  0  0  0  0  0  0  0  0  0  0
   23.8440   78.7190   10.5310 C   0  0  0  0  0  2  0  0  0  0  0  0
   25.1160   77.9980   10.0730 C   0  0  0  0  0  1  0  0  0  0  0  0
   20.7300   78.0890   11.5950 N   0  0  0  0  0  0  0  0  0  0  0  0
   19.8120   77.8940   11.1890 H   0  0  0  0  0  0  0  0  0  0  0  0
   21.5250   78.3970   11.0350 H   0  0  0  0  0  0  0  0  0  0  0  0
  1  2  1  0  0  0  0
  2  7  1  0  0  0  0
  3  4  1  0  0  0  0
  3  2  2  0  0  0  0
  4  5  2  0  0  0  0
  5  8  1  0  0  0  0
  5  6  1  0  0  0  0
  7  6  2  0  0  0  0
  8 21  1  0  0  0  0
  9  8  1  0  0  0  0
 10  9  2  0  0  0  0
 11 20  1  6  0  0  0
 11  4  1  0  0  0  0
 11  9  1  0  0  0  0
 11 12  1  0  0  0  0
 12 16  1  0  0  0  0
 13 12  2  0  0  0  0
 13 14  1  0  0  0  0
 14 15  1  0  0  0  0
 16 15  2  0  0  0  0
 16 17  1  0  0  0  0
 18 13  1  0  0  0  0
 19 20  2  0  0  0  0
 19 18  1  0  0  0  0
 22 14  1  0  0  0  0
 23 24  2  0  0  0  0
 23 20  1  0  0  0  0
 25 23  1  0  0  0  0
 26 25  1  0  0  0  0
 27 26  1  0  0  0  0
 28 19  1  0  0  0  0
 29 28  1  0  0  0  0
 30 28  1  0  0  0  0
M  END
>  <Pose>
1

>  <Score>
-7.152

$$$$
