MODEL 1
REMARK VINA RESULT:    -8.413      0.000      0.000
REMARK INTER + INTRA:          -8.659
REMARK INTER:                  -8.659
REMARK INTRA:                   0.000
REMARK UNBOUND:                 0.000
REMARK  1 active torsions:
REMARK  status: ('A' for Active; 'I' for Inactive)
REMARK    1  A    between atoms: C_15  and  N_19 
ROOT
ATOM      1 Br   UNK d   1      26.489  75.627  15.072  0.00  0.00    -0.051 Br
ATOM      2  C   UNK d   1      25.318  77.003  15.657  0.00  0.00     0.011 A 
ATOM      3  C   UNK d   1      24.064  77.210  15.074  0.00  0.00     0.030 A 
ATOM      4  C   UNK d   1      23.225  78.204  15.503  0.00  0.00    -0.002 A 
ATOM      5  C   UNK d   1      23.621  79.018  16.524  0.00  0.00     0.043 A 
ATOM      6  C   UNK d   1      24.869  78.851  17.140  0.00  0.00     0.031 A 
ATOM      7  C   UNK d   1      25.688  77.845  16.690  0.00  0.00     0.021 A 
ATOM      8  N   UNK d   1      22.622  79.979  16.820  0.00  0.00    -0.325 N 
ATOM      9  C   UNK d   1      21.549  79.754  15.940  0.00  0.00     0.246 A 
ATOM     10  O   UNK d   1      20.462  80.386  15.866  0.00  0.00    -0.271 OA
ATOM     11  C   UNK d   1      21.881  78.614  15.058  0.00  0.00     0.146 A 
ATOM     12  C   UNK d   1      21.910  79.076  13.633  0.00  0.00     0.071 A 
ATOM     13  C   UNK d   1      21.206  78.567  12.656  0.00  0.00     0.060 A 
ATOM     14  N   UNK d   1      20.339  77.489  12.948  0.00  0.00    -0.342 N 
ATOM     15  C   UNK d   1      20.244  76.982  14.270  0.00  0.00     0.118 A 
ATOM     16  C   UNK d   1      20.948  77.490  15.252  0.00  0.00     0.093 A 
ATOM     17  C   UNK d   1      20.792  76.909  16.589  0.00  0.00     0.101 C 
ATOM     18  N   UNK d   1      20.676  76.467  17.651  0.00  0.00    -0.191 NA
ATOM     19  C   UNK d   1      21.525  79.307  11.410  0.00  0.00     0.106 A 
ATOM     20  O   UNK d   1      22.473  80.287  11.744  0.00  0.00    -0.301 OA
ATOM     21  C   UNK d   1      22.732  80.176  13.096  0.00  0.00     0.294 A 
ATOM     22  O   UNK d   1      23.548  80.910  13.752  0.00  0.00    -0.259 OA
ATOM     23  C   UNK d   1      20.296  80.057  10.894  0.00  0.00     0.053 C 
ATOM     24  C   UNK d   1      22.049  78.366  10.334  0.00  0.00     0.053 C 
ATOM     25  H   UNK d   1      22.691  80.727  17.578  0.00  0.00     0.169 HD
ATOM     26  H   UNK d   1      19.748  77.039  12.202  0.00  0.00     0.167 HD
ENDROOT
BRANCH  15  27
ATOM     27  N   UNK d   1      19.345  75.874  14.547  0.00  0.00    -0.384 N 
ATOM     28  H   UNK d   1      18.989  75.653  15.491  0.00  0.00     0.157 HD
ATOM     29  H   UNK d   1      19.054  75.283  13.751  0.00  0.00     0.157 HD
ENDBRANCH  15  27
TORSDOF 1
ENDMDL
