MODEL 1
REMARK VINA RESULT:    -7.802      0.000      0.000
REMARK INTER + INTRA:          -9.009
REMARK INTER:                  -9.170
REMARK INTRA:                   0.161
REMARK UNBOUND:                 0.161
REMARK  3 active torsions:
REMARK  status: ('A' for Active; 'I' for Inactive)
REMARK    1  A    between atoms: C_13  and  C_25 
REMARK    2  A    between atoms: N_18  and  C_21 
REMARK    3  A    between atoms: C_25  and  C_26 
REMARK       I    between atoms: C_26  and  N_28 
ROOT
ATOM      1 Br   UNK d   1      18.888  74.232  10.750  0.00  0.00    -0.051 Br
ATOM      2  C   UNK d   1      19.027  75.038  12.486  0.00  0.00     0.011 A 
ATOM      3  C   UNK d   1      20.077  75.874  12.818  0.00  0.00     0.031 A 
ATOM      4  C   UNK d   1      20.185  76.458  14.063  0.00  0.00     0.019 A 
ATOM      5  C   UNK d   1      19.186  76.164  14.968  0.00  0.00     0.044 A 
ATOM      6  C   UNK d   1      18.128  75.323  14.637  0.00  0.00     0.031 A 
ATOM      7  C   UNK d   1      18.044  74.760  13.401  0.00  0.00     0.021 A 
ATOM      8  N   UNK d   1      19.463  76.847  16.201  0.00  0.00    -0.324 N 
ATOM      9  C   UNK d   1      20.666  77.584  16.061  0.00  0.00     0.267 A 
ATOM     10  O   UNK d   1      21.175  78.277  16.972  0.00  0.00    -0.270 OA
ATOM     11  C   UNK d   1      21.168  77.374  14.687  0.00  0.00     0.279 A 
ATOM     12  N   UNK d   1      22.499  76.831  14.700  0.00  0.00     0.114 N 
ATOM     13  C   UNK d   1      23.344  77.985  14.925  0.00  0.00     0.245 C 
ATOM     14  C   UNK d   1      22.741  79.044  14.040  0.00  0.00     0.128 C 
ATOM     15  C   UNK d   1      21.274  78.690  14.001  0.00  0.00     0.147 C 
ATOM     16  C   UNK d   1      20.909  78.696  12.578  0.00  0.00     0.235 C 
ATOM     17  O   UNK d   1      19.754  78.574  12.096  0.00  0.00    -0.272 OA
ATOM     18  N   UNK d   1      22.096  78.868  11.771  0.00  0.00    -0.279 N 
ATOM     19  C   UNK d   1      23.213  78.966  12.640  0.00  0.00     0.234 C 
ATOM     20  O   UNK d   1      24.406  78.982  12.253  0.00  0.00    -0.272 OA
ATOM     21  H   UNK d   1      18.847  76.779  17.039  0.00  0.00     0.169 HD
ATOM     22  H   UNK d   1      22.713  76.446  13.765  0.00  0.00     0.318 HD
ENDROOT
BRANCH  13  23
ATOM     23  C   UNK d   1      24.775  77.661  14.592  0.00  0.00     0.139 C 
BRANCH  23  24
ATOM     24  C   UNK d   1      25.260  76.524  15.391  0.00  0.00     0.217 C 
ATOM     25  O   UNK d   1      24.975  76.483  16.619  0.00  0.00    -0.274 OA
ATOM     26  N   UNK d   1      26.034  75.451  14.881  0.00  0.00    -0.370 N 
ATOM     27  H   UNK d   1      26.864  75.549  14.278  0.00  0.00     0.159 HD
ATOM     28  H   UNK d   1      25.730  74.478  15.145  0.00  0.00     0.159 HD
ENDBRANCH  23  24
ENDBRANCH  13  23
BRANCH  18  29
ATOM     29  C   UNK d   1      22.159  78.933  10.332  0.00  0.00     0.032 C 
ATOM     30  C   UNK d   1      21.264  77.905   9.681  0.00  0.00     0.038 C 
ATOM     31  C   UNK d   1      21.742  80.336   9.881  0.00  0.00     0.038 C 
ATOM     32  C   UNK d   1      23.566  78.674   9.841  0.00  0.00     0.038 C 
ENDBRANCH  18  29
TORSDOF 3
ENDMDL
