/Users/jonathanwahrer/Desktop/Msc/3_Semester/Drug_Design_Praktikum/waehrer_HTS_screening/HTS_experiment/out/docking_results/vina_output/6e43/0578_docked.pdbqt
 OpenBabel03212220013D

 27 30  0  0  1  0  0  0  0  0999 V2000
   19.1100   75.0350   13.8010 Br  0  0  0  0  0  0  0  0  0  0  0  0
   20.1080   76.6070   13.3750 C   0  0  0  0  0  0  0  0  0  0  0  0
   20.9590   77.2000   14.2730 C   0  0  0  0  0  3  0  0  0  0  0  0
   21.7080   78.3570   13.9950 C   0  0  0  0  0  0  0  0  0  0  0  0
   21.5610   78.8980   12.7530 C   0  0  0  0  0  0  0  0  0  0  0  0
   20.6920   78.3040   11.8190 C   0  0  0  0  0  3  0  0  0  0  0  0
   19.9720   77.1720   12.1220 C   0  0  0  0  0  3  0  0  0  0  0  0
   22.3790   80.0500   12.6050 N   0  0  0  0  0  0  0  0  0  0  0  0
   23.0690   80.2320   13.8190 C   0  0  0  0  0  0  0  0  0  0  0  0
   23.9170   81.1660   14.0650 O   0  0  0  0  0  0  0  0  0  0  0  0
   22.6470   79.1650   14.7440 C   0  0  2  0  0  0  0  0  0  0  0  0
   23.8890   78.4100   14.9880 N   0  0  0  0  0  0  0  0  0  0  0  0
   24.4170   78.8010   16.2580 C   0  0  2  0  0  3  0  0  0  0  0  0
   23.2260   79.2090   17.0440 C   0  0  1  0  0  3  0  0  0  0  0  0
   22.1890   79.6780   16.0590 C   0  0  2  0  0  3  0  0  0  0  0  0
   20.9490   79.1730   16.6010 C   0  0  0  0  0  0  0  0  0  0  0  0
   19.7930   79.5490   16.2460 O   0  0  0  0  0  0  0  0  0  0  0  0
   21.2370   78.1940   17.5900 N   0  0  0  0  0  0  0  0  0  0  0  0
   22.6390   77.9800   17.6660 C   0  0  0  0  0  0  0  0  0  0  0  0
   23.1850   76.9720   18.1550 O   0  0  0  0  0  0  0  0  0  0  0  0
   25.4850   79.8680   16.1980 C   0  0  0  0  0  1  0  0  0  0  0  0
   22.4680   80.6720   11.7480 H   0  0  0  0  0  0  0  0  0  0  0  0
   23.7150   77.3820   14.9360 H   0  0  0  0  0  0  0  0  0  0  0  0
   20.2010   77.5400   18.3780 C   0  0  0  0  0  2  0  0  0  0  0  0
   19.9900   78.2140   19.6990 C   0  0  0  0  0  2  0  0  0  0  0  0
   19.0830   79.4120   19.6150 C   0  0  0  0  0  2  0  0  0  0  0  0
   19.9520   80.6370   19.9210 C   0  0  0  0  0  1  0  0  0  0  0  0
  2  1  1  0  0  0  0
  2  3  1  0  0  0  0
  4  3  2  0  0  0  0
  4 11  1  0  0  0  0
  5  4  1  0  0  0  0
  6  7  1  0  0  0  0
  6  5  2  0  0  0  0
  7  2  2  0  0  0  0
  8  5  1  0  0  0  0
  8  9  1  0  0  0  0
  9 10  2  0  0  0  0
 11  9  1  6  0  0  0
 11 12  1  0  0  0  0
 11 15  1  0  0  0  0
 12 13  1  0  0  0  0
 13 21  1  6  0  0  0
 13 14  1  0  0  0  0
 14 19  1  6  0  0  0
 15 16  1  1  0  0  0
 15 14  1  0  0  0  0
 16 18  1  0  0  0  0
 17 16  2  0  0  0  0
 18 19  1  0  0  0  0
 18 24  1  0  0  0  0
 19 20  2  0  0  0  0
 22  8  1  0  0  0  0
 23 12  1  0  0  0  0
 24 25  1  0  0  0  0
 26 25  1  0  0  0  0
 26 27  1  0  0  0  0
M  END
>  <Pose>
1

>  <Score>
-7.765

$$$$
