MODEL 1
REMARK VINA RESULT:    -7.613      0.000      0.000
REMARK INTER + INTRA:         -10.787
REMARK INTER:                  -9.838
REMARK INTRA:                  -0.949
REMARK UNBOUND:                -0.949
REMARK  5 active torsions:
REMARK  status: ('A' for Active; 'I' for Inactive)
REMARK    1  A    between atoms: C_13  and  C_25 
REMARK    2  A    between atoms: N_18  and  C_21 
REMARK    3  A    between atoms: C_21  and  C_22 
REMARK    4  A    between atoms: C_22  and  O_23 
REMARK    5  A    between atoms: C_25  and  C_26 
REMARK       I    between atoms: C_26  and  N_28 
ROOT
ATOM      1 Br   UNK d   1      19.699  82.219  19.501  0.00  0.00    -0.051 Br
ATOM      2  C   UNK d   1      19.856  80.649  18.430  0.00  0.00     0.011 A 
ATOM      3  C   UNK d   1      20.859  80.473  17.503  0.00  0.00     0.031 A 
ATOM      4  C   UNK d   1      20.969  79.322  16.723  0.00  0.00     0.019 A 
ATOM      5  C   UNK d   1      20.045  78.319  16.877  0.00  0.00     0.044 A 
ATOM      6  C   UNK d   1      19.024  78.467  17.802  0.00  0.00     0.031 A 
ATOM      7  C   UNK d   1      18.937  79.633  18.572  0.00  0.00     0.021 A 
ATOM      8  N   UNK d   1      20.344  77.236  15.992  0.00  0.00    -0.324 N 
ATOM      9  C   UNK d   1      21.504  77.575  15.252  0.00  0.00     0.267 A 
ATOM     10  O   UNK d   1      22.019  76.822  14.403  0.00  0.00    -0.270 OA
ATOM     11  C   UNK d   1      21.936  78.900  15.669  0.00  0.00     0.279 A 
ATOM     12  N   UNK d   1      23.279  78.761  16.230  0.00  0.00     0.114 N 
ATOM     13  C   UNK d   1      23.998  79.926  15.807  0.00  0.00     0.245 C 
ATOM     14  C   UNK d   1      23.490  80.179  14.434  0.00  0.00     0.128 C 
ATOM     15  C   UNK d   1      22.007  79.928  14.580  0.00  0.00     0.147 C 
ATOM     16  C   UNK d   1      21.576  79.488  13.260  0.00  0.00     0.235 C 
ATOM     17  O   UNK d   1      20.399  79.466  12.843  0.00  0.00    -0.272 OA
ATOM     18  N   UNK d   1      22.733  79.088  12.536  0.00  0.00    -0.286 N 
ATOM     19  C   UNK d   1      23.876  79.166  13.421  0.00  0.00     0.233 C 
ATOM     20  O   UNK d   1      24.898  78.481  13.258  0.00  0.00    -0.272 OA
ATOM     21  H   UNK d   1      19.776  76.346  15.924  0.00  0.00     0.169 HD
ATOM     22  H   UNK d   1      23.758  77.923  15.823  0.00  0.00     0.318 HD
ENDROOT
BRANCH  13  23
ATOM     23  C   UNK d   1      25.477  79.798  15.929  0.00  0.00     0.139 C 
BRANCH  23  24
ATOM     24  C   UNK d   1      25.815  78.534  16.592  0.00  0.00     0.217 C 
ATOM     25  O   UNK d   1      25.971  78.508  17.846  0.00  0.00    -0.274 OA
ATOM     26  N   UNK d   1      25.970  77.332  15.841  0.00  0.00    -0.370 N 
ATOM     27  H   UNK d   1      25.751  76.411  16.273  0.00  0.00     0.159 HD
ATOM     28  H   UNK d   1      26.305  77.383  14.857  0.00  0.00     0.159 HD
ENDBRANCH  23  24
ENDBRANCH  13  23
BRANCH  18  29
ATOM     29  C   UNK d   1      22.727  78.684  11.159  0.00  0.00     0.161 C 
BRANCH  29  30
ATOM     30  C   UNK d   1      22.654  79.797  10.167  0.00  0.00     0.187 C 
BRANCH  30  31
ATOM     31  O   UNK d   1      21.411  79.917   9.569  0.00  0.00    -0.394 OA
ATOM     32  C   UNK d   1      20.883  78.675   9.223  0.00  0.00     0.201 C 
ENDBRANCH  30  31
ENDBRANCH  29  30
ENDBRANCH  18  29
TORSDOF 5
ENDMDL
