MODEL 1
REMARK VINA RESULT:    -9.733      0.000      0.000
REMARK INTER + INTRA:          -9.733
REMARK INTER:                  -9.733
REMARK INTRA:                   0.000
REMARK UNBOUND:                 0.000
REMARK  0 active torsions:
REMARK  status: ('A' for Active; 'I' for Inactive)
ROOT
ATOM      1 Br   UNK d   1      20.548  78.996   9.752  0.00  0.00    -0.051 Br
ATOM      2  C   UNK d   1      21.444  78.848  11.427  0.00  0.00     0.012 A 
ATOM      3  C   UNK d   1      20.903  78.036  12.381  0.00  0.00     0.038 A 
ATOM      4  C   UNK d   1      21.533  77.910  13.608  0.00  0.00     0.062 A 
ATOM      5  C   UNK d   1      22.709  78.604  13.867  0.00  0.00     0.078 A 
ATOM      6  C   UNK d   1      23.268  79.428  12.912  0.00  0.00     0.034 A 
ATOM      7  C   UNK d   1      22.607  79.523  11.708  0.00  0.00     0.021 A 
ATOM      8  N   UNK d   1      23.438  78.553  15.077  0.00  0.00    -0.195 N 
ATOM      9  N   UNK d   1      24.739  78.863  15.112  0.00  0.00    -0.039 NA
ATOM     10  N   UNK d   1      25.108  78.718  16.356  0.00  0.00    -0.023 NA
ATOM     11  N   UNK d   1      24.086  78.329  17.100  0.00  0.00    -0.111 NA
ATOM     12  C   UNK d   1      23.001  78.220  16.279  0.00  0.00     0.182 A 
ATOM     13  C   UNK d   1      21.656  77.794  16.800  0.00  0.00     0.102 C 
ATOM     14  N   UNK d   1      21.019  76.856  15.881  0.00  0.00    -0.340 N 
ATOM     15  C   UNK d   1      20.791  76.995  14.483  0.00  0.00     0.255 C 
ATOM     16  O   UNK d   1      19.890  76.285  13.955  0.00  0.00    -0.268 OA
ATOM     17  C   UNK d   1      20.799  79.031  16.798  0.00  0.00     0.076 C 
ATOM     18  C   UNK d   1      19.647  78.849  17.731  0.00  0.00     0.056 C 
ATOM     19  O   UNK d   1      20.164  78.702  18.991  0.00  0.00    -0.381 OA
ATOM     20  C   UNK d   1      20.900  77.567  19.200  0.00  0.00     0.171 C 
ATOM     21  C   UNK d   1      21.822  77.160  18.133  0.00  0.00     0.066 C 
ATOM     22  C   UNK d   1      18.800  80.128  17.746  0.00  0.00     0.045 C 
ATOM     23  C   UNK d   1      18.718  77.735  17.329  0.00  0.00     0.045 C 
ATOM     24  H   UNK d   1      20.670  75.938  16.293  0.00  0.00     0.164 HD
ENDROOT
TORSDOF 0
ENDMDL
