/Users/jonathanwahrer/Desktop/Msc/3_Semester/Drug_Design_Praktikum/waehrer_HTS_screening/HTS_experiment/out/docking_results/vina_output/6e43/0591_docked.pdbqt
 OpenBabel03212220013D

 23 26  0  0  0  0  0  0  0  0999 V2000
   22.6040   80.7240    9.4920 Br  0  0  0  0  0  0  0  0  0  0  0  0
   22.1740   79.8430   11.1430 C   0  0  0  0  0  0  0  0  0  0  0  0
   22.5740   80.3820   12.3470 C   0  0  0  0  0  3  0  0  0  0  0  0
   22.2620   79.7450   13.5300 C   0  0  0  0  0  0  0  0  0  0  0  0
   21.5510   78.5610   13.5770 C   0  0  0  0  0  0  0  0  0  0  0  0
   21.1560   78.0300   12.3520 C   0  0  0  0  0  3  0  0  0  0  0  0
   21.4630   78.6620   11.1650 C   0  0  0  0  0  3  0  0  0  0  0  0
   21.1530   77.7880   14.6860 N   0  0  0  0  0  0  0  0  0  0  0  0
   20.7050   76.5470   14.5890 N   0  0  0  0  0  0  0  0  0  0  0  0
   20.4230   76.1230   15.8110 N   0  0  0  0  0  0  0  0  0  0  0  0
   20.6920   77.0860   16.6610 N   0  0  0  0  0  0  0  0  0  0  0  0
   21.1590   78.1630   15.9820 C   0  0  0  0  0  0  0  0  0  0  0  0
   21.5370   79.3860   16.6930 C   0  0  0  0  0  0  0  0  0  0  0  0
   22.5390   80.1930   16.0880 N   0  0  0  0  0  0  0  0  0  0  0  0
   22.7610   80.4510   14.7110 C   0  0  0  0  0  0  0  0  0  0  0  0
   23.4930   81.4260   14.3910 O   0  0  0  0  0  0  0  0  0  0  0  0
   20.3240   80.3010   16.9220 C   0  0  0  0  0  2  0  0  0  0  0  0
   20.5030   81.0220   18.2340 C   0  0  0  0  0  2  0  0  0  0  0  0
   20.1800   80.0900   19.2900 N   0  0  0  0  0  0  0  0  0  0  0  0
   20.8700   78.8500   19.0490 C   0  0  0  0  0  2  0  0  0  0  0  0
   22.0210   78.9890   18.0830 C   0  0  0  0  0  2  0  0  0  0  0  0
   18.7290   79.9100   19.2920 C   0  0  0  0  0  1  0  0  0  0  0  0
   23.1960   80.6570   16.7480 H   0  0  0  0  0  0  0  0  0  0  0  0
  1  2  1  0  0  0  0
  2  7  2  0  0  0  0
  2  3  1  0  0  0  0
  3  4  2  0  0  0  0
  4  5  1  0  0  0  0
  4 15  1  0  0  0  0
  5  8  1  0  0  0  0
  6  5  2  0  0  0  0
  7  6  1  0  0  0  0
  8 12  1  0  0  0  0
  9  8  1  0  0  0  0
  9 10  2  0  0  0  0
 10 11  1  0  0  0  0
 12 11  2  0  0  0  0
 12 13  1  0  0  0  0
 13 17  1  0  0  0  0
 13 21  1  0  0  0  0
 14 13  1  0  0  0  0
 14 23  1  0  0  0  0
 15 14  1  0  0  0  0
 16 15  2  0  0  0  0
 17 18  1  0  0  0  0
 18 19  1  0  0  0  0
 19 22  1  0  0  0  0
 20 19  1  0  0  0  0
 21 20  1  0  0  0  0
M  END
>  <Pose>
1

>  <Score>
-9.475

$$$$
