MODEL 1
REMARK VINA RESULT:    -9.475      0.000      0.000
REMARK INTER + INTRA:          -9.475
REMARK INTER:                  -9.475
REMARK INTRA:                   0.000
REMARK UNBOUND:                 0.000
REMARK  0 active torsions:
REMARK  status: ('A' for Active; 'I' for Inactive)
ROOT
ATOM      1 Br   UNK d   1      22.604  80.724   9.492  0.00  0.00    -0.051 Br
ATOM      2  C   UNK d   1      22.174  79.843  11.143  0.00  0.00     0.012 A 
ATOM      3  C   UNK d   1      22.574  80.382  12.347  0.00  0.00     0.038 A 
ATOM      4  C   UNK d   1      22.262  79.745  13.530  0.00  0.00     0.061 A 
ATOM      5  C   UNK d   1      21.551  78.561  13.577  0.00  0.00     0.072 A 
ATOM      6  C   UNK d   1      21.156  78.030  12.352  0.00  0.00     0.034 A 
ATOM      7  C   UNK d   1      21.463  78.662  11.165  0.00  0.00     0.021 A 
ATOM      8  N   UNK d   1      21.153  77.788  14.686  0.00  0.00    -0.218 N 
ATOM      9  N   UNK d   1      20.705  76.547  14.589  0.00  0.00     0.032 NA
ATOM     10  N   UNK d   1      20.423  76.123  15.811  0.00  0.00    -0.052 NA
ATOM     11  N   UNK d   1      20.692  77.086  16.661  0.00  0.00    -0.116 NA
ATOM     12  C   UNK d   1      21.159  78.163  15.982  0.00  0.00     0.176 A 
ATOM     13  C   UNK d   1      21.537  79.386  16.693  0.00  0.00     0.100 C 
ATOM     14  N   UNK d   1      22.539  80.193  16.088  0.00  0.00    -0.340 N 
ATOM     15  C   UNK d   1      22.761  80.451  14.711  0.00  0.00     0.255 C 
ATOM     16  O   UNK d   1      23.493  81.426  14.391  0.00  0.00    -0.268 OA
ATOM     17  C   UNK d   1      20.324  80.301  16.922  0.00  0.00     0.069 C 
ATOM     18  C   UNK d   1      20.503  81.022  18.234  0.00  0.00     0.275 C 
ATOM     19  N   UNK d   1      20.180  80.090  19.290  0.00  0.00     0.084 N 
ATOM     20  C   UNK d   1      20.870  78.850  19.049  0.00  0.00     0.275 C 
ATOM     21  C   UNK d   1      22.021  78.989  18.083  0.00  0.00     0.069 C 
ATOM     22  C   UNK d   1      18.729  79.910  19.292  0.00  0.00     0.309 C 
ATOM     23  H   UNK d   1      23.196  80.657  16.748  0.00  0.00     0.164 HD
ENDROOT
TORSDOF 0
ENDMDL
