MODEL 1
REMARK VINA RESULT:    -7.018      0.000      0.000
REMARK INTER + INTRA:          -7.223
REMARK INTER:                  -7.223
REMARK INTRA:                   0.000
REMARK UNBOUND:                 0.000
REMARK  1 active torsions:
REMARK  status: ('A' for Active; 'I' for Inactive)
REMARK    1  A    between atoms: C_9  and  N_23 
ROOT
ATOM      1 Br   UNK d   1      22.991  80.836  10.461  0.00  0.00    -0.051 Br
ATOM      2  C   UNK d   1      22.151  79.590  11.624  0.00  0.00     0.011 A 
ATOM      3  C   UNK d   1      22.473  79.604  12.952  0.00  0.00     0.031 A 
ATOM      4  C   UNK d   1      21.854  78.686  13.807  0.00  0.00     0.005 A 
ATOM      5  C   UNK d   1      20.955  77.813  13.291  0.00  0.00     0.086 A 
ATOM      6  C   UNK d   1      20.626  77.801  11.920  0.00  0.00     0.039 A 
ATOM      7  C   UNK d   1      21.236  78.704  11.083  0.00  0.00     0.022 A 
ATOM      8  O   UNK d   1      20.316  76.886  14.095  0.00  0.00    -0.292 OA
ATOM      9  C   UNK d   1      20.612  76.865  15.441  0.00  0.00     0.160 A 
ATOM     10  C   UNK d   1      21.469  77.678  16.011  0.00  0.00     0.100 A 
ATOM     11  C   UNK d   1      22.190  78.687  15.247  0.00  0.00     0.145 A 
ATOM     12  C   UNK d   1      23.656  78.632  15.461  0.00  0.00     0.041 A 
ATOM     13  C   UNK d   1      24.054  79.802  16.045  0.00  0.00     0.160 A 
ATOM     14  N   UNK d   1      25.405  79.748  16.242  0.00  0.00    -0.156 NA
ATOM     15  N   UNK d   1      25.802  78.574  15.785  0.00  0.00    -0.280 N 
ATOM     16  C   UNK d   1      24.775  77.863  15.302  0.00  0.00     0.036 A 
ATOM     17  C   UNK d   1      24.900  76.495  14.715  0.00  0.00     0.070 C 
ATOM     18  N   UNK d   1      22.958  80.667  16.252  0.00  0.00    -0.308 N 
ATOM     19  C   UNK d   1      21.810  80.015  15.774  0.00  0.00     0.247 A 
ATOM     20  O   UNK d   1      20.629  80.455  15.777  0.00  0.00    -0.271 OA
ATOM     21  C   UNK d   1      21.725  77.595  17.429  0.00  0.00     0.101 C 
ATOM     22  N   UNK d   1      21.921  77.545  18.569  0.00  0.00    -0.191 NA
ATOM     23  H   UNK d   1      26.815  78.283  15.822  0.00  0.00     0.189 HD
ATOM     24  H   UNK d   1      23.018  81.644  16.695  0.00  0.00     0.170 HD
ENDROOT
BRANCH   9  25
ATOM     25  N   UNK d   1      19.940  75.896  16.262  0.00  0.00    -0.379 N 
ATOM     26  H   UNK d   1      19.758  76.112  17.266  0.00  0.00     0.158 HD
ATOM     27  H   UNK d   1      19.622  74.973  15.891  0.00  0.00     0.158 HD
ENDBRANCH   9  25
TORSDOF 1
ENDMDL
