/Users/jonathanwahrer/Desktop/Msc/3_Semester/Drug_Design_Praktikum/waehrer_HTS_screening/HTS_experiment/out/docking_results/vina_output/6e43/0596_docked.pdbqt
 OpenBabel03212220013D

 29 32  0  0  0  0  0  0  0  0999 V2000
   20.8880   79.8810   17.9050 C   0  0  0  0  0  0  0  0  0  0  0  0
   20.3850   78.8820   18.7230 C   0  0  0  0  0  3  0  0  0  0  0  0
   19.6610   79.2040   19.8510 C   0  0  0  0  0  0  0  0  0  0  0  0
   19.2340   78.2320   20.5520 O   0  0  0  0  0  0  0  0  0  0  0  0
   19.4350   80.4420   20.1650 O   0  0  0  0  0  0  0  0  0  0  0  0
   19.8690   81.4100   19.4540 C   0  0  0  0  0  0  0  0  0  0  0  0
   20.6190   81.1720   18.2850 C   0  0  0  0  0  0  0  0  0  0  0  0
   21.0590   82.2260   17.5390 C   0  0  0  0  0  3  0  0  0  0  0  0
   20.7440   83.5160   17.9790 C   0  0  0  0  0  3  0  0  0  0  0  0
   20.0110   83.7160   19.1320 C   0  0  0  0  0  0  0  0  0  0  0  0
   19.5490   82.6770   19.9070 C   0  0  0  0  0  0  0  0  0  0  0  0
   19.7530   85.0580   19.4900 O   0  0  0  0  0  1  0  0  0  0  0  0
   21.7100   79.5590   16.7390 C   0  0  0  0  0  0  0  0  0  0  0  0
   23.0330   79.2010   16.8840 C   0  0  0  0  0  0  0  0  0  0  0  0
   23.7620   78.9480   15.8550 O   0  0  0  0  0  0  0  0  0  0  0  0
   23.4590   79.1440   18.0800 O   0  0  0  0  0  0  0  0  0  0  0  0
   23.3060   79.0080   14.6030 C   0  0  0  0  0  0  0  0  0  0  0  0
   21.9890   79.3590   14.3900 C   0  0  0  0  0  0  0  0  0  0  0  0
   24.1590   78.7220   13.5470 C   0  0  0  0  0  3  0  0  0  0  0  0
   21.5430   79.4140   13.0830 C   0  0  0  0  0  3  0  0  0  0  0  0
   21.1870   79.6380   15.4690 C   0  0  0  0  0  3  0  0  0  0  0  0
   22.3450   79.1390   11.9900 C   0  0  0  0  0  0  0  0  0  0  0  0
   21.6710   79.2170   10.2220 Br  0  0  0  0  0  0  0  0  0  0  0  0
   23.6760   78.7900   12.2610 C   0  0  0  0  0  3  0  0  0  0  0  0
   18.8780   82.9660   21.1460 C   0  0  0  0  0  2  0  0  0  0  0  0
   19.5010   83.5470   22.2640 N   0  0  0  0  0  4  0  0  0  0  0  0
   18.6580   83.9970   23.3370 C   0  0  0  0  0  1  0  0  0  0  0  0
   20.6570   82.7470   22.7440 C   0  0  0  0  0  1  0  0  0  0  0  0
   19.9630   84.4420   21.9290 H   0  0  0  0  0  0  0  0  0  0  0  0
  1  7  1  0  0  0  0
  1  2  2  0  0  0  0
  2  3  1  0  0  0  0
  3  5  1  0  0  0  0
  3  4  2  0  0  0  0
  6 11  1  0  0  0  0
  6  5  1  0  0  0  0
  7  6  2  0  0  0  0
  8  9  2  0  0  0  0
  8  7  1  0  0  0  0
  9 10  1  0  0  0  0
 10 12  1  0  0  0  0
 10 11  2  0  0  0  0
 11 25  1  0  0  0  0
 13 14  1  0  0  0  0
 13  1  1  0  0  0  0
 14 16  2  0  0  0  0
 15 14  1  0  0  0  0
 17 15  1  0  0  0  0
 18 17  1  0  0  0  0
 18 21  1  0  0  0  0
 19 17  2  0  0  0  0
 20 18  2  0  0  0  0
 21 13  2  0  0  0  0
 22 24  2  0  0  0  0
 22 20  1  0  0  0  0
 23 22  1  0  0  0  0
 24 19  1  0  0  0  0
 25 26  1  0  0  0  0
 26 28  1  0  0  0  0
 26 27  1  0  0  0  0
 29 26  1  0  0  0  0
M  END
>  <Pose>
1

>  <Score>
-9.478

$$$$
