MODEL 1
REMARK VINA RESULT:    -9.478      0.000      0.000
REMARK INTER + INTRA:         -11.856
REMARK INTER:                 -11.140
REMARK INTRA:                  -0.716
REMARK UNBOUND:                -0.716
REMARK  3 active torsions:
REMARK  status: ('A' for Active; 'I' for Inactive)
REMARK    1  A    between atoms: C_11  and  C_13 
REMARK    2  A    between atoms: C_23  and  C_24 
REMARK    3  A    between atoms: C_24  and  N_25 
ROOT
ATOM      1  C   UNK d   1      20.888  79.881  17.905  0.00  0.00    -0.001 A 
ATOM      2  C   UNK d   1      20.385  78.882  18.723  0.00  0.00     0.096 A 
ATOM      3  C   UNK d   1      19.661  79.204  19.851  0.00  0.00     0.289 A 
ATOM      4  O   UNK d   1      19.234  78.232  20.552  0.00  0.00    -0.260 OA
ATOM      5  O   UNK d   1      19.435  80.442  20.165  0.00  0.00    -0.274 OA
ATOM      6  C   UNK d   1      19.869  81.410  19.454  0.00  0.00     0.101 A 
ATOM      7  C   UNK d   1      20.619  81.172  18.285  0.00  0.00     0.010 A 
ATOM      8  C   UNK d   1      21.059  82.226  17.539  0.00  0.00     0.018 A 
ATOM      9  C   UNK d   1      20.744  83.516  17.979  0.00  0.00     0.041 A 
ATOM     10  C   UNK d   1      20.011  83.716  19.132  0.00  0.00     0.118 A 
ATOM     11  C   UNK d   1      19.549  82.677  19.907  0.00  0.00     0.039 A 
ATOM     12  O   UNK d   1      19.753  85.058  19.490  0.00  0.00    -0.191 OA
ENDROOT
BRANCH   1  13
ATOM     13  C   UNK d   1      21.710  79.559  16.739  0.00  0.00     0.052 A 
ATOM     14  C   UNK d   1      23.033  79.201  16.884  0.00  0.00     0.299 A 
ATOM     15  O   UNK d   1      23.762  78.948  15.855  0.00  0.00    -0.274 OA
ATOM     16  O   UNK d   1      23.459  79.144  18.080  0.00  0.00    -0.259 OA
ATOM     17  C   UNK d   1      23.306  79.008  14.603  0.00  0.00     0.089 A 
ATOM     18  C   UNK d   1      21.989  79.359  14.390  0.00  0.00     0.000 A 
ATOM     19  C   UNK d   1      24.159  78.722  13.547  0.00  0.00     0.039 A 
ATOM     20  C   UNK d   1      21.543  79.414  13.083  0.00  0.00     0.033 A 
ATOM     21  C   UNK d   1      21.187  79.638  15.469  0.00  0.00     0.032 A 
ATOM     22  C   UNK d   1      22.345  79.139  11.990  0.00  0.00     0.011 A 
ATOM     23 Br   UNK d   1      21.671  79.217  10.222  0.00  0.00    -0.051 Br
ATOM     24  C   UNK d   1      23.676  78.790  12.261  0.00  0.00     0.022 A 
ENDBRANCH   1  13
BRANCH  11  25
ATOM     25  C   UNK d   1      18.878  82.966  21.146  0.00  0.00     0.278 C 
BRANCH  25  26
ATOM     26  N   UNK d   1      19.501  83.547  22.264  0.00  0.00    -0.075 N 
ATOM     27  C   UNK d   1      18.658  83.997  23.337  0.00  0.00     0.269 C 
ATOM     28  C   UNK d   1      20.657  82.747  22.744  0.00  0.00     0.269 C 
ATOM     29  H   UNK d   1      19.963  84.442  21.929  0.00  0.00     0.279 HD
ENDBRANCH  25  26
ENDBRANCH  11  25
TORSDOF 3
ENDMDL
