MODEL 1
REMARK VINA RESULT:    -9.817      0.000      0.000
REMARK INTER + INTRA:         -12.303
REMARK INTER:                 -12.686
REMARK INTRA:                   0.383
REMARK UNBOUND:                 0.383
REMARK  5 active torsions:
REMARK  status: ('A' for Active; 'I' for Inactive)
REMARK    1  A    between atoms: C_7  and  N_17 
REMARK    2  A    between atoms: C_9  and  C_10 
REMARK       I    between atoms: N_20  and  C_23 
REMARK    3  A    between atoms: C_23  and  C_25 
REMARK    4  A    between atoms: C_25  and  C_26 
REMARK    5  A    between atoms: C_26  and  C_27 
ROOT
ATOM      1 Br   UNK d   1      17.489  73.803  12.771  0.00  0.00    -0.051 Br
ATOM      2  C   UNK d   1      18.872  75.053  13.176  0.00  0.00     0.011 A 
ATOM      3  C   UNK d   1      19.316  75.958  12.215  0.00  0.00     0.035 A 
ATOM      4  C   UNK d   1      20.321  76.869  12.509  0.00  0.00     0.024 A 
ATOM      5  C   UNK d   1      20.893  76.883  13.763  0.00  0.00     0.073 A 
ATOM      6  N   UNK d   1      21.874  77.774  14.054  0.00  0.00    -0.207 NA
ATOM      7  C   UNK d   1      22.316  78.661  13.145  0.00  0.00     0.327 A 
ATOM      8  N   UNK d   1      21.750  78.633  11.932  0.00  0.00    -0.206 NA
ATOM      9  C   UNK d   1      20.775  77.777  11.575  0.00  0.00     0.085 A 
ATOM     10  C   UNK d   1      20.434  75.969  14.704  0.00  0.00     0.034 A 
ATOM     11  C   UNK d   1      19.437  75.058  14.434  0.00  0.00     0.021 A 
ENDROOT
BRANCH   7  12
ATOM     12  N   UNK d   1      23.352  79.590  13.489  0.00  0.00    -0.004 N 
ATOM     13  C   UNK d   1      24.353  78.938  14.289  0.00  0.00     0.265 C 
ATOM     14  C   UNK d   1      23.947  78.691  15.702  0.00  0.00     0.154 C 
ATOM     15  N   UNK d   1      22.760  79.426  16.076  0.00  0.00    -0.349 N 
ATOM     16  C   UNK d   1      22.625  80.761  15.536  0.00  0.00     0.154 C 
ATOM     17  C   UNK d   1      21.818  78.808  16.933  0.00  0.00     0.220 C 
ATOM     18  C   UNK d   1      22.856  80.806  14.057  0.00  0.00     0.265 C 
ATOM     19  O   UNK d   1      22.002  77.648  17.361  0.00  0.00    -0.273 OA
ATOM     20  H   UNK d   1      23.826  79.809  12.562  0.00  0.00     0.290 HD
BRANCH  17  21
ATOM     21  C   UNK d   1      20.612  79.612  17.288  0.00  0.00     0.113 C 
BRANCH  21  22
ATOM     22  C   UNK d   1      20.554  79.896  18.758  0.00  0.00     0.122 C 
BRANCH  22  23
ATOM     23  C   UNK d   1      19.473  79.175  19.448  0.00  0.00     0.172 C 
ATOM     24  O   UNK d   1      19.519  77.939  19.621  0.00  0.00    -0.648 OA
ATOM     25  O   UNK d   1      18.383  79.878  19.917  0.00  0.00    -0.648 OA
ENDBRANCH  22  23
ENDBRANCH  21  22
ENDBRANCH  17  21
ENDBRANCH   7  12
BRANCH   9  26
ATOM     26  C   UNK d   1      20.225  77.829  10.230  0.00  0.00     0.015 A 
ATOM     27  C   UNK d   1      19.439  78.903   9.834  0.00  0.00     0.046 A 
ATOM     28  C   UNK d   1      18.912  78.994   8.564  0.00  0.00     0.025 A 
ATOM     29 Cl   UNK d   1      19.118  80.174  11.016  0.00  0.00    -0.083 Cl
ATOM     30  C   UNK d   1      19.148  78.012   7.624  0.00  0.00     0.002 A 
ATOM     31  C   UNK d   1      19.936  76.939   8.022  0.00  0.00     0.001 A 
ATOM     32  C   UNK d   1      20.458  76.855   9.294  0.00  0.00     0.015 A 
ENDBRANCH   9  26
TORSDOF 5
ENDMDL
