/Users/jonathanwahrer/Desktop/Msc/3_Semester/Drug_Design_Praktikum/waehrer_HTS_screening/HTS_experiment/out/docking_results/vina_output/6e43/0610_docked.pdbqt
 OpenBabel03212220023D

 32 35  0  0  0  0  0  0  0  0999 V2000
   17.4890   73.8030   12.7710 Br  0  0  0  0  0  0  0  0  0  0  0  0
   18.8720   75.0530   13.1760 C   0  0  0  0  0  0  0  0  0  0  0  0
   19.3160   75.9580   12.2150 C   0  0  0  0  0  3  0  0  0  0  0  0
   20.3210   76.8690   12.5090 C   0  0  0  0  0  0  0  0  0  0  0  0
   20.8930   76.8830   13.7630 C   0  0  0  0  0  0  0  0  0  0  0  0
   21.8740   77.7740   14.0540 N   0  0  0  0  0  0  0  0  0  0  0  0
   22.3160   78.6610   13.1450 C   0  0  0  0  0  0  0  0  0  0  0  0
   21.7500   78.6330   11.9320 N   0  0  0  0  0  0  0  0  0  0  0  0
   20.7750   77.7770   11.5750 C   0  0  0  0  0  0  0  0  0  0  0  0
   20.4340   75.9690   14.7040 C   0  0  0  0  0  3  0  0  0  0  0  0
   19.4370   75.0580   14.4340 C   0  0  0  0  0  3  0  0  0  0  0  0
   23.3520   79.5900   13.4890 N   0  0  0  0  0  4  0  0  0  0  0  0
   24.3530   78.9380   14.2890 C   0  0  0  0  0  2  0  0  0  0  0  0
   23.9470   78.6910   15.7020 C   0  0  0  0  0  2  0  0  0  0  0  0
   22.7600   79.4260   16.0760 N   0  0  0  0  0  0  0  0  0  0  0  0
   22.6250   80.7610   15.5360 C   0  0  0  0  0  2  0  0  0  0  0  0
   21.8180   78.8080   16.9330 C   0  0  0  0  0  0  0  0  0  0  0  0
   22.8560   80.8060   14.0570 C   0  0  0  0  0  2  0  0  0  0  0  0
   22.0020   77.6480   17.3610 O   0  0  0  0  0  0  0  0  0  0  0  0
   23.8260   79.8090   12.5620 H   0  0  0  0  0  0  0  0  0  0  0  0
   20.6120   79.6120   17.2880 C   0  0  0  0  0  2  0  0  0  0  0  0
   20.5540   79.8960   18.7580 C   0  0  0  0  0  2  0  0  0  0  0  0
   19.4730   79.1750   19.4480 C   0  0  0  0  0  0  0  0  0  0  0  0
   19.5190   77.9390   19.6210 O   0  0  0  0  0  0  0  0  0  0  0  0
   18.3830   79.8780   19.9170 O   0  0  0  0  0  1  0  0  0  0  0  0
   20.2250   77.8290   10.2300 C   0  0  0  0  0  0  0  0  0  0  0  0
   19.4390   78.9030    9.8340 C   0  0  0  0  0  0  0  0  0  0  0  0
   18.9120   78.9940    8.5640 C   0  0  0  0  0  3  0  0  0  0  0  0
   19.1180   80.1740   11.0160 Cl  0  0  0  0  0  0  0  0  0  0  0  0
   19.1480   78.0120    7.6240 C   0  0  0  0  0  3  0  0  0  0  0  0
   19.9360   76.9390    8.0220 C   0  0  0  0  0  3  0  0  0  0  0  0
   20.4580   76.8550    9.2940 C   0  0  0  0  0  3  0  0  0  0  0  0
  1  2  1  0  0  0  0
  2 11  1  0  0  0  0
  3  4  1  0  0  0  0
  3  2  2  0  0  0  0
  4  5  2  0  0  0  0
  5  6  1  0  0  0  0
  5 10  1  0  0  0  0
  7 12  1  0  0  0  0
  7  6  2  0  0  0  0
  8  7  1  0  0  0  0
  9  8  2  0  0  0  0
  9  4  1  0  0  0  0
 11 10  2  0  0  0  0
 12 18  1  0  0  0  0
 12 13  1  0  0  0  0
 13 14  1  0  0  0  0
 14 15  1  0  0  0  0
 15 17  1  0  0  0  0
 16 15  1  0  0  0  0
 17 21  1  0  0  0  0
 17 19  2  0  0  0  0
 18 16  1  0  0  0  0
 20 12  1  0  0  0  0
 21 22  1  0  0  0  0
 22 23  1  0  0  0  0
 23 24  2  0  0  0  0
 23 25  1  0  0  0  0
 26  9  1  0  0  0  0
 27 26  1  0  0  0  0
 27 29  1  0  0  0  0
 28 27  2  0  0  0  0
 30 31  2  0  0  0  0
 30 28  1  0  0  0  0
 31 32  1  0  0  0  0
 32 26  2  0  0  0  0
M  END
>  <Pose>
1

>  <Score>
-9.817

$$$$
