MODEL 1
REMARK VINA RESULT:   -10.798      0.000      0.000
REMARK INTER + INTRA:         -15.394
REMARK INTER:                 -14.586
REMARK INTRA:                  -0.808
REMARK UNBOUND:                -0.808
REMARK  6 active torsions:
REMARK  status: ('A' for Active; 'I' for Inactive)
REMARK    1  A    between atoms: C_7  and  N_17 
REMARK    2  A    between atoms: C_9  and  C_10 
REMARK       I    between atoms: N_20  and  C_23 
REMARK    3  A    between atoms: C_23  and  C_25 
REMARK    4  A    between atoms: C_25  and  C_26 
REMARK    5  A    between atoms: C_26  and  C_27 
REMARK    6  A    between atoms: C_27  and  C_28 
ROOT
ATOM      1 Br   UNK d   1      19.046  75.033   7.753  0.00  0.00    -0.051 Br
ATOM      2  C   UNK d   1      19.420  75.794   9.467  0.00  0.00     0.011 A 
ATOM      3  C   UNK d   1      19.138  75.124  10.644  0.00  0.00     0.035 A 
ATOM      4  C   UNK d   1      19.395  75.645  11.894  0.00  0.00     0.024 A 
ATOM      5  C   UNK d   1      19.964  76.900  12.009  0.00  0.00     0.073 A 
ATOM      6  N   UNK d   1      20.217  77.434  13.229  0.00  0.00    -0.207 NA
ATOM      7  C   UNK d   1      19.937  76.786  14.372  0.00  0.00     0.327 A 
ATOM      8  N   UNK d   1      19.385  75.564  14.262  0.00  0.00    -0.206 NA
ATOM      9  C   UNK d   1      19.112  74.986  13.068  0.00  0.00     0.085 A 
ATOM     10  C   UNK d   1      20.248  77.574  10.842  0.00  0.00     0.034 A 
ATOM     11  C   UNK d   1      19.986  77.044   9.584  0.00  0.00     0.021 A 
ENDROOT
BRANCH   7  12
ATOM     12  N   UNK d   1      20.218  77.378  15.635  0.00  0.00    -0.004 N 
ATOM     13  C   UNK d   1      21.573  77.881  15.682  0.00  0.00     0.265 C 
ATOM     14  C   UNK d   1      21.676  78.864  16.805  0.00  0.00     0.154 C 
ATOM     15  N   UNK d   1      20.523  78.704  17.668  0.00  0.00    -0.349 N 
ATOM     16  C   UNK d   1      20.133  77.348  18.010  0.00  0.00     0.154 C 
ATOM     17  C   UNK d   1      19.849  79.848  18.125  0.00  0.00     0.219 C 
ATOM     18  C   UNK d   1      20.045  76.481  16.748  0.00  0.00     0.265 C 
ATOM     19  O   UNK d   1      18.850  79.683  18.869  0.00  0.00    -0.273 OA
ATOM     20  H   UNK d   1      19.552  78.168  15.758  0.00  0.00     0.290 HD
BRANCH  17  21
ATOM     21  C   UNK d   1      20.268  81.205  17.766  0.00  0.00     0.103 C 
BRANCH  21  22
ATOM     22  C   UNK d   1      19.896  82.161  18.862  0.00  0.00     0.020 C 
BRANCH  22  23
ATOM     23  C   UNK d   1      20.700  83.442  18.815  0.00  0.00     0.113 C 
BRANCH  23  24
ATOM     24  C   UNK d   1      19.866  84.644  18.621  0.00  0.00     0.172 C 
ATOM     25  O   UNK d   1      19.011  84.901  19.501  0.00  0.00    -0.648 OA
ATOM     26  O   UNK d   1      20.042  85.439  17.499  0.00  0.00    -0.648 OA
ENDBRANCH  23  24
ENDBRANCH  22  23
ENDBRANCH  21  22
ENDBRANCH  17  21
ENDBRANCH   7  12
BRANCH   9  27
ATOM     27  C   UNK d   1      18.512  73.662  13.007  0.00  0.00     0.015 A 
ATOM     28  C   UNK d   1      19.237  72.516  13.292  0.00  0.00     0.046 A 
ATOM     29  C   UNK d   1      18.683  71.250  13.218  0.00  0.00     0.025 A 
ATOM     30 Cl   UNK d   1      20.923  72.664  13.763  0.00  0.00    -0.083 Cl
ATOM     31  C   UNK d   1      17.339  71.155  12.841  0.00  0.00     0.002 A 
ATOM     32  C   UNK d   1      16.589  72.276  12.551  0.00  0.00     0.001 A 
ATOM     33  C   UNK d   1      17.175  73.498  12.635  0.00  0.00     0.015 A 
ENDBRANCH   9  27
TORSDOF 6
ENDMDL
