MODEL 1
REMARK VINA RESULT:    -8.864      0.000      0.000
REMARK INTER + INTRA:         -10.417
REMARK INTER:                 -10.418
REMARK INTRA:                   0.001
REMARK UNBOUND:                 0.001
REMARK  3 active torsions:
REMARK  status: ('A' for Active; 'I' for Inactive)
REMARK    1  A    between atoms: C_7  and  C_9 
REMARK       I    between atoms: C_9  and  N_11 
REMARK       I    between atoms: N_14  and  C_17 
REMARK    2  A    between atoms: C_17  and  C_19 
REMARK    3  A    between atoms: C_19  and  N_20 
ROOT
ATOM      1  C   UNK d   1      20.753  77.196  16.920  0.00  0.00     0.270 C 
ATOM      2  O   UNK d   1      20.795  76.403  17.937  0.00  0.00    -0.266 OA
ATOM      3  N   UNK d   1      21.186  78.501  17.153  0.00  0.00    -0.344 N 
ATOM      4  C   UNK d   1      21.222  79.573  16.196  0.00  0.00     0.146 C 
ATOM      5  C   UNK d   1      21.702  80.890  16.819  0.00  0.00     0.145 C 
ATOM      6  N   UNK d   1      20.971  81.109  18.057  0.00  0.00    -0.348 N 
ATOM      7  C   UNK d   1      20.762  79.997  18.986  0.00  0.00     0.145 C 
ATOM      8  C   UNK d   1      21.682  78.871  18.506  0.00  0.00     0.146 C 
ATOM      9  C   UNK d   1      20.450  82.381  18.384  0.00  0.00     0.248 C 
ATOM     10  O   UNK d   1      20.643  83.307  17.561  0.00  0.00    -0.271 OA
ENDROOT
BRANCH   1  11
ATOM     11  C   UNK d   1      20.270  76.672  15.658  0.00  0.00     0.102 A 
ATOM     12  N   UNK d   1      19.491  75.629  15.360  0.00  0.00    -0.351 N 
ATOM     13  C   UNK d   1      19.311  75.515  14.008  0.00  0.00     0.043 A 
ATOM     14  H   UNK d   1      19.049  74.962  16.010  0.00  0.00     0.166 HD
ATOM     15  C   UNK d   1      20.000  76.526  13.396  0.00  0.00    -0.006 A 
ATOM     16  C   UNK d   1      18.604  74.618  13.230  0.00  0.00     0.031 A 
ATOM     17  C   UNK d   1      19.979  76.635  12.002  0.00  0.00     0.032 A 
ATOM     18  C   UNK d   1      20.590  77.240  14.399  0.00  0.00     0.049 A 
ATOM     19  C   UNK d   1      19.281  75.749  11.224  0.00  0.00     0.011 A 
ATOM     20 Br   UNK d   1      19.247  75.889   9.311  0.00  0.00    -0.051 Br
ATOM     21  C   UNK d   1      18.590  74.734  11.848  0.00  0.00     0.021 A 
ENDBRANCH   1  11
BRANCH   9  22
ATOM     22  C   UNK d   1      19.725  82.557  19.633  0.00  0.00     0.374 C 
BRANCH  22  23
ATOM     23  N   UNK d   1      20.311  83.506  20.552  0.00  0.00     0.101 N 
ATOM     24  C   UNK d   1      20.337  82.917  21.893  0.00  0.00     0.299 C 
ATOM     25  C   UNK d   1      19.167  83.365  22.698  0.00  0.00     0.198 C 
ATOM     26  O   UNK d   1      18.039  83.507  21.893  0.00  0.00    -0.388 OA
ATOM     27  C   UNK d   1      18.168  84.595  21.028  0.00  0.00     0.198 C 
ATOM     28  C   UNK d   1      19.602  84.773  20.585  0.00  0.00     0.299 C 
ENDBRANCH  22  23
ENDBRANCH   9  22
TORSDOF 3
ENDMDL
