/Users/jonathanwahrer/Desktop/Msc/3_Semester/Drug_Design_Praktikum/waehrer_HTS_screening/HTS_experiment/out/docking_results/vina_output/6e43/0616_docked.pdbqt
 OpenBabel03212220023D

 28 31  0  0  0  0  0  0  0  0999 V2000
   20.7530   77.1960   16.9200 C   0  0  0  0  0  0  0  0  0  0  0  0
   20.7950   76.4030   17.9370 O   0  0  0  0  0  0  0  0  0  0  0  0
   21.1860   78.5010   17.1530 N   0  0  0  0  0  0  0  0  0  0  0  0
   21.2220   79.5730   16.1960 C   0  0  0  0  0  2  0  0  0  0  0  0
   21.7020   80.8900   16.8190 C   0  0  0  0  0  2  0  0  0  0  0  0
   20.9710   81.1090   18.0570 N   0  0  0  0  0  0  0  0  0  0  0  0
   20.7620   79.9970   18.9860 C   0  0  0  0  0  2  0  0  0  0  0  0
   21.6820   78.8710   18.5060 C   0  0  0  0  0  2  0  0  0  0  0  0
   20.4500   82.3810   18.3840 C   0  0  0  0  0  0  0  0  0  0  0  0
   20.6430   83.3070   17.5610 O   0  0  0  0  0  0  0  0  0  0  0  0
   20.2700   76.6720   15.6580 C   0  0  0  0  0  0  0  0  0  0  0  0
   19.4910   75.6290   15.3600 N   0  0  0  0  0  0  0  0  0  0  0  0
   19.3110   75.5150   14.0080 C   0  0  0  0  0  0  0  0  0  0  0  0
   19.0490   74.9620   16.0100 H   0  0  0  0  0  0  0  0  0  0  0  0
   20.0000   76.5260   13.3960 C   0  0  0  0  0  0  0  0  0  0  0  0
   18.6040   74.6180   13.2300 C   0  0  0  0  0  3  0  0  0  0  0  0
   19.9790   76.6350   12.0020 C   0  0  0  0  0  3  0  0  0  0  0  0
   20.5900   77.2400   14.3990 C   0  0  0  0  0  3  0  0  0  0  0  0
   19.2810   75.7490   11.2240 C   0  0  0  0  0  0  0  0  0  0  0  0
   19.2470   75.8890    9.3110 Br  0  0  0  0  0  0  0  0  0  0  0  0
   18.5900   74.7340   11.8480 C   0  0  0  0  0  3  0  0  0  0  0  0
   19.7250   82.5570   19.6330 C   0  0  0  0  0  2  0  0  0  0  0  0
   20.3110   83.5060   20.5520 N   0  0  0  0  0  0  0  0  0  0  0  0
   20.3370   82.9170   21.8930 C   0  0  0  0  0  2  0  0  0  0  0  0
   19.1670   83.3650   22.6980 C   0  0  0  0  0  2  0  0  0  0  0  0
   18.0390   83.5070   21.8930 O   0  0  0  0  0  0  0  0  0  0  0  0
   18.1680   84.5950   21.0280 C   0  0  0  0  0  2  0  0  0  0  0  0
   19.6020   84.7730   20.5850 C   0  0  0  0  0  2  0  0  0  0  0  0
  1  3  1  0  0  0  0
  1  2  2  0  0  0  0
  3  8  1  0  0  0  0
  4  5  1  0  0  0  0
  4  3  1  0  0  0  0
  5  6  1  0  0  0  0
  6  9  1  0  0  0  0
  6  7  1  0  0  0  0
  8  7  1  0  0  0  0
  9 22  1  0  0  0  0
 10  9  2  0  0  0  0
 11  1  1  0  0  0  0
 12 11  1  0  0  0  0
 12 14  1  0  0  0  0
 13 12  1  0  0  0  0
 15 13  1  0  0  0  0
 15 18  1  0  0  0  0
 16 13  2  0  0  0  0
 17 15  2  0  0  0  0
 18 11  2  0  0  0  0
 19 21  2  0  0  0  0
 19 17  1  0  0  0  0
 20 19  1  0  0  0  0
 21 16  1  0  0  0  0
 22 23  1  0  0  0  0
 23 28  1  0  0  0  0
 23 24  1  0  0  0  0
 24 25  1  0  0  0  0
 26 25  1  0  0  0  0
 27 26  1  0  0  0  0
 28 27  1  0  0  0  0
M  END
>  <Pose>
1

>  <Score>
-8.864

$$$$
