MODEL 1
REMARK VINA RESULT:    -8.824      0.000      0.000
REMARK INTER + INTRA:          -9.481
REMARK INTER:                  -9.339
REMARK INTRA:                  -0.141
REMARK UNBOUND:                -0.141
REMARK  1 active torsions:
REMARK  status: ('A' for Active; 'I' for Inactive)
REMARK    1  A    between atoms: C_10  and  C_15 
REMARK       I    between atoms: C_15  and  N_17 
ROOT
ATOM      1 Br   UNK d   1      19.987  82.808  19.571  0.00  0.00    -0.051 Br
ATOM      2  C   UNK d   1      20.347  81.246  18.542  0.00  0.00     0.012 A 
ATOM      3  C   UNK d   1      19.841  80.036  18.969  0.00  0.00     0.028 A 
ATOM      4  C   UNK d   1      20.088  78.869  18.234  0.00  0.00    -0.027 A 
ATOM      5  C   UNK d   1      20.832  78.969  17.103  0.00  0.00     0.055 A 
ATOM      6  C   UNK d   1      21.357  80.155  16.637  0.00  0.00     0.044 A 
ATOM      7  C   UNK d   1      21.103  81.283  17.373  0.00  0.00     0.037 A 
ATOM      8  C   UNK d   1      22.090  80.111  15.481  0.00  0.00     0.201 A 
ATOM      9  O   UNK d   1      22.569  81.173  15.050  0.00  0.00    -0.286 OA
ATOM     10  C   UNK d   1      22.314  78.936  14.780  0.00  0.00     0.098 A 
ATOM     11  C   UNK d   1      21.760  77.785  15.299  0.00  0.00     0.112 A 
ATOM     12  N   UNK d   1      21.025  77.818  16.457  0.00  0.00    -0.354 N 
ATOM     13  C   UNK d   1      20.347  76.785  17.207  0.00  0.00     0.133 A 
ATOM     14  C   UNK d   1      19.714  77.454  18.396  0.00  0.00     0.061 A 
ENDROOT
BRANCH  10  15
ATOM     15  C   UNK d   1      23.096  78.907  13.548  0.00  0.00     0.259 C 
ATOM     16  O   UNK d   1      24.342  79.013  13.614  0.00  0.00    -0.267 OA
ATOM     17  N   UNK d   1      22.454  78.760  12.274  0.00  0.00    -0.344 N 
ATOM     18  C   UNK d   1      23.206  78.729  11.038  0.00  0.00     0.152 C 
ATOM     19  C   UNK d   1      21.013  78.637  12.173  0.00  0.00     0.152 C 
ATOM     20  C   UNK d   1      22.591  79.811  10.140  0.00  0.00     0.187 C 
ATOM     21  O   UNK d   1      21.236  79.607  10.047  0.00  0.00    -0.388 OA
ATOM     22  C   UNK d   1      20.557  79.760  11.238  0.00  0.00     0.187 C 
ENDBRANCH  10  15
TORSDOF 1
ENDMDL
