/Users/jonathanwahrer/Desktop/Msc/3_Semester/Drug_Design_Praktikum/waehrer_HTS_screening/HTS_experiment/out/docking_results/vina_output/6e43/0625_docked.pdbqt
 OpenBabel03212220023D

 31 34  0  0  0  0  0  0  0  0999 V2000
   22.5260   81.0280   10.6430 Br  0  0  0  0  0  0  0  0  0  0  0  0
   21.8050   79.6410   11.6960 C   0  0  0  0  0  0  0  0  0  0  0  0
   21.9280   79.6470   13.0760 C   0  0  0  0  0  3  0  0  0  0  0  0
   21.4290   78.6460   13.8590 C   0  0  0  0  0  0  0  0  0  0  0  0
   21.4050   78.5140   15.2190 N   0  0  0  0  0  0  0  0  0  0  0  0
   20.7280   77.3860   15.4960 C   0  0  0  0  0  0  0  0  0  0  0  0
   20.3370   76.7670   14.2780 C   0  0  0  0  0  0  0  0  0  0  0  0
   20.7920   77.6010   13.2890 C   0  0  0  0  0  0  0  0  0  0  0  0
   20.6530   77.5730   11.8990 C   0  0  0  0  0  3  0  0  0  0  0  0
   21.1520   78.5840   11.0910 C   0  0  0  0  0  0  0  0  0  0  0  0
   22.2810   79.3310   16.0810 C   0  0  0  0  0  2  0  0  0  0  0  0
   23.6720   78.6610   15.9930 C   0  0  0  0  0  0  0  0  0  0  0  0
   24.7170   79.4270   16.4210 C   0  0  0  0  0  3  0  0  0  0  0  0
   26.0110   78.8810   16.3820 C   0  0  0  0  0  3  0  0  0  0  0  0
   26.2650   77.6160   15.9410 C   0  0  0  0  0  3  0  0  0  0  0  0
   25.1640   76.8720   15.5180 C   0  0  0  0  0  3  0  0  0  0  0  0
   23.8690   77.4060   15.5460 C   0  0  0  0  0  3  0  0  0  0  0  0
   20.3320   76.8300   16.7900 C   0  0  0  0  0  2  0  0  0  0  0  0
   19.7210   77.6900   17.7560 N   0  0  0  0  0  4  0  0  0  0  0  0
   19.0700   78.8690   17.6030 C   0  0  0  0  0  2  0  0  0  0  0  0
   19.3580   79.7310   18.8560 C   0  0  0  0  0  2  0  0  0  0  0  0
   19.6390   78.6300   19.8760 C   0  0  0  0  0  2  0  0  0  0  0  0
   20.5010   77.7270   19.0040 C   0  0  0  0  0  2  0  0  0  0  0  0
   18.8980   76.9410   18.1490 H   0  0  0  0  0  0  0  0  0  0  0  0
   19.7510   75.4330   14.0880 C   0  0  0  0  0  0  0  0  0  0  0  0
   20.4690   74.4400   14.3820 O   0  0  0  0  0  0  0  0  0  0  0  0
   18.4990   75.1780   13.6360 O   0  0  0  0  0  0  0  0  0  0  0  0
   17.9920   74.1660   12.8430 C   0  0  0  0  0  2  0  0  0  0  0  0
   18.5150   74.1590   11.4120 C   0  0  0  0  0  1  0  0  0  0  0  0
   21.0210   78.5900    9.6900 O   0  0  0  0  0  0  0  0  0  0  0  0
   21.4350   79.3650    9.1530 H   0  0  0  0  0  0  0  0  0  0  0  0
  1  2  1  0  0  0  0
  2  3  1  0  0  0  0
  3  4  2  0  0  0  0
  4  5  1  0  0  0  0
  5  6  1  0  0  0  0
  5 11  1  0  0  0  0
  6 18  1  0  0  0  0
  7  6  2  0  0  0  0
  8  4  1  0  0  0  0
  8  7  1  0  0  0  0
  9  8  2  0  0  0  0
 10  2  2  0  0  0  0
 10  9  1  0  0  0  0
 12 11  1  0  0  0  0
 12 13  1  0  0  0  0
 14 13  2  0  0  0  0
 15 14  1  0  0  0  0
 16 17  1  0  0  0  0
 16 15  2  0  0  0  0
 17 12  2  0  0  0  0
 18 19  1  0  0  0  0
 19 24  1  0  0  0  0
 19 23  1  0  0  0  0
 20 19  1  0  0  0  0
 20 21  1  0  0  0  0
 21 22  1  0  0  0  0
 23 22  1  0  0  0  0
 25  7  1  0  0  0  0
 25 26  2  0  0  0  0
 27 25  1  0  0  0  0
 28 27  1  0  0  0  0
 29 28  1  0  0  0  0
 30 10  1  0  0  0  0
 31 30  1  0  0  0  0
M  END
>  <Pose>
1

>  <Score>
-9.603

$$$$
