MODEL 1
REMARK VINA RESULT:    -9.603      0.000      0.000
REMARK INTER + INTRA:         -14.808
REMARK INTER:                 -13.813
REMARK INTRA:                  -0.994
REMARK UNBOUND:                -0.994
REMARK  8 active torsions:
REMARK  status: ('A' for Active; 'I' for Inactive)
REMARK    1  A    between atoms: N_5  and  C_23 
REMARK    2  A    between atoms: C_6  and  C_17 
REMARK    3  A    between atoms: C_7  and  C_12 
REMARK    4  A    between atoms: C_10  and  O_11 
REMARK    5  A    between atoms: C_12  and  O_14 
REMARK    6  A    between atoms: O_14  and  C_15 
REMARK    7  A    between atoms: C_17  and  N_18 
REMARK    8  A    between atoms: C_23  and  C_24 
ROOT
ATOM      1 Br   UNK d   1      22.526  81.028  10.643  0.00  0.00    -0.048 Br
ATOM      2  C   UNK d   1      21.805  79.641  11.696  0.00  0.00     0.046 A 
ATOM      3  C   UNK d   1      21.928  79.647  13.076  0.00  0.00     0.052 A 
ATOM      4  C   UNK d   1      21.429  78.646  13.859  0.00  0.00     0.048 A 
ATOM      5  N   UNK d   1      21.405  78.514  15.219  0.00  0.00    -0.343 N 
ATOM      6  C   UNK d   1      20.728  77.386  15.496  0.00  0.00     0.055 A 
ATOM      7  C   UNK d   1      20.337  76.767  14.278  0.00  0.00     0.076 A 
ATOM      8  C   UNK d   1      20.792  77.601  13.289  0.00  0.00     0.012 A 
ATOM      9  C   UNK d   1      20.653  77.573  11.899  0.00  0.00     0.052 A 
ATOM     10  C   UNK d   1      21.152  78.584  11.091  0.00  0.00     0.084 A 
ENDROOT
BRANCH   5  11
ATOM     11  C   UNK d   1      22.281  79.331  16.081  0.00  0.00     0.167 C 
BRANCH  11  12
ATOM     12  C   UNK d   1      23.672  78.661  15.993  0.00  0.00    -0.040 A 
ATOM     13  C   UNK d   1      24.717  79.427  16.421  0.00  0.00     0.009 A 
ATOM     14  C   UNK d   1      26.011  78.881  16.382  0.00  0.00     0.001 A 
ATOM     15  C   UNK d   1      26.265  77.616  15.941  0.00  0.00     0.000 A 
ATOM     16  C   UNK d   1      25.164  76.872  15.518  0.00  0.00     0.001 A 
ATOM     17  C   UNK d   1      23.869  77.406  15.546  0.00  0.00     0.009 A 
ENDBRANCH  11  12
ENDBRANCH   5  11
BRANCH   6  18
ATOM     18  C   UNK d   1      20.332  76.830  16.790  0.00  0.00     0.292 C 
BRANCH  18  19
ATOM     19  N   UNK d   1      19.721  77.690  17.756  0.00  0.00    -0.066 N 
ATOM     20  C   UNK d   1      19.070  78.869  17.603  0.00  0.00     0.235 C 
ATOM     21  C   UNK d   1      19.358  79.731  18.856  0.00  0.00     0.029 C 
ATOM     22  C   UNK d   1      19.639  78.630  19.876  0.00  0.00     0.029 C 
ATOM     23  C   UNK d   1      20.501  77.727  19.004  0.00  0.00     0.235 C 
ATOM     24  H   UNK d   1      18.898  76.941  18.149  0.00  0.00     0.280 HD
ENDBRANCH  18  19
ENDBRANCH   6  18
BRANCH   7  25
ATOM     25  C   UNK d   1      19.751  75.433  14.088  0.00  0.00     0.296 C 
ATOM     26  O   UNK d   1      20.469  74.440  14.382  0.00  0.00    -0.259 OA
BRANCH  25  27
ATOM     27  O   UNK d   1      18.499  75.178  13.636  0.00  0.00    -0.318 OA
BRANCH  27  28
ATOM     28  C   UNK d   1      17.992  74.166  12.843  0.00  0.00     0.174 C 
ATOM     29  C   UNK d   1      18.515  74.159  11.412  0.00  0.00     0.034 C 
ENDBRANCH  27  28
ENDBRANCH  25  27
ENDBRANCH   7  25
BRANCH  10  30
ATOM     30  O   UNK d   1      21.021  78.590   9.690  0.00  0.00    -0.359 OA
ATOM     31  H   UNK d   1      21.435  79.365   9.153  0.00  0.00     0.217 HD
ENDBRANCH  10  30
TORSDOF 8
ENDMDL
