MODEL 1
REMARK VINA RESULT:    -9.041      0.000      0.000
REMARK INTER + INTRA:         -13.049
REMARK INTER:                 -12.477
REMARK INTRA:                  -0.573
REMARK UNBOUND:                -0.573
REMARK  7 active torsions:
REMARK  status: ('A' for Active; 'I' for Inactive)
REMARK    1  A    between atoms: C_6  and  O_28 
REMARK    2  A    between atoms: C_10  and  N_11 
REMARK       I    between atoms: N_11  and  C_12 
REMARK    3  A    between atoms: C_12  and  C_14 
REMARK    4  A    between atoms: C_14  and  N_15 
REMARK    5  A    between atoms: N_18  and  C_21 
REMARK    6  A    between atoms: C_21  and  C_22 
REMARK       I    between atoms: C_22  and  N_24 
REMARK    7  A    between atoms: N_24  and  C_25 
ROOT
ATOM      1  N   UNK d   1      20.426  78.156  11.411  0.00  0.00    -0.324 N 
ATOM      2  C   UNK d   1      21.742  78.587  11.619  0.00  0.00     0.239 C 
ATOM      3  O   UNK d   1      22.541  78.668  10.652  0.00  0.00    -0.271 OA
ATOM      4  H   UNK d   1      19.819  78.138  12.288  0.00  0.00     0.169 HD
ENDROOT
BRANCH   2   5
ATOM      5  C   UNK d   1      22.282  78.968  12.929  0.00  0.00     0.220 C 
BRANCH   5   6
ATOM      6  N   UNK d   1      21.570  78.581  14.081  0.00  0.00    -0.401 N 
ATOM      7  C   UNK d   1      21.505  77.201  14.399  0.00  0.00     0.136 C 
ATOM      8  C   UNK d   1      20.356  76.882  15.356  0.00  0.00     0.136 C 
ATOM      9  N   UNK d   1      20.486  77.710  16.478  0.00  0.00    -0.401 N 
ATOM     10  C   UNK d   1      21.474  78.717  16.470  0.00  0.00     0.136 C 
ATOM     11  C   UNK d   1      21.651  79.473  15.188  0.00  0.00     0.136 C 
BRANCH   9  12
ATOM     12  C   UNK d   1      19.374  77.820  17.309  0.00  0.00     0.219 C 
BRANCH  12  13
ATOM     13  C   UNK d   1      19.476  78.642  18.515  0.00  0.00     0.235 C 
ATOM     14  O   UNK d   1      19.919  78.027  19.562  0.00  0.00    -0.272 OA
ATOM     15  N   UNK d   1      19.160  79.988  18.666  0.00  0.00    -0.355 N 
ATOM     16  H   UNK d   1      18.809  80.541  17.858  0.00  0.00     0.162 HD
BRANCH  15  17
ATOM     17  C   UNK d   1      19.305  80.708  19.928  0.00  0.00     0.084 A 
ATOM     18  C   UNK d   1      20.506  81.513  20.206  0.00  0.00     0.027 A 
ATOM     19  C   UNK d   1      19.199  82.218  19.890  0.00  0.00     0.027 A 
ENDBRANCH  15  17
ENDBRANCH  12  13
ENDBRANCH   9  12
ENDBRANCH   5   6
ENDBRANCH   2   5
BRANCH   1  20
ATOM     20  C   UNK d   1      19.828  77.770  10.191  0.00  0.00     0.054 A 
ATOM     21  C   UNK d   1      19.018  78.675   9.523  0.00  0.00     0.040 A 
ATOM     22 Br   UNK d   1      18.749  80.392  10.335  0.00  0.00    -0.049 Br
ATOM     23  C   UNK d   1      18.400  78.403   8.324  0.00  0.00     0.055 A 
ATOM     24  C   UNK d   1      18.562  77.182   7.717  0.00  0.00     0.089 A 
ATOM     25  N   UNK d   1      18.124  76.598   6.586  0.00  0.00    -0.207 NA
ATOM     26  C   UNK d   1      19.356  76.275   8.360  0.00  0.00     0.066 A 
ATOM     27  C   UNK d   1      18.611  75.347   6.483  0.00  0.00     0.244 A 
ATOM     28  N   UNK d   1      19.364  75.172   7.583  0.00  0.00    -0.319 N 
ATOM     29  H   UNK d   1      19.898  74.289   7.820  0.00  0.00     0.169 HD
ATOM     30  C   UNK d   1      19.989  76.547   9.581  0.00  0.00     0.063 A 
BRANCH  27  31
ATOM     31  O   UNK d   1      18.373  74.432   5.439  0.00  0.00    -0.331 OA
ATOM     32  H   UNK d   1      18.570  73.449   5.667  0.00  0.00     0.221 HD
ENDBRANCH  27  31
ENDBRANCH   1  20
TORSDOF 7
ENDMDL
