/Users/jonathanwahrer/Desktop/Msc/3_Semester/Drug_Design_Praktikum/waehrer_HTS_screening/HTS_experiment/out/docking_results/vina_output/6e43/0626_docked.pdbqt
 OpenBabel03212220033D

 32 35  0  0  0  0  0  0  0  0999 V2000
   20.4260   78.1560   11.4110 N   0  0  0  0  0  0  0  0  0  0  0  0
   21.7420   78.5870   11.6190 C   0  0  0  0  0  0  0  0  0  0  0  0
   22.5410   78.6680   10.6520 O   0  0  0  0  0  0  0  0  0  0  0  0
   19.8190   78.1380   12.2880 H   0  0  0  0  0  0  0  0  0  0  0  0
   22.2820   78.9680   12.9290 C   0  0  0  0  0  2  0  0  0  0  0  0
   21.5700   78.5810   14.0810 N   0  0  0  0  0  0  0  0  0  0  0  0
   21.5050   77.2010   14.3990 C   0  0  0  0  0  2  0  0  0  0  0  0
   20.3560   76.8820   15.3560 C   0  0  0  0  0  2  0  0  0  0  0  0
   20.4860   77.7100   16.4780 N   0  0  0  0  0  0  0  0  0  0  0  0
   21.4740   78.7170   16.4700 C   0  0  0  0  0  2  0  0  0  0  0  0
   21.6510   79.4730   15.1880 C   0  0  0  0  0  2  0  0  0  0  0  0
   19.3740   77.8200   17.3090 C   0  0  0  0  0  2  0  0  0  0  0  0
   19.4760   78.6420   18.5150 C   0  0  0  0  0  0  0  0  0  0  0  0
   19.9190   78.0270   19.5620 O   0  0  0  0  0  0  0  0  0  0  0  0
   19.1600   79.9880   18.6660 N   0  0  0  0  0  0  0  0  0  0  0  0
   18.8090   80.5410   17.8580 H   0  0  0  0  0  0  0  0  0  0  0  0
   19.3050   80.7080   19.9280 C   0  0  0  0  0  3  0  0  0  0  0  0
   20.5060   81.5130   20.2060 C   0  0  0  0  0  2  0  0  0  0  0  0
   19.1990   82.2180   19.8900 C   0  0  0  0  0  2  0  0  0  0  0  0
   19.8280   77.7700   10.1910 C   0  0  0  0  0  0  0  0  0  0  0  0
   19.0180   78.6750    9.5230 C   0  0  0  0  0  0  0  0  0  0  0  0
   18.7490   80.3920   10.3350 Br  0  0  0  0  0  0  0  0  0  0  0  0
   18.4000   78.4030    8.3240 C   0  0  0  0  0  3  0  0  0  0  0  0
   18.5620   77.1820    7.7170 C   0  0  0  0  0  0  0  0  0  0  0  0
   18.1240   76.5980    6.5860 N   0  0  0  0  0  0  0  0  0  0  0  0
   19.3560   76.2750    8.3600 C   0  0  0  0  0  0  0  0  0  0  0  0
   18.6110   75.3470    6.4830 C   0  0  0  0  0  0  0  0  0  0  0  0
   19.3640   75.1720    7.5830 N   0  0  0  0  0  0  0  0  0  0  0  0
   19.8980   74.2890    7.8200 H   0  0  0  0  0  0  0  0  0  0  0  0
   19.9890   76.5470    9.5810 C   0  0  0  0  0  3  0  0  0  0  0  0
   18.3730   74.4320    5.4390 O   0  0  0  0  0  0  0  0  0  0  0  0
   18.5700   73.4490    5.6670 H   0  0  0  0  0  0  0  0  0  0  0  0
  1  2  1  0  0  0  0
  1  4  1  0  0  0  0
  2  5  1  0  0  0  0
  3  2  2  0  0  0  0
  5  6  1  0  0  0  0
  6  7  1  0  0  0  0
  6 11  1  0  0  0  0
  7  8  1  0  0  0  0
  8  9  1  0  0  0  0
  9 12  1  0  0  0  0
 10  9  1  0  0  0  0
 11 10  1  0  0  0  0
 12 13  1  0  0  0  0
 13 15  1  0  0  0  0
 13 14  2  0  0  0  0
 15 17  1  0  0  0  0
 16 15  1  0  0  0  0
 17 18  1  0  0  0  0
 19 17  1  0  0  0  0
 19 18  1  0  0  0  0
 20  1  1  0  0  0  0
 21 20  2  0  0  0  0
 21 22  1  0  0  0  0
 23 21  1  0  0  0  0
 24 23  2  0  0  0  0
 24 26  1  0  0  0  0
 25 24  1  0  0  0  0
 26 30  2  0  0  0  0
 27 25  2  0  0  0  0
 27 28  1  0  0  0  0
 28 29  1  0  0  0  0
 28 26  1  0  0  0  0
 30 20  1  0  0  0  0
 31 32  1  0  0  0  0
 31 27  1  0  0  0  0
M  END
>  <Pose>
1

>  <Score>
-9.041

$$$$
