/Users/jonathanwahrer/Desktop/Msc/3_Semester/Drug_Design_Praktikum/waehrer_HTS_screening/HTS_experiment/out/docking_results/vina_output/6e43/0631_docked.pdbqt
 OpenBabel03212220033D

 29 32  0  0  1  0  0  0  0  0999 V2000
   21.4930   78.4860   16.8220 N   0  0  0  0  0  0  0  0  0  0  0  0
   21.0330   79.7210   17.4950 C   0  0  0  0  0  2  0  0  0  0  0  0
   20.6220   79.2250   18.8720 C   0  0  2  0  0  3  0  0  0  0  0  0
   20.1040   77.8320   18.5850 C   0  0  0  0  0  2  0  0  0  0  0  0
   20.6210   77.4420   17.2480 C   0  0  0  0  0  0  0  0  0  0  0  0
   20.3560   76.4140   16.6090 O   0  0  0  0  0  0  0  0  0  0  0  0
   19.5980   80.1730   19.3410 C   0  0  0  0  0  0  0  0  0  0  0  0
   18.4960   79.7720   19.7830 O   0  0  0  0  0  0  0  0  0  0  0  0
   19.8930   81.5610   19.2800 N   0  0  0  0  0  0  0  0  0  0  0  0
   20.8150   81.8500   18.8990 H   0  0  0  0  0  0  0  0  0  0  0  0
   18.9470   82.5600   19.7280 C   0  0  0  0  0  2  0  0  0  0  0  0
   19.6070   83.6870   20.4930 C   0  0  0  0  0  2  0  0  0  0  0  0
   20.0980   83.2150   21.8030 C   0  0  0  0  0  0  0  0  0  0  0  0
   21.1730   82.4260   21.9570 N   0  0  0  0  0  0  0  0  0  0  0  0
   21.3720   82.1720   23.2510 C   0  0  0  0  0  3  0  0  0  0  0  0
   20.3990   82.8130   23.9510 N   0  0  0  0  0  0  0  0  0  0  0  0
   19.6300   83.4450   23.0600 C   0  0  0  0  0  3  0  0  0  0  0  0
   20.3360   82.7670   24.9940 H   0  0  0  0  0  0  0  0  0  0  0  0
   22.6110   78.4850   15.9680 C   0  0  0  0  0  0  0  0  0  0  0  0
   23.9160   78.3460   16.2430 N   0  0  0  0  0  0  0  0  0  0  0  0
   24.6460   78.3990   15.1320 N   0  0  0  0  0  0  0  0  0  0  0  0
   24.3370   78.2130   17.1830 H   0  0  0  0  0  0  0  0  0  0  0  0
   23.8410   78.5760   14.0700 C   0  0  0  0  0  0  0  0  0  0  0  0
   24.0870   78.6930   12.7210 C   0  0  0  0  0  3  0  0  0  0  0  0
   22.5690   78.6320   14.5680 C   0  0  0  0  0  0  0  0  0  0  0  0
   22.9900   78.8690   11.8810 C   0  0  0  0  0  0  0  0  0  0  0  0
   23.2180   79.0420    9.9870 Br  0  0  0  0  0  0  0  0  0  0  0  0
   21.7050   78.9240   12.4030 C   0  0  0  0  0  3  0  0  0  0  0  0
   21.4850   78.8060   13.7530 C   0  0  0  0  0  3  0  0  0  0  0  0
  1  5  1  0  0  0  0
  1  2  1  0  0  0  0
  2  3  1  0  0  0  0
  3  7  1  6  0  0  0
  4  3  1  0  0  0  0
  5  4  1  0  0  0  0
  6  5  2  0  0  0  0
  7  8  2  0  0  0  0
  9  7  1  0  0  0  0
  9 11  1  0  0  0  0
 10  9  1  0  0  0  0
 11 12  1  0  0  0  0
 12 13  1  0  0  0  0
 13 14  1  0  0  0  0
 13 17  2  0  0  0  0
 14 15  2  0  0  0  0
 15 16  1  0  0  0  0
 16 18  1  0  0  0  0
 17 16  1  0  0  0  0
 19 20  1  0  0  0  0
 19  1  1  0  0  0  0
 20 22  1  0  0  0  0
 21 20  1  0  0  0  0
 23 25  1  0  0  0  0
 23 21  2  0  0  0  0
 24 23  1  0  0  0  0
 25 19  2  0  0  0  0
 26 28  1  0  0  0  0
 26 24  2  0  0  0  0
 27 26  1  0  0  0  0
 28 29  2  0  0  0  0
 29 25  1  0  0  0  0
M  END
>  <Pose>
1

>  <Score>
-9.024

$$$$
