/Users/jonathanwahrer/Desktop/Msc/3_Semester/Drug_Design_Praktikum/waehrer_HTS_screening/HTS_experiment/out/docking_results/vina_output/6e43/0648_docked.pdbqt
 OpenBabel03212220033D

 32 35  0  0  0  0  0  0  0  0999 V2000
   21.4980   80.5330   17.1820 C   0  0  0  0  0  0  0  0  0  0  0  0
   21.4830   81.4520   16.2860 O   0  0  0  0  0  0  0  0  0  0  0  0
   22.2030   79.3910   16.9070 N   0  0  0  0  0  0  0  0  0  0  0  0
   22.3250   78.2550   17.7660 C   0  0  0  0  0  2  0  0  0  0  0  0
   21.5260   77.1310   17.1930 C   0  0  0  0  0  2  0  0  0  0  0  0
   21.4060   77.2440   15.7470 N   0  0  0  0  0  0  0  0  0  0  0  0
   22.3120   77.9930   14.9400 C   0  0  0  0  0  2  0  0  0  0  0  0
   22.9200   79.2120   15.6270 C   0  0  0  0  0  2  0  0  0  0  0  0
   20.2510   76.5780   15.2130 C   0  0  0  0  0  0  0  0  0  0  0  0
   19.4310   76.0500   16.0750 O   0  0  0  0  0  0  0  0  0  0  0  0
   19.9460   76.4580   13.8300 C   0  0  0  0  0  0  0  0  0  0  0  0
   19.6520   75.2450   13.2200 N   0  0  0  0  0  0  0  0  0  0  0  0
   19.4760   75.4240   11.9520 N   0  0  0  0  0  0  0  0  0  0  0  0
   19.5510   73.9710   13.8920 C   0  0  0  0  0  1  0  0  0  0  0  0
   19.6290   76.7020   11.6170 C   0  0  0  0  0  0  0  0  0  0  0  0
   19.9310   77.3610   12.8260 C   0  0  0  0  0  3  0  0  0  0  0  0
   19.5010   77.3410   10.3200 C   0  0  0  0  0  0  0  0  0  0  0  0
   19.2390   78.5970   10.3280 O   0  0  0  0  0  0  0  0  0  0  0  0
   19.6350   76.7100    9.0930 N   0  0  0  0  0  0  0  0  0  0  0  0
   19.4950   77.5230    7.8810 C   0  0  0  0  0  2  0  0  0  0  0  0
   19.8810   75.3130    8.9160 C   0  0  0  0  0  2  0  0  0  0  0  0
   18.4520   76.8240    7.0340 C   0  0  0  0  0  2  0  0  0  0  0  0
   19.0390   75.6040    6.6530 O   0  0  0  0  0  0  0  0  0  0  0  0
   19.1040   74.7610    7.7280 C   0  0  0  0  0  2  0  0  0  0  0  0
   20.7590   80.8230   18.3840 C   0  0  0  0  0  0  0  0  0  0  0  0
   19.5340   80.2810   18.7850 C   0  0  0  0  0  0  0  0  0  0  0  0
   18.5450   78.9800   17.7700 Br  0  0  0  0  0  0  0  0  0  0  0  0
   19.1840   80.8270   19.9890 C   0  0  0  0  0  3  0  0  0  0  0  0
   20.1540   81.6810   20.3310 N   0  0  0  0  0  0  0  0  0  0  0  0
   21.0700   81.6810   19.4000 N   0  0  0  0  0  0  0  0  0  0  0  0
   20.1000   82.4510   21.5680 C   0  0  0  0  0  2  0  0  0  0  0  0
   21.3880   82.4040   22.3450 C   0  0  0  0  0  1  0  0  0  0  0  0
  1 25  1  0  0  0  0
  2  1  2  0  0  0  0
  3  1  1  0  0  0  0
  3  4  1  0  0  0  0
  5  4  1  0  0  0  0
  6  5  1  0  0  0  0
  7  8  1  0  0  0  0
  7  6  1  0  0  0  0
  8  3  1  0  0  0  0
  9  6  1  0  0  0  0
  9 10  2  0  0  0  0
 11  9  1  0  0  0  0
 12 11  1  0  0  0  0
 12 14  1  0  0  0  0
 13 12  1  0  0  0  0
 15 13  2  0  0  0  0
 15 16  1  0  0  0  0
 16 11  2  0  0  0  0
 17 18  2  0  0  0  0
 17 15  1  0  0  0  0
 19 17  1  0  0  0  0
 20 19  1  0  0  0  0
 21 19  1  0  0  0  0
 22 20  1  0  0  0  0
 23 22  1  0  0  0  0
 23 24  1  0  0  0  0
 24 21  1  0  0  0  0
 25 26  1  0  0  0  0
 25 30  2  0  0  0  0
 26 28  2  0  0  0  0
 27 26  1  0  0  0  0
 28 29  1  0  0  0  0
 29 31  1  0  0  0  0
 30 29  1  0  0  0  0
 31 32  1  0  0  0  0
M  END
>  <Pose>
1

>  <Score>
-7.781

$$$$
