/Users/jonathanwahrer/Desktop/Msc/3_Semester/Drug_Design_Praktikum/waehrer_HTS_screening/HTS_experiment/out/docking_results/vina_output/6e43/0653_docked.pdbqt
 OpenBabel03212220033D

 29 32  0  0  0  0  0  0  0  0999 V2000
   21.1390   77.3960   13.8850 C   0  0  0  0  0  0  0  0  0  0  0  0
   20.1840   76.4460   13.6260 C   0  0  0  0  0  0  0  0  0  0  0  0
   19.5740   76.3620   12.3880 C   0  0  0  0  0  0  0  0  0  0  0  0
   19.9060   77.2320   11.3740 C   0  0  0  0  0  0  0  0  0  0  0  0
   20.8840   78.2120   11.6260 C   0  0  0  0  0  0  0  0  0  0  0  0
   21.4890   78.2950   12.8530 C   0  0  0  0  0  0  0  0  0  0  0  0
   22.5130   79.3140   13.1000 C   0  0  0  0  0  2  0  0  0  0  0  0
   22.5270   80.4980   12.2170 C   0  0  0  0  0  2  0  0  0  0  0  0
   22.1310   80.2150   10.8430 N   0  0  0  0  0  0  0  0  0  0  0  0
   21.1950   79.1790   10.5790 C   0  0  0  0  0  0  0  0  0  0  0  0
   20.6500   79.1190    9.4350 O   0  0  0  0  0  0  0  0  0  0  0  0
   22.7170   81.0420    9.8130 C   0  0  0  0  0  1  0  0  0  0  0  0
   18.6790   75.3120   12.4630 O   0  0  0  0  0  0  0  0  0  0  0  0
   18.8400   74.6110   13.6700 C   0  0  0  0  0  2  0  0  0  0  0  0
   19.6650   75.4450   14.4790 O   0  0  0  0  0  0  0  0  0  0  0  0
   21.7780   77.5400   15.2110 C   0  0  0  0  0  2  0  0  0  0  0  0
   20.8300   77.7720   16.2860 N   0  0  0  0  0  0  0  0  0  0  0  0
   21.0310   77.7490   17.6490 C   0  0  0  0  0  0  0  0  0  0  0  0
   22.1730   77.4940   18.1510 O   0  0  0  0  0  0  0  0  0  0  0  0
   19.8480   77.9970   15.9300 H   0  0  0  0  0  0  0  0  0  0  0  0
   19.9150   78.0200   18.5940 C   0  0  0  0  0  2  0  0  0  0  0  0
   19.8590   79.4830   18.7750 N   0  0  0  0  0  0  0  0  0  0  0  0
   19.4980   80.1470   19.8680 C   0  0  0  0  0  3  0  0  0  0  0  0
   19.5930   81.4940   19.6020 C   0  0  0  0  0  0  0  0  0  0  0  0
   19.2020   82.9470   20.7760 Br  0  0  0  0  0  0  0  0  0  0  0  0
   20.0250   81.6350   18.3030 C   0  0  0  0  0  3  0  0  0  0  0  0
   20.1720   80.3820   17.8460 N   0  0  0  0  0  0  0  0  0  0  0  0
   19.3190   77.1760   10.1230 O   0  0  0  0  0  0  0  0  0  0  0  0
   19.3840   76.0050    9.3350 C   0  0  0  0  0  1  0  0  0  0  0  0
  1 16  1  0  0  0  0
  2  1  1  0  0  0  0
  2 15  1  0  0  0  0
  3 13  1  0  0  0  0
  3  2  2  0  0  0  0
  4  5  2  0  0  0  0
  4  3  1  0  0  0  0
  5  6  1  0  0  0  0
  6  7  1  0  0  0  0
  6  1  2  0  0  0  0
  8  7  1  0  0  0  0
  9  8  1  0  0  0  0
 10  9  1  0  0  0  0
 10  5  1  0  0  0  0
 11 10  2  0  0  0  0
 12  9  1  0  0  0  0
 13 14  1  0  0  0  0
 14 15  1  0  0  0  0
 16 17  1  0  0  0  0
 17 18  1  0  0  0  0
 18 19  2  0  0  0  0
 18 21  1  0  0  0  0
 20 17  1  0  0  0  0
 21 22  1  0  0  0  0
 22 23  1  0  0  0  0
 24 23  2  0  0  0  0
 24 25  1  0  0  0  0
 26 24  1  0  0  0  0
 27 26  2  0  0  0  0
 27 22  1  0  0  0  0
 28  4  1  0  0  0  0
 29 28  1  0  0  0  0
M  END
>  <Pose>
1

>  <Score>
-8.811

$$$$
