MODEL 1
REMARK VINA RESULT:    -8.811      0.000      0.000
REMARK INTER + INTRA:         -12.409
REMARK INTER:                 -11.387
REMARK INTRA:                  -1.023
REMARK UNBOUND:                -1.023
REMARK  5 active torsions:
REMARK  status: ('A' for Active; 'I' for Inactive)
REMARK    1  A    between atoms: N_4  and  C_7 
REMARK    2  A    between atoms: C_7  and  C_8 
REMARK       I    between atoms: C_8  and  N_10 
REMARK    3  A    between atoms: N_10  and  C_11 
REMARK    4  A    between atoms: C_11  and  C_12 
REMARK    5  A    between atoms: C_15  and  O_24 
ROOT
ATOM      1  C   UNK d   1      21.139  77.396  13.885  0.00  0.00     0.003 A 
ATOM      2  C   UNK d   1      20.184  76.446  13.626  0.00  0.00     0.116 A 
ATOM      3  C   UNK d   1      19.574  76.362  12.388  0.00  0.00     0.140 A 
ATOM      4  C   UNK d   1      19.906  77.232  11.374  0.00  0.00     0.120 A 
ATOM      5  C   UNK d   1      20.884  78.212  11.626  0.00  0.00     0.075 A 
ATOM      6  C   UNK d   1      21.489  78.295  12.853  0.00  0.00    -0.027 A 
ATOM      7  C   UNK d   1      22.513  79.314  13.100  0.00  0.00     0.060 C 
ATOM      8  C   UNK d   1      22.527  80.498  12.217  0.00  0.00     0.130 C 
ATOM      9  N   UNK d   1      22.131  80.215  10.843  0.00  0.00    -0.352 N 
ATOM     10  C   UNK d   1      21.195  79.179  10.579  0.00  0.00     0.256 C 
ATOM     11  O   UNK d   1      20.650  79.119   9.435  0.00  0.00    -0.267 OA
ATOM     12  C   UNK d   1      22.717  81.042   9.813  0.00  0.00     0.152 C 
ATOM     13  O   UNK d   1      18.679  75.312  12.463  0.00  0.00    -0.320 OA
ATOM     14  C   UNK d   1      18.840  74.611  13.670  0.00  0.00     0.352 C 
ATOM     15  O   UNK d   1      19.665  75.445  14.479  0.00  0.00    -0.322 OA
ENDROOT
BRANCH   1  16
ATOM     16  C   UNK d   1      21.778  77.540  15.211  0.00  0.00     0.164 C 
BRANCH  16  17
ATOM     17  N   UNK d   1      20.830  77.772  16.286  0.00  0.00    -0.355 N 
ATOM     18  C   UNK d   1      21.031  77.749  17.649  0.00  0.00     0.237 C 
ATOM     19  O   UNK d   1      22.173  77.494  18.151  0.00  0.00    -0.272 OA
ATOM     20  H   UNK d   1      19.848  77.997  15.930  0.00  0.00     0.162 HD
BRANCH  18  21
ATOM     21  C   UNK d   1      19.915  78.020  18.594  0.00  0.00     0.253 C 
BRANCH  21  22
ATOM     22  N   UNK d   1      19.859  79.483  18.775  0.00  0.00    -0.271 N 
ATOM     23  C   UNK d   1      19.498  80.147  19.868  0.00  0.00     0.133 A 
ATOM     24  C   UNK d   1      19.593  81.494  19.602  0.00  0.00     0.047 A 
ATOM     25 Br   UNK d   1      19.202  82.947  20.776  0.00  0.00    -0.048 Br
ATOM     26  C   UNK d   1      20.025  81.635  18.303  0.00  0.00     0.159 A 
ATOM     27  N   UNK d   1      20.172  80.382  17.846  0.00  0.00    -0.183 NA
ENDBRANCH  21  22
ENDBRANCH  18  21
ENDBRANCH  16  17
ENDBRANCH   1  16
BRANCH   4  28
ATOM     28  O   UNK d   1      19.319  77.176  10.123  0.00  0.00    -0.352 OA
ATOM     29  C   UNK d   1      19.384  76.005   9.335  0.00  0.00     0.210 C 
ENDBRANCH   4  28
TORSDOF 5
ENDMDL
