MODEL 1
REMARK VINA RESULT:    -9.298      0.000      0.000
REMARK INTER + INTRA:         -11.290
REMARK INTER:                 -10.929
REMARK INTRA:                  -0.361
REMARK UNBOUND:                -0.361
REMARK  3 active torsions:
REMARK  status: ('A' for Active; 'I' for Inactive)
REMARK    1  A    between atoms: N_4  and  C_7 
REMARK    2  A    between atoms: C_7  and  N_8 
REMARK    3  A    between atoms: C_10  and  C_13 
ROOT
ATOM      1  C   UNK d   1      19.958  75.916  14.114  0.00  0.00     0.202 A 
ATOM      2  N   UNK d   1      19.705  76.229  12.833  0.00  0.00    -0.142 NA
ATOM      3  N   UNK d   1      19.115  75.205  12.217  0.00  0.00    -0.206 N 
ATOM      4  C   UNK d   1      18.983  74.201  13.131  0.00  0.00     0.170 A 
ATOM      5  N   UNK d   1      19.507  74.662  14.283  0.00  0.00    -0.205 NA
ATOM      6  C   UNK d   1      18.393  73.022  12.728  0.00  0.00     0.078 A 
ATOM      7  C   UNK d   1      17.933  72.820  11.439  0.00  0.00     0.160 A 
ATOM      8  N   UNK d   1      17.412  71.585  11.345  0.00  0.00    -0.261 N 
ATOM      9  N   UNK d   1      17.535  71.018  12.535  0.00  0.00    -0.184 NA
ATOM     10  C   UNK d   1      18.129  71.861  13.405  0.00  0.00     0.158 A 
ATOM     11  N   UNK d   1      18.085  73.836  10.575  0.00  0.00    -0.222 NA
ATOM     12  C   UNK d   1      18.659  74.983  10.971  0.00  0.00     0.239 A 
ATOM     13  H   UNK d   1      16.985  71.132  10.509  0.00  0.00     0.191 HD
ENDROOT
BRANCH   1  14
ATOM     14  C   UNK d   1      20.594  76.780  15.107  0.00  0.00     0.128 A 
ATOM     15  N   UNK d   1      20.528  76.695  16.447  0.00  0.00    -0.167 NA
ATOM     16  N   UNK d   1      21.234  77.654  17.020  0.00  0.00    -0.261 N 
ATOM     17  C   UNK d   1      21.798  78.412  16.065  0.00  0.00     0.117 A 
ATOM     18  C   UNK d   1      21.399  77.869  14.848  0.00  0.00     0.056 A 
BRANCH  16  19
ATOM     19  C   UNK d   1      21.377  77.853  18.465  0.00  0.00     0.300 C 
BRANCH  19  20
ATOM     20  N   UNK d   1      20.526  78.925  18.938  0.00  0.00    -0.260 N 
ATOM     21  C   UNK d   1      20.854  80.225  19.010  0.00  0.00     0.135 A 
ATOM     22  C   UNK d   1      19.771  80.916  19.513  0.00  0.00     0.047 A 
ATOM     23 Br   UNK d   1      19.666  82.778  19.829  0.00  0.00    -0.048 Br
ATOM     24  C   UNK d   1      18.784  79.983  19.740  0.00  0.00     0.159 A 
ATOM     25  N   UNK d   1      19.288  78.782  19.375  0.00  0.00    -0.182 NA
ENDBRANCH  19  20
ENDBRANCH  16  19
ENDBRANCH   1  14
TORSDOF 3
ENDMDL
