MODEL 1
REMARK VINA RESULT:    -9.804      0.000      0.000
REMARK INTER + INTRA:         -11.511
REMARK INTER:                 -10.950
REMARK INTRA:                  -0.560
REMARK UNBOUND:                -0.560
REMARK  2 active torsions:
REMARK  status: ('A' for Active; 'I' for Inactive)
REMARK    1  A    between atoms: N_4  and  C_7 
REMARK    2  A    between atoms: C_10  and  C_13 
REMARK       I    between atoms: C_13  and  N_15 
ROOT
ATOM      1  C   UNK d   1      22.998  78.227  14.687  0.00  0.00     0.253 C 
ATOM      2  O   UNK d   1      23.690  77.152  14.891  0.00  0.00    -0.267 OA
ATOM      3  N   UNK d   1      23.002  79.149  15.720  0.00  0.00    -0.348 N 
ATOM      4  C   UNK d   1      22.409  80.453  15.835  0.00  0.00     0.129 C 
ATOM      5  C   UNK d   1      21.135  80.294  16.642  0.00  0.00     0.061 C 
ATOM      6  C   UNK d   1      21.332  79.273  17.745  0.00  0.00     0.118 C 
ATOM      7  N   UNK d   1      20.627  79.761  18.910  0.00  0.00    -0.324 N 
ATOM      8  C   UNK d   1      19.271  79.355  18.801  0.00  0.00     0.323 C 
ATOM      9  O   UNK d   1      18.255  79.843  19.394  0.00  0.00    -0.247 OA
ATOM     10  N   UNK d   1      19.245  78.258  17.873  0.00  0.00    -0.277 N 
ATOM     11  C   UNK d   1      20.603  78.029  17.440  0.00  0.00     0.254 C 
ATOM     12  O   UNK d   1      21.005  76.965  16.921  0.00  0.00    -0.270 OA
ATOM     13  C   UNK d   1      22.766  79.063  18.112  0.00  0.00     0.061 C 
ATOM     14  C   UNK d   1      23.692  78.748  16.987  0.00  0.00     0.129 C 
ATOM     15  H   UNK d   1      21.003  80.312  19.706  0.00  0.00     0.165 HD
ATOM     16  H   UNK d   1      18.430  77.699  17.539  0.00  0.00     0.173 HD
ENDROOT
BRANCH   1  17
ATOM     17  C   UNK d   1      22.338  78.274  13.402  0.00  0.00     0.032 A 
ATOM     18  C   UNK d   1      21.087  77.642  13.246  0.00  0.00     0.019 A 
ATOM     19  C   UNK d   1      20.382  77.676  12.072  0.00  0.00     0.032 A 
ATOM     20  C   UNK d   1      20.851  78.334  10.962  0.00  0.00     0.058 A 
ATOM     21  C   UNK d   1      22.063  78.957  11.086  0.00  0.00     0.032 A 
ATOM     22  C   UNK d   1      22.795  78.931  12.284  0.00  0.00     0.019 A 
BRANCH  20  23
ATOM     23  N   UNK d   1      20.098  78.352   9.758  0.00  0.00    -0.244 N 
ATOM     24  C   UNK d   1      18.831  78.763   9.566  0.00  0.00     0.139 A 
ATOM     25  C   UNK d   1      18.496  78.606   8.239  0.00  0.00     0.047 A 
ATOM     26 Br   UNK d   1      16.816  79.030   7.400  0.00  0.00    -0.048 Br
ATOM     27  C   UNK d   1      19.619  78.082   7.637  0.00  0.00     0.159 A 
ATOM     28  N   UNK d   1      20.543  77.950   8.586  0.00  0.00    -0.179 NA
ENDBRANCH  20  23
ENDBRANCH   1  17
TORSDOF 2
ENDMDL
