MODEL 1
REMARK VINA RESULT:    -9.431      0.000      0.000
REMARK INTER + INTRA:         -12.928
REMARK INTER:                 -11.636
REMARK INTRA:                  -1.292
REMARK UNBOUND:                -1.292
REMARK  4 active torsions:
REMARK  status: ('A' for Active; 'I' for Inactive)
REMARK    1  A    between atoms: C_5  and  N_8 
REMARK    2  A    between atoms: N_8  and  C_9 
REMARK    3  A    between atoms: C_10  and  N_22 
REMARK    4  A    between atoms: N_13  and  C_16 
ROOT
ATOM      1  C   UNK d   1      21.248  77.178  14.265  0.00  0.00     0.136 A 
ATOM      2  C   UNK d   1      22.254  77.959  14.005  0.00  0.00     0.140 A 
ATOM      3  C   UNK d   1      22.073  78.433  12.632  0.00  0.00     0.285 A 
ATOM      4  O   UNK d   1      22.877  79.220  12.043  0.00  0.00    -0.265 OA
ATOM      5  N   UNK d   1      20.877  77.890  12.054  0.00  0.00    -0.241 N 
ATOM      6  C   UNK d   1      20.337  77.081  13.098  0.00  0.00     0.284 A 
ATOM      7  O   UNK d   1      19.276  76.406  13.037  0.00  0.00    -0.265 OA
ENDROOT
BRANCH   1   8
ATOM      8  N   UNK d   1      20.955  76.469  15.453  0.00  0.00    -0.335 N 
ATOM      9  H   UNK d   1      21.018  75.452  15.484  0.00  0.00     0.168 HD
BRANCH   8  10
ATOM     10  C   UNK d   1      20.569  77.210  16.594  0.00  0.00     0.127 A 
ATOM     11  N   UNK d   1      19.433  77.958  16.603  0.00  0.00    -0.242 NA
ATOM     12  C   UNK d   1      19.033  78.688  17.650  0.00  0.00     0.138 A 
ATOM     13  C   UNK d   1      19.767  78.725  18.806  0.00  0.00     0.028 A 
ATOM     14 Br   UNK d   1      19.231  79.766  20.317  0.00  0.00    -0.050 Br
ATOM     15  C   UNK d   1      20.929  77.991  18.868  0.00  0.00     0.024 A 
ATOM     16  C   UNK d   1      21.311  77.252  17.781  0.00  0.00     0.052 A 
ENDBRANCH   8  10
ENDBRANCH   1   8
BRANCH   2  17
ATOM     17  N   UNK d   1      23.342  78.325  14.857  0.00  0.00    -0.326 N 
ATOM     18  C   UNK d   1      24.427  77.534  14.937  0.00  0.00     0.097 A 
ATOM     19  C   UNK d   1      25.510  77.861  15.771  0.00  0.00     0.018 A 
ATOM     20  C   UNK d   1      25.471  79.015  16.531  0.00  0.00     0.003 A 
ATOM     21  C   UNK d   1      24.348  79.809  16.431  0.00  0.00     0.018 A 
ATOM     22  C   UNK d   1      23.314  79.455  15.605  0.00  0.00     0.097 A 
ENDBRANCH   2  17
BRANCH   5  23
ATOM     23  C   UNK d   1      20.371  78.108  10.746  0.00  0.00     0.046 A 
ATOM     24  C   UNK d   1      20.865  77.482   9.631  0.00  0.00     0.030 A 
ATOM     25  C   UNK d   1      20.326  77.711   8.348  0.00  0.00     0.002 A 
ATOM     26  C   UNK d   1      19.273  78.581   8.180  0.00  0.00     0.000 A 
ATOM     27  C   UNK d   1      18.774  79.209   9.292  0.00  0.00     0.002 A 
ATOM     28  C   UNK d   1      19.321  78.971  10.554  0.00  0.00     0.030 A 
ENDBRANCH   5  23
TORSDOF 4
ENDMDL
