/Users/jonathanwahrer/Desktop/Msc/3_Semester/Drug_Design_Praktikum/waehrer_HTS_screening/HTS_experiment/out/docking_results/vina_output/6e43/0666_docked.pdbqt
 OpenBabel03212220043D

 28 31  0  0  0  0  0  0  0  0999 V2000
   21.2480   77.1780   14.2650 C   0  0  0  0  0  0  0  0  0  0  0  0
   22.2540   77.9590   14.0050 C   0  0  0  0  0  0  0  0  0  0  0  0
   22.0730   78.4330   12.6320 C   0  0  0  0  0  0  0  0  0  0  0  0
   22.8770   79.2200   12.0430 O   0  0  0  0  0  0  0  0  0  0  0  0
   20.8770   77.8900   12.0540 N   0  0  0  0  0  0  0  0  0  0  0  0
   20.3370   77.0810   13.0980 C   0  0  0  0  0  0  0  0  0  0  0  0
   19.2760   76.4060   13.0370 O   0  0  0  0  0  0  0  0  0  0  0  0
   20.9550   76.4690   15.4530 N   0  0  0  0  0  0  0  0  0  0  0  0
   21.0180   75.4520   15.4840 H   0  0  0  0  0  0  0  0  0  0  0  0
   20.5690   77.2100   16.5940 C   0  0  0  0  0  0  0  0  0  0  0  0
   19.4330   77.9580   16.6030 N   0  0  0  0  0  0  0  0  0  0  0  0
   19.0330   78.6880   17.6500 C   0  0  0  0  0  3  0  0  0  0  0  0
   19.7670   78.7250   18.8060 C   0  0  0  0  0  0  0  0  0  0  0  0
   19.2310   79.7660   20.3170 Br  0  0  0  0  0  0  0  0  0  0  0  0
   20.9290   77.9910   18.8680 C   0  0  0  0  0  3  0  0  0  0  0  0
   21.3110   77.2520   17.7810 C   0  0  0  0  0  3  0  0  0  0  0  0
   23.3420   78.3250   14.8570 N   0  0  0  0  0  0  0  0  0  0  0  0
   24.4270   77.5340   14.9370 C   0  0  0  0  0  2  0  0  0  0  0  0
   25.5100   77.8610   15.7710 C   0  0  0  0  0  3  0  0  0  0  0  0
   25.4710   79.0150   16.5310 C   0  0  0  0  0  3  0  0  0  0  0  0
   24.3480   79.8090   16.4310 C   0  0  0  0  0  3  0  0  0  0  0  0
   23.3140   79.4550   15.6050 C   0  0  0  0  0  3  0  0  0  0  0  0
   20.3710   78.1080   10.7460 C   0  0  0  0  0  0  0  0  0  0  0  0
   20.8650   77.4820    9.6310 C   0  0  0  0  0  3  0  0  0  0  0  0
   20.3260   77.7110    8.3480 C   0  0  0  0  0  3  0  0  0  0  0  0
   19.2730   78.5810    8.1800 C   0  0  0  0  0  3  0  0  0  0  0  0
   18.7740   79.2090    9.2920 C   0  0  0  0  0  3  0  0  0  0  0  0
   19.3210   78.9710   10.5540 C   0  0  0  0  0  3  0  0  0  0  0  0
  1  8  1  0  0  0  0
  2  1  2  0  0  0  0
  2 17  1  0  0  0  0
  3  2  1  0  0  0  0
  4  3  2  0  0  0  0
  5  3  1  0  0  0  0
  5  6  1  0  0  0  0
  6  1  1  0  0  0  0
  7  6  2  0  0  0  0
  8  9  1  0  0  0  0
  8 10  1  0  0  0  0
 10 11  2  0  0  0  0
 10 16  1  0  0  0  0
 11 12  1  0  0  0  0
 12 13  2  0  0  0  0
 13 15  1  0  0  0  0
 13 14  1  0  0  0  0
 16 15  2  0  0  0  0
 17 18  1  0  0  0  0
 17 22  1  0  0  0  0
 18 19  1  0  0  0  0
 19 20  2  0  0  0  0
 21 20  1  0  0  0  0
 22 21  2  0  0  0  0
 23  5  1  0  0  0  0
 24 23  2  0  0  0  0
 25 24  1  0  0  0  0
 26 25  2  0  0  0  0
 26 27  1  0  0  0  0
 27 28  2  0  0  0  0
 28 23  1  0  0  0  0
M  END
>  <Pose>
1

>  <Score>
-9.431

$$$$
