MODEL 1
REMARK VINA RESULT:    -8.812      0.000      0.000
REMARK INTER + INTRA:         -10.757
REMARK INTER:                 -10.357
REMARK INTRA:                  -0.400
REMARK UNBOUND:                -0.400
REMARK  3 active torsions:
REMARK  status: ('A' for Active; 'I' for Inactive)
REMARK    1  A    between atoms: C_5  and  N_8 
REMARK    2  A    between atoms: C_10  and  C_12 
REMARK    3  A    between atoms: C_12  and  N_13 
ROOT
ATOM      1  C   UNK d   1      22.398  78.483  17.109  0.00  0.00     0.160 C 
ENDROOT
BRANCH   1   2
ATOM      2  C   UNK d   1      21.752  78.327  15.769  0.00  0.00     0.043 C 
ATOM      3  C   UNK d   1      21.963  79.471  14.797  0.00  0.00     0.149 C 
ATOM      4  N   UNK d   1      21.934  78.462  13.778  0.00  0.00    -0.213 N 
ATOM      5  C   UNK d   1      22.598  77.611  14.723  0.00  0.00     0.149 C 
BRANCH   4   6
ATOM      6  C   UNK d   1      21.467  78.369  12.462  0.00  0.00     0.724 A 
ATOM      7  N   UNK d   1      20.282  77.819  12.119  0.00  0.00    -0.074 NA
ATOM      8  C   UNK d   1      19.819  77.721  10.880  0.00  0.00     0.157 A 
ATOM      9  C   UNK d   1      20.573  78.205   9.835  0.00  0.00     0.047 A 
ATOM     10 Br   UNK d   1      19.933  78.079   8.036  0.00  0.00    -0.048 Br
ATOM     11  C   UNK d   1      21.789  78.775  10.144  0.00  0.00     0.157 A 
ATOM     12  N   UNK d   1      22.209  78.848  11.420  0.00  0.00    -0.074 NA
ENDBRANCH   4   6
ENDBRANCH   1   2
BRANCH   1  13
ATOM     13  N   UNK d   1      21.390  78.916  18.040  0.00  0.00    -0.257 N 
ATOM     14  N   UNK d   1      21.168  80.276  18.258  0.00  0.00    -0.296 N 
ATOM     15  C   UNK d   1      20.184  80.751  19.167  0.00  0.00     0.051 A 
ATOM     16  H   UNK d   1      21.772  80.954  17.708  0.00  0.00     0.187 HD
ATOM     17  C   UNK d   1      20.015  82.048  19.334  0.00  0.00    -0.051 A 
ATOM     18  C   UNK d   1      19.364  79.815  19.912  0.00  0.00     0.036 A 
ATOM     19  C   UNK d   1      20.276  83.483  19.107  0.00  0.00     0.041 A 
ATOM     20  C   UNK d   1      19.236  83.128  20.059  0.00  0.00     0.041 A 
ATOM     21  C   UNK d   1      19.558  78.520  19.722  0.00  0.00     0.078 A 
ATOM     22  C   UNK d   1      20.577  78.016  18.779  0.00  0.00     0.262 A 
ATOM     23  O   UNK d   1      20.742  76.778  18.617  0.00  0.00    -0.267 OA
ENDBRANCH   1  13
TORSDOF 3
ENDMDL
