/Users/jonathanwahrer/Desktop/Msc/3_Semester/Drug_Design_Praktikum/waehrer_HTS_screening/HTS_experiment/out/docking_results/vina_output/6e43/0677_docked.pdbqt
 OpenBabel03212220043D

 29 32  0  0  0  0  0  0  0  0999 V2000
   21.3860   77.8330   13.6850 C   0  0  0  0  0  0  0  0  0  0  0  0
   20.4060   76.7800   13.6120 C   0  0  0  0  0  0  0  0  0  0  0  0
   19.7600   76.5440   12.4540 C   0  0  0  0  0  0  0  0  0  0  0  0
   20.0250   77.3100   11.3040 C   0  0  0  0  0  0  0  0  0  0  0  0
   20.9550   78.3190   11.3570 C   0  0  0  0  0  0  0  0  0  0  0  0
   21.6320   78.5770   12.5600 C   0  0  0  0  0  0  0  0  0  0  0  0
   22.5700   79.7250   12.6600 C   0  0  0  0  0  2  0  0  0  0  0  0
   22.3910   80.7600   11.5550 C   0  0  0  0  0  2  0  0  0  0  0  0
   22.2810   80.1400   10.2550 N   0  0  0  0  0  0  0  0  0  0  0  0
   21.2820   79.1140   10.1770 C   0  0  0  0  0  0  0  0  0  0  0  0
   20.7330   78.9550    9.0670 O   0  0  0  0  0  0  0  0  0  0  0  0
   23.1080   80.5230    9.1310 C   0  0  0  0  0  1  0  0  0  0  0  0
   18.8790   75.4760   12.6830 O   0  0  0  0  0  0  0  0  0  0  0  0
   19.1620   74.8790   13.9310 C   0  0  0  0  0  2  0  0  0  0  0  0
   19.9420   75.8720   14.5680 O   0  0  0  0  0  0  0  0  0  0  0  0
   21.9720   77.9160   15.0060 C   0  0  0  0  0  2  0  0  0  0  0  0
   21.2710   78.1110   16.1990 N   0  0  0  0  0  0  0  0  0  0  0  0
   21.1240   79.5170   16.6300 C   0  0  0  0  0  0  0  0  0  0  0  0
   21.6190   80.4080   15.9200 O   0  0  0  0  0  0  0  0  0  0  0  0
   20.7880   77.4700   16.8450 H   0  0  0  0  0  0  0  0  0  0  0  0
   20.4220   79.8450   17.8480 C   0  0  0  0  0  0  0  0  0  0  0  0
   19.8440   78.8040   18.5650 C   0  0  0  0  0  3  0  0  0  0  0  0
   19.1700   79.0260   19.7030 N   0  0  0  0  0  0  0  0  0  0  0  0
   19.0460   80.2690   20.1650 C   0  0  0  0  0  3  0  0  0  0  0  0
   19.5920   81.3240   19.5050 C   0  0  0  0  0  0  0  0  0  0  0  0
   19.4030   83.0990   20.1850 Br  0  0  0  0  0  0  0  0  0  0  0  0
   20.2990   81.1320   18.3190 C   0  0  0  0  0  3  0  0  0  0  0  0
   19.3390   77.0100   10.1860 O   0  0  0  0  0  0  0  0  0  0  0  0
   19.4520   77.2890    9.2730 H   0  0  0  0  0  0  0  0  0  0  0  0
  1 16  1  0  0  0  0
  2  1  1  0  0  0  0
  2 15  1  0  0  0  0
  3 13  1  0  0  0  0
  3  2  2  0  0  0  0
  4  5  2  0  0  0  0
  4  3  1  0  0  0  0
  5  6  1  0  0  0  0
  6  7  1  0  0  0  0
  6  1  2  0  0  0  0
  8  7  1  0  0  0  0
  9  8  1  0  0  0  0
 10  9  1  0  0  0  0
 10  5  1  0  0  0  0
 11 10  2  0  0  0  0
 12  9  1  0  0  0  0
 13 14  1  0  0  0  0
 14 15  1  0  0  0  0
 16 17  1  0  0  0  0
 17 18  1  0  0  0  0
 17 20  1  0  0  0  0
 18 21  1  0  0  0  0
 19 18  2  0  0  0  0
 21 27  2  0  0  0  0
 21 22  1  0  0  0  0
 22 23  2  0  0  0  0
 23 24  1  0  0  0  0
 25 24  2  0  0  0  0
 25 26  1  0  0  0  0
 27 25  1  0  0  0  0
 28  4  1  0  0  0  0
 29 28  1  0  0  0  0
M  END
>  <Pose>
1

>  <Score>
-9.231

$$$$
