MODEL 1
REMARK VINA RESULT:    -9.640      0.000      0.000
REMARK INTER + INTRA:         -10.002
REMARK INTER:                 -10.767
REMARK INTRA:                   0.765
REMARK UNBOUND:                 0.765
REMARK  2 active torsions:
REMARK  status: ('A' for Active; 'I' for Inactive)
REMARK    1  A    between atoms: C_6  and  C_8 
REMARK       I    between atoms: C_8  and  N_10 
REMARK    2  A    between atoms: C_12  and  N_14 
ROOT
ATOM      1  C   UNK d   1      21.590  79.648  11.086  0.00  0.00     0.255 C 
ATOM      2  O   UNK d   1      22.241  80.591  10.503  0.00  0.00    -0.267 OA
ATOM      3  N   UNK d   1      21.890  79.397  12.438  0.00  0.00    -0.344 N 
ATOM      4  C   UNK d   1      21.507  78.511  13.493  0.00  0.00     0.153 C 
ATOM      5  C   UNK d   1      22.910  78.726  14.089  0.00  0.00     0.132 C 
ATOM      6  C   UNK d   1      22.798  80.039  13.411  0.00  0.00     0.153 C 
ENDROOT
BRANCH   5   7
ATOM      7  N   UNK d   1      22.888  78.715  15.525  0.00  0.00    -0.280 N 
ATOM      8  C   UNK d   1      23.357  77.688  16.419  0.00  0.00     0.232 C 
ATOM      9  O   UNK d   1      24.234  76.852  16.142  0.00  0.00    -0.272 OA
ATOM     10  C   UNK d   1      22.572  77.871  17.689  0.00  0.00     0.095 C 
ATOM     11  C   UNK d   1      22.534  79.379  17.761  0.00  0.00     0.095 C 
ATOM     12  C   UNK d   1      21.241  77.236  17.474  0.00  0.00     0.041 C 
ATOM     13  C   UNK d   1      21.409  79.856  18.637  0.00  0.00     0.041 C 
ATOM     14  C   UNK d   1      22.378  79.762  16.345  0.00  0.00     0.232 C 
ATOM     15  C   UNK d   1      20.114  79.356  18.101  0.00  0.00    -0.030 C 
ATOM     16  C   UNK d   1      20.092  78.147  17.579  0.00  0.00    -0.030 C 
ATOM     17  O   UNK d   1      21.868  80.849  15.977  0.00  0.00    -0.272 OA
ENDBRANCH   5   7
BRANCH   1  18
ATOM     18  C   UNK d   1      20.624  78.965  10.260  0.00  0.00     0.051 A 
ATOM     19  C   UNK d   1      19.434  79.603   9.884  0.00  0.00     0.133 A 
ATOM     20  N   UNK d   1      18.500  79.010   9.133  0.00  0.00    -0.271 NA
ATOM     21  C   UNK d   1      18.663  77.738   8.687  0.00  0.00     0.135 A 
ATOM     22  C   UNK d   1      19.801  77.038   9.008  0.00  0.00     0.029 A 
ATOM     23 Br   UNK d   1      20.006  75.255   8.373  0.00  0.00    -0.050 Br
ATOM     24  C   UNK d   1      20.750  77.677   9.789  0.00  0.00     0.039 A 
ENDBRANCH   1  18
TORSDOF 2
ENDMDL
