/Users/jonathanwahrer/Desktop/Msc/3_Semester/Drug_Design_Praktikum/waehrer_HTS_screening/HTS_experiment/out/docking_results/vina_output/6e43/0683_docked.pdbqt
 OpenBabel03212220043D

 10 10  0  0  0  0  0  0  0  0999 V2000
   21.1150   82.3460   23.2710 Br  0  0  0  0  0  0  0  0  0  0  0  0
   20.0670   83.2790   22.0060 C   0  0  0  0  0  0  0  0  0  0  0  0
   18.8740   83.8650   22.3980 C   0  0  0  0  0  3  0  0  0  0  0  0
   18.1670   84.5160   21.4640 N   0  0  0  0  0  0  0  0  0  0  0  0
   18.5450   84.6330   20.1810 C   0  0  0  0  0  3  0  0  0  0  0  0
   19.7280   84.0490   19.8010 C   0  0  0  0  0  0  0  0  0  0  0  0
   20.5180   83.3590   20.7050 C   0  0  0  0  0  3  0  0  0  0  0  0
   20.1720   84.1540   18.4200 C   0  0  0  0  0  0  0  0  0  0  0  0
   20.6340   83.1440   17.8160 O   0  0  0  0  0  1  0  0  0  0  0  0
   20.1060   85.3510   17.7300 O   0  0  0  0  0  0  0  0  0  0  0  0
  2  3  1  0  0  0  0
  2  1  1  0  0  0  0
  4  3  2  0  0  0  0
  5  4  1  0  0  0  0
  6  5  2  0  0  0  0
  6  7  1  0  0  0  0
  7  2  2  0  0  0  0
  8  6  1  0  0  0  0
  9  8  1  0  0  0  0
 10  8  2  0  0  0  0
M  END
>  <Pose>
1

>  <Score>
-6.016

$$$$
