MODEL 1
REMARK VINA RESULT:    -6.016      0.000      0.000
REMARK INTER + INTRA:          -6.399
REMARK INTER:                  -6.367
REMARK INTRA:                  -0.032
REMARK UNBOUND:                -0.032
REMARK  2 active torsions:
REMARK  status: ('A' for Active; 'I' for Inactive)
REMARK    1  A    between atoms: C_6  and  C_8 
REMARK    2  A    between atoms: C_21  and  N_22 
ROOT
ATOM      1 Br   UNK d   1      21.115  82.346  23.271  0.00  0.00    -0.050 Br
ATOM      2  C   UNK d   1      20.067  83.279  22.006  0.00  0.00     0.029 A 
ATOM      3  C   UNK d   1      18.874  83.865  22.398  0.00  0.00     0.135 A 
ATOM      4  N   UNK d   1      18.167  84.516  21.464  0.00  0.00    -0.271 NA
ATOM      5  C   UNK d   1      18.545  84.633  20.181  0.00  0.00     0.134 A 
ATOM      6  C   UNK d   1      19.728  84.049  19.801  0.00  0.00     0.059 A 
ATOM      7  C   UNK d   1      20.518  83.359  20.705  0.00  0.00     0.040 A 
ENDROOT
BRANCH   6   8
ATOM      8  C   UNK d   1      20.172  84.154  18.420  0.00  0.00     0.210 C 
ATOM      9  O   UNK d   1      20.634  83.144  17.816  0.00  0.00    -0.644 OA
ATOM     10  O   UNK d   1      20.106  85.351  17.730  0.00  0.00    -0.644 OA
ENDBRANCH   6   8
TORSDOF 2
ENDMDL
