MODEL 1
REMARK VINA RESULT:    -6.012      0.000      0.000
REMARK INTER + INTRA:          -6.394
REMARK INTER:                  -6.364
REMARK INTRA:                  -0.031
REMARK UNBOUND:                -0.031
REMARK  2 active torsions:
REMARK  status: ('A' for Active; 'I' for Inactive)
REMARK    1  A    between atoms: C_6  and  C_8 
REMARK    2  A    between atoms: C_20  and  N_21 
ROOT
ATOM      1 Br   UNK d   1      21.123  82.334  23.351  0.00  0.00    -0.050 Br
ATOM      2  C   UNK d   1      20.057  83.264  22.074  0.00  0.00     0.029 A 
ATOM      3  C   UNK d   1      18.861  83.858  22.413  0.00  0.00     0.135 A 
ATOM      4  N   UNK d   1      18.104  84.516  21.517  0.00  0.00    -0.271 NA
ATOM      5  C   UNK d   1      18.530  84.596  20.248  0.00  0.00     0.134 A 
ATOM      6  C   UNK d   1      19.714  84.030  19.830  0.00  0.00     0.059 A 
ATOM      7  C   UNK d   1      20.466  83.365  20.763  0.00  0.00     0.040 A 
ENDROOT
BRANCH   6   8
ATOM      8  C   UNK d   1      20.164  84.127  18.447  0.00  0.00     0.210 C 
ATOM      9  O   UNK d   1      20.561  83.096  17.851  0.00  0.00    -0.644 OA
ATOM     10  O   UNK d   1      20.135  85.369  17.831  0.00  0.00    -0.644 OA
ENDBRANCH   6   8
TORSDOF 2
ENDMDL
