/Users/jonathanwahrer/Desktop/Msc/3_Semester/Drug_Design_Praktikum/waehrer_HTS_screening/HTS_experiment/out/docking_results/vina_output/6e43/0692_docked.pdbqt
 OpenBabel03212220043D

 29 32  0  0  0  0  0  0  0  0999 V2000
   21.3340   78.7550   10.2630 Br  0  0  0  0  0  0  0  0  0  0  0  0
   20.7970   77.7670   11.7950 C   0  0  0  0  0  0  0  0  0  0  0  0
   21.2480   78.1500   13.0440 C   0  0  0  0  0  0  0  0  0  0  0  0
   20.8910   77.4640   14.2140 C   0  0  0  0  0  0  0  0  0  0  0  0
   20.0640   76.3720   14.1210 C   0  0  0  0  0  3  0  0  0  0  0  0
   19.6090   75.9840   12.8760 C   0  0  0  0  0  0  0  0  0  0  0  0
   19.9600   76.6570   11.7260 C   0  0  0  0  0  3  0  0  0  0  0  0
   18.4610   74.4750   12.7110 Br  0  0  0  0  0  0  0  0  0  0  0  0
   21.4040   77.8980   15.5080 C   0  0  0  0  0  0  0  0  0  0  0  0
   21.4210   77.0220   16.4150 O   0  0  0  0  0  0  0  0  0  0  0  0
   21.8710   79.2590   15.7480 C   0  0  0  0  0  0  0  0  0  0  0  0
   21.8770   80.0260   14.3990 C   0  0  0  0  0  2  0  0  0  0  0  0
   22.0830   79.2260   13.2930 O   0  0  0  0  0  0  0  0  0  0  0  0
   21.0770   80.1060   16.6320 C   0  0  0  0  0  2  0  0  0  0  0  0
   20.5910   79.7740   17.8900 N   0  0  0  0  0  4  0  0  0  0  0  0
   19.4730   78.8950   18.0360 C   0  0  0  0  0  2  0  0  0  0  0  0
   19.6000   78.2700   19.4490 C   0  0  0  0  0  2  0  0  0  0  0  0
   19.2290   79.3820   20.4070 C   0  0  0  0  0  2  0  0  0  0  0  0
   19.2980   80.7400   19.7450 C   0  0  0  0  0  2  0  0  0  0  0  0
   20.5100   80.8680   18.8470 C   0  0  0  0  0  2  0  0  0  0  0  0
   21.3910   79.1750   18.3150 H   0  0  0  0  0  0  0  0  0  0  0  0
   23.3000   79.1760   16.2620 C   0  0  0  0  0  2  0  0  0  0  0  0
   23.9050   77.8860   16.0390 N   0  0  0  0  0  4  0  0  0  0  0  0
   24.5990   77.5020   17.2600 C   0  0  0  0  0  2  0  0  0  0  0  0
   25.5400   78.5930   17.6490 C   0  0  0  0  0  2  0  0  0  0  0  0
   26.4880   79.0190   16.5890 C   0  0  0  0  0  2  0  0  0  0  0  0
   25.9540   78.9870   15.1990 C   0  0  0  0  0  2  0  0  0  0  0  0
   24.9390   77.8790   15.0210 C   0  0  0  0  0  2  0  0  0  0  0  0
   23.2040   77.1800   15.7510 H   0  0  0  0  0  0  0  0  0  0  0  0
  1  2  1  0  0  0  0
  2  3  1  0  0  0  0
  3 13  1  0  0  0  0
  3  4  2  0  0  0  0
  4  9  1  0  0  0  0
  5  4  1  0  0  0  0
  6  5  2  0  0  0  0
  7  2  2  0  0  0  0
  7  6  1  0  0  0  0
  8  6  1  0  0  0  0
  9 11  1  0  0  0  0
  9 10  2  0  0  0  0
 11 22  1  0  0  0  0
 11 14  1  0  0  0  0
 12 11  1  0  0  0  0
 13 12  1  0  0  0  0
 14 15  1  0  0  0  0
 15 16  1  0  0  0  0
 15 21  1  0  0  0  0
 15 20  1  0  0  0  0
 16 17  1  0  0  0  0
 17 18  1  0  0  0  0
 19 18  1  0  0  0  0
 20 19  1  0  0  0  0
 23 22  1  0  0  0  0
 23 24  1  0  0  0  0
 24 25  1  0  0  0  0
 26 25  1  0  0  0  0
 27 26  1  0  0  0  0
 28 27  1  0  0  0  0
 28 23  1  0  0  0  0
 29 23  1  0  0  0  0
M  END
>  <Pose>
1

>  <Score>
-9.538

$$$$
