/Users/jonathanwahrer/Desktop/Msc/3_Semester/Drug_Design_Praktikum/waehrer_HTS_screening/HTS_experiment/out/docking_results/vina_output/6e43/0699_docked.pdbqt
 OpenBabel03212220053D

 32 35  0  0  1  0  0  0  0  0999 V2000
   23.1680   77.7500   16.2120 C   0  0  2  0  0  3  0  0  0  0  0  0
   22.8800   77.5250   14.7500 C   0  0  0  0  0  2  0  0  0  0  0  0
   21.6740   78.1430   14.3430 O   0  0  0  0  0  0  0  0  0  0  0  0
   21.4440   78.2750   12.9750 C   0  0  0  0  0  0  0  0  0  0  0  0
   20.5780   77.4390   12.2980 C   0  0  0  0  0  0  0  0  0  0  0  0
   19.6890   76.0820   13.2920 Br  0  0  0  0  0  0  0  0  0  0  0  0
   20.3360   77.5530   10.9430 C   0  0  0  0  0  0  0  0  0  0  0  0
   20.9660   78.5280   10.1980 C   0  0  0  0  0  0  0  0  0  0  0  0
   19.4660   76.7130   10.2710 C   0  0  0  0  0  3  0  0  0  0  0  0
   21.8340   79.3680   10.8650 C   0  0  0  0  0  3  0  0  0  0  0  0
   20.7230   78.6420    8.8390 C   0  0  0  0  0  3  0  0  0  0  0  0
   22.0690   79.2480   12.2200 C   0  0  0  0  0  3  0  0  0  0  0  0
   19.8550   77.8030    8.1710 C   0  0  0  0  0  3  0  0  0  0  0  0
   19.2250   76.8260    8.9160 C   0  0  0  0  0  3  0  0  0  0  0  0
   24.1030   76.8840   16.7170 O   0  0  0  0  0  0  0  0  0  0  0  0
   24.4080   77.0850   17.6200 H   0  0  0  0  0  0  0  0  0  0  0  0
   21.9080   77.7530   17.0070 C   0  0  0  0  0  2  0  0  0  0  0  0
   21.8270   78.8250   17.9730 N   0  0  0  0  0  4  0  0  0  0  0  0
   20.4860   78.7890   18.5310 C   0  0  0  0  0  2  0  0  0  0  0  0
   20.1850   80.0310   19.3830 C   0  0  0  0  0  2  0  0  0  0  0  0
   20.3630   81.1890   18.5830 N   0  0  0  0  0  0  0  0  0  0  0  0
   20.8360   80.9250   17.2080 C   0  0  0  0  0  2  0  0  0  0  0  0
   20.1260   82.5040   18.9990 C   0  0  0  0  0  0  0  0  0  0  0  0
   22.0680   80.0860   17.2880 C   0  0  0  0  0  2  0  0  0  0  0  0
   20.3710   83.4010   18.0580 O   0  0  0  0  0  0  0  0  0  0  0  0
   22.5000   78.7320   18.7630 H   0  0  0  0  0  0  0  0  0  0  0  0
   19.6750   83.0540   20.2370 C   0  0  0  0  0  0  0  0  0  0  0  0
   18.5900   83.8610   20.4270 C   0  0  0  0  0  3  0  0  0  0  0  0
   18.2050   84.3640   21.6620 C   0  0  0  0  0  3  0  0  0  0  0  0
   18.9220   84.0600   22.7750 C   0  0  0  0  0  3  0  0  0  0  0  0
   20.0250   83.2460   22.6160 C   0  0  0  0  0  3  0  0  0  0  0  0
   20.4060   82.7500   21.3950 C   0  0  0  0  0  3  0  0  0  0  0  0
  1  2  1  6  0  0  0
  1 15  1  0  0  0  0
  1 17  1  0  0  0  0
  3  2  1  0  0  0  0
  4  3  1  0  0  0  0
  5  4  1  0  0  0  0
  5  6  1  0  0  0  0
  7  5  2  0  0  0  0
  8 10  2  0  0  0  0
  8  7  1  0  0  0  0
  9  7  1  0  0  0  0
 10 12  1  0  0  0  0
 11  8  1  0  0  0  0
 12  4  2  0  0  0  0
 13 11  2  0  0  0  0
 13 14  1  0  0  0  0
 14  9  2  0  0  0  0
 15 16  1  0  0  0  0
 17 18  1  0  0  0  0
 18 19  1  0  0  0  0
 18 26  1  0  0  0  0
 19 20  1  0  0  0  0
 21 23  1  0  0  0  0
 21 20  1  0  0  0  0
 22 24  1  0  0  0  0
 22 21  1  0  0  0  0
 23 27  1  0  0  0  0
 24 18  1  0  0  0  0
 25 23  2  0  0  0  0
 27 28  2  0  0  0  0
 27 32  1  0  0  0  0
 28 29  1  0  0  0  0
 29 30  2  0  0  0  0
 31 30  1  0  0  0  0
 32 31  2  0  0  0  0
M  END
>  <Pose>
1

>  <Score>
-10.408

$$$$
