MODEL 1
REMARK VINA RESULT:   -10.408      0.000      0.000
REMARK INTER + INTRA:         -14.997
REMARK INTER:                 -14.362
REMARK INTRA:                  -0.635
REMARK UNBOUND:                -0.635
REMARK  7 active torsions:
REMARK  status: ('A' for Active; 'I' for Inactive)
REMARK    1  A    between atoms: C_7  and  O_8 
REMARK    2  A    between atoms: O_8  and  C_9 
REMARK    3  A    between atoms: C_9  and  C_10 
REMARK    4  A    between atoms: C_10  and  O_11 
REMARK    5  A    between atoms: C_10  and  C_12 
REMARK    6  A    between atoms: C_12  and  N_13 
REMARK       I    between atoms: N_16  and  C_19 
REMARK    7  A    between atoms: C_19  and  C_21 
ROOT
ATOM      1  C   UNK d   1      23.168  77.750  16.212  0.00  0.00     0.168 C 
ENDROOT
BRANCH   1   2
ATOM      2  C   UNK d   1      22.880  77.525  14.750  0.00  0.00     0.209 C 
BRANCH   2   3
ATOM      3  O   UNK d   1      21.674  78.143  14.343  0.00  0.00    -0.347 OA
BRANCH   3   4
ATOM      4  C   UNK d   1      21.444  78.275  12.975  0.00  0.00     0.087 A 
ATOM      5  C   UNK d   1      20.578  77.439  12.298  0.00  0.00     0.055 A 
ATOM      6 Br   UNK d   1      19.689  76.082  13.292  0.00  0.00    -0.047 Br
ATOM      7  C   UNK d   1      20.336  77.553  10.943  0.00  0.00    -0.006 A 
ATOM      8  C   UNK d   1      20.966  78.528  10.198  0.00  0.00    -0.024 A 
ATOM      9  C   UNK d   1      19.466  76.713  10.271  0.00  0.00     0.014 A 
ATOM     10  C   UNK d   1      21.834  79.368  10.865  0.00  0.00     0.015 A 
ATOM     11  C   UNK d   1      20.723  78.642   8.839  0.00  0.00     0.012 A 
ATOM     12  C   UNK d   1      22.069  79.248  12.220  0.00  0.00     0.039 A 
ATOM     13  C   UNK d   1      19.855  77.803   8.171  0.00  0.00     0.001 A 
ATOM     14  C   UNK d   1      19.225  76.826   8.916  0.00  0.00     0.001 A 
ENDBRANCH   3   4
ENDBRANCH   2   3
ENDBRANCH   1   2
BRANCH   1  15
ATOM     15  O   UNK d   1      24.103  76.884  16.717  0.00  0.00    -0.392 OA
ATOM     16  H   UNK d   1      24.408  77.085  17.620  0.00  0.00     0.210 HD
ENDBRANCH   1  15
BRANCH   1  17
ATOM     17  C   UNK d   1      21.908  77.753  17.007  0.00  0.00     0.268 C 
BRANCH  17  18
ATOM     18  N   UNK d   1      21.827  78.825  17.973  0.00  0.00    -0.066 N 
ATOM     19  C   UNK d   1      20.486  78.789  18.531  0.00  0.00     0.254 C 
ATOM     20  C   UNK d   1      20.185  80.031  19.383  0.00  0.00     0.152 C 
ATOM     21  N   UNK d   1      20.363  81.189  18.583  0.00  0.00    -0.356 N 
ATOM     22  C   UNK d   1      20.836  80.925  17.208  0.00  0.00     0.152 C 
ATOM     23  C   UNK d   1      20.126  82.504  18.999  0.00  0.00     0.187 C 
ATOM     24  C   UNK d   1      22.068  80.086  17.288  0.00  0.00     0.254 C 
ATOM     25  O   UNK d   1      20.371  83.401  18.058  0.00  0.00    -0.171 OA
ATOM     26  H   UNK d   1      22.500  78.732  18.763  0.00  0.00     0.280 HD
BRANCH  23  27
ATOM     27  C   UNK d   1      19.675  83.054  20.237  0.00  0.00     0.018 A 
ATOM     28  C   UNK d   1      18.590  83.861  20.427  0.00  0.00     0.016 A 
ATOM     29  C   UNK d   1      18.205  84.364  21.662  0.00  0.00     0.001 A 
ATOM     30  C   UNK d   1      18.922  84.060  22.775  0.00  0.00     0.000 A 
ATOM     31  C   UNK d   1      20.025  83.246  22.616  0.00  0.00     0.001 A 
ATOM     32  C   UNK d   1      20.406  82.750  21.395  0.00  0.00     0.016 A 
ENDBRANCH  23  27
ENDBRANCH  17  18
ENDBRANCH   1  17
TORSDOF 7
ENDMDL
