MODEL 1
REMARK VINA RESULT:    -8.874      0.000      0.000
REMARK INTER + INTRA:         -11.938
REMARK INTER:                 -10.950
REMARK INTRA:                  -0.988
REMARK UNBOUND:                -0.988
REMARK  4 active torsions:
REMARK  status: ('A' for Active; 'I' for Inactive)
REMARK    1  A    between atoms: N_3  and  C_14 
REMARK    2  A    between atoms: C_14  and  C_15 
REMARK    3  A    between atoms: C_15  and  C_16 
REMARK    4  A    between atoms: C_16  and  N_17 
ROOT
ATOM      1  C   UNK d   1      23.491  79.218  13.495  0.00  0.00     0.041 C 
ENDROOT
BRANCH   1   2
ATOM      2  C   UNK d   1      22.132  79.744  13.132  0.00  0.00     0.133 C 
BRANCH   2   3
ATOM      3  N   UNK d   1      21.473  78.993  12.084  0.00  0.00    -0.318 N 
ATOM      4  C   UNK d   1      21.474  79.335  10.759  0.00  0.00     0.180 A 
ATOM      5 Br   UNK d   1      22.381  80.869  10.089  0.00  0.00    -0.008 Br
ATOM      6  N   UNK d   1      20.762  78.447  10.050  0.00  0.00    -0.203 NA
ATOM      7  C   UNK d   1      20.278  77.505  10.889  0.00  0.00     0.169 A 
ATOM      8  C   UNK d   1      20.733  77.868  12.146  0.00  0.00     0.152 A 
ATOM      9  N   UNK d   1      19.511  76.429  10.644  0.00  0.00    -0.286 N 
ATOM     10  C   UNK d   1      20.375  77.080  13.197  0.00  0.00     0.280 A 
ATOM     11  N   UNK d   1      19.598  75.990  12.946  0.00  0.00    -0.273 N 
ATOM     12  O   UNK d   1      20.754  77.361  14.353  0.00  0.00    -0.265 OA
ATOM     13  C   UNK d   1      19.178  75.674  11.707  0.00  0.00     0.330 A 
ATOM     14  H   UNK d   1      19.349  75.416  13.779  0.00  0.00     0.173 HD
ATOM     15  O   UNK d   1      18.452  74.639  11.526  0.00  0.00    -0.246 OA
ATOM     16  C   UNK d   1      19.041  76.057   9.327  0.00  0.00     0.163 C 
ENDBRANCH   2   3
ENDBRANCH   1   2
BRANCH   1  17
ATOM     17  C   UNK d   1      23.999  79.668  14.834  0.00  0.00     0.133 C 
BRANCH  17  18
ATOM     18  N   UNK d   1      23.329  78.929  15.896  0.00  0.00    -0.318 N 
ATOM     19  C   UNK d   1      22.321  79.340  16.697  0.00  0.00     0.152 A 
ATOM     20  C   UNK d   1      21.969  78.339  17.573  0.00  0.00     0.169 A 
ATOM     21  C   UNK d   1      21.635  80.524  16.771  0.00  0.00     0.280 A 
ATOM     22  N   UNK d   1      22.785  77.307  17.289  0.00  0.00    -0.203 NA
ATOM     23  N   UNK d   1      20.994  78.461  18.493  0.00  0.00    -0.286 N 
ATOM     24  C   UNK d   1      23.602  77.671  16.277  0.00  0.00     0.180 A 
ATOM     25 Br   UNK d   1      24.961  76.603  15.464  0.00  0.00    -0.008 Br
ATOM     26  C   UNK d   1      20.343  79.649  18.530  0.00  0.00     0.330 A 
ATOM     27  C   UNK d   1      20.655  77.369  19.403  0.00  0.00     0.163 C 
ATOM     28  O   UNK d   1      19.422  79.767  19.395  0.00  0.00    -0.246 OA
ATOM     29  N   UNK d   1      20.656  80.657  17.690  0.00  0.00    -0.273 N 
ATOM     30  H   UNK d   1      20.122  81.546  17.764  0.00  0.00     0.173 HD
ATOM     31  O   UNK d   1      21.951  81.442  15.976  0.00  0.00    -0.265 OA
ENDBRANCH  17  18
ENDBRANCH   1  17
TORSDOF 4
ENDMDL
