/Users/jonathanwahrer/Desktop/Msc/3_Semester/Drug_Design_Praktikum/waehrer_HTS_screening/HTS_experiment/out/docking_results/vina_output/6e43/0709_docked.pdbqt
 OpenBabel03212220063D

 30 33  0  0  0  0  0  0  0  0999 V2000
   20.3290   77.2580    9.8840 C   0  0  0  0  0  2  0  0  0  0  0  0
   19.3100   77.3530    8.8950 N   0  0  0  0  0  0  0  0  0  0  0  0
   18.4720   78.4050    8.7360 C   0  0  0  0  0  0  0  0  0  0  0  0
   18.5450   79.9670    9.8310 Br  0  0  0  0  0  0  0  0  0  0  0  0
   17.6300   78.1520    7.7220 N   0  0  0  0  0  0  0  0  0  0  0  0
   17.8960   76.9350    7.1950 C   0  0  0  0  0  0  0  0  0  0  0  0
   18.9590   76.4490    7.9510 C   0  0  0  0  0  0  0  0  0  0  0  0
   17.3650   76.2090    6.1950 N   0  0  0  0  0  0  0  0  0  0  0  0
   19.4160   75.1980    7.6110 C   0  0  0  0  0  0  0  0  0  0  0  0
   18.8760   74.4680    6.6010 N   0  0  0  0  0  0  0  0  0  0  0  0
   20.3800   74.7410    8.2930 O   0  0  0  0  0  0  0  0  0  0  0  0
   17.8510   74.9900    5.9030 C   0  0  0  0  0  0  0  0  0  0  0  0
   19.2680   73.5250    6.3910 H   0  0  0  0  0  0  0  0  0  0  0  0
   17.3550   74.2970    4.9580 O   0  0  0  0  0  0  0  0  0  0  0  0
   16.2620   76.7070    5.4060 C   0  0  0  0  0  1  0  0  0  0  0  0
   20.0670   77.9170   11.1910 C   0  0  0  0  0  2  0  0  0  0  0  0
   21.1790   78.3260   11.9750 N   0  0  0  0  0  0  0  0  0  0  0  0
   21.4790   77.9590   13.2310 C   0  0  0  0  0  0  0  0  0  0  0  0
   22.6400   78.5950   13.6200 C   0  0  0  0  0  0  0  0  0  0  0  0
   20.8990   77.1140   14.1640 C   0  0  0  0  0  0  0  0  0  0  0  0
   23.0010   79.3360   12.5530 N   0  0  0  0  0  0  0  0  0  0  0  0
   23.1460   78.3840   14.8350 N   0  0  0  0  0  0  0  0  0  0  0  0
   22.1440   79.1940   11.5490 C   0  0  0  0  0  0  0  0  0  0  0  0
   22.2150   80.0350    9.8170 Br  0  0  0  0  0  0  0  0  0  0  0  0
   22.5380   77.5570   15.6890 C   0  0  0  0  0  0  0  0  0  0  0  0
   24.3600   79.0440   15.2560 C   0  0  0  0  0  1  0  0  0  0  0  0
   22.9980   77.3370   16.8590 O   0  0  0  0  0  0  0  0  0  0  0  0
   21.4050   76.9010   15.3860 N   0  0  0  0  0  0  0  0  0  0  0  0
   20.9510   76.2560   16.0820 H   0  0  0  0  0  0  0  0  0  0  0  0
   19.8460   76.5050   13.8710 O   0  0  0  0  0  0  0  0  0  0  0  0
  1 16  1  0  0  0  0
  2  1  1  0  0  0  0
  3  2  1  0  0  0  0
  3  4  1  0  0  0  0
  5  3  2  0  0  0  0
  6  5  1  0  0  0  0
  6  7  2  0  0  0  0
  7  2  1  0  0  0  0
  8  6  1  0  0  0  0
  9  7  1  0  0  0  0
  9 11  2  0  0  0  0
 10  9  1  0  0  0  0
 12  8  1  0  0  0  0
 12 10  1  0  0  0  0
 13 10  1  0  0  0  0
 14 12  2  0  0  0  0
 15  8  1  0  0  0  0
 16 17  1  0  0  0  0
 17 18  1  0  0  0  0
 18 19  2  0  0  0  0
 18 20  1  0  0  0  0
 19 22  1  0  0  0  0
 20 28  1  0  0  0  0
 21 19  1  0  0  0  0
 22 26  1  0  0  0  0
 22 25  1  0  0  0  0
 23 17  1  0  0  0  0
 23 21  2  0  0  0  0
 24 23  1  0  0  0  0
 25 27  2  0  0  0  0
 28 25  1  0  0  0  0
 28 29  1  0  0  0  0
 30 20  2  0  0  0  0
M  END
>  <Pose>
1

>  <Score>
-9.133

$$$$
