MODEL 1
REMARK VINA RESULT:    -9.133      0.000      0.000
REMARK INTER + INTRA:         -10.190
REMARK INTER:                 -10.735
REMARK INTRA:                   0.545
REMARK UNBOUND:                 0.545
REMARK  3 active torsions:
REMARK  status: ('A' for Active; 'I' for Inactive)
REMARK    1  A    between atoms: N_3  and  C_14 
REMARK    2  A    between atoms: C_14  and  C_15 
REMARK    3  A    between atoms: C_15  and  N_16 
ROOT
ATOM      1  C   UNK d   1      20.329  77.258   9.884  0.00  0.00     0.152 C 
ENDROOT
BRANCH   1   2
ATOM      2  N   UNK d   1      19.310  77.353   8.895  0.00  0.00    -0.316 N 
ATOM      3  C   UNK d   1      18.472  78.405   8.736  0.00  0.00     0.180 A 
ATOM      4 Br   UNK d   1      18.545  79.967   9.831  0.00  0.00    -0.008 Br
ATOM      5  N   UNK d   1      17.630  78.152   7.722  0.00  0.00    -0.203 NA
ATOM      6  C   UNK d   1      17.896  76.935   7.195  0.00  0.00     0.169 A 
ATOM      7  C   UNK d   1      18.959  76.449   7.951  0.00  0.00     0.152 A 
ATOM      8  N   UNK d   1      17.365  76.209   6.195  0.00  0.00    -0.286 N 
ATOM      9  C   UNK d   1      19.416  75.198   7.611  0.00  0.00     0.280 A 
ATOM     10  N   UNK d   1      18.876  74.468   6.601  0.00  0.00    -0.273 N 
ATOM     11  O   UNK d   1      20.380  74.741   8.293  0.00  0.00    -0.265 OA
ATOM     12  C   UNK d   1      17.851  74.990   5.903  0.00  0.00     0.330 A 
ATOM     13  H   UNK d   1      19.268  73.525   6.391  0.00  0.00     0.173 HD
ATOM     14  O   UNK d   1      17.355  74.297   4.958  0.00  0.00    -0.246 OA
ATOM     15  C   UNK d   1      16.262  76.707   5.406  0.00  0.00     0.163 C 
ENDBRANCH   1   2
BRANCH   1  16
ATOM     16  C   UNK d   1      20.067  77.917  11.191  0.00  0.00     0.152 C 
BRANCH  16  17
ATOM     17  N   UNK d   1      21.179  78.326  11.975  0.00  0.00    -0.316 N 
ATOM     18  C   UNK d   1      21.479  77.959  13.231  0.00  0.00     0.152 A 
ATOM     19  C   UNK d   1      22.640  78.595  13.620  0.00  0.00     0.169 A 
ATOM     20  C   UNK d   1      20.899  77.114  14.164  0.00  0.00     0.280 A 
ATOM     21  N   UNK d   1      23.001  79.336  12.553  0.00  0.00    -0.203 NA
ATOM     22  N   UNK d   1      23.146  78.384  14.835  0.00  0.00    -0.286 N 
ATOM     23  C   UNK d   1      22.144  79.194  11.549  0.00  0.00     0.180 A 
ATOM     24 Br   UNK d   1      22.215  80.035   9.817  0.00  0.00    -0.008 Br
ATOM     25  C   UNK d   1      22.538  77.557  15.689  0.00  0.00     0.330 A 
ATOM     26  C   UNK d   1      24.360  79.044  15.256  0.00  0.00     0.163 C 
ATOM     27  O   UNK d   1      22.998  77.337  16.859  0.00  0.00    -0.246 OA
ATOM     28  N   UNK d   1      21.405  76.901  15.386  0.00  0.00    -0.273 N 
ATOM     29  H   UNK d   1      20.951  76.256  16.082  0.00  0.00     0.173 HD
ATOM     30  O   UNK d   1      19.846  76.505  13.871  0.00  0.00    -0.265 OA
ENDBRANCH  16  17
ENDBRANCH   1  16
TORSDOF 3
ENDMDL
