MODEL 1
REMARK VINA RESULT:    -9.943      0.000      0.000
REMARK INTER + INTRA:         -13.082
REMARK INTER:                 -12.268
REMARK INTRA:                  -0.814
REMARK UNBOUND:                -0.814
REMARK  4 active torsions:
REMARK  status: ('A' for Active; 'I' for Inactive)
REMARK    1  A    between atoms: N_4  and  C_7 
REMARK    2  A    between atoms: C_9  and  C_17 
REMARK       I    between atoms: C_17  and  N_19 
REMARK    3  A    between atoms: N_19  and  C_20 
REMARK    4  A    between atoms: C_21  and  C_26 
REMARK       I    between atoms: C_26  and  N_28 
ROOT
ATOM      1  C   UNK d   1      22.328  79.048  11.610  0.00  0.00     0.059 C 
ATOM      2  C   UNK d   1      20.993  78.593  11.064  0.00  0.00     0.052 C 
ATOM      3  C   UNK d   1      20.676  79.362   9.815  0.00  0.00     0.044 C 
ATOM      4  C   UNK d   1      21.723  78.938   8.776  0.00  0.00     0.024 C 
ATOM      5  C   UNK d   1      23.094  79.265   9.310  0.00  0.00    -0.011 C 
ATOM      6  C   UNK d   1      23.386  78.595  10.628  0.00  0.00     0.038 C 
ATOM      7  C   UNK d   1      23.210  80.750   9.449  0.00  0.00     0.009 C 
ATOM      8  C   UNK d   1      22.171  81.223  10.440  0.00  0.00    -0.011 C 
ATOM      9  C   UNK d   1      22.421  80.536  11.741  0.00  0.00     0.038 C 
ATOM     10  C   UNK d   1      20.788  80.843   9.959  0.00  0.00     0.024 C 
ENDROOT
BRANCH   3  11
ATOM     11  C   UNK d   1      19.332  79.028   9.298  0.00  0.00     0.231 C 
ATOM     12  O   UNK d   1      18.382  78.963  10.120  0.00  0.00    -0.272 OA
ATOM     13  N   UNK d   1      19.119  78.786   7.911  0.00  0.00    -0.323 N 
ATOM     14  H   UNK d   1      19.953  78.857   7.298  0.00  0.00     0.169 HD
BRANCH  13  15
ATOM     15  C   UNK d   1      17.868  78.458   7.324  0.00  0.00     0.088 A 
ATOM     16  C   UNK d   1      17.531  77.217   6.864  0.00  0.00     0.148 A 
ATOM     17  N   UNK d   1      16.269  77.300   6.380  0.00  0.00    -0.267 N 
ATOM     18  N   UNK d   1      15.838  78.534   6.530  0.00  0.00    -0.182 NA
ATOM     19  C   UNK d   1      15.475  76.240   5.785  0.00  0.00     0.180 C 
ATOM     20  C   UNK d   1      16.784  79.283   7.105  0.00  0.00     0.171 A 
BRANCH  16  21
ATOM     21  C   UNK d   1      18.277  75.975   6.837  0.00  0.00     0.270 C 
ATOM     22  O   UNK d   1      18.660  75.468   5.754  0.00  0.00    -0.266 OA
ATOM     23  N   UNK d   1      18.626  75.247   8.007  0.00  0.00    -0.365 N 
ATOM     24  H   UNK d   1      19.618  75.345   8.372  0.00  0.00     0.159 HD
ATOM     25  H   UNK d   1      17.986  74.624   8.535  0.00  0.00     0.159 HD
ENDBRANCH  16  21
ENDBRANCH  13  15
ENDBRANCH   3  11
BRANCH   1  26
ATOM     26  N   UNK d   1      22.536  78.456  12.930  0.00  0.00    -0.251 N 
ATOM     27  N   UNK d   1      23.681  78.338  13.591  0.00  0.00    -0.142 NA
ATOM     28  C   UNK d   1      23.485  77.740  14.780  0.00  0.00     0.217 A 
ATOM     29 Br   UNK d   1      24.798  77.329  16.116  0.00  0.00    -0.005 Br
ATOM     30  N   UNK d   1      22.163  77.472  14.868  0.00  0.00    -0.215 NA
ATOM     31  C   UNK d   1      21.601  77.915  13.734  0.00  0.00     0.232 A 
ENDBRANCH   1  26
TORSDOF 4
ENDMDL
