MODEL 1
REMARK VINA RESULT:    -8.468      0.000      0.000
REMARK INTER + INTRA:          -9.713
REMARK INTER:                  -9.458
REMARK INTRA:                  -0.255
REMARK UNBOUND:                -0.255
REMARK  2 active torsions:
REMARK  status: ('A' for Active; 'I' for Inactive)
REMARK    1  A    between atoms: C_9  and  N_11 
REMARK    2  A    between atoms: C_12  and  C_17 
ROOT
ATOM      1  N   UNK d   1      21.440  79.056  16.896  0.00  0.00    -0.348 N 
ATOM      2  C   UNK d   1      22.281  78.342  17.804  0.00  0.00     0.189 C 
ATOM      3  C   UNK d   1      21.586  77.242  18.509  0.00  0.00     0.201 C 
ATOM      4  O   UNK d   1      20.226  77.171  18.374  0.00  0.00    -0.387 OA
ATOM      5  C   UNK d   1      19.617  78.420  18.331  0.00  0.00     0.187 C 
ATOM      6  C   UNK d   1      20.040  79.219  17.141  0.00  0.00     0.151 C 
ENDROOT
BRANCH   1   7
ATOM      7  C   UNK d   1      21.954  79.666  15.702  0.00  0.00     0.145 A 
ATOM      8  N   UNK d   1      22.630  80.852  15.808  0.00  0.00    -0.223 NA
ATOM      9  C   UNK d   1      23.179  81.439  14.730  0.00  0.00     0.237 A 
ATOM     10  N   UNK d   1      23.078  80.874  13.514  0.00  0.00    -0.222 NA
ATOM     11  C   UNK d   1      22.432  79.717  13.333  0.00  0.00     0.164 A 
ATOM     12  N   UNK d   1      22.194  78.988  12.227  0.00  0.00    -0.255 N 
ATOM     13  C   UNK d   1      21.861  79.108  14.458  0.00  0.00     0.095 A 
ATOM     14  N   UNK d   1      21.495  77.948  12.618  0.00  0.00    -0.163 NA
ATOM     15  C   UNK d   1      22.616  79.275  10.869  0.00  0.00     0.182 C 
ATOM     16  C   UNK d   1      21.269  77.977  13.951  0.00  0.00     0.141 A 
ATOM     17 Br   UNK d   1      20.277  76.719  14.979  0.00  0.00    -0.026 Br
ENDBRANCH   1   7
BRANCH   2  18
ATOM     18  C   UNK d   1      23.550  77.928  17.164  0.00  0.00     0.198 A 
ATOM     19  N   UNK d   1      23.722  76.863  16.381  0.00  0.00    -0.207 NA
ATOM     20  C   UNK d   1      25.036  76.862  16.016  0.00  0.00     0.152 A 
ATOM     21  N   UNK d   1      25.596  77.935  16.602  0.00  0.00    -0.112 NA
ATOM     22  C   UNK d   1      25.725  75.881  15.146  0.00  0.00     0.096 C 
ATOM     23  O   UNK d   1      24.682  78.559  17.287  0.00  0.00    -0.194 OA
ENDBRANCH   2  18
TORSDOF 2
ENDMDL
