MODEL 1
REMARK VINA RESULT:    -6.768      0.000      0.000
REMARK INTER + INTRA:          -7.442
REMARK INTER:                  -7.164
REMARK INTRA:                  -0.277
REMARK UNBOUND:                -0.277
REMARK  1 active torsions:
REMARK  status: ('A' for Active; 'I' for Inactive)
REMARK    1  A    between atoms: C_9  and  N_11 
ROOT
ATOM      1 Br   UNK d   1      23.017  80.603  13.035  0.00  0.00    -0.026 Br
ATOM      2  C   UNK d   1      22.468  79.248  14.253  0.00  0.00     0.141 A 
ATOM      3  N   UNK d   1      22.892  79.111  15.544  0.00  0.00    -0.163 NA
ATOM      4  N   UNK d   1      22.283  78.079  16.079  0.00  0.00    -0.255 N 
ATOM      5  C   UNK d   1      21.459  77.517  15.180  0.00  0.00     0.164 A 
ATOM      6  N   UNK d   1      20.618  76.471  15.217  0.00  0.00    -0.222 NA
ATOM      7  C   UNK d   1      19.886  76.120  14.162  0.00  0.00     0.237 A 
ATOM      8  N   UNK d   1      19.981  76.815  13.033  0.00  0.00    -0.223 NA
ATOM      9  C   UNK d   1      20.810  77.902  12.887  0.00  0.00     0.144 A 
ATOM     10  C   UNK d   1      21.555  78.250  13.985  0.00  0.00     0.095 A 
ATOM     11  C   UNK d   1      22.424  77.552  17.445  0.00  0.00     0.182 C 
ENDROOT
BRANCH   9  12
ATOM     12  N   UNK d   1      20.905  78.574  11.669  0.00  0.00    -0.359 N 
ATOM     13  C   UNK d   1      21.745  78.079  10.600  0.00  0.00     0.131 C 
ATOM     14  C   UNK d   1      20.809  77.523   9.506  0.00  0.00     0.079 C 
ATOM     15  C   UNK d   1      19.613  78.387   9.402  0.00  0.00     0.040 A 
ATOM     16  N   UNK d   1      18.632  78.307   8.474  0.00  0.00    -0.347 N 
ATOM     17  C   UNK d   1      19.280  79.423  10.222  0.00  0.00     0.076 A 
ATOM     18  C   UNK d   1      17.737  79.274   8.740  0.00  0.00     0.209 A 
ATOM     19  C   UNK d   1      18.512  77.378   7.380  0.00  0.00     0.157 C 
ATOM     20  N   UNK d   1      18.116  79.971   9.809  0.00  0.00    -0.245 NA
ATOM     21  C   UNK d   1      20.167  79.772  11.358  0.00  0.00     0.185 C 
ENDBRANCH   9  12
TORSDOF 1
ENDMDL
