MODEL 1
REMARK VINA RESULT:    -8.768      0.000      0.000
REMARK INTER + INTRA:          -9.200
REMARK INTER:                  -9.281
REMARK INTRA:                   0.081
REMARK UNBOUND:                 0.081
REMARK  1 active torsions:
REMARK  status: ('A' for Active; 'I' for Inactive)
REMARK    1  A    between atoms: N_8  and  C_11 
ROOT
ATOM      1  C   UNK d   1      19.491  75.388  13.255  0.00  0.00     0.148 A 
ATOM      2  C   UNK d   1      19.164  74.176  13.642  0.00  0.00     0.080 A 
ATOM      3  C   UNK d   1      18.623  73.183  12.700  0.00  0.00     0.043 A 
ATOM      4  C   UNK d   1      18.290  71.961  13.075  0.00  0.00     0.043 C 
ATOM      5  N   UNK d   1      18.486  73.630  11.360  0.00  0.00    -0.189 N 
ATOM      6  C   UNK d   1      18.849  74.957  10.957  0.00  0.00     0.730 A 
ATOM      7  N   UNK d   1      19.339  75.795  11.910  0.00  0.00    -0.044 N 
ATOM      8  N   UNK d   1      19.594  76.947  11.280  0.00  0.00    -0.143 NA
ATOM      9  C   UNK d   1      19.284  76.864   9.977  0.00  0.00     0.275 A 
ATOM     10  N   UNK d   1      18.821  75.618   9.787  0.00  0.00    -0.054 NA
ATOM     11  H   UNK d   1      18.108  72.973  10.644  0.00  0.00     0.184 HD
ENDROOT
BRANCH   1  12
ATOM     12  N   UNK d   1      20.004  76.299  14.199  0.00  0.00    -0.357 N 
ATOM     13  C   UNK d   1      19.342  76.393  15.476  0.00  0.00     0.203 C 
ATOM     14  C   UNK d   1      20.290  76.889  16.517  0.00  0.00     0.124 A 
ATOM     15  N   UNK d   1      21.286  77.710  16.193  0.00  0.00    -0.325 N 
ATOM     16  N   UNK d   1      20.372  76.671  17.856  0.00  0.00    -0.243 NA
ATOM     17  C   UNK d   1      21.991  78.014  17.289  0.00  0.00     0.101 A 
ATOM     18  C   UNK d   1      21.492  78.153  14.828  0.00  0.00     0.151 C 
ATOM     19 Br   UNK d   1      23.532  79.146  17.434  0.00  0.00    -0.029 Br
ATOM     20  C   UNK d   1      21.417  77.355  18.356  0.00  0.00     0.156 A 
ATOM     21  C   UNK d   1      21.159  77.084  13.829  0.00  0.00     0.145 C 
ENDBRANCH   1  12
TORSDOF 1
ENDMDL
