MODEL 1
REMARK VINA RESULT:    -9.579      0.000      0.000
REMARK INTER + INTRA:         -12.359
REMARK INTER:                 -11.819
REMARK INTRA:                  -0.540
REMARK UNBOUND:                -0.540
REMARK  4 active torsions:
REMARK  status: ('A' for Active; 'I' for Inactive)
REMARK    1  A    between atoms: C_4  and  C_7 
REMARK       I    between atoms: C_7  and  N_9 
REMARK    2  A    between atoms: N_9  and  C_10 
REMARK    3  A    between atoms: C_10  and  C_11 
REMARK    4  A    between atoms: C_11  and  C_12 
REMARK       I    between atoms: C_12  and  N_14 
ROOT
ATOM      1  C   UNK d   1      21.823  79.511  11.723  0.00  0.00     0.221 C 
ATOM      2  O   UNK d   1      21.239  80.540  11.245  0.00  0.00    -0.273 OA
ATOM      3  N   UNK d   1      22.734  79.640  12.806  0.00  0.00    -0.352 N 
ATOM      4  C   UNK d   1      22.996  80.939  13.362  0.00  0.00     0.129 C 
ATOM      5  C   UNK d   1      23.276  80.928  14.834  0.00  0.00     0.068 C 
ATOM      6  C   UNK d   1      23.795  79.613  15.336  0.00  0.00     0.204 C 
ATOM      7  N   UNK d   1      24.643  79.802  16.474  0.00  0.00     0.099 N 
ATOM      8  C   UNK d   1      25.214  78.605  16.990  0.00  0.00     0.277 C 
ATOM      9  C   UNK d   1      24.281  77.444  17.098  0.00  0.00     0.091 C 
ATOM     10  C   UNK d   1      22.905  77.757  16.635  0.00  0.00     0.062 A 
ATOM     11  N   UNK d   1      21.731  77.180  16.895  0.00  0.00    -0.246 NA
ATOM     12  C   UNK d   1      20.762  77.830  16.235  0.00  0.00     0.207 A 
ATOM     13  N   UNK d   1      21.311  78.836  15.542  0.00  0.00    -0.350 N 
ATOM     14  C   UNK d   1      22.628  78.797  15.783  0.00  0.00     0.074 A 
ATOM     15  C   UNK d   1      24.475  78.852  14.209  0.00  0.00     0.068 C 
ATOM     16  C   UNK d   1      23.356  78.411  13.289  0.00  0.00     0.129 C 
ATOM     17  H   UNK d   1      25.413  80.451  16.200  0.00  0.00     0.317 HD
ATOM     18  H   UNK d   1      20.800  79.538  14.915  0.00  0.00     0.166 HD
ENDROOT
BRANCH   1  19
ATOM     19  C   UNK d   1      21.499  78.220  11.095  0.00  0.00     0.122 C 
BRANCH  19  20
ATOM     20  C   UNK d   1      20.027  77.954  11.020  0.00  0.00     0.132 C 
BRANCH  20  21
ATOM     21  N   UNK d   1      19.624  76.776  11.723  0.00  0.00    -0.355 N 
ATOM     22  C   UNK d   1      19.173  75.605  11.056  0.00  0.00     0.275 C 
ATOM     23  O   UNK d   1      19.134  75.626   9.790  0.00  0.00    -0.265 OA
ATOM     24  H   UNK d   1      19.656  76.762  12.760  0.00  0.00     0.162 HD
BRANCH  22  25
ATOM     25  C   UNK d   1      18.762  74.406  11.742  0.00  0.00     0.144 A 
ATOM     26  O   UNK d   1      18.072  73.431  11.251  0.00  0.00    -0.298 OA
ATOM     27  C   UNK d   1      17.859  72.487  12.118  0.00  0.00     0.122 A 
ATOM     28 Br   UNK d   1      16.896  70.836  11.894  0.00  0.00    -0.023 Br
ATOM     29  C   UNK d   1      18.464  72.872  13.293  0.00  0.00     0.048 A 
ATOM     30  C   UNK d   1      19.050  74.101  13.078  0.00  0.00     0.046 A 
ENDBRANCH  22  25
ENDBRANCH  20  21
ENDBRANCH  19  20
ENDBRANCH   1  19
TORSDOF 4
ENDMDL
