/Users/jonathanwahrer/Desktop/Msc/3_Semester/Drug_Design_Praktikum/waehrer_HTS_screening/HTS_experiment/out/docking_results/vina_output/6e43/0746_docked.pdbqt
 OpenBabel03212220073D

 30 33  0  0  1  0  0  0  0  0999 V2000
   23.4540   78.7880   14.1070 C   0  0  0  0  0  0  0  0  0  0  0  0
   23.7160   77.5480   13.9250 O   0  0  0  0  0  0  0  0  0  0  0  0
   23.2390   79.2040   15.4260 N   0  0  0  0  0  0  0  0  0  0  0  0
   22.9390   80.5770   15.7780 C   0  0  0  0  0  2  0  0  0  0  0  0
   21.5820   80.6040   16.4110 C   0  0  0  0  0  2  0  0  0  0  0  0
   21.4620   79.6200   17.5320 C   0  0  1  0  0  0  0  0  0  0  0  0
   21.0670   80.3370   18.7320 N   0  0  0  0  0  0  0  0  0  0  0  0
   19.7340   80.8680   18.5160 C   0  0  0  0  0  2  0  0  0  0  0  0
   18.7650   79.7130   18.7920 C   0  0  0  0  0  2  0  0  0  0  0  0
   19.1660   78.6240   17.8680 C   0  0  0  0  0  0  0  0  0  0  0  0
   18.4620   77.5560   17.4470 N   0  0  0  0  0  0  0  0  0  0  0  0
   19.2540   76.8590   16.6160 C   0  0  0  0  0  3  0  0  0  0  0  0
   20.4350   77.4980   16.5310 N   0  0  0  0  0  0  0  0  0  0  0  0
   20.4140   78.6010   17.2970 C   0  0  0  0  0  0  0  0  0  0  0  0
   22.8160   78.9570   17.7830 C   0  0  0  0  0  2  0  0  0  0  0  0
   23.3110   78.2820   16.5450 C   0  0  0  0  0  2  0  0  0  0  0  0
   21.6910   81.1750   18.8990 H   0  0  0  0  0  0  0  0  0  0  0  0
   17.4790   77.2700   17.6870 H   0  0  0  0  0  0  0  0  0  0  0  0
   23.4130   79.6210   12.8940 C   0  0  2  0  0  3  0  0  0  0  0  0
   23.3550   81.0870   13.1290 C   0  0  0  0  0  1  0  0  0  0  0  0
   22.3300   79.2460   12.0070 N   0  0  0  0  0  0  0  0  0  0  0  0
   22.5320   78.7610   10.7020 C   0  0  0  0  0  0  0  0  0  0  0  0
   23.6930   78.6400   10.2620 O   0  0  0  0  0  0  0  0  0  0  0  0
   21.3580   79.3430   12.3640 H   0  0  0  0  0  0  0  0  0  0  0  0
   21.4010   78.4010    9.8610 C   0  0  0  0  0  0  0  0  0  0  0  0
   21.1120   77.1630    9.4600 O   0  0  0  0  0  0  0  0  0  0  0  0
   20.0370   77.1610    8.7150 C   0  0  0  0  0  0  0  0  0  0  0  0
   19.2330   75.6090    7.9090 Br  0  0  0  0  0  0  0  0  0  0  0  0
   19.5630   78.4580    8.5960 C   0  0  0  0  0  3  0  0  0  0  0  0
   20.4360   79.2250    9.3240 C   0  0  0  0  0  3  0  0  0  0  0  0
  1  3  1  0  0  0  0
  2  1  2  0  0  0  0
  3  4  1  0  0  0  0
  3 16  1  0  0  0  0
  4  5  1  0  0  0  0
  6  5  1  6  0  0  0
  6 15  1  0  0  0  0
  6  7  1  0  0  0  0
  7 17  1  0  0  0  0
  8  7  1  0  0  0  0
  8  9  1  0  0  0  0
 10  9  1  0  0  0  0
 11 18  1  0  0  0  0
 11 10  1  0  0  0  0
 12 11  1  0  0  0  0
 13 12  2  0  0  0  0
 13 14  1  0  0  0  0
 14  6  1  0  0  0  0
 14 10  2  0  0  0  0
 16 15  1  0  0  0  0
 19 20  1  1  0  0  0
 19  1  1  0  0  0  0
 21 24  1  0  0  0  0
 21 19  1  0  0  0  0
 22 21  1  0  0  0  0
 23 22  2  0  0  0  0
 25 22  1  0  0  0  0
 26 25  1  0  0  0  0
 27 26  1  0  0  0  0
 28 27  1  0  0  0  0
 29 27  2  0  0  0  0
 29 30  1  0  0  0  0
 30 25  2  0  0  0  0
M  END
>  <Pose>
1

>  <Score>
-8.647

$$$$
