/Users/jonathanwahrer/Desktop/Msc/3_Semester/Drug_Design_Praktikum/waehrer_HTS_screening/HTS_experiment/out/docking_results/vina_output/6e43/0754_docked.pdbqt
 OpenBabel03212220073D

 27 30  0  0  0  0  0  0  0  0999 V2000
   19.9460   80.6800   20.3960 C   0  0  0  0  0  0  0  0  0  0  0  0
   20.5070   80.4050   21.4660 O   0  0  0  0  0  0  0  0  0  0  0  0
   19.5670   79.6400   19.5120 N   0  0  0  0  0  0  0  0  0  0  0  0
   19.8350   78.2610   19.8650 C   0  0  0  0  0  2  0  0  0  0  0  0
   20.7380   77.5810   18.8640 C   0  0  0  0  0  2  0  0  0  0  0  0
   20.4870   78.2340   17.5680 N   0  0  0  0  0  0  0  0  0  0  0  0
   19.1460   78.6390   17.3200 C   0  0  0  0  0  2  0  0  0  0  0  0
   18.9090   79.8540   18.2370 C   0  0  0  0  0  2  0  0  0  0  0  0
   21.5990   78.3890   16.7050 C   0  0  0  0  0  0  0  0  0  0  0  0
   21.4570   78.3750   15.3510 N   0  0  0  0  0  0  0  0  0  0  0  0
   22.5030   78.5190   14.5220 C   0  0  0  0  0  0  0  0  0  0  0  0
   23.7460   78.6850   15.0220 N   0  0  0  0  0  0  0  0  0  0  0  0
   23.9820   78.7130   16.3450 C   0  0  0  0  0  0  0  0  0  0  0  0
   22.8670   78.5580   17.1820 C   0  0  0  0  0  3  0  0  0  0  0  0
   25.3430   78.8950   16.9180 C   0  0  0  0  0  1  0  0  0  0  0  0
   22.3030   78.4980   13.1180 N   0  0  0  0  0  0  0  0  0  0  0  0
   21.0800   78.0450   12.5000 C   0  0  0  0  0  2  0  0  0  0  0  0
   20.5690   79.0850   11.5490 C   0  0  0  0  0  2  0  0  0  0  0  0
   21.4860   80.1070   11.3130 O   0  0  0  0  0  0  0  0  0  0  0  0
   22.7440   79.5830   11.0260 C   0  0  0  0  0  2  0  0  0  0  0  0
   23.3660   78.9490   12.2470 C   0  0  0  0  0  2  0  0  0  0  0  0
   19.6880   82.0950   20.0760 C   0  0  0  0  0  0  0  0  0  0  0  0
   20.1640   82.7980   19.0930 O   0  0  0  0  0  0  0  0  0  0  0  0
   19.7310   84.0070   19.1100 C   0  0  0  0  0  0  0  0  0  0  0  0
   20.1370   85.4400   17.8760 Br  0  0  0  0  0  0  0  0  0  0  0  0
   18.8920   84.1480   20.1890 C   0  0  0  0  0  3  0  0  0  0  0  0
   18.8670   82.9230   20.8050 C   0  0  0  0  0  3  0  0  0  0  0  0
  1  2  2  0  0  0  0
  3  4  1  0  0  0  0
  3  1  1  0  0  0  0
  5  4  1  0  0  0  0
  6  5  1  0  0  0  0
  7  6  1  0  0  0  0
  7  8  1  0  0  0  0
  8  3  1  0  0  0  0
  9 14  2  0  0  0  0
  9  6  1  0  0  0  0
 10  9  1  0  0  0  0
 11 12  1  0  0  0  0
 11 10  2  0  0  0  0
 12 13  2  0  0  0  0
 13 15  1  0  0  0  0
 13 14  1  0  0  0  0
 16 11  1  0  0  0  0
 17 16  1  0  0  0  0
 18 17  1  0  0  0  0
 19 18  1  0  0  0  0
 20 19  1  0  0  0  0
 20 21  1  0  0  0  0
 21 16  1  0  0  0  0
 22  1  1  0  0  0  0
 22 27  2  0  0  0  0
 23 24  1  0  0  0  0
 23 22  1  0  0  0  0
 24 26  2  0  0  0  0
 25 24  1  0  0  0  0
 26 27  1  0  0  0  0
M  END
>  <Pose>
1

>  <Score>
-8.437

$$$$
