MODEL 1
REMARK VINA RESULT:    -9.964      0.000      0.000
REMARK INTER + INTRA:         -12.360
REMARK INTER:                 -11.712
REMARK INTRA:                  -0.648
REMARK UNBOUND:                -0.648
REMARK  3 active torsions:
REMARK  status: ('A' for Active; 'I' for Inactive)
REMARK    1  A    between atoms: C_4  and  C_7 
REMARK       I    between atoms: C_7  and  N_9 
REMARK    2  A    between atoms: N_12  and  C_15 
REMARK    3  A    between atoms: C_19  and  N_21 
ROOT
ATOM      1  C   UNK d   1      19.477  80.063  19.781  0.00  0.00     0.277 C 
ATOM      2  O   UNK d   1      18.496  79.710  20.452  0.00  0.00    -0.265 OA
ATOM      3  N   UNK d   1      20.210  79.125  19.009  0.00  0.00    -0.343 N 
ATOM      4  C   UNK d   1      21.365  79.550  18.222  0.00  0.00     0.146 C 
ATOM      5  C   UNK d   1      21.927  78.365  17.439  0.00  0.00     0.144 C 
ATOM      6  N   UNK d   1      20.815  77.739  16.750  0.00  0.00    -0.363 N 
ATOM      7  C   UNK d   1      19.700  77.270  17.526  0.00  0.00     0.144 C 
ATOM      8  C   UNK d   1      19.862  77.719  18.956  0.00  0.00     0.146 C 
ENDROOT
BRANCH   6   9
ATOM      9  C   UNK d   1      20.811  77.584  15.325  0.00  0.00     0.131 A 
ATOM     10  N   UNK d   1      21.573  78.350  14.532  0.00  0.00    -0.216 NA
ATOM     11  C   UNK d   1      21.547  78.182  13.205  0.00  0.00     0.126 A 
ATOM     12  N   UNK d   1      20.765  77.252  12.622  0.00  0.00    -0.216 NA
ATOM     13  C   UNK d   1      22.395  79.035  12.335  0.00  0.00     0.093 C 
ATOM     14  C   UNK d   1      19.977  76.451  13.360  0.00  0.00     0.131 A 
ATOM     15  C   UNK d   1      20.018  76.639  14.726  0.00  0.00     0.100 A 
BRANCH  14  16
ATOM     16  N   UNK d   1      19.138  75.459  12.795  0.00  0.00    -0.362 N 
ATOM     17  C   UNK d   1      18.480  74.487  13.643  0.00  0.00     0.154 C 
ATOM     18  C   UNK d   1      17.437  73.786  12.798  0.00  0.00     0.291 C 
ATOM     19  N   UNK d   1      18.098  73.110  11.715  0.00  0.00     0.087 N 
ATOM     20  C   UNK d   1      19.059  73.896  11.007  0.00  0.00     0.291 C 
ATOM     21  C   UNK d   1      18.583  71.827  12.157  0.00  0.00     0.310 C 
ATOM     22  C   UNK d   1      18.893  75.357  11.369  0.00  0.00     0.154 C 
ENDBRANCH  14  16
ENDBRANCH   6   9
BRANCH   1  23
ATOM     23  C   UNK d   1      19.893  81.485  19.784  0.00  0.00     0.144 A 
ATOM     24  O   UNK d   1      19.770  82.339  18.799  0.00  0.00    -0.298 OA
ATOM     25  C   UNK d   1      20.233  83.524  19.108  0.00  0.00     0.122 A 
ATOM     26 Br   UNK d   1      20.246  85.054  17.964  0.00  0.00    -0.023 Br
ATOM     27  C   UNK d   1      20.704  83.458  20.402  0.00  0.00     0.048 A 
ATOM     28  C   UNK d   1      20.485  82.170  20.817  0.00  0.00     0.046 A 
ENDBRANCH   1  23
TORSDOF 3
ENDMDL
