MODEL 1
REMARK VINA RESULT:    -9.765      0.000      0.000
REMARK INTER + INTRA:         -11.763
REMARK INTER:                 -11.478
REMARK INTRA:                  -0.285
REMARK UNBOUND:                -0.285
REMARK  3 active torsions:
REMARK  status: ('A' for Active; 'I' for Inactive)
REMARK    1  A    between atoms: C_4  and  C_9 
REMARK       I    between atoms: C_9  and  N_11 
REMARK    2  A    between atoms: N_14  and  C_17 
REMARK    3  A    between atoms: C_17  and  C_18 
ROOT
ATOM      1  C   UNK d   1      19.471  80.457  19.469  0.00  0.00     0.189 C 
ATOM      2  O   UNK d   1      18.478  79.755  19.981  0.00  0.00    -0.171 OA
ATOM      3  N   UNK d   1      20.351  79.749  18.665  0.00  0.00    -0.355 N 
ATOM      4  C   UNK d   1      20.114  78.300  18.446  0.00  0.00     0.155 C 
ATOM      5  C   UNK d   1      20.024  78.042  16.961  0.00  0.00     0.292 C 
ATOM      6  N   UNK d   1      21.207  78.479  16.331  0.00  0.00     0.095 N 
ATOM      7  C   UNK d   1      22.128  79.055  17.250  0.00  0.00     0.292 C 
ATOM      8  C   UNK d   1      21.491  80.251  17.997  0.00  0.00     0.155 C 
ENDROOT
BRANCH   1   9
ATOM      9  C   UNK d   1      19.419  81.850  19.872  0.00  0.00     0.042 A 
ATOM     10  C   UNK d   1      19.185  82.260  21.157  0.00  0.00     0.043 A 
ATOM     11  C   UNK d   1      19.154  83.627  21.448  0.00  0.00     0.087 A 
ATOM     12 Br   UNK d   1      18.837  84.258  23.194  0.00  0.00    -0.045 Br
ATOM     13  C   UNK d   1      19.362  84.524  20.429  0.00  0.00     0.305 A 
ATOM     14  O   UNK d   1      19.580  84.104  19.233  0.00  0.00    -0.286 OA
ATOM     15  O   UNK d   1      19.346  85.765  20.639  0.00  0.00    -0.258 OA
ATOM     16  C   UNK d   1      19.617  82.850  18.915  0.00  0.00     0.162 A 
ENDBRANCH   1   9
BRANCH   6  17
ATOM     17  C   UNK d   1      21.829  77.551  15.441  0.00  0.00     0.311 C 
BRANCH  17  18
ATOM     18  C   UNK d   1      22.031  78.029  14.061  0.00  0.00    -0.027 A 
ATOM     19  C   UNK d   1      21.107  77.951  13.071  0.00  0.00     0.048 A 
ATOM     20  C   UNK d   1      21.390  78.422  11.813  0.00  0.00     0.105 A 
ATOM     21  C   UNK d   1      22.616  78.972  11.556  0.00  0.00     0.105 A 
ATOM     22  O   UNK d   1      20.665  78.482  10.612  0.00  0.00    -0.323 OA
ATOM     23  C   UNK d   1      23.570  79.062  12.545  0.00  0.00     0.040 A 
ATOM     24  O   UNK d   1      22.675  79.373  10.232  0.00  0.00    -0.323 OA
ATOM     25  C   UNK d   1      23.264  78.590  13.779  0.00  0.00     0.012 A 
ATOM     26  C   UNK d   1      21.596  78.726   9.574  0.00  0.00     0.352 C 
ENDBRANCH  17  18
ENDBRANCH   6  17
TORSDOF 3
ENDMDL
