MODEL 1
REMARK VINA RESULT:    -9.852      0.000      0.000
REMARK INTER + INTRA:         -13.278
REMARK INTER:                 -13.308
REMARK INTRA:                   0.030
REMARK UNBOUND:                 0.030
REMARK  7 active torsions:
REMARK  status: ('A' for Active; 'I' for Inactive)
REMARK    1  A    between atoms: N_4  and  C_10 
REMARK    2  A    between atoms: C_11  and  O_33 
REMARK       I    between atoms: N_18  and  C_21 
REMARK    3  A    between atoms: C_21  and  C_23 
REMARK    4  A    between atoms: C_25  and  O_29 
REMARK    5  A    between atoms: O_29  and  C_30 
REMARK    6  A    between atoms: C_30  and  C_31 
REMARK    7  A    between atoms: C_31  and  N_32 
ROOT
ATOM      1  C   UNK d   1      21.587  77.807  16.876  0.00  0.00     0.152 C 
ATOM      2  C   UNK d   1      23.005  78.279  16.527  0.00  0.00     0.080 C 
ATOM      3  C   UNK d   1      22.924  79.337  15.481  0.00  0.00     0.077 C 
ATOM      4  C   UNK d   1      22.324  78.735  14.230  0.00  0.00     0.067 C 
ATOM      5  O   UNK d   1      21.632  77.565  14.481  0.00  0.00    -0.378 OA
ATOM      6  C   UNK d   1      20.822  77.628  15.607  0.00  0.00     0.197 C 
ATOM      7  C   UNK d   1      21.514  79.788  13.565  0.00  0.00     0.058 C 
ATOM      8  C   UNK d   1      20.929  79.201  12.271  0.00  0.00     0.128 C 
ATOM      9  N   UNK d   1      22.012  78.956  11.377  0.00  0.00    -0.359 N 
ATOM     10  C   UNK d   1      23.373  79.113  11.991  0.00  0.00     0.128 C 
ATOM     11  C   UNK d   1      23.465  78.393  13.296  0.00  0.00     0.058 C 
ATOM     12  C   UNK d   1      21.914  78.595  10.048  0.00  0.00     0.187 C 
ATOM     13  O   UNK d   1      23.062  78.445   9.420  0.00  0.00    -0.171 OA
ATOM     14  C   UNK d   1      23.757  78.686  17.752  0.00  0.00     0.048 C 
ENDROOT
BRANCH   2  15
ATOM     15  O   UNK d   1      23.658  77.177  15.970  0.00  0.00    -0.388 OA
ATOM     16  H   UNK d   1      23.133  76.341  16.043  0.00  0.00     0.210 HD
ENDBRANCH   2  15
BRANCH   1  17
ATOM     17  N   UNK d   1      20.966  78.628  17.865  0.00  0.00    -0.298 N 
ATOM     18  C   UNK d   1      20.880  79.969  17.794  0.00  0.00     0.121 A 
ATOM     19  C   UNK d   1      20.277  80.730  18.762  0.00  0.00     0.094 A 
ATOM     20 Br   UNK d   1      20.230  82.618  18.530  0.00  0.00    -0.044 Br
ATOM     21  C   UNK d   1      19.729  80.118  19.863  0.00  0.00     0.268 A 
ATOM     22  N   UNK d   1      19.814  78.779  19.934  0.00  0.00    -0.274 N 
ATOM     23  O   UNK d   1      19.180  80.823  20.745  0.00  0.00    -0.267 OA
ATOM     24  C   UNK d   1      20.404  78.074  18.982  0.00  0.00     0.329 A 
ATOM     25  H   UNK d   1      19.395  78.329  20.774  0.00  0.00     0.173 HD
ATOM     26  O   UNK d   1      20.444  76.817  19.122  0.00  0.00    -0.246 OA
ENDBRANCH   1  17
BRANCH  12  27
ATOM     27  C   UNK d   1      20.779  78.354   9.230  0.00  0.00     0.020 A 
ATOM     28  C   UNK d   1      20.698  77.179   8.461  0.00  0.00     0.052 A 
ATOM     29  C   UNK d   1      19.661  76.827   7.657  0.00  0.00     0.069 A 
ATOM     30  C   UNK d   1      18.578  77.728   7.598  0.00  0.00     0.037 A 
ATOM     31  C   UNK d   1      18.632  78.865   8.329  0.00  0.00     0.004 A 
ATOM     32  C   UNK d   1      19.721  79.201   9.151  0.00  0.00     0.016 A 
BRANCH  29  33
ATOM     33  O   UNK d   1      19.622  75.679   6.923  0.00  0.00    -0.349 OA
BRANCH  33  34
ATOM     34  C   UNK d   1      18.764  74.620   6.925  0.00  0.00     0.205 C 
BRANCH  34  35
ATOM     35  C   UNK d   1      17.869  74.592   5.733  0.00  0.00     0.293 C 
BRANCH  35  36
ATOM     36  N   UNK d   1      16.510  74.243   6.149  0.00  0.00     0.080 N 
ATOM     37  H   UNK d   1      16.483  73.853   7.102  0.00  0.00     0.312 HD
ATOM     38  H   UNK d   1      16.002  73.705   5.441  0.00  0.00     0.312 HD
ENDBRANCH  35  36
ENDBRANCH  34  35
ENDBRANCH  33  34
ENDBRANCH  29  33
ENDBRANCH  12  27
TORSDOF 7
ENDMDL
