/Users/jonathanwahrer/Desktop/Msc/3_Semester/Drug_Design_Praktikum/waehrer_HTS_screening/HTS_experiment/out/docking_results/vina_output/6e43/0776_docked.pdbqt
 OpenBabel03212220083D

 38 41  0  0  1  0  0  0  0  0999 V2000
   21.5870   77.8070   16.8760 C   0  0  2  0  0  3  0  0  0  0  0  0
   23.0050   78.2790   16.5270 C   0  0  1  0  0  0  0  0  0  0  0  0
   22.9240   79.3370   15.4810 C   0  0  0  0  0  2  0  0  0  0  0  0
   22.3240   78.7350   14.2300 C   0  0  1  0  0  0  0  0  0  0  0  0
   21.6320   77.5650   14.4810 O   0  0  0  0  0  0  0  0  0  0  0  0
   20.8220   77.6280   15.6070 C   0  0  0  0  0  2  0  0  0  0  0  0
   21.5140   79.7880   13.5650 C   0  0  0  0  0  2  0  0  0  0  0  0
   20.9290   79.2010   12.2710 C   0  0  0  0  0  2  0  0  0  0  0  0
   22.0120   78.9560   11.3770 N   0  0  0  0  0  0  0  0  0  0  0  0
   23.3730   79.1130   11.9910 C   0  0  0  0  0  2  0  0  0  0  0  0
   23.4650   78.3930   13.2960 C   0  0  0  0  0  2  0  0  0  0  0  0
   21.9140   78.5950   10.0480 C   0  0  0  0  0  0  0  0  0  0  0  0
   23.0620   78.4450    9.4200 O   0  0  0  0  0  0  0  0  0  0  0  0
   23.7570   78.6860   17.7520 C   0  0  0  0  0  1  0  0  0  0  0  0
   23.6580   77.1770   15.9700 O   0  0  0  0  0  0  0  0  0  0  0  0
   23.1330   76.3410   16.0430 H   0  0  0  0  0  0  0  0  0  0  0  0
   20.9660   78.6280   17.8650 N   0  0  0  0  0  0  0  0  0  0  0  0
   20.8800   79.9690   17.7940 C   0  0  0  0  0  3  0  0  0  0  0  0
   20.2770   80.7300   18.7620 C   0  0  0  0  0  0  0  0  0  0  0  0
   20.2300   82.6180   18.5300 Br  0  0  0  0  0  0  0  0  0  0  0  0
   19.7290   80.1180   19.8630 C   0  0  0  0  0  0  0  0  0  0  0  0
   19.8140   78.7790   19.9340 N   0  0  0  0  0  0  0  0  0  0  0  0
   19.1800   80.8230   20.7450 O   0  0  0  0  0  0  0  0  0  0  0  0
   20.4040   78.0740   18.9820 C   0  0  0  0  0  0  0  0  0  0  0  0
   19.3950   78.3290   20.7740 H   0  0  0  0  0  0  0  0  0  0  0  0
   20.4440   76.8170   19.1220 O   0  0  0  0  0  0  0  0  0  0  0  0
   20.7790   78.3540    9.2300 C   0  0  0  0  0  0  0  0  0  0  0  0
   20.6980   77.1790    8.4610 C   0  0  0  0  0  3  0  0  0  0  0  0
   19.6610   76.8270    7.6570 C   0  0  0  0  0  0  0  0  0  0  0  0
   18.5780   77.7280    7.5980 C   0  0  0  0  0  3  0  0  0  0  0  0
   18.6320   78.8650    8.3290 C   0  0  0  0  0  3  0  0  0  0  0  0
   19.7210   79.2010    9.1510 C   0  0  0  0  0  3  0  0  0  0  0  0
   19.6220   75.6790    6.9230 O   0  0  0  0  0  0  0  0  0  0  0  0
   18.7640   74.6200    6.9250 C   0  0  0  0  0  2  0  0  0  0  0  0
   17.8690   74.5920    5.7330 C   0  0  0  0  0  2  0  0  0  0  0  0
   16.5100   74.2430    6.1490 N   0  0  0  0  0  0  0  0  0  0  0  0
   16.4830   73.8530    7.1020 H   0  0  0  0  0  0  0  0  0  0  0  0
   16.0020   73.7050    5.4410 H   0  0  0  0  0  0  0  0  0  0  0  0
  1  6  1  6  0  0  0
  1 17  1  0  0  0  0
  2  1  1  0  0  0  0
  2 14  1  1  0  0  0
  3  2  1  0  0  0  0
  4 11  1  6  0  0  0
  4  5  1  0  0  0  0
  4  3  1  0  0  0  0
  5  6  1  0  0  0  0
  7  4  1  0  0  0  0
  8  7  1  0  0  0  0
  9 10  1  0  0  0  0
  9  8  1  0  0  0  0
 10 11  1  0  0  0  0
 12  9  1  0  0  0  0
 13 12  2  0  0  0  0
 15 16  1  0  0  0  0
 15  2  1  0  0  0  0
 17 24  1  0  0  0  0
 18 17  1  0  0  0  0
 18 19  2  0  0  0  0
 19 21  1  0  0  0  0
 20 19  1  0  0  0  0
 21 22  1  0  0  0  0
 21 23  2  0  0  0  0
 22 25  1  0  0  0  0
 24 26  2  0  0  0  0
 24 22  1  0  0  0  0
 27 12  1  0  0  0  0
 28 27  2  0  0  0  0
 29 28  1  0  0  0  0
 30 29  2  0  0  0  0
 30 31  1  0  0  0  0
 31 32  2  0  0  0  0
 32 27  1  0  0  0  0
 33 34  1  0  0  0  0
 33 29  1  0  0  0  0
 35 36  1  0  0  0  0
 35 34  1  0  0  0  0
 36 37  1  0  0  0  0
 38 36  1  0  0  0  0
M  END
>  <Pose>
1

>  <Score>
-9.852

$$$$
