MODEL 1
REMARK VINA RESULT:    -8.020      0.000      0.000
REMARK INTER + INTRA:          -9.866
REMARK INTER:                 -10.598
REMARK INTRA:                   0.733
REMARK UNBOUND:                 0.733
REMARK  7 active torsions:
REMARK  status: ('A' for Active; 'I' for Inactive)
REMARK    1  A    between atoms: N_4  and  C_10 
REMARK    2  A    between atoms: C_11  and  O_33 
REMARK       I    between atoms: N_18  and  C_21 
REMARK    3  A    between atoms: C_21  and  C_23 
REMARK    4  A    between atoms: C_23  and  N_24 
REMARK    5  A    between atoms: C_23  and  C_25 
REMARK    6  A    between atoms: C_25  and  C_26 
REMARK    7  A    between atoms: C_29  and  O_32 
ROOT
ATOM      1  C   UNK d   1      19.501  79.139   9.090  0.00  0.00     0.152 C 
ATOM      2  C   UNK d   1      19.669  78.781  10.512  0.00  0.00     0.080 C 
ATOM      3  C   UNK d   1      20.814  79.522  11.213  0.00  0.00     0.077 C 
ATOM      4  C   UNK d   1      22.105  79.341  10.455  0.00  0.00     0.067 C 
ATOM      5  O   UNK d   1      21.882  79.005   9.133  0.00  0.00    -0.378 OA
ATOM      6  C   UNK d   1      20.819  79.615   8.542  0.00  0.00     0.197 C 
ATOM      7  C   UNK d   1      22.911  78.275  11.175  0.00  0.00     0.058 C 
ATOM      8  C   UNK d   1      23.897  78.908  12.119  0.00  0.00     0.129 C 
ATOM      9  N   UNK d   1      23.267  80.034  12.760  0.00  0.00    -0.350 N 
ATOM     10  C   UNK d   1      22.980  81.173  11.901  0.00  0.00     0.129 C 
ATOM     11  C   UNK d   1      22.853  80.653  10.488  0.00  0.00     0.058 C 
ATOM     12  C   UNK d   1      22.977  80.018  14.127  0.00  0.00     0.253 C 
ATOM     13  O   UNK d   1      22.410  81.078  14.582  0.00  0.00    -0.271 OA
ATOM     14  C   UNK d   1      19.761  77.318  10.804  0.00  0.00     0.048 C 
ENDROOT
BRANCH   2  15
ATOM     15  O   UNK d   1      18.511  79.236  11.194  0.00  0.00    -0.388 OA
ATOM     16  H   UNK d   1      17.942  79.793  10.613  0.00  0.00     0.210 HD
ENDBRANCH   2  15
BRANCH   1  17
ATOM     17  N   UNK d   1      18.936  78.091   8.264  0.00  0.00    -0.298 N 
ATOM     18  C   UNK d   1      19.567  76.926   8.158  0.00  0.00     0.121 A 
ATOM     19  C   UNK d   1      19.059  75.914   7.377  0.00  0.00     0.094 A 
ATOM     20 Br   UNK d   1      19.988  74.238   7.238  0.00  0.00    -0.044 Br
ATOM     21  C   UNK d   1      17.876  76.129   6.701  0.00  0.00     0.268 A 
ATOM     22  N   UNK d   1      17.283  77.328   6.848  0.00  0.00    -0.274 N 
ATOM     23  O   UNK d   1      17.368  75.229   5.971  0.00  0.00    -0.267 OA
ATOM     24  C   UNK d   1      17.795  78.304   7.615  0.00  0.00     0.329 A 
ATOM     25  H   UNK d   1      16.370  77.499   6.328  0.00  0.00     0.173 HD
ATOM     26  O   UNK d   1      17.160  79.407   7.691  0.00  0.00    -0.246 OA
ENDBRANCH   1  17
BRANCH  12  27
ATOM     27  C   UNK d   1      23.227  78.975  15.115  0.00  0.00     0.313 C 
BRANCH  27  28
ATOM     28  N   UNK d   1      24.359  78.125  14.740  0.00  0.00     0.092 N 
ATOM     29  H   UNK d   1      25.262  78.545  15.049  0.00  0.00     0.313 HD
ATOM     30  H   UNK d   1      24.402  78.075  13.692  0.00  0.00     0.313 HD
ENDBRANCH  27  28
BRANCH  27  31
ATOM     31  C   UNK d   1      23.527  79.467  16.514  0.00  0.00     0.083 C 
BRANCH  31  32
ATOM     32  C   UNK d   1      22.407  78.948  17.384  0.00  0.00    -0.056 A 
ATOM     33  C   UNK d   1      22.257  77.601  17.584  0.00  0.00     0.010 A 
ATOM     34  C   UNK d   1      21.211  77.165  18.393  0.00  0.00     0.037 A 
ATOM     35  C   UNK d   1      20.338  78.047  18.988  0.00  0.00     0.065 A 
ATOM     36  C   UNK d   1      20.523  79.397  18.762  0.00  0.00     0.037 A 
ATOM     37  C   UNK d   1      21.549  79.860  17.964  0.00  0.00     0.010 A 
BRANCH  35  38
ATOM     38  O   UNK d   1      19.319  77.558  19.782  0.00  0.00    -0.361 OA
ATOM     39  H   UNK d   1      19.351  77.531  20.801  0.00  0.00     0.217 HD
ENDBRANCH  35  38
ENDBRANCH  31  32
ENDBRANCH  27  31
ENDBRANCH  12  27
TORSDOF 7
ENDMDL
