/Users/jonathanwahrer/Desktop/Msc/3_Semester/Drug_Design_Praktikum/waehrer_HTS_screening/HTS_experiment/out/docking_results/vina_output/6e43/0784_docked.pdbqt
 OpenBabel03212220083D

 39 42  0  0  1  0  0  0  0  0999 V2000
   21.2360   78.5940   16.0040 C   0  0  1  0  0  3  0  0  0  0  0  0
   21.5490   79.9630   15.3800 C   0  0  2  0  0  0  0  0  0  0  0  0
   21.5360   79.6910   13.8690 C   0  0  0  0  0  2  0  0  0  0  0  0
   22.4360   78.5350   13.5300 C   0  0  2  0  0  0  0  0  0  0  0  0
   23.1520   78.1780   14.6470 O   0  0  0  0  0  0  0  0  0  0  0  0
   22.3840   77.7180   15.7140 C   0  0  0  0  0  2  0  0  0  0  0  0
   23.4410   79.0630   12.5150 C   0  0  0  0  0  2  0  0  0  0  0  0
   22.8510   78.9870   11.1290 C   0  0  0  0  0  2  0  0  0  0  0  0
   21.3810   78.9460   11.2000 N   0  0  0  0  0  0  0  0  0  0  0  0
   20.8280   77.7510   11.7670 C   0  0  0  0  0  2  0  0  0  0  0  0
   21.7490   77.3650   12.9210 C   0  0  0  0  0  2  0  0  0  0  0  0
   20.5810   80.0090   10.7820 C   0  0  0  0  0  0  0  0  0  0  0  0
   21.1090   81.1090   10.3560 O   0  0  0  0  0  0  0  0  0  0  0  0
   22.8720   80.4850   15.8450 C   0  0  0  0  0  1  0  0  0  0  0  0
   20.5800   80.9000   15.6670 O   0  0  0  0  0  0  0  0  0  0  0  0
   19.9800   80.9960   14.8840 H   0  0  0  0  0  0  0  0  0  0  0  0
   20.7430   78.6920   17.3180 N   0  0  0  0  0  0  0  0  0  0  0  0
   20.7700   79.7890   18.0790 C   0  0  0  0  0  3  0  0  0  0  0  0
   20.2570   79.8040   19.3760 C   0  0  0  0  0  0  0  0  0  0  0  0
   20.3470   81.4140   20.3700 Br  0  0  0  0  0  0  0  0  0  0  0  0
   19.7030   78.6600   19.9050 C   0  0  0  0  0  0  0  0  0  0  0  0
   19.6830   77.5630   19.1270 N   0  0  0  0  0  0  0  0  0  0  0  0
   19.2280   78.6460   21.0870 O   0  0  0  0  0  0  0  0  0  0  0  0
   20.1840   77.5790   17.8800 C   0  0  0  0  0  0  0  0  0  0  0  0
   19.2690   76.6620   19.4860 H   0  0  0  0  0  0  0  0  0  0  0  0
   20.1350   76.5170   17.2020 O   0  0  0  0  0  0  0  0  0  0  0  0
   19.1270   79.9670   10.7910 C   0  0  1  0  0  3  0  0  0  0  0  0
   18.5760   81.1970   11.3060 N   0  0  0  0  0  0  0  0  0  0  0  0
   17.2520   81.5020   11.5970 C   0  0  0  0  0  0  0  0  0  0  0  0
   16.2790   80.7350   11.4430 O   0  0  0  0  0  0  0  0  0  0  0  0
   16.8770   82.8630   12.1540 C   0  0  0  0  0  1  0  0  0  0  0  0
   19.2980   81.9630   11.4760 H   0  0  0  0  0  0  0  0  0  0  0  0
   18.5500   79.7200    9.3620 C   0  0  0  0  0  2  0  0  0  0  0  0
   18.9710   78.3960    8.8720 C   0  0  0  0  0  0  0  0  0  0  0  0
   18.5660   77.1890    9.2350 N   0  0  0  0  0  0  0  0  0  0  0  0
   19.2080   76.2150    8.5330 C   0  0  0  0  0  3  0  0  0  0  0  0
   20.0510   76.8500    7.6970 N   0  0  0  0  0  0  0  0  0  0  0  0
   19.9230   78.1800    7.8890 C   0  0  0  0  0  3  0  0  0  0  0  0
   20.6840   76.3480    7.0280 H   0  0  0  0  0  0  0  0  0  0  0  0
  1  6  1  1  0  0  0
  1 17  1  0  0  0  0
  2 15  1  0  0  0  0
  2 14  1  1  0  0  0
  2  1  1  0  0  0  0
  3  2  1  0  0  0  0
  4  7  1  6  0  0  0
  4  3  1  0  0  0  0
  4  5  1  0  0  0  0
  5  6  1  0  0  0  0
  8  9  1  0  0  0  0
  8  7  1  0  0  0  0
  9 10  1  0  0  0  0
 10 11  1  0  0  0  0
 11  4  1  0  0  0  0
 12 27  1  0  0  0  0
 12  9  1  0  0  0  0
 13 12  2  0  0  0  0
 16 15  1  0  0  0  0
 17 24  1  0  0  0  0
 17 18  1  0  0  0  0
 18 19  2  0  0  0  0
 19 21  1  0  0  0  0
 19 20  1  0  0  0  0
 21 23  2  0  0  0  0
 22 25  1  0  0  0  0
 22 21  1  0  0  0  0
 24 22  1  0  0  0  0
 26 24  2  0  0  0  0
 27 33  1  6  0  0  0
 27 28  1  0  0  0  0
 28 32  1  0  0  0  0
 28 29  1  0  0  0  0
 29 31  1  0  0  0  0
 30 29  2  0  0  0  0
 34 35  1  0  0  0  0
 34 33  1  0  0  0  0
 36 35  2  0  0  0  0
 37 38  1  0  0  0  0
 37 36  1  0  0  0  0
 38 34  2  0  0  0  0
 39 37  1  0  0  0  0
M  END
>  <Pose>
1

>  <Score>
-8.503

$$$$
