MODEL 1
REMARK VINA RESULT:    -8.503      0.000      0.000
REMARK INTER + INTRA:         -10.844
REMARK INTER:                 -11.237
REMARK INTRA:                   0.393
REMARK UNBOUND:                 0.393
REMARK  6 active torsions:
REMARK  status: ('A' for Active; 'I' for Inactive)
REMARK    1  A    between atoms: N_4  and  C_10 
REMARK    2  A    between atoms: C_11  and  O_34 
REMARK       I    between atoms: N_18  and  C_21 
REMARK    3  A    between atoms: C_21  and  C_23 
REMARK    4  A    between atoms: C_23  and  N_24 
REMARK    5  A    between atoms: C_23  and  C_28 
REMARK       I    between atoms: N_24  and  C_25 
REMARK    6  A    between atoms: C_28  and  C_29 
ROOT
ATOM      1  C   UNK d   1      21.236  78.594  16.004  0.00  0.00     0.152 C 
ATOM      2  C   UNK d   1      21.549  79.963  15.380  0.00  0.00     0.080 C 
ATOM      3  C   UNK d   1      21.536  79.691  13.869  0.00  0.00     0.077 C 
ATOM      4  C   UNK d   1      22.436  78.535  13.530  0.00  0.00     0.067 C 
ATOM      5  O   UNK d   1      23.152  78.178  14.647  0.00  0.00    -0.378 OA
ATOM      6  C   UNK d   1      22.384  77.718  15.714  0.00  0.00     0.197 C 
ATOM      7  C   UNK d   1      23.441  79.063  12.515  0.00  0.00     0.058 C 
ATOM      8  C   UNK d   1      22.851  78.987  11.129  0.00  0.00     0.129 C 
ATOM      9  N   UNK d   1      21.381  78.946  11.200  0.00  0.00    -0.350 N 
ATOM     10  C   UNK d   1      20.828  77.751  11.767  0.00  0.00     0.129 C 
ATOM     11  C   UNK d   1      21.749  77.365  12.921  0.00  0.00     0.058 C 
ATOM     12  C   UNK d   1      20.581  80.009  10.782  0.00  0.00     0.243 C 
ATOM     13  O   UNK d   1      21.109  81.109  10.356  0.00  0.00    -0.271 OA
ATOM     14  C   UNK d   1      22.872  80.485  15.845  0.00  0.00     0.048 C 
ENDROOT
BRANCH   2  15
ATOM     15  O   UNK d   1      20.580  80.900  15.667  0.00  0.00    -0.388 OA
ATOM     16  H   UNK d   1      19.980  80.996  14.884  0.00  0.00     0.210 HD
ENDBRANCH   2  15
BRANCH   1  17
ATOM     17  N   UNK d   1      20.743  78.692  17.318  0.00  0.00    -0.298 N 
ATOM     18  C   UNK d   1      20.770  79.789  18.079  0.00  0.00     0.121 A 
ATOM     19  C   UNK d   1      20.257  79.804  19.376  0.00  0.00     0.094 A 
ATOM     20 Br   UNK d   1      20.347  81.414  20.370  0.00  0.00    -0.044 Br
ATOM     21  C   UNK d   1      19.703  78.660  19.905  0.00  0.00     0.268 A 
ATOM     22  N   UNK d   1      19.683  77.563  19.127  0.00  0.00    -0.274 N 
ATOM     23  O   UNK d   1      19.228  78.646  21.087  0.00  0.00    -0.267 OA
ATOM     24  C   UNK d   1      20.184  77.579  17.880  0.00  0.00     0.329 A 
ATOM     25  H   UNK d   1      19.269  76.662  19.486  0.00  0.00     0.173 HD
ATOM     26  O   UNK d   1      20.135  76.517  17.202  0.00  0.00    -0.246 OA
ENDBRANCH   1  17
BRANCH  12  27
ATOM     27  C   UNK d   1      19.127  79.967  10.791  0.00  0.00     0.182 C 
BRANCH  27  28
ATOM     28  N   UNK d   1      18.576  81.197  11.306  0.00  0.00    -0.348 N 
ATOM     29  C   UNK d   1      17.252  81.502  11.597  0.00  0.00     0.214 C 
ATOM     30  O   UNK d   1      16.279  80.735  11.443  0.00  0.00    -0.274 OA
ATOM     31  C   UNK d   1      16.877  82.863  12.154  0.00  0.00     0.117 C 
ATOM     32  H   UNK d   1      19.298  81.963  11.476  0.00  0.00     0.163 HD
ENDBRANCH  27  28
BRANCH  27  33
ATOM     33  C   UNK d   1      18.550  79.720   9.362  0.00  0.00     0.095 C 
BRANCH  33  34
ATOM     34  C   UNK d   1      18.971  78.396   8.872  0.00  0.00     0.053 A 
ATOM     35  N   UNK d   1      18.566  77.189   9.235  0.00  0.00    -0.247 NA
ATOM     36  C   UNK d   1      19.208  76.215   8.533  0.00  0.00     0.207 A 
ATOM     37  N   UNK d   1      20.051  76.850   7.697  0.00  0.00    -0.359 N 
ATOM     38  C   UNK d   1      19.923  78.180   7.889  0.00  0.00     0.116 A 
ATOM     39  H   UNK d   1      20.684  76.348   7.028  0.00  0.00     0.166 HD
ENDBRANCH  33  34
ENDBRANCH  27  33
ENDBRANCH  12  27
TORSDOF 6
ENDMDL
