MODEL 1
REMARK VINA RESULT:   -10.178      0.000      0.000
REMARK INTER + INTRA:         -12.164
REMARK INTER:                 -11.962
REMARK INTRA:                  -0.201
REMARK UNBOUND:                -0.201
REMARK  3 active torsions:
REMARK  status: ('A' for Active; 'I' for Inactive)
REMARK    1  A    between atoms: C_7  and  C_9 
REMARK    2  A    between atoms: C_9  and  N_10 
REMARK       I    between atoms: N_10  and  C_11 
REMARK    3  A    between atoms: C_11  and  C_13 
ROOT
ATOM      1  N   UNK d   1      20.865  76.784  15.467  0.00  0.00    -0.355 N 
ATOM      2  C   UNK d   1      20.145  76.979  16.656  0.00  0.00     0.223 C 
ATOM      3  O   UNK d   1      18.910  77.157  16.615  0.00  0.00    -0.273 OA
ATOM      4  H   UNK d   1      21.891  76.637  15.512  0.00  0.00     0.162 HD
ENDROOT
BRANCH   1   5
ATOM      5  C   UNK d   1      20.169  76.791  14.199  0.00  0.00     0.183 C 
BRANCH   5   6
ATOM      6  C   UNK d   1      19.701  75.429  13.835  0.00  0.00     0.070 A 
ATOM      7  N   UNK d   1      20.346  74.262  14.020  0.00  0.00    -0.232 NA
ATOM      8  C   UNK d   1      19.589  73.254  13.553  0.00  0.00     0.134 A 
ATOM      9  N   UNK d   1      18.448  73.770  13.063  0.00  0.00    -0.314 N 
ATOM     10  C   UNK d   1      19.816  71.881  13.518  0.00  0.00     0.052 A 
ATOM     11  C   UNK d   1      17.522  72.922  12.533  0.00  0.00     0.117 A 
ATOM     12  C   UNK d   1      18.505  75.104  13.231  0.00  0.00     0.127 A 
ATOM     13  C   UNK d   1      17.717  71.559  12.484  0.00  0.00     0.027 A 
ATOM     14 Br   UNK d   1      16.412  70.371  11.739  0.00  0.00    -0.050 Br
ATOM     15  C   UNK d   1      18.885  71.026  12.984  0.00  0.00     0.024 A 
ENDBRANCH   5   6
ENDBRANCH   1   5
BRANCH   2  16
ATOM     16  C   UNK d   1      20.834  76.974  17.959  0.00  0.00     0.096 C 
ATOM     17  C   UNK d   1      22.167  77.672  17.855  0.00  0.00     0.145 C 
ATOM     18  N   UNK d   1      21.899  79.036  17.442  0.00  0.00    -0.320 N 
ATOM     19  C   UNK d   1      20.810  79.675  17.898  0.00  0.00     0.130 A 
ATOM     20  C   UNK d   1      22.547  79.880  16.639  0.00  0.00     0.126 A 
ATOM     21  N   UNK d   1      20.824  80.908  17.353  0.00  0.00    -0.135 NA
ATOM     22  C   UNK d   1      19.820  79.094  18.818  0.00  0.00     0.081 C 
ATOM     23  N   UNK d   1      21.871  81.035  16.593  0.00  0.00    -0.135 NA
ATOM     24  C   UNK d   1      19.956  77.623  18.996  0.00  0.00     0.023 C 
ATOM     25  C   UNK d   1      23.817  79.658  15.880  0.00  0.00     0.093 C 
ENDBRANCH   2  16
TORSDOF 3
ENDMDL
