MODEL 1
REMARK VINA RESULT:    -8.459      0.000      0.000
REMARK INTER + INTRA:          -9.176
REMARK INTER:                  -8.953
REMARK INTRA:                  -0.222
REMARK UNBOUND:                -0.222
REMARK  1 active torsions:
REMARK  status: ('A' for Active; 'I' for Inactive)
REMARK    1  A    between atoms: C_6  and  C_11 
REMARK       I    between atoms: C_11  and  N_13 
ROOT
ATOM      1  C   UNK d   1      21.255  77.170  15.140  0.00  0.00     0.274 C 
ATOM      2  O   UNK d   1      22.441  77.440  14.809  0.00  0.00    -0.266 OA
ATOM      3  N   UNK d   1      20.694  77.865  16.241  0.00  0.00    -0.343 N 
ATOM      4  C   UNK d   1      21.459  78.837  16.933  0.00  0.00     0.161 C 
ATOM      5  C   UNK d   1      21.064  79.015  18.351  0.00  0.00     0.241 C 
ATOM      6  N   UNK d   1      19.964  78.212  18.803  0.00  0.00     0.096 N 
ATOM      7  C   UNK d   1      18.860  78.244  17.862  0.00  0.00     0.292 C 
ATOM      8  C   UNK d   1      19.343  77.540  16.608  0.00  0.00     0.156 C 
ATOM      9  C   UNK d   1      19.658  78.752  20.093  0.00  0.00     0.273 C 
ATOM     10  C   UNK d   1      19.859  80.241  19.963  0.00  0.00     0.032 C 
ATOM     11  C   UNK d   1      20.582  80.426  18.648  0.00  0.00     0.039 C 
ENDROOT
BRANCH   1  12
ATOM     12  C   UNK d   1      20.511  76.158  14.377  0.00  0.00     0.148 A 
ATOM     13  N   UNK d   1      20.327  74.854  14.624  0.00  0.00    -0.161 NA
ATOM     14  N   UNK d   1      19.589  74.275  13.690  0.00  0.00    -0.225 N 
ATOM     15  C   UNK d   1      19.138  73.008  13.498  0.00  0.00     0.141 A 
ATOM     16  C   UNK d   1      19.247  75.191  12.766  0.00  0.00     0.152 A 
ATOM     17  C   UNK d   1      18.365  72.661  12.412  0.00  0.00     0.046 A 
ATOM     18 Br   UNK d   1      17.738  70.862  12.159  0.00  0.00    -0.048 Br
ATOM     19  C   UNK d   1      18.028  73.616  11.479  0.00  0.00     0.139 A 
ATOM     20  N   UNK d   1      18.485  74.860  11.690  0.00  0.00    -0.240 NA
ATOM     21  C   UNK d   1      19.819  76.375  13.185  0.00  0.00     0.091 A 
ENDBRANCH   1  12
TORSDOF 1
ENDMDL
