MODEL 1
REMARK VINA RESULT:    -7.551      0.000      0.000
REMARK INTER + INTRA:          -8.737
REMARK INTER:                  -8.434
REMARK INTRA:                  -0.304
REMARK UNBOUND:                -0.304
REMARK  2 active torsions:
REMARK  status: ('A' for Active; 'I' for Inactive)
REMARK    1  A    between atoms: C_7  and  C_11 
REMARK       I    between atoms: C_11  and  N_13 
REMARK       I    between atoms: N_16  and  C_19 
REMARK    2  A    between atoms: C_19  and  C_21 
ROOT
ATOM      1  C   UNK d   1      23.083  80.289  12.939  0.00  0.00     0.259 C 
ATOM      2  O   UNK d   1      22.874  81.472  13.333  0.00  0.00    -0.267 OA
ATOM      3  N   UNK d   1      22.941  79.940  11.571  0.00  0.00    -0.345 N 
ATOM      4  C   UNK d   1      23.202  78.541  11.199  0.00  0.00     0.146 C 
ATOM      5  C   UNK d   1      22.370  78.335   9.933  0.00  0.00     0.145 C 
ATOM      6  N   UNK d   1      21.149  79.054  10.147  0.00  0.00    -0.354 N 
ATOM      7  C   UNK d   1      21.281  80.503   9.817  0.00  0.00     0.145 C 
ATOM      8  C   UNK d   1      22.552  80.917  10.564  0.00  0.00     0.146 C 
ATOM      9  C   UNK d   1      19.944  78.582  10.640  0.00  0.00     0.211 C 
ATOM     10  O   UNK d   1      18.959  79.430  10.701  0.00  0.00    -0.169 OA
ENDROOT
BRANCH   1  11
ATOM     11  C   UNK d   1      23.470  79.307  13.922  0.00  0.00     0.099 A 
ATOM     12  C   UNK d   1      24.602  78.527  13.972  0.00  0.00     0.160 A 
ATOM     13  N   UNK d   1      24.556  77.748  15.065  0.00  0.00    -0.178 NA
ATOM     14  N   UNK d   1      23.421  78.012  15.715  0.00  0.00    -0.225 N 
ATOM     15  C   UNK d   1      22.910  77.519  16.836  0.00  0.00     0.141 A 
ATOM     16  C   UNK d   1      22.735  78.956  15.049  0.00  0.00     0.167 A 
ATOM     17  C   UNK d   1      21.713  77.951  17.313  0.00  0.00     0.046 A 
ATOM     18 Br   UNK d   1      20.987  77.237  18.922  0.00  0.00    -0.048 Br
ATOM     19  C   UNK d   1      21.018  78.912  16.631  0.00  0.00     0.139 A 
ATOM     20  N   UNK d   1      21.551  79.394  15.506  0.00  0.00    -0.239 NA
ENDBRANCH   1  11
BRANCH   9  21
ATOM     21  C   UNK d   1      19.589  77.257  11.118  0.00  0.00     0.128 A 
ATOM     22  O   UNK d   1      19.615  76.880  12.404  0.00  0.00    -0.318 OA
ATOM     23  C   UNK d   1      19.257  75.651  12.556  0.00  0.00     0.142 A 
ATOM     24  C   UNK d   1      18.956  75.109  11.331  0.00  0.00     0.027 A 
ATOM     25  C   UNK d   1      19.173  76.141  10.433  0.00  0.00     0.043 A 
ENDBRANCH   9  21
TORSDOF 2
ENDMDL
