/Users/jonathanwahrer/Desktop/Msc/3_Semester/Drug_Design_Praktikum/waehrer_HTS_screening/HTS_experiment/out/docking_results/vina_output/6e43/0797_docked.pdbqt
 OpenBabel03212220093D

 28 31  0  0  0  0  0  0  0  0999 V2000
   21.3950   77.0580   17.0200 O   0  0  0  0  0  0  0  0  0  0  0  0
   22.0860   77.8190   16.0650 C   0  0  0  0  0  2  0  0  0  0  0  0
   21.5190   77.7160   14.6950 C   0  0  0  0  0  0  0  0  0  0  0  0
   21.9240   78.5320   13.6940 N   0  0  0  0  0  0  0  0  0  0  0  0
   21.4290   78.4560   12.4460 C   0  0  0  0  0  0  0  0  0  0  0  0
   20.4900   77.5590   12.0990 N   0  0  0  0  0  0  0  0  0  0  0  0
   21.8720   79.3150   11.4370 C   0  0  0  0  0  3  0  0  0  0  0  0
   20.0040   77.4970   10.8410 C   0  0  0  0  0  3  0  0  0  0  0  0
   20.0540   76.7240   13.0650 C   0  0  0  0  0  0  0  0  0  0  0  0
   20.4200   78.3300    9.8250 C   0  0  0  0  0  0  0  0  0  0  0  0
   19.6950   78.1990    8.0550 Br  0  0  0  0  0  0  0  0  0  0  0  0
   21.3840   79.2610   10.1500 C   0  0  0  0  0  3  0  0  0  0  0  0
   20.5550   76.7880   14.3630 C   0  0  0  0  0  3  0  0  0  0  0  0
   19.1870   75.8930   12.7550 O   0  0  0  0  0  0  0  0  0  0  0  0
   20.5350   77.5600   17.9740 C   0  0  0  0  0  0  0  0  0  0  0  0
   20.7010   77.2580   19.1740 O   0  0  0  0  0  0  0  0  0  0  0  0
   19.4330   78.4490   17.5410 C   0  0  0  0  0  2  0  0  0  0  0  0
   19.5780   79.7620   18.1020 N   0  0  0  0  0  0  0  0  0  0  0  0
   20.2880   80.8380   17.5300 C   0  0  0  0  0  0  0  0  0  0  0  0
   20.9260   80.8870   16.4470 O   0  0  0  0  0  0  0  0  0  0  0  0
   20.1790   81.9980   18.4400 C   0  0  0  0  0  0  0  0  0  0  0  0
   19.4250   81.6120   19.5150 C   0  0  0  0  0  0  0  0  0  0  0  0
   20.6860   83.2830   18.3510 C   0  0  0  0  0  3  0  0  0  0  0  0
   19.1430   82.4700   20.5380 C   0  0  0  0  0  3  0  0  0  0  0  0
   19.0380   80.2120   19.3220 C   0  0  0  0  0  0  0  0  0  0  0  0
   19.6360   83.7510   20.4740 C   0  0  0  0  0  3  0  0  0  0  0  0
   20.3960   84.1420   19.3890 C   0  0  0  0  0  3  0  0  0  0  0  0
   18.3320   79.5470   20.1400 O   0  0  0  0  0  0  0  0  0  0  0  0
  1 15  1  0  0  0  0
  2  1  1  0  0  0  0
  3  2  1  0  0  0  0
  4  3  1  0  0  0  0
  5  4  2  0  0  0  0
  6  5  1  0  0  0  0
  6  9  1  0  0  0  0
  7  5  1  0  0  0  0
  8  6  1  0  0  0  0
  9 13  1  0  0  0  0
 10 12  1  0  0  0  0
 10  8  2  0  0  0  0
 11 10  1  0  0  0  0
 12  7  2  0  0  0  0
 13  3  2  0  0  0  0
 14  9  2  0  0  0  0
 15 16  2  0  0  0  0
 17 15  1  0  0  0  0
 17 18  1  0  0  0  0
 18 25  1  0  0  0  0
 19 18  1  0  0  0  0
 19 21  1  0  0  0  0
 20 19  2  0  0  0  0
 21 22  1  0  0  0  0
 22 24  2  0  0  0  0
 23 21  2  0  0  0  0
 23 27  1  0  0  0  0
 25 22  1  0  0  0  0
 25 28  2  0  0  0  0
 26 24  1  0  0  0  0
 27 26  2  0  0  0  0
M  END
>  <Pose>
1

>  <Score>
-10.685

$$$$
