MODEL 1
REMARK VINA RESULT:   -10.685      0.000      0.000
REMARK INTER + INTRA:         -14.607
REMARK INTER:                 -13.809
REMARK INTRA:                  -0.798
REMARK UNBOUND:                -0.798
REMARK  5 active torsions:
REMARK  status: ('A' for Active; 'I' for Inactive)
REMARK    1  A    between atoms: C_7  and  C_11 
REMARK    2  A    between atoms: C_11  and  O_12 
REMARK    3  A    between atoms: O_12  and  C_13 
REMARK    4  A    between atoms: C_13  and  C_15 
REMARK    5  A    between atoms: C_15  and  N_16 
ROOT
ATOM      1  O   UNK d   1      21.395  77.058  17.020  0.00  0.00    -0.314 OA
ENDROOT
BRANCH   1   2
ATOM      2  C   UNK d   1      22.086  77.819  16.065  0.00  0.00     0.238 C 
BRANCH   2   3
ATOM      3  C   UNK d   1      21.519  77.716  14.695  0.00  0.00     0.066 A 
ATOM      4  N   UNK d   1      21.924  78.532  13.694  0.00  0.00    -0.233 NA
ATOM      5  C   UNK d   1      21.429  78.456  12.446  0.00  0.00     0.137 A 
ATOM      6  N   UNK d   1      20.490  77.559  12.099  0.00  0.00    -0.272 N 
ATOM      7  C   UNK d   1      21.872  79.315  11.437  0.00  0.00     0.052 A 
ATOM      8  C   UNK d   1      20.004  77.497  10.841  0.00  0.00     0.121 A 
ATOM      9  C   UNK d   1      20.054  76.724  13.065  0.00  0.00     0.255 A 
ATOM     10  C   UNK d   1      20.420  78.330   9.825  0.00  0.00     0.027 A 
ATOM     11 Br   UNK d   1      19.695  78.199   8.055  0.00  0.00    -0.050 Br
ATOM     12  C   UNK d   1      21.384  79.261  10.150  0.00  0.00     0.024 A 
ATOM     13  C   UNK d   1      20.555  76.788  14.363  0.00  0.00     0.104 A 
ATOM     14  O   UNK d   1      19.187  75.893  12.755  0.00  0.00    -0.268 OA
ENDBRANCH   2   3
ENDBRANCH   1   2
BRANCH   1  15
ATOM     15  C   UNK d   1      20.535  77.560  17.974  0.00  0.00     0.277 C 
ATOM     16  O   UNK d   1      20.701  77.258  19.174  0.00  0.00    -0.263 OA
BRANCH  15  17
ATOM     17  C   UNK d   1      19.433  78.449  17.541  0.00  0.00     0.246 C 
BRANCH  17  18
ATOM     18  N   UNK d   1      19.578  79.762  18.102  0.00  0.00    -0.271 N 
ATOM     19  C   UNK d   1      20.288  80.838  17.530  0.00  0.00     0.262 A 
ATOM     20  O   UNK d   1      20.926  80.887  16.447  0.00  0.00    -0.267 OA
ATOM     21  C   UNK d   1      20.179  81.998  18.440  0.00  0.00     0.048 A 
ATOM     22  C   UNK d   1      19.425  81.612  19.515  0.00  0.00     0.048 A 
ATOM     23  C   UNK d   1      20.686  83.283  18.351  0.00  0.00     0.018 A 
ATOM     24  C   UNK d   1      19.143  82.470  20.538  0.00  0.00     0.018 A 
ATOM     25  C   UNK d   1      19.038  80.212  19.322  0.00  0.00     0.262 A 
ATOM     26  C   UNK d   1      19.636  83.751  20.474  0.00  0.00     0.001 A 
ATOM     27  C   UNK d   1      20.396  84.142  19.389  0.00  0.00     0.001 A 
ATOM     28  O   UNK d   1      18.332  79.547  20.140  0.00  0.00    -0.267 OA
ENDBRANCH  17  18
ENDBRANCH  15  17
ENDBRANCH   1  15
TORSDOF 5
ENDMDL
