MODEL 1
REMARK VINA RESULT:    -9.990      0.000      0.000
REMARK INTER + INTRA:         -13.901
REMARK INTER:                 -12.910
REMARK INTRA:                  -0.991
REMARK UNBOUND:                -0.991
REMARK  5 active torsions:
REMARK  status: ('A' for Active; 'I' for Inactive)
REMARK    1  A    between atoms: C_7  and  C_11 
REMARK    2  A    between atoms: C_11  and  O_12 
REMARK    3  A    between atoms: O_12  and  C_13 
REMARK    4  A    between atoms: C_13  and  C_15 
REMARK    5  A    between atoms: C_15  and  N_16 
ROOT
ATOM      1  C   UNK d   1      22.600  78.964  12.521  0.00  0.00     0.277 C 
ATOM      2  O   UNK d   1      23.268  78.978  11.455  0.00  0.00    -0.263 OA
ENDROOT
BRANCH   1   3
ATOM      3  O   UNK d   1      21.235  79.097  12.435  0.00  0.00    -0.314 OA
BRANCH   3   4
ATOM      4  C   UNK d   1      20.520  78.926  11.225  0.00  0.00     0.238 C 
BRANCH   4   5
ATOM      5  C   UNK d   1      19.978  77.545  11.184  0.00  0.00     0.066 A 
ATOM      6  N   UNK d   1      19.719  76.855  12.309  0.00  0.00    -0.233 NA
ATOM      7  C   UNK d   1      19.224  75.594  12.284  0.00  0.00     0.137 A 
ATOM      8  N   UNK d   1      18.971  74.975  11.112  0.00  0.00    -0.272 N 
ATOM      9  C   UNK d   1      18.975  74.929  13.468  0.00  0.00     0.052 A 
ATOM     10  C   UNK d   1      18.480  73.725  11.065  0.00  0.00     0.121 A 
ATOM     11  C   UNK d   1      19.215  75.628   9.954  0.00  0.00     0.255 A 
ATOM     12  C   UNK d   1      18.229  73.057  12.243  0.00  0.00     0.027 A 
ATOM     13 Br   UNK d   1      17.532  71.280  12.170  0.00  0.00    -0.050 Br
ATOM     14  C   UNK d   1      18.473  73.647  13.474  0.00  0.00     0.024 A 
ATOM     15  C   UNK d   1      19.725  76.930   9.980  0.00  0.00     0.104 A 
ATOM     16  O   UNK d   1      18.983  75.064   8.872  0.00  0.00    -0.268 OA
ENDBRANCH   4   5
ENDBRANCH   3   4
ENDBRANCH   1   3
BRANCH   1  17
ATOM     17  C   UNK d   1      23.352  78.805  13.794  0.00  0.00     0.247 C 
BRANCH  17  18
ATOM     18  N   UNK d   1      22.575  79.172  14.941  0.00  0.00    -0.259 N 
ATOM     19  C   UNK d   1      22.457  80.477  15.504  0.00  0.00     0.326 C 
ATOM     20  O   UNK d   1      23.033  81.513  15.062  0.00  0.00    -0.247 OA
ATOM     21  N   UNK d   1      21.592  80.395  16.631  0.00  0.00    -0.324 N 
ATOM     22  C   UNK d   1      21.285  79.009  16.882  0.00  0.00     0.116 C 
ATOM     23  H   UNK d   1      21.256  81.218  17.160  0.00  0.00     0.165 HD
ATOM     24  C   UNK d   1      21.950  78.477  18.123  0.00  0.00     0.041 C 
ATOM     25  C   UNK d   1      19.839  78.748  17.137  0.00  0.00     0.041 C 
ATOM     26  C   UNK d   1      21.781  78.274  15.719  0.00  0.00     0.256 C 
ATOM     27  C   UNK d   1      21.143  77.261  18.451  0.00  0.00     0.003 C 
ATOM     28  C   UNK d   1      19.860  77.334  17.674  0.00  0.00     0.003 C 
ATOM     29  O   UNK d   1      21.579  77.077  15.409  0.00  0.00    -0.270 OA
ENDBRANCH  17  18
ENDBRANCH   1  17
TORSDOF 5
ENDMDL
