/Users/jonathanwahrer/Desktop/Msc/3_Semester/Drug_Design_Praktikum/waehrer_HTS_screening/HTS_experiment/out/docking_results/vina_output/6e43/0827_docked.pdbqt
 OpenBabel03212220103D

 29 32  0  0  1  0  0  0  0  0999 V2000
   22.7900   77.7060   14.9930 C   0  0  2  0  0  0  0  0  0  0  0  0
   21.4810   77.1860   15.3820 N   0  0  0  0  0  4  0  0  0  0  0  0
   20.9270   77.9970   16.3420 C   0  0  0  0  0  0  0  0  0  0  0  0
   19.9520   77.7570   17.1820 C   0  0  0  0  0  3  0  0  0  0  0  0
   19.2740   78.5520   18.2470 C   0  0  0  0  0  2  0  0  0  0  0  0
   19.9290   79.8640   18.5430 C   0  0  0  0  0  2  0  0  0  0  0  0
   20.0270   80.7300   17.3090 C   0  0  0  0  0  2  0  0  0  0  0  0
   21.3950   80.5730   16.6750 C   0  0  0  0  0  2  0  0  0  0  0  0
   21.7100   79.2120   16.3790 N   0  0  0  0  0  0  0  0  0  0  0  0
   23.0870   78.8210   16.0470 C   0  0  0  0  0  2  0  0  0  0  0  0
   21.8400   76.3130   16.0210 H   0  0  0  0  0  0  0  0  0  0  0  0
   20.7770   76.5310   14.4060 C   0  0  0  0  0  0  0  0  0  0  0  0
   20.3350   77.0800   13.2410 C   0  0  0  0  0  3  0  0  0  0  0  0
   19.4690   76.4110   12.3590 C   0  0  0  0  0  3  0  0  0  0  0  0
   19.0230   75.1460   12.6410 C   0  0  0  0  0  0  0  0  0  0  0  0
   19.4710   74.5790   13.8250 C   0  0  0  0  0  3  0  0  0  0  0  0
   20.3180   75.2400   14.6870 C   0  0  0  0  0  3  0  0  0  0  0  0
   18.1610   74.4740   11.7900 O   0  0  0  0  0  0  0  0  0  0  0  0
   18.0080   73.0790   11.7260 C   0  0  0  0  0  2  0  0  0  0  0  0
   16.8050   72.7530   12.6310 C   0  0  0  0  0  1  0  0  0  0  0  0
   22.6930   78.4850   13.7260 C   0  0  0  0  0  0  0  0  0  0  0  0
   21.7770   79.4950   13.5440 C   0  0  0  0  0  3  0  0  0  0  0  0
   21.7270   80.1940   12.3570 C   0  0  0  0  0  3  0  0  0  0  0  0
   22.6000   79.8890   11.3300 C   0  0  0  0  0  0  0  0  0  0  0  0
   22.5020   80.8590    9.7070 Br  0  0  0  0  0  0  0  0  0  0  0  0
   23.5190   78.8840   11.4970 C   0  0  0  0  0  3  0  0  0  0  0  0
   23.5520   78.1860   12.7110 C   0  0  0  0  0  3  0  0  0  0  0  0
   23.7760   76.8010   15.0790 O   0  0  0  0  0  0  0  0  0  0  0  0
   24.1870   76.5920   15.9300 H   0  0  0  0  0  0  0  0  0  0  0  0
  1 28  1  6  0  0  0
  1  2  1  0  0  0  0
  1 10  1  0  0  0  0
  2 11  1  0  0  0  0
  2  3  1  0  0  0  0
  3  9  1  0  0  0  0
  3  4  2  0  0  0  0
  4  5  1  0  0  0  0
  5  6  1  0  0  0  0
  7  6  1  0  0  0  0
  8  7  1  0  0  0  0
  9  8  1  0  0  0  0
 10  9  1  0  0  0  0
 12 17  1  0  0  0  0
 12  2  1  0  0  0  0
 13 12  2  0  0  0  0
 14 15  2  0  0  0  0
 14 13  1  0  0  0  0
 15 16  1  0  0  0  0
 16 17  2  0  0  0  0
 18 15  1  0  0  0  0
 19 18  1  0  0  0  0
 19 20  1  0  0  0  0
 21  1  1  0  0  0  0
 22 21  1  0  0  0  0
 23 22  2  0  0  0  0
 24 26  2  0  0  0  0
 24 23  1  0  0  0  0
 25 24  1  0  0  0  0
 26 27  1  0  0  0  0
 27 21  2  0  0  0  0
 28 29  1  0  0  0  0
M  END
>  <Pose>
1

>  <Score>
-8.797

$$$$
