MODEL 1
REMARK VINA RESULT:    -8.277      0.000      0.000
REMARK INTER + INTRA:          -9.844
REMARK INTER:                  -9.971
REMARK INTRA:                   0.127
REMARK UNBOUND:                 0.127
REMARK  4 active torsions:
REMARK  status: ('A' for Active; 'I' for Inactive)
REMARK    1  A    between atoms: C_5  and  C_8 
REMARK    2  A    between atoms: C_8  and  O_26 
REMARK    3  A    between atoms: N_16  and  C_18 
REMARK    4  A    between atoms: C_19  and  O_24 
ROOT
ATOM      1  C   UNK d   1      21.330  77.214  14.566  0.00  0.00     0.189 C 
ATOM      2  N   UNK d   1      22.532  77.788  15.156  0.00  0.00    -0.324 N 
ATOM      3  C   UNK d   1      23.634  78.304  14.351  0.00  0.00     0.128 C 
ATOM      4  C   UNK d   1      24.867  78.554  15.138  0.00  0.00     0.020 C 
ATOM      5  C   UNK d   1      25.309  77.385  15.980  0.00  0.00     0.005 C 
ATOM      6  C   UNK d   1      24.761  77.642  17.371  0.00  0.00     0.031 C 
ATOM      7  C   UNK d   1      23.332  77.654  17.488  0.00  0.00     0.030 C 
ATOM      8  C   UNK d   1      22.371  77.716  16.538  0.00  0.00     0.208 C 
ATOM      9  N   UNK d   1      21.008  77.730  16.892  0.00  0.00     0.011 N 
ATOM     10  C   UNK d   1      20.344  77.521  15.638  0.00  0.00     0.316 C 
ATOM     11  H   UNK d   1      20.724  76.969  17.552  0.00  0.00     0.295 HD
ENDROOT
BRANCH   1  12
ATOM     12  C   UNK d   1      21.027  77.861  13.274  0.00  0.00    -0.001 A 
ATOM     13  C   UNK d   1      20.306  77.133  12.323  0.00  0.00     0.013 A 
ATOM     14  C   UNK d   1      20.067  77.756  11.097  0.00  0.00     0.020 A 
ATOM     15  C   UNK d   1      20.531  79.028  10.853  0.00  0.00     0.011 A 
ATOM     16 Br   UNK d   1      20.180  79.845   9.157  0.00  0.00    -0.051 Br
ATOM     17  C   UNK d   1      21.241  79.718  11.820  0.00  0.00     0.020 A 
ATOM     18  C   UNK d   1      21.489  79.118  13.043  0.00  0.00     0.013 A 
ENDBRANCH   1  12
BRANCH   1  19
ATOM     19  O   UNK d   1      21.563  75.876  14.381  0.00  0.00    -0.365 OA
ATOM     20  H   UNK d   1      21.544  75.590  13.444  0.00  0.00     0.213 HD
ENDBRANCH   1  19
BRANCH   9  21
ATOM     21  C   UNK d   1      20.753  79.026  17.435  0.00  0.00     0.175 A 
ATOM     22  C   UNK d   1      20.005  79.175  18.591  0.00  0.00     0.103 A 
ATOM     23  C   UNK d   1      19.749  80.479  18.993  0.00  0.00     0.039 A 
ATOM     24  C   UNK d   1      20.190  81.602  18.317  0.00  0.00     0.003 A 
ATOM     25  C   UNK d   1      20.948  81.399  17.144  0.00  0.00     0.002 A 
ATOM     26  C   UNK d   1      21.191  80.128  16.766  0.00  0.00     0.041 A 
BRANCH  22  27
ATOM     27  O   UNK d   1      19.568  78.078  19.267  0.00  0.00    -0.354 OA
ATOM     28  C   UNK d   1      19.892  77.866  20.616  0.00  0.00     0.210 C 
ENDBRANCH  22  27
ENDBRANCH   9  21
TORSDOF 4
ENDMDL
