MODEL 1
REMARK VINA RESULT:    -8.659      0.000      0.000
REMARK INTER + INTRA:         -10.969
REMARK INTER:                 -10.430
REMARK INTRA:                  -0.539
REMARK UNBOUND:                -0.539
REMARK  4 active torsions:
REMARK  status: ('A' for Active; 'I' for Inactive)
REMARK    1  A    between atoms: C_5  and  C_8 
REMARK    2  A    between atoms: C_8  and  O_26 
REMARK    3  A    between atoms: N_16  and  C_18 
REMARK    4  A    between atoms: C_21  and  O_24 
ROOT
ATOM      1  C   UNK d   1      22.168  79.271  14.922  0.00  0.00     0.189 C 
ATOM      2  N   UNK d   1      23.261  79.225  15.840  0.00  0.00    -0.324 N 
ATOM      3  C   UNK d   1      24.344  80.150  15.967  0.00  0.00     0.128 C 
ATOM      4  C   UNK d   1      25.708  79.591  16.090  0.00  0.00     0.020 C 
ATOM      5  C   UNK d   1      25.837  78.111  16.120  0.00  0.00     0.005 C 
ATOM      6  C   UNK d   1      25.355  77.516  17.444  0.00  0.00     0.031 C 
ATOM      7  C   UNK d   1      23.879  77.313  17.307  0.00  0.00     0.030 C 
ATOM      8  C   UNK d   1      23.000  78.034  16.631  0.00  0.00     0.208 C 
ATOM      9  N   UNK d   1      21.612  77.734  16.558  0.00  0.00     0.009 N 
ATOM     10  C   UNK d   1      21.365  77.990  15.170  0.00  0.00     0.316 C 
ATOM     11  H   UNK d   1      21.489  76.721  16.810  0.00  0.00     0.295 HD
ENDROOT
BRANCH   1  12
ATOM     12  C   UNK d   1      22.473  79.247  13.494  0.00  0.00    -0.001 A 
ATOM     13  C   UNK d   1      23.557  78.716  12.878  0.00  0.00     0.013 A 
ATOM     14  C   UNK d   1      23.722  78.761  11.499  0.00  0.00     0.020 A 
ATOM     15  C   UNK d   1      22.767  79.358  10.705  0.00  0.00     0.011 A 
ATOM     16 Br   UNK d   1      22.966  79.429   8.803  0.00  0.00    -0.051 Br
ATOM     17  C   UNK d   1      21.666  79.898  11.326  0.00  0.00     0.020 A 
ATOM     18  C   UNK d   1      21.492  79.859  12.685  0.00  0.00     0.013 A 
ENDBRANCH   1  12
BRANCH   1  19
ATOM     19  O   UNK d   1      21.348  80.398  15.122  0.00  0.00    -0.365 OA
ATOM     20  H   UNK d   1      21.430  80.925  14.286  0.00  0.00     0.213 HD
ENDBRANCH   1  19
BRANCH   9  21
ATOM     21  C   UNK d   1      20.910  78.589  17.422  0.00  0.00     0.142 A 
ATOM     22  C   UNK d   1      19.509  78.692  17.353  0.00  0.00     0.040 A 
ATOM     23  C   UNK d   1      18.796  79.519  18.178  0.00  0.00     0.039 A 
ATOM     24  C   UNK d   1      19.432  80.294  19.124  0.00  0.00     0.068 A 
ATOM     25  C   UNK d   1      20.798  80.212  19.212  0.00  0.00     0.039 A 
ATOM     26  C   UNK d   1      21.515  79.378  18.379  0.00  0.00     0.040 A 
BRANCH  24  27
ATOM     27  O   UNK d   1      18.690  81.142  19.969  0.00  0.00    -0.356 OA
ATOM     28  C   UNK d   1      19.211  82.390  20.343  0.00  0.00     0.210 C 
ENDBRANCH  24  27
ENDBRANCH   9  21
TORSDOF 4
ENDMDL
