/Users/jonathanwahrer/Desktop/Msc/3_Semester/Drug_Design_Praktikum/waehrer_HTS_screening/HTS_experiment/out/docking_results/vina_output/6e43/0835_docked.pdbqt
 OpenBabel03212220103D

 27 30  0  0  1  0  0  0  0  0999 V2000
   21.9890   78.9490   15.1370 C   0  0  2  0  0  0  0  0  0  0  0  0
   23.3490   78.7940   15.6070 N   0  0  0  0  0  0  0  0  0  0  0  0
   24.6850   79.0970   15.1400 C   0  0  0  0  0  2  0  0  0  0  0  0
   25.6140   79.4860   16.2710 C   0  0  0  0  0  2  0  0  0  0  0  0
   25.6500   78.3640   17.2540 C   0  0  0  0  0  2  0  0  0  0  0  0
   24.2900   77.9410   17.6490 C   0  0  0  0  0  3  0  0  0  0  0  0
   23.2230   78.1470   16.8720 C   0  0  0  0  0  0  0  0  0  0  0  0
   21.8870   77.7710   17.1210 N   0  0  0  0  0  4  0  0  0  0  0  0
   21.3020   77.7700   15.7640 C   0  0  0  0  0  2  0  0  0  0  0  0
   21.8250   76.7350   17.3910 H   0  0  0  0  0  0  0  0  0  0  0  0
   21.8780   78.9420   13.6590 C   0  0  0  0  0  0  0  0  0  0  0  0
   21.1590   77.9500   13.0280 C   0  0  0  0  0  3  0  0  0  0  0  0
   21.0100   77.8950   11.6420 C   0  0  0  0  0  3  0  0  0  0  0  0
   21.6050   78.8690   10.8720 C   0  0  0  0  0  0  0  0  0  0  0  0
   21.4160   78.8000    8.9620 Br  0  0  0  0  0  0  0  0  0  0  0  0
   22.3290   79.8660   11.4890 C   0  0  0  0  0  3  0  0  0  0  0  0
   22.4670   79.9080   12.8640 C   0  0  0  0  0  3  0  0  0  0  0  0
   21.3830   80.1060   15.6160 O   0  0  0  0  0  0  0  0  0  0  0  0
   20.7300   79.8210   16.3000 H   0  0  0  0  0  0  0  0  0  0  0  0
   21.1510   78.5740   17.9860 C   0  0  0  0  0  0  0  0  0  0  0  0
   19.8950   78.2550   18.4360 C   0  0  0  0  0  0  0  0  0  0  0  0
   19.2040   79.1180   19.2900 C   0  0  0  0  0  3  0  0  0  0  0  0
   19.7640   80.3020   19.6970 C   0  0  0  0  0  3  0  0  0  0  0  0
   21.0260   80.6300   19.2510 C   0  0  0  0  0  3  0  0  0  0  0  0
   21.6990   79.7770   18.4140 C   0  0  0  0  0  3  0  0  0  0  0  0
   19.2560   77.0840   18.0790 O   0  0  0  0  0  0  0  0  0  0  0  0
   18.4180   77.0280   16.9730 C   0  0  0  0  0  1  0  0  0  0  0  0
  1  2  1  0  0  0  0
  1 18  1  1  0  0  0
  1  9  1  0  0  0  0
  2  7  1  0  0  0  0
  3  2  1  0  0  0  0
  3  4  1  0  0  0  0
  4  5  1  0  0  0  0
  5  6  1  0  0  0  0
  7  8  1  0  0  0  0
  7  6  2  0  0  0  0
  8 10  1  0  0  0  0
  8 20  1  0  0  0  0
  9  8  1  0  0  0  0
 11  1  1  0  0  0  0
 12 11  1  0  0  0  0
 13 12  2  0  0  0  0
 14 16  2  0  0  0  0
 14 13  1  0  0  0  0
 15 14  1  0  0  0  0
 16 17  1  0  0  0  0
 17 11  2  0  0  0  0
 18 19  1  0  0  0  0
 20 25  2  0  0  0  0
 20 21  1  0  0  0  0
 21 22  2  0  0  0  0
 22 23  1  0  0  0  0
 24 23  2  0  0  0  0
 25 24  1  0  0  0  0
 26 21  1  0  0  0  0
 27 26  1  0  0  0  0
M  END
>  <Pose>
1

>  <Score>
-8.816

$$$$
