MODEL 1
REMARK VINA RESULT:    -8.816      0.000      0.000
REMARK INTER + INTRA:         -10.059
REMARK INTER:                 -10.619
REMARK INTRA:                   0.561
REMARK UNBOUND:                 0.561
REMARK  4 active torsions:
REMARK  status: ('A' for Active; 'I' for Inactive)
REMARK    1  A    between atoms: C_5  and  C_8 
REMARK    2  A    between atoms: C_8  and  O_25 
REMARK    3  A    between atoms: N_15  and  C_17 
REMARK    4  A    between atoms: C_18  and  O_23 
ROOT
ATOM      1  C   UNK d   1      21.989  78.949  15.137  0.00  0.00     0.189 C 
ATOM      2  N   UNK d   1      23.349  78.794  15.607  0.00  0.00    -0.324 N 
ATOM      3  C   UNK d   1      24.685  79.097  15.140  0.00  0.00     0.128 C 
ATOM      4  C   UNK d   1      25.614  79.486  16.271  0.00  0.00     0.024 C 
ATOM      5  C   UNK d   1      25.650  78.364  17.254  0.00  0.00     0.032 C 
ATOM      6  C   UNK d   1      24.290  77.941  17.649  0.00  0.00     0.030 C 
ATOM      7  C   UNK d   1      23.223  78.147  16.872  0.00  0.00     0.208 C 
ATOM      8  N   UNK d   1      21.887  77.771  17.121  0.00  0.00     0.011 N 
ATOM      9  C   UNK d   1      21.302  77.770  15.764  0.00  0.00     0.316 C 
ATOM     10  H   UNK d   1      21.825  76.735  17.391  0.00  0.00     0.295 HD
ENDROOT
BRANCH   1  11
ATOM     11  C   UNK d   1      21.878  78.942  13.659  0.00  0.00    -0.001 A 
ATOM     12  C   UNK d   1      21.159  77.950  13.028  0.00  0.00     0.013 A 
ATOM     13  C   UNK d   1      21.010  77.895  11.642  0.00  0.00     0.020 A 
ATOM     14  C   UNK d   1      21.605  78.869  10.872  0.00  0.00     0.011 A 
ATOM     15 Br   UNK d   1      21.416  78.800   8.962  0.00  0.00    -0.051 Br
ATOM     16  C   UNK d   1      22.329  79.866  11.489  0.00  0.00     0.020 A 
ATOM     17  C   UNK d   1      22.467  79.908  12.864  0.00  0.00     0.013 A 
ENDBRANCH   1  11
BRANCH   1  18
ATOM     18  O   UNK d   1      21.383  80.106  15.616  0.00  0.00    -0.365 OA
ATOM     19  H   UNK d   1      20.730  79.821  16.300  0.00  0.00     0.213 HD
ENDBRANCH   1  18
BRANCH   8  20
ATOM     20  C   UNK d   1      21.151  78.574  17.986  0.00  0.00     0.175 A 
ATOM     21  C   UNK d   1      19.895  78.255  18.436  0.00  0.00     0.103 A 
ATOM     22  C   UNK d   1      19.204  79.118  19.290  0.00  0.00     0.039 A 
ATOM     23  C   UNK d   1      19.764  80.302  19.697  0.00  0.00     0.003 A 
ATOM     24  C   UNK d   1      21.026  80.630  19.251  0.00  0.00     0.002 A 
ATOM     25  C   UNK d   1      21.699  79.777  18.414  0.00  0.00     0.041 A 
BRANCH  21  26
ATOM     26  O   UNK d   1      19.256  77.084  18.079  0.00  0.00    -0.354 OA
ATOM     27  C   UNK d   1      18.418  77.028  16.973  0.00  0.00     0.210 C 
ENDBRANCH  21  26
ENDBRANCH   8  20
TORSDOF 4
ENDMDL
