MODEL 1
REMARK VINA RESULT:   -11.332      0.000      0.000
REMARK INTER + INTRA:         -16.308
REMARK INTER:                 -15.307
REMARK INTRA:                  -1.002
REMARK UNBOUND:                -1.002
REMARK  6 active torsions:
REMARK  status: ('A' for Active; 'I' for Inactive)
REMARK    1  A    between atoms: C_5  and  N_8 
REMARK    2  A    between atoms: N_8  and  C_9 
REMARK    3  A    between atoms: C_9  and  C_10 
REMARK    4  A    between atoms: N_13  and  C_15 
REMARK    5  A    between atoms: C_16  and  C_18 
REMARK    6  A    between atoms: C_21  and  O_24 
ROOT
ATOM      1  C   UNK d   1      20.756  76.800  13.993  0.00  0.00     0.145 A 
ATOM      2  N   UNK d   1      21.067  77.587  12.951  0.00  0.00    -0.321 N 
ATOM      3  C   UNK d   1      22.196  78.254  13.255  0.00  0.00     0.104 A 
ATOM      4  N   UNK d   1      22.593  77.871  14.514  0.00  0.00    -0.250 N 
ATOM      5  N   UNK d   1      21.697  76.992  14.926  0.00  0.00    -0.155 NA
ATOM      6  C   UNK d   1      23.001  79.232  12.517  0.00  0.00     0.078 C 
ATOM      7  C   UNK d   1      22.219  80.146  11.612  0.00  0.00     0.008 C 
ATOM      8  C   UNK d   1      21.479  79.430  10.529  0.00  0.00     0.002 C 
ATOM      9  C   UNK d   1      20.161  78.981  11.115  0.00  0.00     0.020 C 
ATOM     10  C   UNK d   1      20.268  77.626  11.770  0.00  0.00     0.132 C 
ENDROOT
BRANCH   4  11
ATOM     11  C   UNK d   1      23.738  78.261  15.237  0.00  0.00     0.221 C 
ATOM     12  C   UNK d   1      23.566  79.089  16.402  0.00  0.00     0.114 C 
ATOM     13  O   UNK d   1      24.728  79.418  16.968  0.00  0.00    -0.194 OA
BRANCH  12  14
ATOM     14  C   UNK d   1      22.432  79.639  17.088  0.00  0.00    -0.002 A 
ATOM     15  C   UNK d   1      21.963  79.050  18.283  0.00  0.00     0.017 A 
ATOM     16  C   UNK d   1      20.883  79.530  18.975  0.00  0.00     0.037 A 
ATOM     17  C   UNK d   1      20.192  80.628  18.528  0.00  0.00     0.068 A 
ATOM     18  C   UNK d   1      20.613  81.229  17.373  0.00  0.00     0.037 A 
ATOM     19  C   UNK d   1      21.725  80.725  16.673  0.00  0.00     0.017 A 
BRANCH  17  20
ATOM     20  O   UNK d   1      19.093  81.115  19.233  0.00  0.00    -0.356 OA
ATOM     21  C   UNK d   1      19.223  82.016  20.306  0.00  0.00     0.210 C 
ENDBRANCH  17  20
ENDBRANCH  12  14
ENDBRANCH   4  11
BRANCH   1  22
ATOM     22  C   UNK d   1      19.604  75.860  14.175  0.00  0.00     0.200 C 
BRANCH  22  23
ATOM     23  N   UNK d   1      19.986  74.472  14.010  0.00  0.00    -0.383 N 
ATOM     24  H   UNK d   1      20.925  74.133  14.316  0.00  0.00     0.160 HD
BRANCH  23  25
ATOM     25  C   UNK d   1      19.117  73.494  13.425  0.00  0.00     0.028 A 
ATOM     26  C   UNK d   1      17.807  73.808  13.137  0.00  0.00     0.030 A 
ATOM     27  C   UNK d   1      16.982  72.871  12.574  0.00  0.00     0.021 A 
ATOM     28  C   UNK d   1      17.461  71.596  12.291  0.00  0.00     0.011 A 
ATOM     29 Br   UNK d   1      16.316  70.296  11.509  0.00  0.00    -0.051 Br
ATOM     30  C   UNK d   1      18.773  71.261  12.573  0.00  0.00     0.021 A 
ATOM     31  C   UNK d   1      19.575  72.225  13.138  0.00  0.00     0.030 A 
ENDBRANCH  23  25
ENDBRANCH  22  23
ENDBRANCH   1  22
TORSDOF 6
ENDMDL
