MODEL 1
REMARK VINA RESULT:    -9.821      0.000      0.000
REMARK INTER + INTRA:         -10.695
REMARK INTER:                 -12.404
REMARK INTRA:                   1.709
REMARK UNBOUND:                 1.709
REMARK  5 active torsions:
REMARK  status: ('A' for Active; 'I' for Inactive)
REMARK    1  A    between atoms: C_5  and  N_8 
REMARK    2  A    between atoms: C_9  and  O_18 
REMARK    3  A    between atoms: C_9  and  C_19 
REMARK    4  A    between atoms: C_22  and  O_25 
REMARK    5  A    between atoms: O_25  and  C_26 
ROOT
ATOM      1  N   UNK d   1      20.392  79.792  17.432  0.00  0.00     0.042 N 
ATOM      2  C   UNK d   1      20.235  78.398  17.722  0.00  0.00     0.283 C 
ATOM      3  C   UNK d   1      21.619  78.092  18.295  0.00  0.00     0.200 C 
ATOM      4  N   UNK d   1      22.513  78.879  17.431  0.00  0.00    -0.356 N 
ATOM      5  C   UNK d   1      23.899  78.581  17.352  0.00  0.00     0.124 C 
ATOM      6  C   UNK d   1      24.674  79.426  16.386  0.00  0.00     0.020 C 
ATOM      7  C   UNK d   1      23.965  79.445  15.060  0.00  0.00     0.005 C 
ATOM      8  C   UNK d   1      23.205  80.779  15.032  0.00  0.00     0.031 C 
ATOM      9  C   UNK d   1      21.945  80.616  15.784  0.00  0.00     0.030 C 
ATOM     10  C   UNK d   1      21.662  79.838  16.804  0.00  0.00     0.210 C 
ATOM     11  H   UNK d   1      19.597  80.061  16.773  0.00  0.00     0.299 HD
ENDROOT
BRANCH   2  12
ATOM     12  O   UNK d   1      19.185  78.030  18.502  0.00  0.00    -0.359 OA
ATOM     13  H   UNK d   1      18.818  78.760  19.033  0.00  0.00     0.213 HD
ENDBRANCH   2  12
BRANCH   2  14
ATOM     14  C   UNK d   1      20.142  77.578  16.480  0.00  0.00     0.007 A 
ATOM     15  C   UNK d   1      21.098  77.512  15.510  0.00  0.00     0.015 A 
ATOM     16  C   UNK d   1      20.950  76.709  14.360  0.00  0.00     0.037 A 
ATOM     17  C   UNK d   1      19.820  75.952  14.170  0.00  0.00     0.068 A 
ATOM     18  C   UNK d   1      18.849  76.011  15.141  0.00  0.00     0.037 A 
ATOM     19  C   UNK d   1      18.996  76.796  16.261  0.00  0.00     0.015 A 
BRANCH  17  20
ATOM     20  O   UNK d   1      19.664  75.146  13.030  0.00  0.00    -0.352 OA
BRANCH  20  21
ATOM     21  C   UNK d   1      18.670  74.151  12.960  0.00  0.00     0.171 C 
ATOM     22  C   UNK d   1      19.205  72.784  13.248  0.00  0.00     0.034 C 
ENDBRANCH  20  21
ENDBRANCH  17  20
ENDBRANCH   2  14
BRANCH   1  23
ATOM     23  C   UNK d   1      20.311  80.684  18.481  0.00  0.00     0.146 A 
ATOM     24  C   UNK d   1      20.128  82.039  18.211  0.00  0.00     0.039 A 
ATOM     25  C   UNK d   1      20.013  82.985  19.220  0.00  0.00     0.021 A 
ATOM     26  C   UNK d   1      20.076  82.613  20.544  0.00  0.00     0.011 A 
ATOM     27 Br   UNK d   1      19.898  83.901  21.952  0.00  0.00    -0.051 Br
ATOM     28  C   UNK d   1      20.255  81.297  20.838  0.00  0.00     0.021 A 
ATOM     29  C   UNK d   1      20.368  80.370  19.806  0.00  0.00     0.039 A 
ENDBRANCH   1  23
TORSDOF 5
ENDMDL
