/Users/jonathanwahrer/Desktop/Msc/3_Semester/Drug_Design_Praktikum/waehrer_HTS_screening/HTS_experiment/out/docking_results/vina_output/6e43/0860_docked.pdbqt
 OpenBabel03212220113D

 29 32  0  0  1  0  0  0  0  0999 V2000
   20.9650   77.6690    9.5340 Br  0  0  0  0  0  0  0  0  0  0  0  0
   21.4680   78.6790   11.0820 C   0  0  0  0  0  0  0  0  0  0  0  0
   21.2820   78.1860   12.3590 C   0  0  0  0  0  3  0  0  0  0  0  0
   21.6450   78.9150   13.4690 C   0  0  0  0  0  0  0  0  0  0  0  0
   22.1990   80.1580   13.2430 C   0  0  0  0  0  0  0  0  0  0  0  0
   22.3880   80.6560   11.9690 C   0  0  0  0  0  3  0  0  0  0  0  0
   22.0230   79.9220   10.8610 C   0  0  0  0  0  0  0  0  0  0  0  0
   22.2310   80.4690    9.4890 C   0  0  0  0  0  1  0  0  0  0  0  0
   22.5580   80.8770   14.3810 O   0  0  0  0  0  0  0  0  0  0  0  0
   22.1230   80.5730   15.6640 C   0  0  0  0  0  2  0  0  0  0  0  0
   21.8990   79.1250   15.9420 C   0  0  2  0  0  0  0  0  0  0  0  0
   21.4130   78.3200   14.7890 C   0  0  2  0  0  3  0  0  0  0  0  0
   20.8420   79.0820   16.9590 N   0  0  0  0  0  4  0  0  0  0  0  0
   20.3850   80.3710   17.3510 C   0  0  0  0  0  2  0  0  0  0  0  0
   19.0650   80.1460   18.1050 C   0  0  0  0  0  2  0  0  0  0  0  0
   19.3850   79.4240   19.2410 O   0  0  0  0  0  0  0  0  0  0  0  0
   19.9490   78.1840   18.9640 C   0  0  0  0  0  2  0  0  0  0  0  0
   21.2230   78.3380   18.1200 C   0  0  0  0  0  2  0  0  0  0  0  0
   20.0470   78.5770   16.5070 H   0  0  0  0  0  0  0  0  0  0  0  0
   23.1090   78.4530   16.5570 C   0  0  0  0  0  2  0  0  0  0  0  0
   24.3470   79.1050   16.2590 N   0  0  0  0  0  4  0  0  0  0  0  0
   25.3170   78.9860   17.3330 C   0  0  0  0  0  2  0  0  0  0  0  0
   26.7010   78.6370   16.8080 C   0  0  0  0  0  2  0  0  0  0  0  0
   26.7330   77.4000   16.1860 O   0  0  0  0  0  0  0  0  0  0  0  0
   25.5400   77.1390   15.5170 C   0  0  0  0  0  2  0  0  0  0  0  0
   24.9780   78.4780   15.0860 C   0  0  0  0  0  2  0  0  0  0  0  0
   24.2760   80.1070   16.0290 H   0  0  0  0  0  0  0  0  0  0  0  0
   22.0240   77.0430   14.7720 O   0  0  0  0  0  0  0  0  0  0  0  0
   23.0000   77.1000   14.7160 H   0  0  0  0  0  0  0  0  0  0  0  0
  1  2  1  0  0  0  0
  2  3  1  0  0  0  0
  3  4  2  0  0  0  0
  4 12  1  0  0  0  0
  5  4  1  0  0  0  0
  5  9  1  0  0  0  0
  6  5  2  0  0  0  0
  7  2  2  0  0  0  0
  7  6  1  0  0  0  0
  8  7  1  0  0  0  0
  9 10  1  0  0  0  0
 10 11  1  0  0  0  0
 11 20  1  1  0  0  0
 11 13  1  0  0  0  0
 12 28  1  6  0  0  0
 12 11  1  0  0  0  0
 13 14  1  0  0  0  0
 13 18  1  0  0  0  0
 14 15  1  0  0  0  0
 15 16  1  0  0  0  0
 17 16  1  0  0  0  0
 18 17  1  0  0  0  0
 19 13  1  0  0  0  0
 21 20  1  0  0  0  0
 21 22  1  0  0  0  0
 23 22  1  0  0  0  0
 24 23  1  0  0  0  0
 25 24  1  0  0  0  0
 26 25  1  0  0  0  0
 26 21  1  0  0  0  0
 27 21  1  0  0  0  0
 29 28  1  0  0  0  0
M  END
>  <Pose>
1

>  <Score>
-7.980

$$$$
