/Users/jonathanwahrer/Desktop/Msc/3_Semester/Drug_Design_Praktikum/waehrer_HTS_screening/HTS_experiment/out/docking_results/vina_output/6e43/0861_docked.pdbqt
 OpenBabel03212220113D

 32 35  0  0  1  0  0  0  0  0999 V2000
   21.0100   77.8690   10.8190 Br  0  0  0  0  0  0  0  0  0  0  0  0
   20.2220   76.9500   12.3060 C   0  0  0  0  0  0  0  0  0  0  0  0
   20.4330   77.4100   13.5840 C   0  0  0  0  0  0  0  0  0  0  0  0
   19.8740   76.7670   14.7010 C   0  0  0  0  0  0  0  0  0  0  0  0
   19.1050   75.6530   14.4460 C   0  0  0  0  0  3  0  0  0  0  0  0
   18.8780   75.1700   13.1750 C   0  0  0  0  0  0  0  0  0  0  0  0
   19.4360   75.8180   12.0970 C   0  0  0  0  0  0  0  0  0  0  0  0
   19.2500   75.3770   10.6900 C   0  0  0  0  0  1  0  0  0  0  0  0
   17.8080   73.6240   12.8530 Br  0  0  0  0  0  0  0  0  0  0  0  0
   20.1240   77.2840   16.0300 C   0  0  0  0  0  0  0  0  0  0  0  0
   19.5550   76.7890   17.0080 O   0  0  0  0  0  0  0  0  0  0  0  0
   21.0640   78.4060   16.2060 C   0  0  1  0  0  0  0  0  0  0  0  0
   20.9500   79.2810   14.9770 C   0  0  0  0  0  2  0  0  0  0  0  0
   21.2150   78.5400   13.8010 O   0  0  0  0  0  0  0  0  0  0  0  0
   20.8390   79.1880   17.4640 C   0  0  0  0  0  2  0  0  0  0  0  0
   19.6750   79.9860   17.5000 N   0  0  0  0  0  4  0  0  0  0  0  0
   18.7900   79.5170   18.5250 C   0  0  0  0  0  2  0  0  0  0  0  0
   19.2420   79.7720   19.9180 C   0  0  2  0  0  3  0  0  0  0  0  0
   20.4170   80.6550   20.0870 C   0  0  0  0  0  2  0  0  0  0  0  0
   19.5850   78.4170   20.5490 C   0  0  0  0  0  1  0  0  0  0  0  0
   20.7110   81.5900   18.9790 C   0  0  0  0  0  2  0  0  0  0  0  0
   19.8850   81.3870   17.7440 C   0  0  0  0  0  2  0  0  0  0  0  0
   19.1590   79.9100   16.5870 H   0  0  0  0  0  0  0  0  0  0  0  0
   22.4490   77.7920   16.2170 C   0  0  0  0  0  2  0  0  0  0  0  0
   23.3970   78.4120   15.3570 N   0  0  0  0  0  4  0  0  0  0  0  0
   24.2550   77.4040   14.7370 C   0  0  0  0  0  2  0  0  0  0  0  0
   25.5960   77.3010   15.4020 C   0  0  1  0  0  3  0  0  0  0  0  0
   25.4250   77.3780   16.9030 C   0  0  0  0  0  2  0  0  0  0  0  0
   26.1380   75.8970   15.1020 C   0  0  0  0  0  1  0  0  0  0  0  0
   24.9490   78.7570   17.2380 C   0  0  0  0  0  2  0  0  0  0  0  0
   24.2810   79.3460   16.0210 C   0  0  0  0  0  2  0  0  0  0  0  0
   22.9250   78.9010   14.5910 H   0  0  0  0  0  0  0  0  0  0  0  0
  1  2  1  0  0  0  0
  2  3  1  0  0  0  0
  3 14  1  0  0  0  0
  3  4  2  0  0  0  0
  4 10  1  0  0  0  0
  5  4  1  0  0  0  0
  6  5  2  0  0  0  0
  7  2  2  0  0  0  0
  7  6  1  0  0  0  0
  8  7  1  0  0  0  0
  9  6  1  0  0  0  0
 10 12  1  0  0  0  0
 10 11  2  0  0  0  0
 12 24  1  1  0  0  0
 12 15  1  0  0  0  0
 13 12  1  0  0  0  0
 14 13  1  0  0  0  0
 15 16  1  0  0  0  0
 16 22  1  0  0  0  0
 16 17  1  0  0  0  0
 17 18  1  0  0  0  0
 18 19  1  0  0  0  0
 18 20  1  6  0  0  0
 21 19  1  0  0  0  0
 22 21  1  0  0  0  0
 23 16  1  0  0  0  0
 25 31  1  0  0  0  0
 25 24  1  0  0  0  0
 26 25  1  0  0  0  0
 26 27  1  0  0  0  0
 27 29  1  1  0  0  0
 27 28  1  0  0  0  0
 28 30  1  0  0  0  0
 31 30  1  0  0  0  0
 32 25  1  0  0  0  0
M  END
>  <Pose>
1

>  <Score>
-8.581

$$$$
