MODEL 1
REMARK VINA RESULT:    -8.138      0.000      0.000
REMARK INTER + INTRA:         -10.842
REMARK INTER:                 -10.041
REMARK INTRA:                  -0.801
REMARK UNBOUND:                -0.801
REMARK  4 active torsions:
REMARK  status: ('A' for Active; 'I' for Inactive)
REMARK    1  A    between atoms: C_12  and  C_15 
REMARK    2  A    between atoms: C_12  and  C_22 
REMARK    3  A    between atoms: C_15  and  N_16 
REMARK    4  A    between atoms: C_22  and  N_23 
ROOT
ATOM      1 Br   UNK d   1      20.947  76.795  18.779  0.00  0.00    -0.048 Br
ATOM      2  C   UNK d   1      21.046  78.509  17.995  0.00  0.00     0.052 A 
ATOM      3  C   UNK d   1      21.674  78.624  16.778  0.00  0.00     0.100 A 
ATOM      4  C   UNK d   1      21.809  79.845  16.097  0.00  0.00     0.047 A 
ATOM      5  C   UNK d   1      21.280  81.001  16.686  0.00  0.00     0.038 A 
ATOM      6  C   UNK d   1      20.655  80.871  17.905  0.00  0.00     0.019 A 
ATOM      7  C   UNK d   1      20.533  79.658  18.559  0.00  0.00    -0.024 A 
ATOM      8  C   UNK d   1      19.845  79.549  19.891  0.00  0.00     0.051 C 
ATOM      9 Br   UNK d   1      19.935  82.444  18.705  0.00  0.00    -0.051 Br
ATOM     10  C   UNK d   1      22.488  79.907  14.817  0.00  0.00     0.176 C 
ATOM     11  O   UNK d   1      23.105  80.971  14.564  0.00  0.00    -0.291 OA
ATOM     12  C   UNK d   1      22.391  78.723  13.942  0.00  0.00     0.095 C 
ATOM     13  C   UNK d   1      22.963  77.612  14.934  0.00  0.00     0.197 C 
ATOM     14  O   UNK d   1      22.232  77.552  16.106  0.00  0.00    -0.347 OA
ENDROOT
BRANCH  12  15
ATOM     15  C   UNK d   1      23.256  78.685  12.780  0.00  0.00     0.256 C 
BRANCH  15  16
ATOM     16  N   UNK d   1      23.228  79.486  11.649  0.00  0.00    -0.070 N 
ATOM     17  C   UNK d   1      22.245  80.472  11.428  0.00  0.00     0.235 C 
ATOM     18  C   UNK d   1      21.971  80.747   9.955  0.00  0.00     0.028 C 
ATOM     19  C   UNK d   1      21.363  79.564   9.272  0.00  0.00     0.003 C 
ATOM     20  C   UNK d   1      21.934  78.322   9.884  0.00  0.00     0.028 C 
ATOM     21  C   UNK d   1      23.284  78.623  10.448  0.00  0.00     0.235 C 
ATOM     22  H   UNK d   1      24.189  80.015  11.516  0.00  0.00     0.279 HD
ENDBRANCH  15  16
ENDBRANCH  12  15
BRANCH  12  23
ATOM     23  C   UNK d   1      20.969  78.392  13.693  0.00  0.00     0.256 C 
BRANCH  23  24
ATOM     24  N   UNK d   1      20.594  77.128  13.217  0.00  0.00    -0.070 N 
ATOM     25  C   UNK d   1      19.899  76.417  14.300  0.00  0.00     0.235 C 
ATOM     26  C   UNK d   1      19.715  74.946  13.989  0.00  0.00     0.028 C 
ATOM     27  C   UNK d   1      18.765  74.896  12.781  0.00  0.00     0.003 C 
ATOM     28  C   UNK d   1      19.513  75.623  11.688  0.00  0.00     0.028 C 
ATOM     29  C   UNK d   1      19.644  77.095  12.117  0.00  0.00     0.235 C 
ATOM     30  H   UNK d   1      21.342  76.463  12.933  0.00  0.00     0.279 HD
ENDBRANCH  23  24
ENDBRANCH  12  23
TORSDOF 4
ENDMDL
