/Users/jonathanwahrer/Desktop/Msc/3_Semester/Drug_Design_Praktikum/waehrer_HTS_screening/HTS_experiment/out/docking_results/vina_output/6e43/0865_docked.pdbqt
 OpenBabel03212220123D

 30 33  0  0  0  0  0  0  0  0999 V2000
   20.8600   76.7330   14.4650 C   0  0  0  0  0  0  0  0  0  0  0  0
   20.7500   77.5550   13.3990 N   0  0  0  0  0  4  0  0  0  0  0  0
   20.0530   77.2230   12.2840 C   0  0  0  0  0  0  0  0  0  0  0  0
   19.4690   76.0240   12.2830 N   0  0  0  0  0  0  0  0  0  0  0  0
   19.5350   75.1550   13.3070 C   0  0  0  0  0  0  0  0  0  0  0  0
   20.2410   75.5430   14.3840 N   0  0  0  0  0  2  0  0  0  0  0  0
   21.6030   77.1440   15.5950 N   0  0  0  0  0  0  0  0  0  0  0  0
   22.5870   76.8430   15.6900 H   0  0  0  0  0  0  0  0  0  0  0  0
   21.0250   77.9420   16.5730 N   0  0  0  0  0  0  0  0  0  0  0  0
   21.0750   79.2260   16.5710 C   0  0  0  0  0  3  0  0  0  0  0  0
   20.4430   79.9970   17.6330 C   0  0  0  0  0  0  0  0  0  0  0  0
   20.6550   81.3580   17.7820 C   0  0  0  0  0  3  0  0  0  0  0  0
   20.0530   82.0840   18.7890 C   0  0  0  0  0  0  0  0  0  0  0  0
   19.2100   81.4740   19.6940 C   0  0  0  0  0  0  0  0  0  0  0  0
   20.3640   83.9600   18.9720 Br  0  0  0  0  0  0  0  0  0  0  0  0
   18.6060   82.1720   20.6950 F   0  0  0  0  0  0  0  0  0  0  0  0
   18.9900   80.1230   19.5570 C   0  0  0  0  0  3  0  0  0  0  0  0
   19.5980   79.3960   18.5420 C   0  0  0  0  0  3  0  0  0  0  0  0
   19.9700   78.1280   11.1890 N   0  0  0  0  0  0  0  0  0  0  0  0
   19.3600   77.8110    9.9190 C   0  0  0  0  0  2  0  0  0  0  0  0
   20.4500   78.1300    8.8980 C   0  0  0  0  0  2  0  0  0  0  0  0
   20.6570   79.4600    8.8780 O   0  0  0  0  0  0  0  0  0  0  0  0
   20.7840   80.1410   10.0240 C   0  0  0  0  0  3  0  0  0  0  0  0
   20.5160   79.4600   11.3070 C   0  0  0  0  0  3  0  0  0  0  0  0
   18.8860   73.8920   13.2340 N   0  0  0  0  0  0  0  0  0  0  0  0
   17.5160   73.8340   12.7610 C   0  0  0  0  0  2  0  0  0  0  0  0
   17.0260   72.4050   12.8110 C   0  0  0  0  0  2  0  0  0  0  0  0
   17.8740   71.4970   12.2440 O   0  0  0  0  0  0  0  0  0  0  0  0
   19.2100   71.6590   12.4950 C   0  0  0  0  0  2  0  0  0  0  0  0
   19.5040   72.6540   13.6050 C   0  0  0  0  0  2  0  0  0  0  0  0
  1  7  1  0  0  0  0
  2  1  2  0  0  0  0
  3  2  2  0  0  0  0
  4  3  1  0  0  0  0
  4  5  2  0  0  0  0
  5  6  1  0  0  0  0
  6  1  1  0  0  0  0
  7  8  1  0  0  0  0
  7  9  1  0  0  0  0
 10  9  2  0  0  0  0
 10 11  1  0  0  0  0
 11 12  2  0  0  0  0
 11 18  1  0  0  0  0
 12 13  1  0  0  0  0
 13 15  1  0  0  0  0
 13 14  2  0  0  0  0
 14 16  1  0  0  0  0
 17 14  1  0  0  0  0
 18 17  2  0  0  0  0
 19 24  1  0  0  0  0
 19  3  1  0  0  0  0
 20 19  1  0  0  0  0
 21 20  1  0  0  0  0
 22 21  1  0  0  0  0
 22 23  1  0  0  0  0
 23 24  2  0  0  0  0
 25  5  1  0  0  0  0
 25 30  1  0  0  0  0
 26 27  1  0  0  0  0
 26 25  1  0  0  0  0
 28 29  1  0  0  0  0
 28 27  1  0  0  0  0
 29 30  1  0  0  0  0
M  END
>  <Pose>
1

>  <Score>
-10.196

$$$$
