/Users/jonathanwahrer/Desktop/Msc/3_Semester/Drug_Design_Praktikum/waehrer_HTS_screening/HTS_experiment/out/docking_results/vina_output/6e43/0874_docked.pdbqt
 OpenBabel03212220123D

 31 34  0  0  0  0  0  0  0  0999 V2000
   21.3840   79.2340   16.8410 N   0  0  0  0  0  0  0  0  0  0  0  0
   22.0000   80.1510   16.1270 N   0  0  0  0  0  0  0  0  0  0  0  0
   22.0430   79.7900   14.8530 N   0  0  0  0  0  0  0  0  0  0  0  0
   21.4310   78.5910   14.7360 C   0  0  0  0  0  0  0  0  0  0  0  0
   21.0370   78.2660   15.9510 C   0  0  0  0  0  0  0  0  0  0  0  0
   20.4100   77.0360   15.8340 C   0  0  0  0  0  0  0  0  0  0  0  0
   19.9040   76.4110   16.7910 O   0  0  0  0  0  0  0  0  0  0  0  0
   20.4190   76.6100   14.5580 N   0  0  0  0  0  0  0  0  0  0  0  0
   21.0550   77.5790   13.8730 C   0  0  0  0  0  0  0  0  0  0  0  0
   21.2790   77.5760   12.6430 O   0  0  0  0  0  0  0  0  0  0  0  0
   22.3910   81.0370   16.5390 H   0  0  0  0  0  0  0  0  0  0  0  0
   22.4750   80.3370   14.0690 H   0  0  0  0  0  0  0  0  0  0  0  0
   21.1170   79.2210   18.2670 C   0  0  0  0  0  2  0  0  0  0  0  0
   20.2940   80.4090   18.6320 C   0  0  0  0  0  0  0  0  0  0  0  0
   20.7230   81.3190   19.5940 N   0  0  0  0  0  0  0  0  0  0  0  0
   21.6740   81.1020   20.0430 H   0  0  0  0  0  0  0  0  0  0  0  0
   19.2150   80.5330   18.0300 O   0  0  0  0  0  0  0  0  0  0  0  0
   20.0580   82.4930   20.0480 C   0  0  0  0  0  0  0  0  0  0  0  0
   20.2050   83.6900   19.3300 C   0  0  0  0  0  0  0  0  0  0  0  0
   20.9880   83.6790   18.2120 F   0  0  0  0  0  0  0  0  0  0  0  0
   19.5920   84.8550   19.7140 C   0  0  0  0  0  3  0  0  0  0  0  0
   18.7960   84.9000   20.8360 C   0  0  0  0  0  3  0  0  0  0  0  0
   18.6500   83.7390   21.5370 C   0  0  0  0  0  3  0  0  0  0  0  0
   19.2610   82.5540   21.1630 C   0  0  0  0  0  3  0  0  0  0  0  0
   19.8670   75.3910   14.0610 C   0  0  0  0  0  0  0  0  0  0  0  0
   20.4700   74.1760   14.3170 C   0  0  0  0  0  3  0  0  0  0  0  0
   19.9490   72.9880   13.8440 C   0  0  0  0  0  3  0  0  0  0  0  0
   18.7950   72.9680   13.0890 C   0  0  0  0  0  0  0  0  0  0  0  0
   18.1760   74.1700   12.8200 C   0  0  0  0  0  3  0  0  0  0  0  0
   18.0510   71.3380   12.4210 Br  0  0  0  0  0  0  0  0  0  0  0  0
   18.7130   75.3470   13.3020 C   0  0  0  0  0  3  0  0  0  0  0  0
  1 13  1  0  0  0  0
  2 11  1  0  0  0  0
  2  1  1  0  0  0  0
  3  2  1  0  0  0  0
  4  3  1  0  0  0  0
  4  5  2  0  0  0  0
  5  1  1  0  0  0  0
  6  5  1  0  0  0  0
  6  7  2  0  0  0  0
  8  6  1  0  0  0  0
  9  8  1  0  0  0  0
  9  4  1  0  0  0  0
 10  9  2  0  0  0  0
 12  3  1  0  0  0  0
 13 14  1  0  0  0  0
 14 15  1  0  0  0  0
 15 16  1  0  0  0  0
 15 18  1  0  0  0  0
 17 14  2  0  0  0  0
 18 24  1  0  0  0  0
 19 21  1  0  0  0  0
 19 18  2  0  0  0  0
 20 19  1  0  0  0  0
 21 22  2  0  0  0  0
 22 23  1  0  0  0  0
 24 23  2  0  0  0  0
 25 26  1  0  0  0  0
 25  8  1  0  0  0  0
 27 26  2  0  0  0  0
 28 27  1  0  0  0  0
 29 28  2  0  0  0  0
 29 31  1  0  0  0  0
 30 28  1  0  0  0  0
 31 25  2  0  0  0  0
M  END
>  <Pose>
1

>  <Score>
-10.046

$$$$
