MODEL 1
REMARK VINA RESULT:   -11.415      0.000      0.000
REMARK INTER + INTRA:         -13.662
REMARK INTER:                 -14.085
REMARK INTRA:                   0.423
REMARK UNBOUND:                 0.423
REMARK  4 active torsions:
REMARK  status: ('A' for Active; 'I' for Inactive)
REMARK    1  A    between atoms: C_5  and  N_8 
REMARK    2  A    between atoms: N_15  and  C_16 
REMARK    3  A    between atoms: C_16  and  C_17 
REMARK       I    between atoms: C_17  and  N_19 
REMARK    4  A    between atoms: N_19  and  C_20 
ROOT
ATOM      1  N   UNK d   1      19.978  80.730  18.760  0.00  0.00    -0.241 N 
ATOM      2  C   UNK d   1      20.784  80.273  17.788  0.00  0.00     0.286 A 
ATOM      3  O   UNK d   1      21.541  81.047  17.141  0.00  0.00    -0.265 OA
ATOM      4  C   UNK d   1      20.668  78.907  17.611  0.00  0.00     0.155 A 
ATOM      5  C   UNK d   1      19.760  78.525  18.506  0.00  0.00     0.152 A 
ATOM      6  N   UNK d   1      19.612  77.204  18.368  0.00  0.00    -0.279 N 
ATOM      7  N   UNK d   1      20.416  76.792  17.405  0.00  0.00    -0.239 N 
ATOM      8  N   UNK d   1      21.090  77.826  16.910  0.00  0.00    -0.261 N 
ATOM      9  C   UNK d   1      19.331  79.627  19.214  0.00  0.00     0.286 A 
ATOM     10  O   UNK d   1      18.481  79.691  20.147  0.00  0.00    -0.265 OA
ATOM     11  H   UNK d   1      18.951  76.623  18.954  0.00  0.00     0.189 HD
ATOM     12  H   UNK d   1      20.521  75.823  17.073  0.00  0.00     0.208 HD
ENDROOT
BRANCH   8  13
ATOM     13  C   UNK d   1      22.069  77.853  15.862  0.00  0.00     0.254 C 
BRANCH  13  14
ATOM     14  C   UNK d   1      21.583  77.476  14.531  0.00  0.00     0.242 C 
ATOM     15  O   UNK d   1      21.098  76.342  14.398  0.00  0.00    -0.271 OA
ATOM     16  N   UNK d   1      21.668  78.372  13.461  0.00  0.00    -0.326 N 
ATOM     17  H   UNK d   1      22.102  79.346  13.651  0.00  0.00     0.169 HD
BRANCH  16  18
ATOM     18  C   UNK d   1      21.261  78.200  12.117  0.00  0.00     0.034 A 
ATOM     19  C   UNK d   1      20.068  77.602  11.787  0.00  0.00     0.031 A 
ATOM     20  C   UNK d   1      19.633  77.414  10.471  0.00  0.00     0.021 A 
ATOM     21  C   UNK d   1      20.469  77.863   9.480  0.00  0.00     0.011 A 
ATOM     22  C   UNK d   1      21.665  78.464   9.783  0.00  0.00     0.021 A 
ATOM     23 Br   UNK d   1      19.931  77.638   7.642  0.00  0.00    -0.051 Br
ATOM     24  C   UNK d   1      22.069  78.636  11.081  0.00  0.00     0.031 A 
ENDBRANCH  16  18
ENDBRANCH  13  14
ENDBRANCH   8  13
BRANCH   1  25
ATOM     25  C   UNK d   1      19.813  82.069  19.224  0.00  0.00     0.046 A 
ATOM     26  C   UNK d   1      20.180  83.186  18.508  0.00  0.00     0.033 A 
ATOM     27  C   UNK d   1      20.002  84.476  19.015  0.00  0.00     0.044 A 
ATOM     28  C   UNK d   1      19.452  84.660  20.252  0.00  0.00     0.116 A 
ATOM     29  F   UNK d   1      19.283  85.925  20.739  0.00  0.00    -0.206 F 
ATOM     30  C   UNK d   1      19.078  83.557  20.984  0.00  0.00     0.044 A 
ATOM     31  C   UNK d   1      19.259  82.291  20.475  0.00  0.00     0.033 A 
ENDBRANCH   1  25
TORSDOF 4
ENDMDL
