MODEL 1
REMARK VINA RESULT:    -7.852      0.000      0.000
REMARK INTER + INTRA:          -8.667
REMARK INTER:                  -8.311
REMARK INTRA:                  -0.357
REMARK UNBOUND:                -0.357
REMARK  1 active torsions:
REMARK  status: ('A' for Active; 'I' for Inactive)
REMARK    1  A    between atoms: C_4  and  C_9 
ROOT
ATOM      1  C   UNK d   1      23.670  78.169  14.356  0.00  0.00     0.222 C 
ATOM      2  N   UNK d   1      23.455  77.628  15.679  0.00  0.00    -0.358 N 
ATOM      3  C   UNK d   1      22.598  78.319  16.593  0.00  0.00     0.088 A 
ATOM      4  S   UNK d   1      21.659  77.807  17.964  0.00  0.00    -0.074 SA
ATOM      5  C   UNK d   1      20.985  79.301  18.414  0.00  0.00     0.018 A 
ATOM      6  C   UNK d   1      21.499  80.151  17.497  0.00  0.00    -0.023 A 
ATOM      7  C   UNK d   1      22.326  79.656  16.561  0.00  0.00     0.073 A 
ATOM      8  C   UNK d   1      23.041  80.327  15.437  0.00  0.00     0.256 C 
ATOM      9  O   UNK d   1      22.925  81.559  15.239  0.00  0.00    -0.267 OA
ATOM     10  N   UNK d   1      23.872  79.593  14.563  0.00  0.00    -0.331 N 
ATOM     11  C   UNK d   1      21.054  81.600  17.661  0.00  0.00     0.068 C 
ATOM     12  C   UNK d   1      20.621  81.798  19.077  0.00  0.00     0.239 C 
ATOM     13  N   UNK d   1      19.465  80.908  19.265  0.00  0.00    -0.070 N 
ATOM     14  C   UNK d   1      20.063  79.616  19.529  0.00  0.00     0.281 C 
ATOM     15  C   UNK d   1      18.625  81.360  20.348  0.00  0.00     0.270 C 
ATOM     16  H   UNK d   1      23.898  76.744  16.015  0.00  0.00     0.162 HD
ATOM     17  H   UNK d   1      24.657  80.063  14.043  0.00  0.00     0.165 HD
ATOM     18  H   UNK d   1      18.949  80.835  18.363  0.00  0.00     0.279 HD
ENDROOT
BRANCH   1  19
ATOM     19  C   UNK d   1      22.419  77.926  13.591  0.00  0.00     0.023 A 
ATOM     20  C   UNK d   1      22.079  78.596  12.440  0.00  0.00     0.134 A 
ATOM     21  C   UNK d   1      20.884  78.340  11.765  0.00  0.00     0.044 A 
ATOM     22  O   UNK d   1      22.936  79.548  11.933  0.00  0.00    -0.190 OA
ATOM     23  I   UNK d   1      20.422  79.401  10.008  0.00  0.00    -0.042 I 
ATOM     24  C   UNK d   1      20.004  77.408  12.222  0.00  0.00     0.040 A 
ATOM     25  C   UNK d   1      20.326  76.726  13.372  0.00  0.00     0.013 A 
ATOM     26  C   UNK d   1      21.496  76.972  14.042  0.00  0.00     0.033 A 
ATOM     27 Br   UNK d   1      19.097  75.422  14.015  0.00  0.00    -0.051 Br
ENDBRANCH   1  19
TORSDOF 1
ENDMDL
