MODEL 1
REMARK VINA RESULT:    -7.569      0.000      0.000
REMARK INTER + INTRA:          -8.882
REMARK INTER:                  -8.454
REMARK INTRA:                  -0.428
REMARK UNBOUND:                -0.428
REMARK  2 active torsions:
REMARK  status: ('A' for Active; 'I' for Inactive)
REMARK    1  A    between atoms: C_4  and  O_23 
REMARK    2  A    between atoms: C_6  and  C_8 
ROOT
ATOM      1  C   UNK d   1      21.985  78.973  16.170  0.00  0.00     0.219 C 
ATOM      2  N   UNK d   1      22.376  80.021  15.227  0.00  0.00    -0.358 N 
ATOM      3  C   UNK d   1      22.334  79.791  13.797  0.00  0.00     0.088 A 
ATOM      4  S   UNK d   1      22.989  80.645  12.457  0.00  0.00    -0.074 SA
ATOM      5  C   UNK d   1      22.434  79.645  11.205  0.00  0.00     0.018 A 
ATOM      6  C   UNK d   1      21.746  78.661  11.863  0.00  0.00    -0.023 A 
ATOM      7  C   UNK d   1      21.697  78.744  13.210  0.00  0.00     0.073 A 
ATOM      8  C   UNK d   1      21.018  77.807  14.150  0.00  0.00     0.256 C 
ATOM      9  O   UNK d   1      20.388  76.789  13.732  0.00  0.00    -0.267 OA
ATOM     10  N   UNK d   1      21.076  78.059  15.535  0.00  0.00    -0.332 N 
ATOM     11  C   UNK d   1      21.155  77.640  10.897  0.00  0.00     0.068 C 
ATOM     12  C   UNK d   1      20.403  78.361   9.810  0.00  0.00     0.239 C 
ATOM     13  N   UNK d   1      21.090  79.489   9.276  0.00  0.00    -0.070 N 
ATOM     14  C   UNK d   1      22.485  79.548   9.700  0.00  0.00     0.281 C 
ATOM     15  C   UNK d   1      20.460  80.691   9.845  0.00  0.00     0.270 C 
ATOM     16  H   UNK d   1      22.691  80.955  15.548  0.00  0.00     0.162 HD
ATOM     17  H   UNK d   1      20.411  77.546  16.170  0.00  0.00     0.165 HD
ATOM     18  H   UNK d   1      21.038  79.561   8.226  0.00  0.00     0.279 HD
ENDROOT
BRANCH   1  19
ATOM     19  C   UNK d   1      21.235  79.662  17.256  0.00  0.00    -0.012 A 
ATOM     20  C   UNK d   1      20.576  78.878  18.194  0.00  0.00     0.050 A 
ATOM     21  C   UNK d   1      19.859  79.397  19.230  0.00  0.00     0.106 A 
ATOM     22  C   UNK d   1      19.794  80.785  19.340  0.00  0.00     0.157 A 
ATOM     23  C   UNK d   1      20.441  81.587  18.421  0.00  0.00     0.046 A 
ATOM     24  O   UNK d   1      19.077  81.349  20.378  0.00  0.00    -0.188 OA
ATOM     25  I   UNK d   1      20.331  83.685  18.606  0.00  0.00    -0.041 I 
ATOM     26  C   UNK d   1      21.160  81.022  17.380  0.00  0.00     0.032 A 
BRANCH  21  27
ATOM     27  O   UNK d   1      19.190  78.641  20.183  0.00  0.00    -0.353 OA
ATOM     28  C   UNK d   1      19.953  77.885  21.105  0.00  0.00     0.210 C 
ENDBRANCH  21  27
ENDBRANCH   1  19
TORSDOF 2
ENDMDL
