MODEL 1
REMARK VINA RESULT:    -9.387      0.000      0.000
REMARK INTER + INTRA:         -13.402
REMARK INTER:                 -12.679
REMARK INTRA:                  -0.723
REMARK UNBOUND:                -0.723
REMARK  6 active torsions:
REMARK  status: ('A' for Active; 'I' for Inactive)
REMARK    1  A    between atoms: C_3  and  N_8 
REMARK    2  A    between atoms: N_8  and  C_9 
REMARK    3  A    between atoms: C_20  and  C_21 
REMARK    4  A    between atoms: C_21  and  C_22 
REMARK    5  A    between atoms: C_22  and  O_24 
REMARK    6  A    between atoms: O_24  and  C_25 
ROOT
ATOM      1  C   UNK d   1      21.194  77.177  14.366  0.00  0.00     0.179 A 
ATOM      2  N   UNK d   1      21.201  78.097  13.409  0.00  0.00    -0.202 NA
ATOM      3  C   UNK d   1      20.568  78.006  12.228  0.00  0.00     0.230 A 
ATOM      4  N   UNK d   1      20.407  78.742  11.121  0.00  0.00    -0.081 NA
ATOM      5  O   UNK d   1      19.654  78.115  10.264  0.00  0.00    -0.103 OA
ATOM      6  N   UNK d   1      19.296  76.965  10.759  0.00  0.00    -0.082 NA
ATOM      7  C   UNK d   1      19.835  76.840  11.981  0.00  0.00     0.217 A 
ATOM      8  N   UNK d   1      19.793  75.890  12.898  0.00  0.00    -0.256 N 
ATOM      9  C   UNK d   1      20.441  76.028  14.058  0.00  0.00     0.206 A 
ATOM     10  N   UNK d   1      20.207  74.925  14.752  0.00  0.00    -0.126 NA
ATOM     11  N   UNK d   1      19.420  74.105  14.034  0.00  0.00    -0.133 NA
ATOM     12  C   UNK d   1      19.146  74.691  12.860  0.00  0.00     0.145 A 
ENDROOT
BRANCH   1  13
ATOM     13  N   UNK d   1      21.856  77.261  15.608  0.00  0.00    -0.337 N 
ATOM     14  H   UNK d   1      21.330  76.888  16.476  0.00  0.00     0.167 HD
BRANCH  13  15
ATOM     15  C   UNK d   1      23.139  77.778  15.879  0.00  0.00     0.050 A 
ATOM     16  C   UNK d   1      23.264  78.836  16.807  0.00  0.00     0.033 A 
ATOM     17  I   UNK d   1      21.538  79.588  17.763  0.00  0.00    -0.042 I 
ATOM     18  C   UNK d   1      24.497  79.369  17.090  0.00  0.00     0.020 A 
ATOM     19  C   UNK d   1      25.633  78.867  16.458  0.00  0.00     0.001 A 
ATOM     20  C   UNK d   1      25.481  77.845  15.564  0.00  0.00     0.002 A 
ATOM     21  C   UNK d   1      24.244  77.276  15.253  0.00  0.00     0.031 A 
ENDBRANCH  13  15
ENDBRANCH   1  13
BRANCH  12  22
ATOM     22  C   UNK d   1      18.317  74.196  11.728  0.00  0.00     0.192 C 
BRANCH  22  23
ATOM     23  C   UNK d   1      17.347  73.150  12.129  0.00  0.00     0.266 C 
ATOM     24  O   UNK d   1      16.370  73.375  12.873  0.00  0.00    -0.265 OA
BRANCH  23  25
ATOM     25  O   UNK d   1      17.528  71.876  11.666  0.00  0.00    -0.322 OA
BRANCH  25  26
ATOM     26  C   UNK d   1      16.824  70.764  12.090  0.00  0.00     0.174 C 
ATOM     27  C   UNK d   1      15.946  70.119  11.087  0.00  0.00     0.034 C 
ENDBRANCH  25  26
ENDBRANCH  23  25
ENDBRANCH  22  23
ENDBRANCH  12  22
TORSDOF 6
ENDMDL
