/Users/jonathanwahrer/Desktop/Msc/3_Semester/Drug_Design_Praktikum/waehrer_HTS_screening/HTS_experiment/out/docking_results/vina_output/6e43/0906_docked.pdbqt
 OpenBabel03212220133D

 27 30  0  0  1  0  0  0  0  0999 V2000
   21.1940   77.1770   14.3660 C   0  0  1  0  0  3  0  0  0  0  0  0
   21.2010   78.0970   13.4090 N   0  0  0  0  0  0  0  0  0  0  0  0
   20.5680   78.0060   12.2280 C   0  0  0  0  0  0  0  0  0  0  0  0
   20.4070   78.7420   11.1210 N   0  0  0  0  0  2  0  0  0  0  0  0
   19.6540   78.1150   10.2640 O   0  0  0  0  0  0  0  0  0  0  0  0
   19.2960   76.9650   10.7590 N   0  0  0  0  0  0  0  0  0  0  0  0
   19.8350   76.8400   11.9810 C   0  0  0  0  0  0  0  0  0  0  0  0
   19.7930   75.8900   12.8980 N   0  0  0  0  0  0  0  0  0  0  0  0
   20.4410   76.0280   14.0580 C   0  0  0  0  0  0  0  0  0  0  0  0
   20.2070   74.9250   14.7520 N   0  0  0  0  0  0  0  0  0  0  0  0
   19.4200   74.1050   14.0340 N   0  0  0  0  0  0  0  0  0  0  0  0
   19.1460   74.6910   12.8600 C   0  0  0  0  0  0  0  0  0  0  0  0
   21.8560   77.2610   15.6080 N   0  0  0  0  0  0  0  0  0  0  0  0
   21.3300   76.8880   16.4760 H   0  0  0  0  0  0  0  0  0  0  0  0
   23.1390   77.7780   15.8790 C   0  0  0  0  0  0  0  0  0  0  0  0
   23.2640   78.8360   16.8070 C   0  0  0  0  0  0  0  0  0  0  0  0
   21.5380   79.5880   17.7630 I   0  0  0  0  0  0  0  0  0  0  0  0
   24.4970   79.3690   17.0900 C   0  0  0  0  0  3  0  0  0  0  0  0
   25.6330   78.8670   16.4580 C   0  0  0  0  0  3  0  0  0  0  0  0
   25.4810   77.8450   15.5640 C   0  0  0  0  0  3  0  0  0  0  0  0
   24.2440   77.2760   15.2530 C   0  0  0  0  0  3  0  0  0  0  0  0
   18.3170   74.1960   11.7280 C   0  0  0  0  0  2  0  0  0  0  0  0
   17.3470   73.1500   12.1290 C   0  0  0  0  0  0  0  0  0  0  0  0
   16.3700   73.3750   12.8730 O   0  0  0  0  0  0  0  0  0  0  0  0
   17.5280   71.8760   11.6660 O   0  0  0  0  0  0  0  0  0  0  0  0
   16.8240   70.7640   12.0900 C   0  0  0  0  0  2  0  0  0  0  0  0
   15.9460   70.1190   11.0870 C   0  0  0  0  0  1  0  0  0  0  0  0
  1 13  1  6  0  0  0
  2  1  1  0  0  0  0
  3  2  2  0  0  0  0
  4  3  1  0  0  0  0
  5  6  1  0  0  0  0
  5  4  1  0  0  0  0
  6  7  2  0  0  0  0
  7  3  1  0  0  0  0
  7  8  1  0  0  0  0
  8  9  1  0  0  0  0
  9  1  1  0  0  0  0
  9 10  2  0  0  0  0
 11 10  1  0  0  0  0
 12  8  1  0  0  0  0
 12 11  2  0  0  0  0
 13 15  1  0  0  0  0
 13 14  1  0  0  0  0
 15 16  1  0  0  0  0
 16 18  2  0  0  0  0
 16 17  1  0  0  0  0
 19 18  1  0  0  0  0
 20 19  2  0  0  0  0
 21 20  1  0  0  0  0
 21 15  2  0  0  0  0
 22 23  1  0  0  0  0
 22 12  1  0  0  0  0
 23 24  2  0  0  0  0
 25 26  1  0  0  0  0
 25 23  1  0  0  0  0
 27 26  1  0  0  0  0
M  END
>  <Pose>
1

>  <Score>
-9.387

$$$$
