/Users/jonathanwahrer/Desktop/Msc/3_Semester/Drug_Design_Praktikum/waehrer_HTS_screening/HTS_experiment/out/docking_results/vina_output/6e43/0908_docked.pdbqt
 OpenBabel03212220133D

 25 28  0  0  0  0  0  0  0  0999 V2000
   21.4060   78.7120   16.4540 N   0  0  0  0  0  0  0  0  0  0  0  0
   21.1770   79.7250   17.3090 C   0  0  0  0  0  0  0  0  0  0  0  0
   21.5440   80.9250   17.1340 O   0  0  0  0  0  0  0  0  0  0  0  0
   20.4820   79.2970   18.4220 C   0  0  0  0  0  0  0  0  0  0  0  0
   20.2850   78.0020   18.2400 C   0  0  0  0  0  0  0  0  0  0  0  0
   19.6020   77.5970   19.3370 N   0  0  0  0  0  0  0  0  0  0  0  0
   19.3940   78.6130   20.1540 N   0  0  0  0  0  0  0  0  0  0  0  0
   19.9300   79.6740   19.6080 N   0  0  0  0  0  0  0  0  0  0  0  0
   20.8500   77.6310   17.0300 C   0  0  0  0  0  0  0  0  0  0  0  0
   20.8330   76.4470   16.5600 O   0  0  0  0  0  0  0  0  0  0  0  0
   19.2770   76.6270   19.5310 H   0  0  0  0  0  0  0  0  0  0  0  0
   18.8960   78.5790   21.0670 H   0  0  0  0  0  0  0  0  0  0  0  0
   22.0870   78.7380   15.1990 C   0  0  0  0  0  0  0  0  0  0  0  0
   23.4620   78.6580   15.1210 C   0  0  0  0  0  0  0  0  0  0  0  0
   24.5300   78.4940   16.9410 I   0  0  0  0  0  0  0  0  0  0  0  0
   24.1410   78.6820   13.9190 C   0  0  0  0  0  3  0  0  0  0  0  0
   23.4560   78.7880   12.7260 C   0  0  0  0  0  3  0  0  0  0  0  0
   22.0810   78.8690   12.7920 C   0  0  0  0  0  3  0  0  0  0  0  0
   21.4090   78.8440   14.0010 C   0  0  0  0  0  3  0  0  0  0  0  0
   19.9620   81.0040   20.1100 C   0  0  0  0  0  0  0  0  0  0  0  0
   19.1920   82.0100   19.5690 C   0  0  0  0  0  3  0  0  0  0  0  0
   19.2460   83.2950   20.0820 C   0  0  0  0  0  3  0  0  0  0  0  0
   20.0630   83.6230   21.1440 C   0  0  0  0  0  3  0  0  0  0  0  0
   20.8340   82.6170   21.6870 C   0  0  0  0  0  3  0  0  0  0  0  0
   20.7870   81.3390   21.1850 C   0  0  0  0  0  3  0  0  0  0  0  0
  1  9  1  0  0  0  0
  1  2  1  0  0  0  0
  2  4  1  0  0  0  0
  3  2  2  0  0  0  0
  4  8  1  0  0  0  0
  5  4  2  0  0  0  0
  5  6  1  0  0  0  0
  6 11  1  0  0  0  0
  6  7  1  0  0  0  0
  7 12  1  0  0  0  0
  8 20  1  0  0  0  0
  8  7  1  0  0  0  0
  9  5  1  0  0  0  0
 10  9  2  0  0  0  0
 13  1  1  0  0  0  0
 14 13  1  0  0  0  0
 14 15  1  0  0  0  0
 16 14  2  0  0  0  0
 17 18  2  0  0  0  0
 17 16  1  0  0  0  0
 18 19  1  0  0  0  0
 19 13  2  0  0  0  0
 20 25  1  0  0  0  0
 21 22  1  0  0  0  0
 21 20  2  0  0  0  0
 22 23  2  0  0  0  0
 23 24  1  0  0  0  0
 25 24  2  0  0  0  0
M  END
>  <Pose>
1

>  <Score>
-10.571

$$$$
