MODEL 1
REMARK VINA RESULT:   -10.571      0.000      0.000
REMARK INTER + INTRA:         -12.293
REMARK INTER:                 -11.807
REMARK INTRA:                  -0.486
REMARK UNBOUND:                -0.486
REMARK  2 active torsions:
REMARK  status: ('A' for Active; 'I' for Inactive)
REMARK    1  A    between atoms: C_3  and  N_8 
REMARK    2  A    between atoms: N_15  and  C_16 
ROOT
ATOM      1  N   UNK d   1      21.406  78.712  16.454  0.00  0.00    -0.240 N 
ATOM      2  C   UNK d   1      21.177  79.725  17.309  0.00  0.00     0.286 A 
ATOM      3  O   UNK d   1      21.544  80.925  17.134  0.00  0.00    -0.265 OA
ATOM      4  C   UNK d   1      20.482  79.297  18.422  0.00  0.00     0.160 A 
ATOM      5  C   UNK d   1      20.285  78.002  18.240  0.00  0.00     0.152 A 
ATOM      6  N   UNK d   1      19.602  77.597  19.337  0.00  0.00    -0.278 N 
ATOM      7  N   UNK d   1      19.394  78.613  20.154  0.00  0.00    -0.234 N 
ATOM      8  N   UNK d   1      19.930  79.674  19.608  0.00  0.00    -0.234 N 
ATOM      9  C   UNK d   1      20.850  77.631  17.030  0.00  0.00     0.286 A 
ATOM     10  O   UNK d   1      20.833  76.447  16.560  0.00  0.00    -0.265 OA
ATOM     11  H   UNK d   1      19.277  76.627  19.531  0.00  0.00     0.189 HD
ATOM     12  H   UNK d   1      18.896  78.579  21.067  0.00  0.00     0.209 HD
ENDROOT
BRANCH   1  13
ATOM     13  C   UNK d   1      22.087  78.738  15.199  0.00  0.00     0.062 A 
ATOM     14  C   UNK d   1      23.462  78.658  15.121  0.00  0.00     0.034 A 
ATOM     15  I   UNK d   1      24.530  78.494  16.941  0.00  0.00    -0.042 I 
ATOM     16  C   UNK d   1      24.141  78.682  13.919  0.00  0.00     0.020 A 
ATOM     17  C   UNK d   1      23.456  78.788  12.726  0.00  0.00     0.001 A 
ATOM     18  C   UNK d   1      22.081  78.869  12.792  0.00  0.00     0.002 A 
ATOM     19  C   UNK d   1      21.409  78.844  14.001  0.00  0.00     0.031 A 
ENDBRANCH   1  13
BRANCH   8  20
ATOM     20  C   UNK d   1      19.962  81.004  20.110  0.00  0.00     0.058 A 
ATOM     21  C   UNK d   1      19.192  82.010  19.569  0.00  0.00     0.031 A 
ATOM     22  C   UNK d   1      19.246  83.295  20.082  0.00  0.00     0.002 A 
ATOM     23  C   UNK d   1      20.063  83.623  21.144  0.00  0.00     0.000 A 
ATOM     24  C   UNK d   1      20.834  82.617  21.687  0.00  0.00     0.002 A 
ATOM     25  C   UNK d   1      20.787  81.339  21.185  0.00  0.00     0.031 A 
ENDBRANCH   8  20
TORSDOF 2
ENDMDL
