/Users/jonathanwahrer/Desktop/Msc/3_Semester/Drug_Design_Praktikum/waehrer_HTS_screening/HTS_experiment/out/docking_results/vina_output/6e43/0920_docked.pdbqt
 OpenBabel03212220133D

 24 27  0  0  1  0  0  0  0  0999 V2000
   19.5950   78.0780   18.1580 N   0  0  0  0  0  0  0  0  0  0  0  0
   19.7180   79.3680   18.2090 C   0  0  1  0  0  3  0  0  0  0  0  0
   19.8660   80.8000   17.1290 S   0  0  0  0  0  0  0  0  0  0  0  0
   19.9640   81.9570   18.4750 C   0  0  0  0  0  3  0  0  0  0  0  0
   19.8880   81.2960   19.6090 C   0  0  0  0  0  0  0  0  0  0  0  0
   19.7530   79.8900   19.5040 N   0  0  0  0  0  0  0  0  0  0  0  0
   19.6250   78.7270   20.4200 C   0  0  0  0  0  3  0  0  0  0  0  0
   19.5840   77.5590   19.4980 C   0  0  0  0  0  3  0  0  0  0  0  0
   19.5290   77.3040   16.9760 C   0  0  0  0  0  2  0  0  0  0  0  0
   20.5970   77.2960   16.0120 C   0  0  1  0  0  3  0  0  0  0  0  0
   20.2300   76.8100   14.8560 O   0  0  0  0  0  1  0  0  0  0  0  0
   21.9730   77.7110   16.0590 C   0  0  0  0  0  0  0  0  0  0  0  0
   22.6540   78.1320   14.9580 C   0  0  0  0  0  3  0  0  0  0  0  0
   23.9690   78.5040   15.0350 C   0  0  0  0  0  3  0  0  0  0  0  0
   24.6860   78.4790   16.2150 C   0  0  0  0  0  0  0  0  0  0  0  0
   26.6860   79.0330   16.3840 I   0  0  0  0  0  0  0  0  0  0  0  0
   23.9810   78.0470   17.3400 C   0  0  0  0  0  3  0  0  0  0  0  0
   22.6800   77.6800   17.2600 C   0  0  0  0  0  3  0  0  0  0  0  0
   19.9580   82.0780   20.8780 C   0  0  0  0  0  0  0  0  0  0  0  0
   19.0020   82.9960   21.2260 C   0  0  0  0  0  3  0  0  0  0  0  0
   19.0670   83.7250   22.4290 C   0  0  0  0  0  3  0  0  0  0  0  0
   20.1130   83.5280   23.3010 C   0  0  0  0  0  3  0  0  0  0  0  0
   21.0730   82.6100   22.9580 C   0  0  0  0  0  3  0  0  0  0  0  0
   21.0000   81.8960   21.7700 C   0  0  0  0  0  3  0  0  0  0  0  0
  1  2  1  0  0  0  0
  1  8  1  0  0  0  0
  2  3  1  6  0  0  0
  2  6  1  0  0  0  0
  3  4  1  0  0  0  0
  4  5  2  0  0  0  0
  5 19  1  0  0  0  0
  6  5  1  0  0  0  0
  6  7  1  0  0  0  0
  8  7  2  0  0  0  0
  9  1  1  0  0  0  0
 10 11  1  6  0  0  0
 10 12  1  0  0  0  0
 10  9  1  0  0  0  0
 12 18  1  0  0  0  0
 13 14  1  0  0  0  0
 13 12  2  0  0  0  0
 14 15  2  0  0  0  0
 15 16  1  0  0  0  0
 15 17  1  0  0  0  0
 18 17  2  0  0  0  0
 19 20  2  0  0  0  0
 19 24  1  0  0  0  0
 20 21  1  0  0  0  0
 21 22  2  0  0  0  0
 23 22  1  0  0  0  0
 24 23  2  0  0  0  0
M  END
>  <Pose>
1

>  <Score>
-9.088

$$$$
