MODEL 1
REMARK VINA RESULT:    -9.088      0.000      0.000
REMARK INTER + INTRA:         -11.126
REMARK INTER:                 -10.682
REMARK INTRA:                  -0.444
REMARK UNBOUND:                -0.444
REMARK  3 active torsions:
REMARK  status: ('A' for Active; 'I' for Inactive)
REMARK    1  A    between atoms: C_5  and  C_8 
REMARK    2  A    between atoms: C_10  and  N_11 
REMARK    3  A    between atoms: C_15  and  C_19 
ROOT
ATOM      1  N   UNK d   1      19.595  78.078  18.158  0.00  0.00    -0.353 N 
ATOM      2  C   UNK d   1      19.718  79.368  18.209  0.00  0.00     0.149 A 
ATOM      3  S   UNK d   1      19.866  80.800  17.129  0.00  0.00    -0.063 SA
ATOM      4  C   UNK d   1      19.964  81.957  18.475  0.00  0.00     0.083 A 
ATOM      5  C   UNK d   1      19.888  81.296  19.609  0.00  0.00     0.053 A 
ATOM      6  N   UNK d   1      19.753  79.890  19.504  0.00  0.00    -0.325 N 
ATOM      7  C   UNK d   1      19.625  78.727  20.420  0.00  0.00     0.151 A 
ATOM      8  C   UNK d   1      19.584  77.559  19.498  0.00  0.00     0.145 A 
ENDROOT
BRANCH   1   9
ATOM      9  C   UNK d   1      19.529  77.304  16.976  0.00  0.00     0.193 C 
ATOM     10  C   UNK d   1      20.597  77.296  16.012  0.00  0.00     0.112 C 
ATOM     11  O   UNK d   1      20.230  76.810  14.856  0.00  0.00    -0.194 OA
BRANCH  10  12
ATOM     12  C   UNK d   1      21.973  77.711  16.059  0.00  0.00    -0.002 A 
ATOM     13  C   UNK d   1      22.654  78.132  14.958  0.00  0.00     0.015 A 
ATOM     14  C   UNK d   1      23.969  78.504  15.035  0.00  0.00     0.019 A 
ATOM     15  C   UNK d   1      24.686  78.479  16.215  0.00  0.00     0.006 A 
ATOM     16  I   UNK d   1      26.686  79.033  16.384  0.00  0.00    -0.045 I 
ATOM     17  C   UNK d   1      23.981  78.047  17.340  0.00  0.00     0.019 A 
ATOM     18  C   UNK d   1      22.680  77.680  17.260  0.00  0.00     0.015 A 
ENDBRANCH  10  12
ENDBRANCH   1   9
BRANCH   5  19
ATOM     19  C   UNK d   1      19.958  82.078  20.878  0.00  0.00    -0.009 A 
ATOM     20  C   UNK d   1      19.002  82.996  21.226  0.00  0.00     0.014 A 
ATOM     21  C   UNK d   1      19.067  83.725  22.429  0.00  0.00     0.001 A 
ATOM     22  C   UNK d   1      20.113  83.528  23.301  0.00  0.00     0.000 A 
ATOM     23  C   UNK d   1      21.073  82.610  22.958  0.00  0.00     0.001 A 
ATOM     24  C   UNK d   1      21.000  81.896  21.770  0.00  0.00     0.014 A 
ENDBRANCH   5  19
TORSDOF 3
ENDMDL
