/Users/jonathanwahrer/Desktop/Msc/3_Semester/Drug_Design_Praktikum/waehrer_HTS_screening/HTS_experiment/out/docking_results/vina_output/6e43/0924_docked.pdbqt
 OpenBabel03212220143D

 29 32  0  0  0  0  0  0  0  0999 V2000
   20.6710   76.8860   15.2590 C   0  0  0  0  0  0  0  0  0  0  0  0
   20.8930   77.7500   14.2540 N   0  0  0  0  0  4  0  0  0  0  0  0
   20.5000   77.4770   13.0040 C   0  0  0  0  0  0  0  0  0  0  0  0
   19.8790   76.3020   12.8080 N   0  0  0  0  0  0  0  0  0  0  0  0
   19.6400   75.4090   13.7900 C   0  0  0  0  0  0  0  0  0  0  0  0
   20.0490   75.7230   15.0330 N   0  0  0  0  0  2  0  0  0  0  0  0
   21.1050   77.2050   16.6020 N   0  0  0  0  0  0  0  0  0  0  0  0
   22.0000   77.7220   16.7500 H   0  0  0  0  0  0  0  0  0  0  0  0
   20.3540   76.8010   17.6560 N   0  0  0  0  0  0  0  0  0  0  0  0
   19.8540   77.5790   18.5110 C   0  0  0  0  0  3  0  0  0  0  0  0
   19.9520   79.0110   18.5760 C   0  0  0  0  0  0  0  0  0  0  0  0
   20.3670   79.8610   17.5940 C   0  0  0  0  0  3  0  0  0  0  0  0
   20.4260   81.2530   17.7590 C   0  0  0  0  0  3  0  0  0  0  0  0
   20.0580   81.8130   18.9430 C   0  0  0  0  0  0  0  0  0  0  0  0
   20.1100   83.8760   19.2860 I   0  0  0  0  0  0  0  0  0  0  0  0
   19.6350   80.9780   19.9530 C   0  0  0  0  0  3  0  0  0  0  0  0
   19.5790   79.6150   19.7860 C   0  0  0  0  0  3  0  0  0  0  0  0
   20.7250   78.3790   11.9200 N   0  0  0  0  0  0  0  0  0  0  0  0
   21.6620   79.4600   11.9790 C   0  0  0  0  0  2  0  0  0  0  0  0
   21.4840   80.2970   10.7110 C   0  0  0  0  0  2  0  0  0  0  0  0
   20.1520   80.6050   10.4870 O   0  0  0  0  0  0  0  0  0  0  0  0
   19.3730   79.5060   10.2230 C   0  0  0  0  0  2  0  0  0  0  0  0
   19.9710   78.2030   10.6900 C   0  0  0  0  0  2  0  0  0  0  0  0
   18.9760   74.1870   13.4970 N   0  0  0  0  0  0  0  0  0  0  0  0
   19.6830   72.9370   13.6490 C   0  0  0  0  0  2  0  0  0  0  0  0
   19.1570   72.0330   12.5240 C   0  0  0  0  0  2  0  0  0  0  0  0
   17.8350   71.7820   12.7830 O   0  0  0  0  0  0  0  0  0  0  0  0
   17.0020   72.8650   12.8000 C   0  0  0  0  0  3  0  0  0  0  0  0
   17.6250   74.1900   13.0540 C   0  0  0  0  0  3  0  0  0  0  0  0
  1  7  1  0  0  0  0
  2  1  2  0  0  0  0
  3  2  2  0  0  0  0
  4  3  1  0  0  0  0
  4  5  2  0  0  0  0
  5  6  1  0  0  0  0
  6  1  1  0  0  0  0
  7  8  1  0  0  0  0
  7  9  1  0  0  0  0
  9 10  2  0  0  0  0
 10 11  1  0  0  0  0
 11 17  1  0  0  0  0
 12 13  1  0  0  0  0
 12 11  2  0  0  0  0
 13 14  2  0  0  0  0
 14 15  1  0  0  0  0
 14 16  1  0  0  0  0
 17 16  2  0  0  0  0
 18 19  1  0  0  0  0
 18  3  1  0  0  0  0
 20 19  1  0  0  0  0
 21 20  1  0  0  0  0
 22 21  1  0  0  0  0
 22 23  1  0  0  0  0
 23 18  1  0  0  0  0
 24 25  1  0  0  0  0
 24  5  1  0  0  0  0
 26 27  1  0  0  0  0
 26 25  1  0  0  0  0
 27 28  1  0  0  0  0
 28 29  2  0  0  0  0
 29 24  1  0  0  0  0
M  END
>  <Pose>
1

>  <Score>
-10.014

$$$$
