MODEL 1
REMARK VINA RESULT:   -10.014      0.000      0.000
REMARK INTER + INTRA:         -13.332
REMARK INTER:                 -12.941
REMARK INTRA:                  -0.390
REMARK UNBOUND:                -0.390
REMARK  5 active torsions:
REMARK  status: ('A' for Active; 'I' for Inactive)
REMARK    1  A    between atoms: C_5  and  C_8 
REMARK    2  A    between atoms: N_9  and  N_10 
REMARK    3  A    between atoms: N_10  and  C_11 
REMARK    4  A    between atoms: C_13  and  N_23 
REMARK    5  A    between atoms: C_15  and  N_17 
ROOT
ATOM      1  C   UNK d   1      20.671  76.886  15.259  0.00  0.00     0.774 A 
ATOM      2  N   UNK d   1      20.893  77.750  14.254  0.00  0.00     0.133 NA
ATOM      3  C   UNK d   1      20.500  77.477  13.004  0.00  0.00     0.756 A 
ATOM      4  N   UNK d   1      19.879  76.302  12.808  0.00  0.00     0.131 NA
ATOM      5  C   UNK d   1      19.640  75.409  13.790  0.00  0.00     0.756 A 
ATOM      6  N   UNK d   1      20.049  75.723  15.033  0.00  0.00     0.133 NA
ENDROOT
BRANCH   1   7
ATOM      7  N   UNK d   1      21.105  77.205  16.602  0.00  0.00    -0.105 N 
ATOM      8  H   UNK d   1      22.000  77.722  16.750  0.00  0.00     0.208 HD
BRANCH   7   9
ATOM      9  N   UNK d   1      20.354  76.801  17.656  0.00  0.00    -0.172 NA
ATOM     10  C   UNK d   1      19.854  77.579  18.511  0.00  0.00     0.150 C 
BRANCH  10  11
ATOM     11  C   UNK d   1      19.952  79.011  18.576  0.00  0.00    -0.017 A 
ATOM     12  C   UNK d   1      20.367  79.861  17.594  0.00  0.00     0.014 A 
ATOM     13  C   UNK d   1      20.426  81.253  17.759  0.00  0.00     0.019 A 
ATOM     14  C   UNK d   1      20.058  81.813  18.943  0.00  0.00     0.006 A 
ATOM     15  I   UNK d   1      20.110  83.876  19.286  0.00  0.00    -0.045 I 
ATOM     16  C   UNK d   1      19.635  80.978  19.953  0.00  0.00     0.019 A 
ATOM     17  C   UNK d   1      19.579  79.615  19.786  0.00  0.00     0.014 A 
ENDBRANCH  10  11
ENDBRANCH   7   9
ENDBRANCH   1   7
BRANCH   3  18
ATOM     18  N   UNK d   1      20.725  78.379  11.920  0.00  0.00    -0.209 N 
ATOM     19  C   UNK d   1      21.662  79.460  11.979  0.00  0.00     0.167 C 
ATOM     20  C   UNK d   1      21.484  80.297  10.711  0.00  0.00     0.188 C 
ATOM     21  O   UNK d   1      20.152  80.605  10.487  0.00  0.00    -0.388 OA
ATOM     22  C   UNK d   1      19.373  79.506  10.223  0.00  0.00     0.188 C 
ATOM     23  C   UNK d   1      19.971  78.203  10.690  0.00  0.00     0.167 C 
ENDBRANCH   3  18
BRANCH   5  24
ATOM     24  N   UNK d   1      18.976  74.187  13.497  0.00  0.00    -0.209 N 
ATOM     25  C   UNK d   1      19.683  72.937  13.649  0.00  0.00     0.167 C 
ATOM     26  C   UNK d   1      19.157  72.033  12.524  0.00  0.00     0.188 C 
ATOM     27  O   UNK d   1      17.835  71.782  12.783  0.00  0.00    -0.388 OA
ATOM     28  C   UNK d   1      17.002  72.865  12.800  0.00  0.00     0.188 C 
ATOM     29  C   UNK d   1      17.625  74.190  13.054  0.00  0.00     0.167 C 
ENDBRANCH   5  24
TORSDOF 5
ENDMDL
