MODEL 1
REMARK VINA RESULT:    -9.169      0.000      0.000
REMARK INTER + INTRA:          -8.758
REMARK INTER:                 -10.778
REMARK INTRA:                   2.020
REMARK UNBOUND:                 2.020
REMARK  3 active torsions:
REMARK  status: ('A' for Active; 'I' for Inactive)
REMARK    1  A    between atoms: C_5  and  N_8 
REMARK    2  A    between atoms: C_10  and  C_16 
REMARK    3  A    between atoms: C_22  and  O_29 
ROOT
ATOM      1  N   UNK d   1      19.613  75.616  12.874  0.00  0.00    -0.241 N 
ATOM      2  C   UNK d   1      19.623  76.707  12.089  0.00  0.00     0.204 A 
ATOM      3  C   UNK d   1      20.379  77.822  12.381  0.00  0.00     0.100 A 
ATOM      4  C   UNK d   1      21.133  77.754  13.536  0.00  0.00     0.262 A 
ATOM      5  O   UNK d   1      21.880  78.694  13.944  0.00  0.00    -0.267 OA
ATOM      6  N   UNK d   1      21.131  76.649  14.344  0.00  0.00    -0.274 N 
ATOM      7  C   UNK d   1      20.364  75.605  13.987  0.00  0.00     0.336 A 
ATOM      8  O   UNK d   1      20.329  74.568  14.698  0.00  0.00    -0.246 OA
ATOM      9  O   UNK d   1      18.863  76.734  10.949  0.00  0.00    -0.171 OA
ATOM     10  H   UNK d   1      21.698  76.604  15.211  0.00  0.00     0.173 HD
ENDROOT
BRANCH   3  11
ATOM     11  C   UNK d   1      20.431  79.040  11.593  0.00  0.00     0.267 C 
ATOM     12  N   UNK d   1      21.717  79.608  11.343  0.00  0.00    -0.062 N 
ATOM     13  C   UNK d   1      22.590  78.789  10.548  0.00  0.00     0.240 C 
ATOM     14  C   UNK d   1      21.450  80.807  10.505  0.00  0.00     0.270 C 
ATOM     15  H   UNK d   1      22.200  80.034  12.151  0.00  0.00     0.280 HD
ATOM     16  C   UNK d   1      21.893  77.596   9.928  0.00  0.00     0.067 C 
ATOM     17  C   UNK d   1      20.572  78.058   9.361  0.00  0.00    -0.042 A 
ATOM     18  C   UNK d   1      19.833  78.823  10.227  0.00  0.00     0.020 A 
ATOM     19  C   UNK d   1      20.147  77.784   8.103  0.00  0.00     0.047 A 
ATOM     20  C   UNK d   1      18.622  79.343   9.838  0.00  0.00     0.113 A 
ATOM     21  C   UNK d   1      18.193  79.060   8.549  0.00  0.00     0.139 A 
ATOM     22  C   UNK d   1      18.923  78.292   7.667  0.00  0.00     0.108 A 
ATOM     23  O   UNK d   1      17.034  79.424   7.846  0.00  0.00    -0.320 OA
ATOM     24  O   UNK d   1      18.220  78.201   6.476  0.00  0.00    -0.323 OA
ATOM     25  C   UNK d   1      16.859  78.602   6.707  0.00  0.00     0.352 C 
BRANCH  20  26
ATOM     26  O   UNK d   1      17.894  80.106  10.707  0.00  0.00    -0.352 OA
ATOM     27  C   UNK d   1      18.019  81.473  10.935  0.00  0.00     0.210 C 
ENDBRANCH  20  26
ENDBRANCH   3  11
BRANCH   1  28
ATOM     28  C   UNK d   1      18.825  74.480  12.554  0.00  0.00     0.046 A 
ATOM     29  C   UNK d   1      19.180  73.586  11.557  0.00  0.00     0.031 A 
ATOM     30  C   UNK d   1      18.425  72.492  11.247  0.00  0.00     0.020 A 
ATOM     31  C   UNK d   1      17.246  72.233  11.938  0.00  0.00     0.006 A 
ATOM     32  I   UNK d   1      16.093  70.548  11.452  0.00  0.00    -0.045 I 
ATOM     33  C   UNK d   1      16.891  73.119  12.929  0.00  0.00     0.020 A 
ATOM     34  C   UNK d   1      17.647  74.227  13.249  0.00  0.00     0.031 A 
ENDBRANCH   1  28
TORSDOF 3
ENDMDL
