/Users/jonathanwahrer/Desktop/Msc/3_Semester/Drug_Design_Praktikum/waehrer_HTS_screening/HTS_experiment/out/docking_results/vina_output/6e43/0937_docked.pdbqt
 OpenBabel03212220143D

 26 29  0  0  1  0  0  0  0  0999 V2000
   22.5310   78.6580   15.5340 N   0  0  0  0  0  0  0  0  0  0  0  0
   21.7010   77.7450   16.2330 C   0  0  0  0  0  0  0  0  0  0  0  0
   21.2000   76.7160   15.7110 O   0  0  0  0  0  0  0  0  0  0  0  0
   21.5350   78.1990   17.6420 C   0  0  1  0  0  3  0  0  0  0  0  0
   22.8400   78.9390   17.8780 C   0  0  0  0  0  2  0  0  0  0  0  0
   23.2820   79.3490   16.5300 C   0  0  0  0  0  0  0  0  0  0  0  0
   24.1910   80.1870   16.2600 O   0  0  0  0  0  0  0  0  0  0  0  0
   20.3970   79.0200   17.7130 N   0  0  1  0  0  0  0  0  0  0  0  0
   19.4210   78.8240   18.6880 C   0  0  0  0  0  2  0  0  0  0  0  0
   18.7190   80.1900   18.9080 C   0  0  0  0  0  2  0  0  0  0  0  0
   19.7510   81.1980   19.0970 N   0  0  0  0  0  0  0  0  0  0  0  0
   20.6750   81.3830   18.0050 C   0  0  0  0  0  2  0  0  0  0  0  0
   20.4420   80.2430   17.0180 C   0  0  0  0  0  2  0  0  0  0  0  0
   19.8370   81.9430   20.2910 C   0  0  0  0  0  0  0  0  0  0  0  0
   18.8820   82.8590   20.6080 N   0  0  0  0  0  0  0  0  0  0  0  0
   18.9030   83.5840   21.7240 C   0  0  0  0  0  3  0  0  0  0  0  0
   19.9370   83.4280   22.6390 C   0  0  0  0  0  3  0  0  0  0  0  0
   20.9050   82.4950   22.3100 C   0  0  0  0  0  3  0  0  0  0  0  0
   20.8440   81.7860   21.1750 N   0  0  0  0  0  0  0  0  0  0  0  0
   22.6230   78.8710   14.1130 C   0  0  0  0  0  0  0  0  0  0  0  0
   21.5380   79.3780   13.4290 C   0  0  0  0  0  3  0  0  0  0  0  0
   21.5780   79.5970   12.0670 C   0  0  0  0  0  3  0  0  0  0  0  0
   22.7130   79.3130   11.3370 C   0  0  0  0  0  0  0  0  0  0  0  0
   22.8170   79.6340    9.2520 I   0  0  0  0  0  0  0  0  0  0  0  0
   23.8070   78.8040   12.0040 C   0  0  0  0  0  3  0  0  0  0  0  0
   23.7440   78.5940   13.3670 C   0  0  0  0  0  3  0  0  0  0  0  0
  1  2  1  0  0  0  0
  1  6  1  0  0  0  0
  2  4  1  0  0  0  0
  3  2  2  0  0  0  0
  4  8  1  0  0  0  0
  4  5  1  6  0  0  0
  6  5  1  0  0  0  0
  7  6  2  0  0  0  0
  8 13  1  1  0  0  0
  8  9  1  0  0  0  0
  9 10  1  0  0  0  0
 10 11  1  0  0  0  0
 11 14  1  0  0  0  0
 12 11  1  0  0  0  0
 13 12  1  0  0  0  0
 14 15  2  0  0  0  0
 14 19  1  0  0  0  0
 15 16  1  0  0  0  0
 16 17  2  0  0  0  0
 18 17  1  0  0  0  0
 19 18  2  0  0  0  0
 20  1  1  0  0  0  0
 21 20  1  0  0  0  0
 22 21  2  0  0  0  0
 23 25  2  0  0  0  0
 23 22  1  0  0  0  0
 24 23  1  0  0  0  0
 25 26  1  0  0  0  0
 26 20  2  0  0  0  0
M  END
>  <Pose>
1

>  <Score>
-9.653

$$$$
