/Users/jonathanwahrer/Desktop/Msc/3_Semester/Drug_Design_Praktikum/waehrer_HTS_screening/HTS_experiment/out/docking_results/vina_output/6e43/0956_docked.pdbqt
 OpenBabel03212220143D

 30 33  0  0  1  0  0  0  0  0999 V2000
   20.7460   77.1580   13.9970 I   0  0  0  0  0  0  0  0  0  0  0  0
   20.6520   77.9160   12.0320 C   0  0  0  0  0  0  0  0  0  0  0  0
   21.2950   79.0220   11.5600 C   0  0  0  0  0  0  0  0  0  0  0  0
   20.9150   79.1020   10.2200 C   0  0  0  0  0  0  0  0  0  0  0  0
   20.0910   78.1100    9.8790 N   0  0  0  0  0  0  0  0  0  0  0  0
   19.9240   77.3800   10.9820 C   0  0  0  0  0  3  0  0  0  0  0  0
   21.4100   80.1170    9.4920 N   0  0  0  0  0  0  0  0  0  0  0  0
   22.2390   81.0220   10.0370 C   0  0  0  0  0  3  0  0  0  0  0  0
   22.6000   80.9420   11.3210 N   0  0  0  0  0  0  0  0  0  0  0  0
   22.1430   79.9410   12.1350 C   0  0  0  0  0  0  0  0  0  0  0  0
   19.4850   77.8420    8.6100 C   0  0  2  0  0  3  0  0  0  0  0  0
   18.3930   78.6550    8.3290 O   0  0  0  0  0  0  0  0  0  0  0  0
   17.9160   78.1130    7.1390 C   0  0  1  0  0  3  0  0  0  0  0  0
   18.0230   76.6110    7.2640 C   0  0  2  0  0  3  0  0  0  0  0  0
   18.8310   76.4580    8.5580 C   0  0  0  0  0  2  0  0  0  0  0  0
   16.4210   78.4260    6.9860 C   0  0  0  0  0  2  0  0  0  0  0  0
   15.7510   77.2540    6.6090 O   0  0  0  0  0  0  0  0  0  0  0  0
   15.3010   77.3730    5.7140 H   0  0  0  0  0  0  0  0  0  0  0  0
   18.8080   76.0630    6.2490 O   0  0  0  0  0  0  0  0  0  0  0  0
   18.7420   75.0660    6.3720 H   0  0  0  0  0  0  0  0  0  0  0  0
   22.5610   79.9060   13.4950 N   0  0  0  0  0  0  0  0  0  0  0  0
   23.7620   79.2130   13.8220 C   0  0  0  0  0  0  0  0  0  0  0  0
   24.3880   78.6680   12.8770 O   0  0  0  0  0  0  0  0  0  0  0  0
   22.0710   80.3410   14.2820 H   0  0  0  0  0  0  0  0  0  0  0  0
   24.2980   79.1000   15.1510 C   0  0  0  0  0  0  0  0  0  0  0  0
   25.6450   79.0010   15.3680 C   0  0  0  0  0  3  0  0  0  0  0  0
   26.1810   78.8950   16.6530 C   0  0  0  0  0  3  0  0  0  0  0  0
   25.3440   78.8880   17.7290 C   0  0  0  0  0  3  0  0  0  0  0  0
   23.9890   78.9850   17.5420 C   0  0  0  0  0  3  0  0  0  0  0  0
   23.4730   79.0920   16.2460 C   0  0  0  0  0  3  0  0  0  0  0  0
  2  1  1  0  0  0  0
  3  2  1  0  0  0  0
  3 10  1  0  0  0  0
  4  3  2  0  0  0  0
  5  4  1  0  0  0  0
  5  6  1  0  0  0  0
  6  2  2  0  0  0  0
  7  8  2  0  0  0  0
  7  4  1  0  0  0  0
  8  9  1  0  0  0  0
  9 10  2  0  0  0  0
 10 21  1  0  0  0  0
 11 15  1  1  0  0  0
 11  5  1  0  0  0  0
 12 11  1  0  0  0  0
 13 16  1  1  0  0  0
 13 14  1  0  0  0  0
 13 12  1  0  0  0  0
 14 19  1  6  0  0  0
 14 15  1  0  0  0  0
 17 16  1  0  0  0  0
 18 17  1  0  0  0  0
 19 20  1  0  0  0  0
 21 22  1  0  0  0  0
 21 24  1  0  0  0  0
 22 25  1  0  0  0  0
 23 22  2  0  0  0  0
 25 26  2  0  0  0  0
 25 30  1  0  0  0  0
 26 27  1  0  0  0  0
 27 28  2  0  0  0  0
 29 28  1  0  0  0  0
 30 29  2  0  0  0  0
M  END
>  <Pose>
1

>  <Score>
-8.586

$$$$
