MODEL 1
REMARK VINA RESULT:   -10.673      0.000      0.000
REMARK INTER + INTRA:         -12.871
REMARK INTER:                 -12.545
REMARK INTRA:                  -0.326
REMARK UNBOUND:                -0.326
REMARK  3 active torsions:
REMARK  status: ('A' for Active; 'I' for Inactive)
REMARK    1  A    between atoms: C_7  and  C_8 
REMARK    2  A    between atoms: C_9  and  C_10 
REMARK    3  A    between atoms: C_16  and  C_19 
ROOT
ATOM      1  C   UNK d   1      20.747  77.403  15.407  0.00  0.00     0.065 A 
ATOM      2  N   UNK d   1      20.813  77.590  16.704  0.00  0.00    -0.359 N 
ATOM      3  C   UNK d   1      21.549  78.625  17.208  0.00  0.00     0.093 A 
ATOM      4  C   UNK d   1      22.240  79.509  16.436  0.00  0.00     0.049 A 
ATOM      5  C   UNK d   1      22.192  79.347  15.069  0.00  0.00     0.068 A 
ATOM      6  N   UNK d   1      22.743  80.019  14.000  0.00  0.00    -0.333 N 
ATOM      7  C   UNK d   1      22.373  79.432  12.874  0.00  0.00     0.141 A 
ATOM      8  N   UNK d   1      21.583  78.386  13.240  0.00  0.00    -0.226 NA
ATOM      9  C   UNK d   1      21.457  78.311  14.571  0.00  0.00     0.113 A 
ATOM     10  C   UNK d   1      23.558  81.180  14.219  0.00  0.00     0.158 C 
ATOM     11  C   UNK d   1      20.074  76.786  17.633  0.00  0.00     0.156 C 
ENDROOT
BRANCH   1  12
ATOM     12  C   UNK d   1      20.100  76.302  14.717  0.00  0.00     0.033 C 
ATOM     13  C   UNK d   1      19.737  76.142  13.494  0.00  0.00     0.015 C 
BRANCH  13  14
ATOM     14  C   UNK d   1      19.101  75.043  12.803  0.00  0.00    -0.016 A 
ATOM     15  C   UNK d   1      18.883  74.939  11.469  0.00  0.00     0.024 A 
ATOM     16 Br   UNK d   1      19.289  76.392  10.305  0.00  0.00    -0.050 Br
ATOM     17  C   UNK d   1      18.306  73.782  10.888  0.00  0.00     0.059 A 
ATOM     18  C   UNK d   1      17.944  72.717  11.668  0.00  0.00     0.106 A 
ATOM     19  C   UNK d   1      18.152  72.795  13.027  0.00  0.00     0.105 A 
ATOM     20  O   UNK d   1      17.370  71.466  11.421  0.00  0.00    -0.323 OA
ATOM     21  C   UNK d   1      18.713  73.924  13.581  0.00  0.00     0.052 A 
ATOM     22  O   UNK d   1      17.698  71.588  13.584  0.00  0.00    -0.323 OA
ATOM     23  C   UNK d   1      17.715  70.642  12.534  0.00  0.00     0.352 C 
ENDBRANCH  13  14
ENDBRANCH   1  12
BRANCH   7  24
ATOM     24  C   UNK d   1      22.689  79.795  11.488  0.00  0.00     0.010 A 
ATOM     25  C   UNK d   1      22.286  80.929  10.864  0.00  0.00     0.015 A 
ATOM     26  C   UNK d   1      22.628  81.156   9.518  0.00  0.00     0.001 A 
ATOM     27  C   UNK d   1      23.373  80.230   8.825  0.00  0.00     0.000 A 
ATOM     28  C   UNK d   1      23.800  79.061   9.441  0.00  0.00     0.001 A 
ATOM     29  C   UNK d   1      23.449  78.882  10.738  0.00  0.00     0.015 A 
ENDBRANCH   7  24
TORSDOF 3
ENDMDL
