/Users/jonathanwahrer/Desktop/Msc/3_Semester/Drug_Design_Praktikum/waehrer_HTS_screening/HTS_experiment/out/docking_results/vina_output/6e43/0969_docked.pdbqt
 OpenBabel03212220153D

 31 34  0  0  1  0  0  0  0  0999 V2000
   20.6720   76.6610   16.9290 Br  0  0  0  0  0  0  0  0  0  0  0  0
   21.1380   77.8940   15.5590 C   0  0  0  0  0  0  0  0  0  0  0  0
   20.8360   77.6920   14.2150 C   0  0  0  0  0  0  0  0  0  0  0  0
   21.1990   78.6220   13.2540 C   0  0  0  0  0  0  0  0  0  0  0  0
   21.8710   79.7700   13.6210 C   0  0  0  0  0  2  0  0  0  0  0  0
   22.1710   79.9750   14.9390 C   0  0  0  0  0  0  0  0  0  0  0  0
   21.8080   79.0500   15.8860 C   0  0  0  0  0  0  0  0  0  0  0  0
   22.1500   79.3320   17.2210 O   0  0  0  0  0  1  0  0  0  0  0  0
   23.1050   81.5930   15.3820 Br  0  0  0  0  0  0  0  0  0  0  0  0
   20.9130   78.4470   11.9170 C   0  0  0  0  0  0  0  0  0  0  0  0
   20.2410   77.2970   11.5590 C   0  0  0  0  0  0  0  0  0  0  0  0
   19.8970   76.3690   12.6420 C   0  0  0  0  0  0  0  0  0  0  0  0
   19.2180   75.2100   12.2630 C   0  0  1  0  0  3  0  0  0  0  0  0
   18.9040   74.9800   10.9430 C   0  0  0  0  0  0  0  0  0  0  0  0
   18.2910   73.9230   10.6500 O   0  0  0  0  0  0  0  0  0  0  0  0
   19.2450   75.8810    9.9390 C   0  0  0  0  0  0  0  0  0  0  0  0
   19.9090   77.0340   10.2390 C   0  0  0  0  0  3  0  0  0  0  0  0
   18.7690   75.4820    8.1310 Br  0  0  0  0  0  0  0  0  0  0  0  0
   18.7370   73.9470   13.6290 Br  0  0  0  0  0  0  0  0  0  0  0  0
   20.1990   76.5950   13.8990 O   0  0  0  0  0  0  0  0  0  0  0  0
   21.3050   79.4270   10.9020 C   0  0  0  0  0  0  0  0  0  0  0  0
   20.4040   80.3750   10.4540 C   0  0  0  0  0  0  0  0  0  0  0  0
   20.7470   81.3040    9.4950 C   0  0  0  0  0  3  0  0  0  0  0  0
   18.7720   80.3890   11.1320 Cl  0  0  0  0  0  0  0  0  0  0  0  0
   22.0260   81.2770    8.9780 C   0  0  0  0  0  3  0  0  0  0  0  0
   22.9440   80.3620    9.3920 C   0  0  0  0  0  0  0  0  0  0  0  0
   22.5840   79.4400   10.3500 C   0  0  0  0  0  0  0  0  0  0  0  0
   24.5500   80.4010    8.6810 Cl  0  0  0  0  0  0  0  0  0  0  0  0
   23.5490   78.4620   10.7900 C   0  0  0  0  0  0  0  0  0  0  0  0
   23.8780   77.4720   10.0810 O   0  0  0  0  0  0  0  0  0  0  0  0
   24.1590   78.5860   12.0370 O   0  0  0  0  0  1  0  0  0  0  0  0
  2  7  1  0  0  0  0
  2  1  1  0  0  0  0
  3  2  2  0  0  0  0
  4  5  1  0  0  0  0
  4  3  1  0  0  0  0
  5  6  1  0  0  0  0
  6  9  1  0  0  0  0
  6  7  2  0  0  0  0
  7  8  1  0  0  0  0
 10  4  2  0  0  0  0
 11 10  1  0  0  0  0
 11 12  2  0  0  0  0
 12 20  1  0  0  0  0
 13 12  1  0  0  0  0
 13 19  1  6  0  0  0
 14 13  1  0  0  0  0
 15 14  2  0  0  0  0
 16 17  2  0  0  0  0
 16 14  1  0  0  0  0
 17 11  1  0  0  0  0
 18 16  1  0  0  0  0
 20  3  1  0  0  0  0
 21 10  1  0  0  0  0
 22 21  1  0  0  0  0
 22 24  1  0  0  0  0
 23 22  2  0  0  0  0
 25 26  2  0  0  0  0
 25 23  1  0  0  0  0
 26 27  1  0  0  0  0
 27 29  1  0  0  0  0
 27 21  2  0  0  0  0
 28 26  1  0  0  0  0
 29 31  1  0  0  0  0
 30 29  2  0  0  0  0
M  END
>  <Pose>
1

>  <Score>
-5.893

$$$$
