MODEL 1
REMARK VINA RESULT:    -5.893      0.000      0.000
REMARK INTER + INTRA:          -6.966
REMARK INTER:                  -6.582
REMARK INTRA:                  -0.384
REMARK UNBOUND:                -0.384
REMARK  2 active torsions:
REMARK  status: ('A' for Active; 'I' for Inactive)
REMARK    1  A    between atoms: C_10  and  C_21 
REMARK    2  A    between atoms: C_26  and  C_27 
ROOT
ATOM      1 Br   UNK d   1      20.672  76.661  16.929  0.00  0.00    -0.045 Br
ATOM      2  C   UNK d   1      21.138  77.894  15.559  0.00  0.00     0.083 A 
ATOM      3  C   UNK d   1      20.836  77.692  14.215  0.00  0.00     0.107 A 
ATOM      4  C   UNK d   1      21.199  78.622  13.254  0.00  0.00     0.013 A 
ATOM      5  C   UNK d   1      21.871  79.770  13.621  0.00  0.00     0.037 A 
ATOM      6  C   UNK d   1      22.171  79.975  14.939  0.00  0.00     0.049 A 
ATOM      7  C   UNK d   1      21.808  79.050  15.886  0.00  0.00     0.144 A 
ATOM      8  O   UNK d   1      22.150  79.332  17.221  0.00  0.00    -0.189 OA
ATOM      9 Br   UNK d   1      23.105  81.593  15.382  0.00  0.00    -0.048 Br
ATOM     10  C   UNK d   1      20.913  78.447  11.917  0.00  0.00     0.003 A 
ATOM     11  C   UNK d   1      20.241  77.297  11.559  0.00  0.00     0.013 A 
ATOM     12  C   UNK d   1      19.897  76.369  12.642  0.00  0.00     0.108 A 
ATOM     13  C   UNK d   1      19.218  75.210  12.263  0.00  0.00     0.097 A 
ATOM     14  C   UNK d   1      18.904  74.980  10.943  0.00  0.00     0.209 A 
ATOM     15  O   UNK d   1      18.291  73.923  10.650  0.00  0.00    -0.285 OA
ATOM     16  C   UNK d   1      19.245  75.881   9.939  0.00  0.00     0.063 A 
ATOM     17  C   UNK d   1      19.909  77.034  10.239  0.00  0.00     0.038 A 
ATOM     18 Br   UNK d   1      18.769  75.482   8.131  0.00  0.00    -0.047 Br
ATOM     19 Br   UNK d   1      18.737  73.947  13.629  0.00  0.00    -0.044 Br
ATOM     20  O   UNK d   1      20.199  76.595  13.899  0.00  0.00    -0.306 OA
ENDROOT
BRANCH  10  21
ATOM     21  C   UNK d   1      21.305  79.427  10.902  0.00  0.00     0.016 A 
ATOM     22  C   UNK d   1      20.404  80.375  10.454  0.00  0.00     0.046 A 
ATOM     23  C   UNK d   1      20.747  81.304   9.495  0.00  0.00     0.026 A 
ATOM     24 Cl   UNK d   1      18.772  80.389  11.132  0.00  0.00    -0.083 Cl
ATOM     25  C   UNK d   1      22.026  81.277   8.978  0.00  0.00     0.026 A 
ATOM     26  C   UNK d   1      22.944  80.362   9.392  0.00  0.00     0.052 A 
ATOM     27  C   UNK d   1      22.584  79.440  10.350  0.00  0.00     0.075 A 
ATOM     28 Cl   UNK d   1      24.550  80.401   8.681  0.00  0.00    -0.083 Cl
BRANCH  27  29
ATOM     29  C   UNK d   1      23.549  78.462  10.790  0.00  0.00     0.212 C 
ATOM     30  O   UNK d   1      23.878  77.472  10.081  0.00  0.00    -0.644 OA
ATOM     31  O   UNK d   1      24.159  78.586  12.037  0.00  0.00    -0.644 OA
ENDBRANCH  27  29
ENDBRANCH  10  21
TORSDOF 2
ENDMDL
