MODEL 1
REMARK VINA RESULT:    -9.552      0.000      0.000
REMARK INTER + INTRA:          -9.552
REMARK INTER:                  -9.552
REMARK INTRA:                   0.000
REMARK UNBOUND:                 0.000
REMARK  0 active torsions:
REMARK  status: ('A' for Active; 'I' for Inactive)
ROOT
ATOM      1 Br   UNK d   1      20.732  76.791  16.657  0.00  0.00    -0.045 Br
ATOM      2  C   UNK d   1      21.295  78.103  15.393  0.00  0.00     0.083 A 
ATOM      3  C   UNK d   1      21.018  77.967  14.020  0.00  0.00     0.106 A 
ATOM      4  C   UNK d   1      21.403  78.882  13.085  0.00  0.00     0.023 A 
ATOM      5  C   UNK d   1      22.106  80.004  13.532  0.00  0.00     0.036 A 
ATOM      6  C   UNK d   1      22.375  80.135  14.862  0.00  0.00     0.049 A 
ATOM      7  C   UNK d   1      21.987  79.213  15.812  0.00  0.00     0.144 A 
ATOM      8  O   UNK d   1      22.300  79.415  17.167  0.00  0.00    -0.189 OA
ATOM      9 Br   UNK d   1      23.335  81.664  15.480  0.00  0.00    -0.048 Br
ATOM     10  C   UNK d   1      21.100  78.714  11.670  0.00  0.00     0.159 A 
ATOM     11  O   UNK d   1      20.252  79.800  11.303  0.00  0.00    -0.291 OA
ATOM     12  C   UNK d   1      20.810  80.584  10.331  0.00  0.00     0.295 A 
ATOM     13  O   UNK d   1      20.285  81.601   9.823  0.00  0.00    -0.259 OA
ATOM     14  C   UNK d   1      22.099  79.990  10.032  0.00  0.00     0.049 A 
ATOM     15  C   UNK d   1      22.308  78.874  10.810  0.00  0.00     0.003 A 
ATOM     16  C   UNK d   1      23.471  78.194  10.656  0.00  0.00     0.012 A 
ATOM     17  C   UNK d   1      24.406  78.627   9.740  0.00  0.00     0.001 A 
ATOM     18  C   UNK d   1      24.201  79.745   8.959  0.00  0.00     0.001 A 
ATOM     19  C   UNK d   1      23.031  80.441   9.102  0.00  0.00     0.018 A 
ATOM     20  C   UNK d   1      20.361  77.493  11.368  0.00  0.00     0.023 A 
ATOM     21  C   UNK d   1      20.003  76.612  12.350  0.00  0.00     0.106 A 
ATOM     22  C   UNK d   1      19.289  75.436  12.039  0.00  0.00     0.083 A 
ATOM     23  C   UNK d   1      18.958  75.191  10.727  0.00  0.00     0.144 A 
ATOM     24  C   UNK d   1      19.318  76.080   9.724  0.00  0.00     0.049 A 
ATOM     25  C   UNK d   1      20.010  77.217  10.034  0.00  0.00     0.036 A 
ATOM     26 Br   UNK d   1      18.866  75.752   7.903  0.00  0.00    -0.048 Br
ATOM     27  O   UNK d   1      18.255  74.031  10.435  0.00  0.00    -0.189 OA
ATOM     28 Br   UNK d   1      18.805  74.228  13.441  0.00  0.00    -0.045 Br
ATOM     29  O   UNK d   1      20.310  76.809  13.689  0.00  0.00    -0.306 OA
ENDROOT
TORSDOF 0
ENDMDL
