MODEL 1
REMARK VINA RESULT:     3.986      0.000      0.000
REMARK INTER + INTRA:           3.986
REMARK INTER:                   3.986
REMARK INTRA:                   0.000
REMARK UNBOUND:                 0.000
REMARK  0 active torsions:
REMARK  status: ('A' for Active; 'I' for Inactive)
ROOT
ATOM      1  I   UNK d   1      22.584  80.022  13.724  0.00  0.00    -0.038 I 
ATOM      2  C   UNK d   1      22.260  79.373  11.741  0.00  0.00     0.078 A 
ATOM      3  C   UNK d   1      21.403  78.293  11.558  0.00  0.00     0.105 A 
ATOM      4  C   UNK d   1      21.176  77.853  10.295  0.00  0.00     0.023 A 
ATOM      5  C   UNK d   1      21.807  78.497   9.227  0.00  0.00     0.035 A 
ATOM      6  C   UNK d   1      22.657  79.567   9.398  0.00  0.00     0.045 A 
ATOM      7  C   UNK d   1      22.883  80.009  10.687  0.00  0.00     0.143 A 
ATOM      8  O   UNK d   1      23.736  81.085  10.883  0.00  0.00    -0.189 OA
ATOM      9  I   UNK d   1      23.591  80.509   7.745  0.00  0.00    -0.042 I 
ATOM     10  C   UNK d   1      20.301  76.736   9.992  0.00  0.00     0.161 A 
ATOM     11  O   UNK d   1      21.008  75.687   9.313  0.00  0.00    -0.291 OA
ATOM     12  C   UNK d   1      20.454  75.395   8.095  0.00  0.00     0.297 A 
ATOM     13  O   UNK d   1      20.806  74.540   7.232  0.00  0.00    -0.259 OA
ATOM     14  C   UNK d   1      19.316  76.290   7.940  0.00  0.00     0.074 A 
ATOM     15  C   UNK d   1      19.224  77.076   9.048  0.00  0.00     0.028 A 
ATOM     16  C   UNK d   1      18.210  78.028   9.155  0.00  0.00     0.068 A 
ATOM     17  C   UNK d   1      17.283  78.196   8.149  0.00  0.00     0.080 A 
ATOM     18  C   UNK d   1      17.380  77.391   7.016  0.00  0.00     0.080 A 
ATOM     19  C   UNK d   1      18.375  76.454   6.908  0.00  0.00     0.074 A 
ATOM     20 Cl   UNK d   1      18.481  75.466   5.501  0.00  0.00    -0.081 Cl
ATOM     21 Cl   UNK d   1      16.239  77.553   5.710  0.00  0.00    -0.081 Cl
ATOM     22 Cl   UNK d   1      16.025  79.399   8.316  0.00  0.00    -0.081 Cl
ATOM     23 Cl   UNK d   1      18.151  78.993  10.592  0.00  0.00    -0.082 Cl
ATOM     24  C   UNK d   1      19.699  76.149  11.220  0.00  0.00     0.023 A 
ATOM     25  C   UNK d   1      19.948  76.613  12.466  0.00  0.00     0.105 A 
ATOM     26  C   UNK d   1      19.318  75.970  13.530  0.00  0.00     0.078 A 
ATOM     27  C   UNK d   1      18.468  74.900  13.359  0.00  0.00     0.143 A 
ATOM     28  C   UNK d   1      18.238  74.455  12.073  0.00  0.00     0.045 A 
ATOM     29  C   UNK d   1      18.841  75.063  11.003  0.00  0.00     0.035 A 
ATOM     30  I   UNK d   1      16.942  72.820  11.780  0.00  0.00    -0.042 I 
ATOM     31  O   UNK d   1      17.848  74.268  14.405  0.00  0.00    -0.189 OA
ATOM     32  I   UNK d   1      19.696  76.680  15.468  0.00  0.00    -0.038 I 
ATOM     33  O   UNK d   1      20.796  77.685  12.675  0.00  0.00    -0.307 OA
ENDROOT
TORSDOF 0
ENDMDL
