MODEL 1
REMARK VINA RESULT:    -5.485      0.000      0.000
REMARK INTER + INTRA:          -5.485
REMARK INTER:                  -5.485
REMARK INTRA:                   0.000
REMARK UNBOUND:                 0.000
REMARK  0 active torsions:
REMARK  status: ('A' for Active; 'I' for Inactive)
ROOT
ATOM      1  I   UNK d   1      18.726  74.302  13.242  0.00  0.00    -0.038 I 
ATOM      2  C   UNK d   1      19.297  75.622  11.686  0.00  0.00     0.078 A 
ATOM      3  C   UNK d   1      20.036  76.753  12.071  0.00  0.00     0.105 A 
ATOM      4  C   UNK d   1      20.415  77.615  11.091  0.00  0.00     0.023 A 
ATOM      5  C   UNK d   1      20.056  77.342   9.759  0.00  0.00     0.035 A 
ATOM      6  C   UNK d   1      19.334  76.238   9.385  0.00  0.00     0.045 A 
ATOM      7  C   UNK d   1      18.952  75.364  10.379  0.00  0.00     0.143 A 
ATOM      8  O   UNK d   1      18.220  74.236  10.036  0.00  0.00    -0.189 OA
ATOM      9  I   UNK d   1      18.828  75.887   7.357  0.00  0.00    -0.042 I 
ATOM     10  C   UNK d   1      21.189  78.825  11.392  0.00  0.00     0.159 A 
ATOM     11  O   UNK d   1      20.578  79.985  10.862  0.00  0.00    -0.291 OA
ATOM     12  C   UNK d   1      21.377  80.629   9.954  0.00  0.00     0.295 A 
ATOM     13  O   UNK d   1      21.144  81.681   9.302  0.00  0.00    -0.259 OA
ATOM     14  C   UNK d   1      22.613  79.865   9.854  0.00  0.00     0.049 A 
ATOM     15  C   UNK d   1      22.512  78.803  10.693  0.00  0.00     0.003 A 
ATOM     16  C   UNK d   1      23.590  77.914  10.770  0.00  0.00     0.012 A 
ATOM     17  C   UNK d   1      24.717  78.123  10.009  0.00  0.00     0.001 A 
ATOM     18  C   UNK d   1      24.821  79.200   9.155  0.00  0.00     0.001 A 
ATOM     19  C   UNK d   1      23.769  80.080   9.071  0.00  0.00     0.018 A 
ATOM     20  C   UNK d   1      21.492  78.981  12.825  0.00  0.00     0.023 A 
ATOM     21  C   UNK d   1      21.087  78.085  13.754  0.00  0.00     0.105 A 
ATOM     22  C   UNK d   1      21.409  78.298  15.091  0.00  0.00     0.078 A 
ATOM     23  C   UNK d   1      22.127  79.396  15.469  0.00  0.00     0.143 A 
ATOM     24  C   UNK d   1      22.557  80.326  14.551  0.00  0.00     0.045 A 
ATOM     25  C   UNK d   1      22.227  80.097  13.244  0.00  0.00     0.035 A 
ATOM     26  I   UNK d   1      23.669  82.025  15.144  0.00  0.00    -0.042 I 
ATOM     27  O   UNK d   1      22.436  79.583  16.811  0.00  0.00    -0.189 OA
ATOM     28  I   UNK d   1      20.767  76.885  16.544  0.00  0.00    -0.038 I 
ATOM     29  O   UNK d   1      20.345  76.940  13.420  0.00  0.00    -0.307 OA
ENDROOT
TORSDOF 0
ENDMDL
