MODEL 1
REMARK VINA RESULT:    -8.111      0.000      0.000
REMARK INTER + INTRA:          -9.590
REMARK INTER:                  -9.060
REMARK INTRA:                  -0.530
REMARK UNBOUND:                -0.530
REMARK  2 active torsions:
REMARK  status: ('A' for Active; 'I' for Inactive)
REMARK    1  A    between atoms: C_9  and  C_19 
REMARK    2  A    between atoms: C_20  and  C_25 
ROOT
ATOM      1  I   UNK d   1      19.002  75.235  10.460  0.00  0.00    -0.038 I 
ATOM      2  C   UNK d   1      19.568  75.774  12.417  0.00  0.00     0.077 A 
ATOM      3  C   UNK d   1      20.314  76.904  12.690  0.00  0.00     0.106 A 
ATOM      4  C   UNK d   1      20.687  77.260  13.968  0.00  0.00     0.011 A 
ATOM      5  C   UNK d   1      20.286  76.436  15.003  0.00  0.00     0.018 A 
ATOM      6  C   UNK d   1      19.537  75.299  14.738  0.00  0.00     0.042 A 
ATOM      7  C   UNK d   1      19.166  74.947  13.447  0.00  0.00     0.126 A 
ATOM      8  O   UNK d   1      18.413  73.794  13.238  0.00  0.00    -0.191 OA
ATOM      9  C   UNK d   1      21.430  78.386  14.260  0.00  0.00     0.001 A 
ATOM     10  C   UNK d   1      21.798  79.167  13.169  0.00  0.00     0.011 A 
ATOM     11  C   UNK d   1      21.384  78.756  11.831  0.00  0.00     0.107 A 
ATOM     12  C   UNK d   1      21.778  79.572  10.791  0.00  0.00     0.091 A 
ATOM     13  C   UNK d   1      22.523  80.717  10.977  0.00  0.00     0.191 A 
ATOM     14  O   UNK d   1      22.876  81.453  10.008  0.00  0.00    -0.287 OA
ATOM     15  C   UNK d   1      22.915  81.107  12.242  0.00  0.00     0.057 A 
ATOM     16  C   UNK d   1      22.536  80.311  13.305  0.00  0.00     0.019 A 
ATOM     17  I   UNK d   1      21.229  79.062   8.827  0.00  0.00    -0.037 I 
ATOM     18  O   UNK d   1      20.677  77.662  11.687  0.00  0.00    -0.306 OA
ENDROOT
BRANCH   9  19
ATOM     19  C   UNK d   1      21.827  78.766  15.612  0.00  0.00    -0.007 A 
ATOM     20  C   UNK d   1      23.097  78.408  16.054  0.00  0.00     0.051 A 
ATOM     21  C   UNK d   1      23.514  78.744  17.315  0.00  0.00     0.019 A 
ATOM     22  C   UNK d   1      22.667  79.440  18.150  0.00  0.00     0.001 A 
ATOM     23  C   UNK d   1      21.406  79.806  17.736  0.00  0.00     0.001 A 
ATOM     24  C   UNK d   1      21.007  79.459  16.464  0.00  0.00     0.013 A 
BRANCH  20  25
ATOM     25  C   UNK d   1      24.003  77.671  15.178  0.00  0.00     0.210 C 
ATOM     26  O   UNK d   1      24.054  76.421  15.151  0.00  0.00    -0.644 OA
ATOM     27  O   UNK d   1      24.863  78.346  14.324  0.00  0.00    -0.644 OA
ENDBRANCH  20  25
ENDBRANCH   9  19
TORSDOF 2
ENDMDL
