MODEL 1
REMARK VINA RESULT:    -7.146      0.000      0.000
REMARK INTER + INTRA:         -10.676
REMARK INTER:                  -9.234
REMARK INTRA:                  -1.441
REMARK UNBOUND:                -1.441
REMARK  5 active torsions:
REMARK  status: ('A' for Active; 'I' for Inactive)
REMARK    1  A    between atoms: S_1  and  O_5 
REMARK    2  A    between atoms: O_5  and  C_6 
REMARK    3  A    between atoms: C_10  and  C_11 
REMARK    4  A    between atoms: C_15  and  O_16 
REMARK    5  A    between atoms: O_16  and  S_17 
ROOT
ATOM      1  C   UNK d   1      23.248  79.784  15.001  0.00  0.00     0.133 A 
ATOM      2  C   UNK d   1      23.232  79.392  13.656  0.00  0.00     0.030 A 
ATOM      3  C   UNK d   1      21.927  79.571  13.253  0.00  0.00     0.063 A 
ATOM      4  N   UNK d   1      21.220  80.038  14.292  0.00  0.00    -0.350 N 
ATOM      5  C   UNK d   1      22.003  80.189  15.404  0.00  0.00     0.099 A 
ATOM      6  C   UNK d   1      21.587  79.260  11.939  0.00  0.00     0.040 A 
ATOM      7  C   UNK d   1      22.550  78.791  11.088  0.00  0.00     0.040 A 
ATOM      8  C   UNK d   1      23.876  78.607  11.492  0.00  0.00     0.013 A 
ATOM      9  C   UNK d   1      24.213  78.920  12.812  0.00  0.00     0.036 A 
ATOM     10 Br   UNK d   1      25.166  77.951  10.262  0.00  0.00    -0.051 Br
ATOM     11 Br   UNK d   1      19.800  79.496  11.358  0.00  0.00    -0.049 Br
ATOM     12  H   UNK d   1      20.186  80.268  14.275  0.00  0.00     0.166 HD
ENDROOT
BRANCH   5  13
ATOM     13  C   UNK d   1      21.551  80.714  16.687  0.00  0.00     0.099 A 
ATOM     14  N   UNK d   1      21.220  82.022  16.872  0.00  0.00    -0.350 N 
ATOM     15  C   UNK d   1      20.854  82.244  18.144  0.00  0.00     0.063 A 
ATOM     16  H   UNK d   1      21.237  82.773  16.148  0.00  0.00     0.166 HD
ATOM     17  C   UNK d   1      20.937  81.061  18.845  0.00  0.00     0.030 A 
ATOM     18  C   UNK d   1      20.433  83.363  18.849  0.00  0.00     0.040 A 
ATOM     19  C   UNK d   1      21.378  80.127  17.901  0.00  0.00     0.133 A 
ATOM     20  C   UNK d   1      20.620  80.976  20.185  0.00  0.00     0.036 A 
ATOM     21  C   UNK d   1      20.201  82.100  20.880  0.00  0.00     0.013 A 
ATOM     22  C   UNK d   1      20.112  83.298  20.189  0.00  0.00     0.040 A 
ATOM     23 Br   UNK d   1      19.756  82.007  22.743  0.00  0.00    -0.051 Br
ATOM     24 Br   UNK d   1      20.289  85.042  17.958  0.00  0.00    -0.049 Br
BRANCH  19  25
ATOM     25  O   UNK d   1      21.596  78.799  18.220  0.00  0.00    -0.211 OA
BRANCH  25  26
ATOM     26  S   UNK d   1      20.334  77.653  18.268  0.00  0.00     0.257 S 
ATOM     27  O   UNK d   1      20.053  77.223  19.678  0.00  0.00    -0.572 OA
ATOM     28  O   UNK d   1      20.674  76.419  17.481  0.00  0.00    -0.572 OA
ATOM     29  O   UNK d   1      18.947  78.311  17.542  0.00  0.00    -0.572 OA
ENDBRANCH  25  26
ENDBRANCH  19  25
ENDBRANCH   5  13
BRANCH   1  30
ATOM     30  O   UNK d   1      24.399  79.748  15.779  0.00  0.00    -0.211 OA
BRANCH  30  31
ATOM     31  S   UNK d   1      24.964  78.282  16.460  0.00  0.00     0.257 S 
ATOM     32  O   UNK d   1      25.999  77.740  15.514  0.00  0.00    -0.572 OA
ATOM     33  O   UNK d   1      25.606  78.524  17.804  0.00  0.00    -0.572 OA
ATOM     34  O   UNK d   1      23.727  77.150  16.577  0.00  0.00    -0.572 OA
ENDBRANCH  30  31
ENDBRANCH   1  30
TORSDOF 5
ENDMDL
