/Users/jonathanwahrer/Desktop/Msc/3_Semester/Drug_Design_Praktikum/waehrer_HTS_screening/HTS_experiment/out/docking_results/vina_output/6e43/0985_docked.pdbqt
 OpenBabel03212220153D

 28 31  0  0  1  0  0  0  0  0999 V2000
   22.1270   78.6980   17.2270 N   0  0  0  0  0  0  0  0  0  0  0  0
   23.3960   78.4960   16.8530 C   0  0  0  0  0  0  0  0  0  0  0  0
   24.5120   79.2650   16.9770 N   0  0  0  0  0  0  0  0  0  0  0  0
   25.7100   78.8890   16.5360 C   0  0  0  0  0  0  0  0  0  0  0  0
   25.8250   77.6910   15.9370 N   0  0  0  0  0  0  0  0  0  0  0  0
   24.7600   76.8780   15.7820 C   0  0  0  0  0  0  0  0  0  0  0  0
   23.5170   77.2650   16.2380 C   0  0  0  0  0  0  0  0  0  0  0  0
   22.2890   76.7260   16.2490 N   0  0  0  0  0  0  0  0  0  0  0  0
   21.4480   77.6000   16.8500 C   0  0  0  0  0  0  0  0  0  0  0  0
   19.5710   77.3410   17.1370 Br  0  0  0  0  0  0  0  0  0  0  0  0
   21.6780   79.8940   17.8960 C   0  0  2  0  0  3  0  0  0  0  0  0
   20.6330   79.6380   18.7840 O   0  0  0  0  0  0  0  0  0  0  0  0
   20.3190   80.9060   19.2050 C   0  0  1  0  0  3  0  0  0  0  0  0
   20.0970   81.6310   17.8720 C   0  0  1  0  0  3  0  0  0  0  0  0
   19.0780   81.0230   20.0070 C   0  0  0  0  0  2  0  0  0  0  0  0
   20.5320   82.9380   18.0730 O   0  0  0  0  0  0  0  0  0  0  0  0
   21.0000   80.8630   16.9290 C   0  0  1  0  0  3  0  0  0  0  0  0
   20.0180   83.3790   19.6390 P   0  0  2  0  0  0  0  0  0  0  0  0
   21.1940   83.4990   20.5820 O   0  0  0  0  0  1  0  0  0  0  0  0
   18.8130   82.3810   20.2140 O   0  0  0  0  0  0  0  0  0  0  0  0
   19.3740   84.9570   19.4850 O   0  0  0  0  0  0  0  0  0  0  0  0
   21.8970   81.6610   16.2640 O   0  0  0  0  0  0  0  0  0  0  0  0
   22.8130   81.2360   16.2840 H   0  0  0  0  0  0  0  0  0  0  0  0
   26.8490   79.7310   16.6880 N   0  0  0  0  0  0  0  0  0  0  0  0
   27.0220   80.4240   15.9290 H   0  0  0  0  0  0  0  0  0  0  0  0
   27.4910   79.6670   17.5180 H   0  0  0  0  0  0  0  0  0  0  0  0
   24.8750   75.6360   15.1630 O   0  0  0  0  0  0  0  0  0  0  0  0
   25.6370   75.0320   15.5060 H   0  0  0  0  0  0  0  0  0  0  0  0
  2  3  1  0  0  0  0
  2  1  1  0  0  0  0
  4 24  1  0  0  0  0
  4  3  2  0  0  0  0
  5  4  1  0  0  0  0
  6  5  2  0  0  0  0
  6  7  1  0  0  0  0
  7  8  1  0  0  0  0
  7  2  2  0  0  0  0
  8  9  2  0  0  0  0
  9 10  1  0  0  0  0
  9  1  1  0  0  0  0
 11  1  1  6  0  0  0
 11 12  1  0  0  0  0
 12 13  1  0  0  0  0
 13 15  1  1  0  0  0
 14 16  1  1  0  0  0
 14 13  1  0  0  0  0
 15 20  1  0  0  0  0
 16 18  1  0  0  0  0
 17 22  1  1  0  0  0
 17 14  1  0  0  0  0
 17 11  1  0  0  0  0
 18 21  2  6  0  0  0
 18 20  1  0  0  0  0
 18 19  1  0  0  0  0
 22 23  1  0  0  0  0
 24 26  1  0  0  0  0
 25 24  1  0  0  0  0
 27 28  1  0  0  0  0
 27  6  1  0  0  0  0
M  END
>  <Pose>
1

>  <Score>
-8.540

$$$$
