MODEL 1
REMARK VINA RESULT:    -8.540      0.000      0.000
REMARK INTER + INTRA:          -9.945
REMARK INTER:                  -9.788
REMARK INTRA:                  -0.158
REMARK UNBOUND:                -0.158
REMARK  4 active torsions:
REMARK  status: ('A' for Active; 'I' for Inactive)
REMARK    1  A    between atoms: C_7  and  N_10 
REMARK    2  A    between atoms: C_8  and  O_9 
REMARK    3  A    between atoms: C_13  and  N_21 
REMARK    4  A    between atoms: C_15  and  O_20 
ROOT
ATOM      1  N   UNK d   1      22.127  78.698  17.227  0.00  0.00    -0.277 N 
ATOM      2  C   UNK d   1      23.396  78.496  16.853  0.00  0.00     0.186 A 
ATOM      3  N   UNK d   1      24.512  79.265  16.977  0.00  0.00    -0.042 NA
ATOM      4  C   UNK d   1      25.710  78.889  16.536  0.00  0.00     0.724 A 
ATOM      5  N   UNK d   1      25.825  77.691  15.937  0.00  0.00    -0.036 NA
ATOM      6  C   UNK d   1      24.760  76.878  15.782  0.00  0.00     0.214 A 
ATOM      7  C   UNK d   1      23.517  77.265  16.238  0.00  0.00     0.159 A 
ATOM      8  N   UNK d   1      22.289  76.726  16.249  0.00  0.00    -0.216 NA
ATOM      9  C   UNK d   1      21.448  77.600  16.850  0.00  0.00     0.182 A 
ATOM     10 Br   UNK d   1      19.571  77.341  17.137  0.00  0.00    -0.008 Br
ENDROOT
BRANCH   1  11
ATOM     11  C   UNK d   1      21.678  79.894  17.896  0.00  0.00     0.263 C 
ATOM     12  O   UNK d   1      20.633  79.638  18.784  0.00  0.00    -0.353 OA
ATOM     13  C   UNK d   1      20.319  80.906  19.205  0.00  0.00     0.180 C 
ATOM     14  C   UNK d   1      20.097  81.631  17.872  0.00  0.00     0.198 C 
ATOM     15  C   UNK d   1      19.078  81.023  20.007  0.00  0.00     0.216 C 
ATOM     16  O   UNK d   1      20.532  82.938  18.073  0.00  0.00    -0.279 OA
ATOM     17  C   UNK d   1      21.000  80.863  16.929  0.00  0.00     0.199 C 
ATOM     18  P   UNK d   1      20.018  83.379  19.639  0.00  0.00     0.408 P 
ATOM     19  O   UNK d   1      21.194  83.499  20.582  0.00  0.00    -0.624 OA
ATOM     20  O   UNK d   1      18.813  82.381  20.214  0.00  0.00    -0.287 OA
ATOM     21  O   UNK d   1      19.374  84.957  19.485  0.00  0.00    -0.624 OA
BRANCH  17  22
ATOM     22  O   UNK d   1      21.897  81.661  16.264  0.00  0.00    -0.388 OA
ATOM     23  H   UNK d   1      22.813  81.236  16.284  0.00  0.00     0.210 HD
ENDBRANCH  17  22
ENDBRANCH   1  11
BRANCH   4  24
ATOM     24  N   UNK d   1      26.849  79.731  16.688  0.00  0.00    -0.231 N 
ATOM     25  H   UNK d   1      27.022  80.424  15.929  0.00  0.00     0.174 HD
ATOM     26  H   UNK d   1      27.491  79.667  17.518  0.00  0.00     0.174 HD
ENDBRANCH   4  24
BRANCH   6  27
ATOM     27  O   UNK d   1      24.875  75.636  15.163  0.00  0.00    -0.343 OA
ATOM     28  H   UNK d   1      25.637  75.032  15.506  0.00  0.00     0.219 HD
ENDBRANCH   6  27
TORSDOF 4
ENDMDL
