MODEL 1
REMARK VINA RESULT:    -9.199      0.000      0.000
REMARK INTER + INTRA:         -10.405
REMARK INTER:                 -10.543
REMARK INTRA:                   0.138
REMARK UNBOUND:                 0.138
REMARK  3 active torsions:
REMARK  status: ('A' for Active; 'I' for Inactive)
REMARK    1  A    between atoms: C_7  and  N_10 
REMARK    2  A    between atoms: C_8  and  O_9 
REMARK    3  A    between atoms: C_21  and  C_23 
ROOT
ATOM      1  N   UNK d   1      23.008  78.597  14.684  0.00  0.00    -0.279 N 
ATOM      2  C   UNK d   1      22.437  78.579  13.453  0.00  0.00     0.162 A 
ATOM      3  C   UNK d   1      23.399  78.666  12.470  0.00  0.00     0.173 A 
ATOM      4  N   UNK d   1      24.574  78.738  13.130  0.00  0.00    -0.214 NA
ATOM      5  C   UNK d   1      24.330  78.696  14.456  0.00  0.00     0.182 A 
ATOM      6 Br   UNK d   1      25.617  78.762  15.869  0.00  0.00    -0.008 Br
ATOM      7  C   UNK d   1      23.018  78.665  11.143  0.00  0.00     0.298 A 
ATOM      8  O   UNK d   1      23.882  78.743  10.242  0.00  0.00    -0.264 OA
ATOM      9  N   UNK d   1      21.722  78.579  10.765  0.00  0.00    -0.115 N 
ATOM     10  C   UNK d   1      20.800  78.495  11.741  0.00  0.00     0.716 A 
ATOM     11  N   UNK d   1      19.612  78.422  11.116  0.00  0.00    -0.062 NA
ATOM     12  C   UNK d   1      19.749  78.456   9.778  0.00  0.00     0.102 A 
ATOM     13  C   UNK d   1      21.105  78.558   9.552  0.00  0.00     0.152 A 
ATOM     14  N   UNK d   1      21.156  78.495  13.057  0.00  0.00    -0.171 N 
ATOM     15  H   UNK d   1      20.436  78.429  13.812  0.00  0.00     0.186 HD
ENDROOT
BRANCH   1  16
ATOM     16  C   UNK d   1      22.342  78.524  15.982  0.00  0.00     0.263 C 
ATOM     17  O   UNK d   1      20.958  78.592  15.837  0.00  0.00    -0.353 OA
ATOM     18  C   UNK d   1      20.433  79.080  17.002  0.00  0.00     0.180 C 
ATOM     19  C   UNK d   1      21.463  80.110  17.472  0.00  0.00     0.197 C 
ATOM     20  C   UNK d   1      19.135  79.830  16.824  0.00  0.00     0.214 C 
ATOM     21  O   UNK d   1      21.421  80.087  18.863  0.00  0.00    -0.292 OA
ATOM     22  C   UNK d   1      22.760  79.612  16.910  0.00  0.00     0.199 C 
ATOM     23  P   UNK d   1      19.780  80.038  19.298  0.00  0.00     0.422 P 
ATOM     24  S   UNK d   1      19.520  81.226  20.537  0.00  0.00     0.009 SA
ATOM     25  O   UNK d   1      18.784  80.456  17.999  0.00  0.00    -0.300 OA
ATOM     26  O   UNK d   1      19.321  78.497  19.817  0.00  0.00    -0.240 OA
BRANCH  22  27
ATOM     27  O   UNK d   1      23.581  79.119  17.933  0.00  0.00    -0.388 OA
ATOM     28  H   UNK d   1      24.288  79.751  18.175  0.00  0.00     0.210 HD
ENDBRANCH  22  27
ENDBRANCH   1  16
BRANCH  12  29
ATOM     29  C   UNK d   1      18.684  78.400   8.767  0.00  0.00    -0.005 A 
ATOM     30  C   UNK d   1      18.572  77.307   7.938  0.00  0.00     0.014 A 
ATOM     31  C   UNK d   1      17.576  77.224   6.973  0.00  0.00     0.001 A 
ATOM     32  C   UNK d   1      16.685  78.265   6.851  0.00  0.00     0.000 A 
ATOM     33  C   UNK d   1      16.763  79.384   7.666  0.00  0.00     0.001 A 
ATOM     34  C   UNK d   1      17.771  79.412   8.606  0.00  0.00     0.014 A 
ENDBRANCH  12  29
TORSDOF 3
ENDMDL
