MODEL 1
REMARK VINA RESULT:    -8.679      0.000      0.000
REMARK INTER + INTRA:          -8.552
REMARK INTER:                  -9.693
REMARK INTRA:                   1.142
REMARK UNBOUND:                 1.142
REMARK  3 active torsions:
REMARK  status: ('A' for Active; 'I' for Inactive)
REMARK    1  A    between atoms: C_7  and  N_10 
REMARK    2  A    between atoms: C_8  and  O_9 
REMARK    3  A    between atoms: C_15  and  N_20 
ROOT
ATOM      1  P   UNK d   1      19.393  83.126  20.721  0.00  0.00     0.422 P 
ATOM      2  S   UNK d   1      20.642  82.905  21.920  0.00  0.00     0.009 SA
ATOM      3  O   UNK d   1      18.947  81.613  20.069  0.00  0.00    -0.292 OA
ATOM      4  C   UNK d   1      19.983  81.206  19.265  0.00  0.00     0.197 C 
ATOM      5  C   UNK d   1      20.140  82.216  18.120  0.00  0.00     0.180 C 
ATOM      6  O   UNK d   1      20.951  81.482  17.256  0.00  0.00    -0.353 OA
ATOM      7  C   UNK d   1      20.369  80.240  17.163  0.00  0.00     0.263 C 
ATOM      8  C   UNK d   1      19.661  79.958  18.464  0.00  0.00     0.199 C 
ATOM      9  C   UNK d   1      20.784  83.481  18.595  0.00  0.00     0.214 C 
ATOM     10  O   UNK d   1      19.920  84.107  19.475  0.00  0.00    -0.300 OA
ATOM     11  O   UNK d   1      18.056  83.779  21.479  0.00  0.00    -0.240 OA
ENDROOT
BRANCH   7  12
ATOM     12  N   UNK d   1      21.334  79.177  16.954  0.00  0.00    -0.278 N 
ATOM     13  C   UNK d   1      22.257  79.172  15.959  0.00  0.00     0.168 A 
ATOM     14  N   UNK d   1      22.528  80.058  14.966  0.00  0.00    -0.221 NA
ATOM     15  C   UNK d   1      23.006  78.018  16.059  0.00  0.00     0.151 A 
ATOM     16  C   UNK d   1      23.515  79.827  14.078  0.00  0.00     0.237 A 
ATOM     17  N   UNK d   1      24.253  78.694  14.172  0.00  0.00    -0.222 NA
ATOM     18  C   UNK d   1      24.015  77.793  15.141  0.00  0.00     0.155 A 
ATOM     19  N   UNK d   1      22.537  77.326  17.114  0.00  0.00    -0.216 NA
ATOM     20  C   UNK d   1      21.523  78.042  17.647  0.00  0.00     0.182 A 
ATOM     21 Br   UNK d   1      20.453  77.577  19.173  0.00  0.00    -0.008 Br
BRANCH  18  22
ATOM     22  N   UNK d   1      24.804  76.602  15.228  0.00  0.00    -0.382 N 
ATOM     23  H   UNK d   1      25.099  76.129  14.330  0.00  0.00     0.157 HD
ATOM     24  H   UNK d   1      25.095  76.189  16.135  0.00  0.00     0.157 HD
ENDBRANCH  18  22
ENDBRANCH   7  12
BRANCH   8  25
ATOM     25  O   UNK d   1      18.286  79.999  18.200  0.00  0.00    -0.388 OA
ATOM     26  H   UNK d   1      18.063  79.751  17.284  0.00  0.00     0.210 HD
ENDBRANCH   8  25
TORSDOF 3
ENDMDL
