MODEL 1
REMARK VINA RESULT:    -8.464      0.000      0.000
REMARK INTER + INTRA:          -8.860
REMARK INTER:                  -9.454
REMARK INTRA:                   0.594
REMARK UNBOUND:                 0.594
REMARK  3 active torsions:
REMARK  status: ('A' for Active; 'I' for Inactive)
REMARK    1  A    between atoms: C_7  and  N_10 
REMARK    2  A    between atoms: C_8  and  O_9 
REMARK    3  A    between atoms: C_15  and  N_20 
ROOT
ATOM      1  P   UNK d   1      19.333  84.198  20.437  0.00  0.00     0.408 P 
ATOM      2  O   UNK d   1      19.620  84.956  21.735  0.00  0.00    -0.624 OA
ATOM      3  O   UNK d   1      19.453  82.558  20.773  0.00  0.00    -0.279 OA
ATOM      4  C   UNK d   1      20.201  81.897  19.833  0.00  0.00     0.198 C 
ATOM      5  C   UNK d   1      19.938  82.595  18.492  0.00  0.00     0.180 C 
ATOM      6  O   UNK d   1      20.119  81.650  17.527  0.00  0.00    -0.353 OA
ATOM      7  C   UNK d   1      19.906  80.404  18.047  0.00  0.00     0.263 C 
ATOM      8  C   UNK d   1      19.711  80.508  19.520  0.00  0.00     0.199 C 
ATOM      9  C   UNK d   1      20.879  83.756  18.438  0.00  0.00     0.216 C 
ATOM     10  O   UNK d   1      20.427  84.731  19.295  0.00  0.00    -0.287 OA
ATOM     11  O   UNK d   1      17.723  84.596  20.016  0.00  0.00    -0.624 OA
ENDROOT
BRANCH   7  12
ATOM     12  N   UNK d   1      21.046  79.571  17.686  0.00  0.00    -0.278 N 
ATOM     13  C   UNK d   1      21.990  79.876  16.765  0.00  0.00     0.168 A 
ATOM     14  N   UNK d   1      22.136  80.954  15.977  0.00  0.00    -0.221 NA
ATOM     15  C   UNK d   1      22.897  78.838  16.712  0.00  0.00     0.151 A 
ATOM     16  C   UNK d   1      23.177  81.017  15.131  0.00  0.00     0.237 A 
ATOM     17  N   UNK d   1      24.061  80.003  15.082  0.00  0.00    -0.222 NA
ATOM     18  C   UNK d   1      23.979  78.898  15.838  0.00  0.00     0.155 A 
ATOM     19  N   UNK d   1      22.512  77.914  17.589  0.00  0.00    -0.216 NA
ATOM     20  C   UNK d   1      21.389  78.368  18.174  0.00  0.00     0.182 A 
ATOM     21 Br   UNK d   1      20.355  77.474  19.534  0.00  0.00    -0.008 Br
BRANCH  18  22
ATOM     22  N   UNK d   1      24.905  77.822  15.794  0.00  0.00    -0.382 N 
ATOM     23  H   UNK d   1      25.583  77.784  14.976  0.00  0.00     0.157 HD
ATOM     24  H   UNK d   1      24.967  77.080  16.498  0.00  0.00     0.157 HD
ENDBRANCH  18  22
ENDBRANCH   7  12
BRANCH   8  25
ATOM     25  O   UNK d   1      18.399  80.358  19.921  0.00  0.00    -0.388 OA
ATOM     26  H   UNK d   1      18.299  79.982  20.811  0.00  0.00     0.210 HD
ENDBRANCH   8  25
TORSDOF 3
ENDMDL
