/Users/jonathanwahrer/Desktop/Msc/3_Semester/Drug_Design_Praktikum/waehrer_HTS_screening/HTS_experiment/out/docking_results/vina_output/6e43/1011_docked.pdbqt
 OpenBabel03212220173D

 29 32  0  0  0  0  0  0  0  0999 V2000
   21.4480   78.0420   15.7910 C   0  0  0  0  0  0  0  0  0  0  0  0
   20.6860   77.0770   15.1240 C   0  0  0  0  0  3  0  0  0  0  0  0
   20.5490   77.1170   13.7540 C   0  0  0  0  0  0  0  0  0  0  0  0
   21.1440   78.0950   12.9780 C   0  0  0  0  0  0  0  0  0  0  0  0
   21.8910   79.0430   13.6200 C   0  0  0  0  0  3  0  0  0  0  0  0
   22.0350   79.0080   15.0110 C   0  0  0  0  0  0  0  0  0  0  0  0
   23.0760   80.3480   15.9040 Br  0  0  0  0  0  0  0  0  0  0  0  0
   20.7950   77.8680   11.5480 C   0  0  0  0  0  2  0  0  0  0  0  0
   19.5430   76.9740   11.6710 C   0  0  0  0  0  2  0  0  0  0  0  0
   19.8250   76.2270   12.8860 N   0  0  0  0  0  0  0  0  0  0  0  0
   19.4980   74.8930   13.2230 C   0  0  0  0  0  0  0  0  0  0  0  0
   19.8260   74.3660   14.3110 O   0  0  0  0  0  0  0  0  0  0  0  0
   21.6090   77.9640   17.5250 S   0  0  0  0  0  0  0  0  0  0  0  0
   20.8480   76.7560   18.0610 O   0  0  0  0  0  0  0  0  0  0  0  0
   23.0270   77.7770   17.9470 O   0  0  0  0  0  0  0  0  0  0  0  0
   20.8830   79.3390   18.2650 N   0  0  0  0  0  0  0  0  0  0  0  0
   21.0920   79.3040   19.2820 H   0  0  0  0  0  0  0  0  0  0  0  0
   19.4540   79.4110   18.0320 C   0  0  0  0  0  2  0  0  0  0  0  0
   18.8590   80.1040   19.2480 C   0  0  0  0  0  2  0  0  0  0  0  0
   19.8880   80.9590   19.9390 C   0  0  0  0  0  2  0  0  0  0  0  0
   19.5190   82.3180   19.8050 N   0  0  0  0  0  0  0  0  0  0  0  0
   19.3020   83.0390   21.0090 C   0  0  0  0  0  2  0  0  0  0  0  0
   18.4490   84.2560   20.6920 C   0  0  0  0  0  2  0  0  0  0  0  0
   18.8550   84.8700   19.5240 O   0  0  0  0  0  0  0  0  0  0  0  0
   20.1410   84.5200   19.1300 C   0  0  0  0  0  2  0  0  0  0  0  0
   20.0980   83.0420   18.7340 C   0  0  0  0  0  2  0  0  0  0  0  0
   18.7340   74.0790   12.2470 C   0  0  0  0  0  3  0  0  0  0  0  0
   17.4640   73.5290   12.7550 C   0  0  0  0  0  2  0  0  0  0  0  0
   18.6150   72.6100   12.4260 C   0  0  0  0  0  2  0  0  0  0  0  0
  1 13  1  0  0  0  0
  2  1  1  0  0  0  0
  3  2  2  0  0  0  0
  4  5  2  0  0  0  0
  4  3  1  0  0  0  0
  5  6  1  0  0  0  0
  6  1  2  0  0  0  0
  6  7  1  0  0  0  0
  8  9  1  0  0  0  0
  8  4  1  0  0  0  0
  9 10  1  0  0  0  0
 10 11  1  0  0  0  0
 10  3  1  0  0  0  0
 11 12  2  0  0  0  0
 13 15  2  0  0  0  0
 13 14  2  0  0  0  0
 13 16  1  0  0  0  0
 16 17  1  0  0  0  0
 18 16  1  0  0  0  0
 18 19  1  0  0  0  0
 19 20  1  0  0  0  0
 21 20  1  0  0  0  0
 21 22  1  0  0  0  0
 23 22  1  0  0  0  0
 24 23  1  0  0  0  0
 25 24  1  0  0  0  0
 26 25  1  0  0  0  0
 26 21  1  0  0  0  0
 27 29  1  0  0  0  0
 27 28  1  0  0  0  0
 27 11  1  0  0  0  0
 29 28  1  0  0  0  0
M  END
>  <Pose>
1

>  <Score>
-9.371

$$$$
