/Users/jonathanwahrer/Desktop/Msc/3_Semester/Drug_Design_Praktikum/waehrer_HTS_screening/HTS_experiment/out/docking_results/vina_output/6e43/1027_docked.pdbqt
 OpenBabel03212220173D

 32 35  0  0  0  0  0  0  0  0999 V2000
   20.8880   77.4270   17.5690 N   0  0  0  0  0  0  0  0  0  0  0  0
   19.7350   78.0060   17.0450 C   0  0  0  0  0  2  0  0  0  0  0  0
   19.1850   79.1420   17.8170 C   0  0  0  0  0  0  0  0  0  0  0  0
   18.5070   80.0370   17.2560 O   0  0  0  0  0  0  0  0  0  0  0  0
   19.4670   79.1540   19.2120 N   0  0  0  0  0  0  0  0  0  0  0  0
   19.9910   77.9570   19.7630 C   0  0  0  0  0  0  0  0  0  0  0  0
   19.7880   77.7270   20.9890 O   0  0  0  0  0  0  0  0  0  0  0  0
   20.7560   76.9890   18.9510 C   0  0  0  0  0  2  0  0  0  0  0  0
   22.4120   78.0240   17.2060 S   0  0  0  0  0  0  0  0  0  0  0  0
   23.4310   76.9510   17.5910 O   0  0  0  0  0  0  0  0  0  0  0  0
   22.7500   79.1930   18.1020 O   0  0  0  0  0  0  0  0  0  0  0  0
   22.7290   78.4240   15.5400 C   0  0  0  0  0  0  0  0  0  0  0  0
   21.7620   78.0930   14.5830 C   0  0  0  0  0  3  0  0  0  0  0  0
   21.9210   78.2960   13.2310 C   0  0  0  0  0  0  0  0  0  0  0  0
   23.0870   78.8540   12.7520 C   0  0  0  0  0  0  0  0  0  0  0  0
   21.0700   78.0290   12.1140 N   0  0  0  0  0  0  0  0  0  0  0  0
   24.0460   79.1860   13.6770 C   0  0  0  0  0  3  0  0  0  0  0  0
   23.0360   78.9820   11.2750 C   0  0  0  0  0  2  0  0  0  0  0  0
   23.8780   78.9780   15.0560 C   0  0  0  0  0  0  0  0  0  0  0  0
   25.2470   79.5770   16.2570 Br  0  0  0  0  0  0  0  0  0  0  0  0
   21.5360   78.8560   11.0070 C   0  0  0  0  0  2  0  0  0  0  0  0
   19.9840   77.1380   12.0460 C   0  0  0  0  0  0  0  0  0  0  0  0
   19.3250   77.0610   10.9520 O   0  0  0  0  0  0  0  0  0  0  0  0
   19.5170   76.2550   13.1410 C   0  0  0  0  0  1  0  0  0  0  0  0
   19.2160   80.3410   20.0010 C   0  0  0  0  0  2  0  0  0  0  0  0
   20.3210   81.3400   19.9930 C   0  0  0  0  0  2  0  0  0  0  0  0
   19.9360   82.7220   20.2710 C   0  0  0  0  0  0  0  0  0  0  0  0
   20.1270   83.7290   19.3660 C   0  0  0  0  0  3  0  0  0  0  0  0
   19.7480   85.0010   19.6910 C   0  0  0  0  0  3  0  0  0  0  0  0
   19.1720   85.3070   20.9200 C   0  0  0  0  0  3  0  0  0  0  0  0
   18.9920   84.2820   21.8080 C   0  0  0  0  0  3  0  0  0  0  0  0
   19.3610   82.9920   21.5140 C   0  0  0  0  0  3  0  0  0  0  0  0
  1  8  1  0  0  0  0
  2  1  1  0  0  0  0
  2  3  1  0  0  0  0
  3  5  1  0  0  0  0
  4  3  2  0  0  0  0
  5  6  1  0  0  0  0
  5 25  1  0  0  0  0
  6  7  2  0  0  0  0
  8  6  1  0  0  0  0
  9  1  1  0  0  0  0
  9 10  2  0  0  0  0
  9 11  2  0  0  0  0
 12  9  1  0  0  0  0
 13 12  2  0  0  0  0
 14 13  1  0  0  0  0
 15 14  2  0  0  0  0
 15 17  1  0  0  0  0
 16 14  1  0  0  0  0
 17 19  2  0  0  0  0
 18 15  1  0  0  0  0
 19 12  1  0  0  0  0
 19 20  1  0  0  0  0
 21 18  1  0  0  0  0
 21 16  1  0  0  0  0
 22 16  1  0  0  0  0
 22 24  1  0  0  0  0
 23 22  2  0  0  0  0
 26 25  1  0  0  0  0
 26 27  1  0  0  0  0
 27 32  1  0  0  0  0
 28 29  1  0  0  0  0
 28 27  2  0  0  0  0
 29 30  2  0  0  0  0
 30 31  1  0  0  0  0
 32 31  2  0  0  0  0
M  END
>  <Pose>
1

>  <Score>
-11.331

$$$$
