MODEL 1
REMARK VINA RESULT:   -11.331      0.000      0.000
REMARK INTER + INTRA:         -15.100
REMARK INTER:                 -14.643
REMARK INTRA:                  -0.457
REMARK UNBOUND:                -0.457
REMARK  5 active torsions:
REMARK  status: ('A' for Active; 'I' for Inactive)
REMARK    1  A    between atoms: S_1  and  N_4 
REMARK    2  A    between atoms: S_1  and  C_20 
REMARK    3  A    between atoms: N_8  and  C_12 
REMARK    4  A    between atoms: C_12  and  C_13 
REMARK    5  A    between atoms: C_13  and  C_14 
REMARK       I    between atoms: N_29  and  C_30 
ROOT
ATOM      1  N   UNK d   1      20.888  77.427  17.569  0.00  0.00    -0.289 N 
ATOM      2  C   UNK d   1      19.735  78.006  17.045  0.00  0.00     0.239 C 
ATOM      3  C   UNK d   1      19.185  79.142  17.817  0.00  0.00     0.245 C 
ATOM      4  O   UNK d   1      18.507  80.037  17.256  0.00  0.00    -0.271 OA
ATOM      5  N   UNK d   1      19.467  79.154  19.212  0.00  0.00    -0.285 N 
ATOM      6  C   UNK d   1      19.991  77.957  19.763  0.00  0.00     0.245 C 
ATOM      7  O   UNK d   1      19.788  77.727  20.989  0.00  0.00    -0.271 OA
ATOM      8  C   UNK d   1      20.756  76.989  18.951  0.00  0.00     0.239 C 
ENDROOT
BRANCH   1   9
ATOM      9  S   UNK d   1      22.412  78.024  17.206  0.00  0.00     0.263 S 
ATOM     10  O   UNK d   1      23.431  76.951  17.591  0.00  0.00    -0.200 OA
ATOM     11  O   UNK d   1      22.750  79.193  18.102  0.00  0.00    -0.200 OA
BRANCH   9  12
ATOM     12  C   UNK d   1      22.729  78.424  15.540  0.00  0.00     0.099 A 
ATOM     13  C   UNK d   1      21.762  78.093  14.583  0.00  0.00     0.057 A 
ATOM     14  C   UNK d   1      21.921  78.296  13.231  0.00  0.00     0.045 A 
ATOM     15  C   UNK d   1      23.087  78.854  12.752  0.00  0.00    -0.028 A 
ATOM     16  N   UNK d   1      21.070  78.029  12.114  0.00  0.00    -0.318 N 
ATOM     17  C   UNK d   1      24.046  79.186  13.677  0.00  0.00     0.030 A 
ATOM     18  C   UNK d   1      23.036  78.982  11.275  0.00  0.00     0.061 C 
ATOM     19  C   UNK d   1      23.878  78.978  15.056  0.00  0.00     0.035 A 
ATOM     20 Br   UNK d   1      25.247  79.577  16.257  0.00  0.00    -0.049 Br
ATOM     21  C   UNK d   1      21.536  78.856  11.007  0.00  0.00     0.137 C 
ATOM     22  C   UNK d   1      19.984  77.138  12.046  0.00  0.00     0.220 C 
ATOM     23  O   UNK d   1      19.325  77.061  10.952  0.00  0.00    -0.273 OA
ATOM     24  C   UNK d   1      19.517  76.255  13.141  0.00  0.00     0.117 C 
ENDBRANCH   9  12
ENDBRANCH   1   9
BRANCH   5  25
ATOM     25  C   UNK d   1      19.216  80.341  20.001  0.00  0.00     0.139 C 
BRANCH  25  26
ATOM     26  C   UNK d   1      20.321  81.340  19.993  0.00  0.00     0.059 C 
BRANCH  26  27
ATOM     27  C   UNK d   1      19.936  82.722  20.271  0.00  0.00    -0.057 A 
ATOM     28  C   UNK d   1      20.127  83.729  19.366  0.00  0.00     0.007 A 
ATOM     29  C   UNK d   1      19.748  85.001  19.691  0.00  0.00     0.001 A 
ATOM     30  C   UNK d   1      19.172  85.307  20.920  0.00  0.00     0.000 A 
ATOM     31  C   UNK d   1      18.992  84.282  21.808  0.00  0.00     0.001 A 
ATOM     32  C   UNK d   1      19.361  82.992  21.514  0.00  0.00     0.007 A 
ENDBRANCH  26  27
ENDBRANCH  25  26
ENDBRANCH   5  25
TORSDOF 5
ENDMDL
