MODEL 1
REMARK VINA RESULT:    -8.149      0.000      0.000
REMARK INTER + INTRA:         -10.233
REMARK INTER:                 -10.055
REMARK INTRA:                  -0.179
REMARK UNBOUND:                -0.179
REMARK  4 active torsions:
REMARK  status: ('A' for Active; 'I' for Inactive)
REMARK    1  A    between atoms: S_1  and  N_4 
REMARK    2  A    between atoms: S_1  and  C_19 
REMARK       I    between atoms: N_7  and  C_10 
REMARK    3  A    between atoms: C_12  and  N_13 
REMARK    4  A    between atoms: C_22  and  O_30 
ROOT
ATOM      1  S   UNK d   1      19.599  78.645   9.503  0.00  0.00     0.247 S 
ATOM      2  O   UNK d   1      20.135  79.939   9.026  0.00  0.00    -0.206 OA
ATOM      3  O   UNK d   1      18.477  79.021  10.477  0.00  0.00    -0.206 OA
ENDROOT
BRANCH   1   4
ATOM      4  N   UNK d   1      20.711  77.743  10.456  0.00  0.00    -0.203 NA
ATOM      5  C   UNK d   1      20.333  77.604  11.820  0.00  0.00     0.127 C 
ATOM      6  C   UNK d   1      20.803  78.741  12.717  0.00  0.00     0.140 C 
ATOM      7  N   UNK d   1      22.202  78.930  12.525  0.00  0.00    -0.359 N 
ATOM      8  C   UNK d   1      22.531  79.279  11.105  0.00  0.00     0.140 C 
ATOM      9  C   UNK d   1      23.269  78.849  13.397  0.00  0.00     0.173 C 
ATOM     10  C   UNK d   1      22.068  78.132  10.272  0.00  0.00     0.127 C 
ATOM     11  O   UNK d   1      24.446  79.088  12.855  0.00  0.00    -0.175 OA
ATOM     12  C   UNK d   1      23.329  78.549  14.798  0.00  0.00     0.237 C 
BRANCH  12  13
ATOM     13  N   UNK d   1      22.135  78.295  15.518  0.00  0.00    -0.272 N 
ATOM     14  N   UNK d   1      21.482  77.140  15.634  0.00  0.00    -0.183 NA
ATOM     15  C   UNK d   1      20.412  77.274  16.429  0.00  0.00     0.159 A 
ATOM     16  C   UNK d   1      20.402  78.588  16.829  0.00  0.00     0.047 A 
ATOM     17  C   UNK d   1      21.470  79.216  16.263  0.00  0.00     0.133 A 
ATOM     18 Br   UNK d   1      19.103  79.405  17.990  0.00  0.00    -0.048 Br
ENDBRANCH  12  13
ENDBRANCH   1   4
BRANCH   1  19
ATOM     19  C   UNK d   1      18.841  77.671   8.282  0.00  0.00     0.118 A 
ATOM     20  C   UNK d   1      19.220  76.342   8.047  0.00  0.00     0.131 A 
ATOM     21  C   UNK d   1      18.614  75.575   7.072  0.00  0.00     0.140 A 
ATOM     22  O   UNK d   1      20.198  75.591   8.691  0.00  0.00    -0.321 OA
ATOM     23  C   UNK d   1      17.604  76.089   6.285  0.00  0.00     0.113 A 
ATOM     24  O   UNK d   1      19.208  74.332   7.095  0.00  0.00    -0.320 OA
ATOM     25  C   UNK d   1      17.230  77.386   6.508  0.00  0.00     0.004 A 
ATOM     26  C   UNK d   1      17.848  78.147   7.494  0.00  0.00    -0.020 A 
ATOM     27  C   UNK d   1      16.161  78.079   5.752  0.00  0.00     0.158 C 
ATOM     28  C   UNK d   1      17.346  79.527   7.609  0.00  0.00     0.060 C 
ATOM     29  C   UNK d   1      15.834  79.549   7.662  0.00  0.00     0.121 C 
ATOM     30  N   UNK d   1      15.278  78.663   6.711  0.00  0.00    -0.412 N 
ATOM     31  C   UNK d   1      14.211  77.834   7.150  0.00  0.00     0.143 C 
ATOM     32  C   UNK d   1      20.282  74.358   7.993  0.00  0.00     0.352 C 
BRANCH  23  33
ATOM     33  O   UNK d   1      16.981  75.312   5.288  0.00  0.00    -0.352 OA
ATOM     34  C   UNK d   1      17.614  75.208   4.005  0.00  0.00     0.210 C 
ENDBRANCH  23  33
ENDBRANCH   1  19
TORSDOF 4
ENDMDL
