/Users/jonathanwahrer/Desktop/Msc/3_Semester/Drug_Design_Praktikum/waehrer_HTS_screening/HTS_experiment/out/docking_results/vina_output/6e43/1042_docked.pdbqt
 OpenBabel03212220183D

 31 34  0  0  0  0  0  0  0  0999 V2000
   20.9610   78.6590   10.4290 N   0  0  0  0  0  0  0  0  0  0  0  0
   20.5780   79.7910   11.1280 C   0  0  0  0  0  2  0  0  0  0  0  0
   21.8610   80.5720   11.5240 C   0  0  0  0  0  2  0  0  0  0  0  0
   22.7800   79.6860   12.1830 N   0  0  0  0  0  0  0  0  0  0  0  0
   23.2160   78.5280   11.4370 C   0  0  0  0  0  2  0  0  0  0  0  0
   22.3650   78.4630   10.1880 C   0  0  0  0  0  2  0  0  0  0  0  0
   23.2630   79.8920   13.4890 C   0  0  0  0  0  0  0  0  0  0  0  0
   22.8820   80.8970   14.1300 O   0  0  0  0  0  0  0  0  0  0  0  0
   24.2000   78.9510   14.1050 C   0  0  0  0  0  2  0  0  0  0  0  0
   23.8650   78.7390   15.5110 N   0  0  0  0  0  0  0  0  0  0  0  0
   24.5830   79.0940   16.6740 C   0  0  0  0  0  0  0  0  0  0  0  0
   25.7080   79.6940   16.6860 O   0  0  0  0  0  0  0  0  0  0  0  0
   23.8230   78.6600   17.7950 N   0  0  0  0  0  0  0  0  0  0  0  0
   22.4670   78.4880   17.3430 C   0  0  0  0  0  0  0  0  0  0  0  0
   24.2520   78.5180   18.7430 H   0  0  0  0  0  0  0  0  0  0  0  0
   21.6210   79.7100   17.4910 C   0  0  0  0  0  2  0  0  0  0  0  0
   21.7290   77.4350   18.1380 C   0  0  0  0  0  2  0  0  0  0  0  0
   22.6520   78.0800   15.9300 C   0  0  0  0  0  0  0  0  0  0  0  0
   20.2100   79.1320   17.3270 C   0  0  0  0  0  2  0  0  0  0  0  0
   20.2860   77.7960   18.0130 C   0  0  0  0  0  2  0  0  0  0  0  0
   21.9110   77.3280   15.2580 O   0  0  0  0  0  0  0  0  0  0  0  0
   19.9160   77.6990    9.5750 S   0  0  0  0  0  0  0  0  0  0  0  0
   18.6250   78.4920    9.3330 O   0  0  0  0  0  0  0  0  0  0  0  0
   20.4190   77.4240    8.1540 O   0  0  0  0  0  0  0  0  0  0  0  0
   19.4070   76.2000   10.2880 C   0  0  0  0  0  0  0  0  0  0  0  0
   19.0570   75.0590    9.6180 C   0  0  0  0  0  0  0  0  0  0  0  0
   18.6090   73.9150   10.2880 C   0  0  0  0  0  3  0  0  0  0  0  0
   19.2460   74.9980    7.7310 Br  0  0  0  0  0  0  0  0  0  0  0  0
   18.4990   73.8770   11.6420 C   0  0  0  0  0  3  0  0  0  0  0  0
   18.8440   75.0020   12.3430 C   0  0  0  0  0  3  0  0  0  0  0  0
   19.2840   76.1280   11.6880 C   0  0  0  0  0  3  0  0  0  0  0  0
  1  2  1  0  0  0  0
  2  3  1  0  0  0  0
  3  4  1  0  0  0  0
  4  7  1  0  0  0  0
  5  4  1  0  0  0  0
  6  1  1  0  0  0  0
  6  5  1  0  0  0  0
  7  9  1  0  0  0  0
  7  8  2  0  0  0  0
  9 10  1  0  0  0  0
 10 18  1  0  0  0  0
 10 11  1  0  0  0  0
 11 12  2  0  0  0  0
 11 13  1  0  0  0  0
 13 15  1  0  0  0  0
 14 16  1  0  0  0  0
 14 13  1  0  0  0  0
 14 17  1  0  0  0  0
 18 14  1  0  0  0  0
 19 16  1  0  0  0  0
 19 20  1  0  0  0  0
 20 17  1  0  0  0  0
 21 18  2  0  0  0  0
 22 25  1  0  0  0  0
 22  1  1  0  0  0  0
 23 22  2  0  0  0  0
 24 22  2  0  0  0  0
 25 31  1  0  0  0  0
 26 25  2  0  0  0  0
 26 27  1  0  0  0  0
 27 29  2  0  0  0  0
 28 26  1  0  0  0  0
 29 30  1  0  0  0  0
 31 30  2  0  0  0  0
M  END
>  <Pose>
1

>  <Score>
-9.802

$$$$
