/Users/jonathanwahrer/Desktop/Msc/3_Semester/Drug_Design_Praktikum/waehrer_HTS_screening/HTS_experiment/out/docking_results/vina_output/6e43/1044_docked.pdbqt
 OpenBabel03212220183D

 30 33  0  0  0  0  0  0  0  0999 V2000
   20.3480   79.3130   17.7110 N   0  0  0  0  0  0  0  0  0  0  0  0
   20.8610   80.4010   17.0040 C   0  0  0  0  0  2  0  0  0  0  0  0
   20.7180   81.7420   17.6330 C   0  0  0  0  0  2  0  0  0  0  0  0
   20.6290   81.7280   19.0580 N   0  0  0  0  0  0  0  0  0  0  0  0
   20.6930   80.4610   19.7530 C   0  0  0  0  0  2  0  0  0  0  0  0
   19.7740   79.5200   18.9780 C   0  0  0  0  0  2  0  0  0  0  0  0
   20.4790   82.9110   19.8220 C   0  0  0  0  0  0  0  0  0  0  0  0
   20.4190   84.0480   19.2540 O   0  0  0  0  0  0  0  0  0  0  0  0
   21.0170   77.7910   17.4060 S   0  0  0  0  0  0  0  0  0  0  0  0
   22.4710   77.6980   17.6560 O   0  0  0  0  0  0  0  0  0  0  0  0
   20.3420   76.7950   18.3410 O   0  0  0  0  0  0  0  0  0  0  0  0
   20.6060   77.2600   15.7790 C   0  0  0  0  0  0  0  0  0  0  0  0
   19.6770   76.2640   15.5590 C   0  0  0  0  0  3  0  0  0  0  0  0
   19.3330   75.8260   14.2970 C   0  0  0  0  0  0  0  0  0  0  0  0
   19.9220   76.3850   13.1810 C   0  0  0  0  0  0  0  0  0  0  0  0
   18.3780   74.7990   14.0660 N   0  0  0  0  0  0  0  0  0  0  0  0
   20.8560   77.3870   13.3980 C   0  0  0  0  0  3  0  0  0  0  0  0
   19.5960   75.9640   11.8930 O   0  0  0  0  0  0  0  0  0  0  0  0
   21.1950   77.8200   14.6630 C   0  0  0  0  0  3  0  0  0  0  0  0
   18.8540   74.7950   11.6040 C   0  0  0  0  0  2  0  0  0  0  0  0
   18.0310   74.3560   12.7590 C   0  0  0  0  0  0  0  0  0  0  0  0
   17.0550   73.6010   12.5160 O   0  0  0  0  0  0  0  0  0  0  0  0
   17.9230   74.3670   14.8980 H   0  0  0  0  0  0  0  0  0  0  0  0
   20.3870   82.9150   21.2760 C   0  0  0  0  0  0  0  0  0  0  0  0
   19.3610   83.5520   21.9500 C   0  0  0  0  0  0  0  0  0  0  0  0
   19.2630   83.5630   23.3220 C   0  0  0  0  0  3  0  0  0  0  0  0
   18.0500   84.4420   20.8840 Br  0  0  0  0  0  0  0  0  0  0  0  0
   20.2410   82.9020   24.0490 C   0  0  0  0  0  3  0  0  0  0  0  0
   21.2840   82.2510   23.4320 C   0  0  0  0  0  3  0  0  0  0  0  0
   21.3370   82.2700   22.0560 C   0  0  0  0  0  3  0  0  0  0  0  0
  1  6  1  0  0  0  0
  2  3  1  0  0  0  0
  2  1  1  0  0  0  0
  3  4  1  0  0  0  0
  4  5  1  0  0  0  0
  4  7  1  0  0  0  0
  6  5  1  0  0  0  0
  7 24  1  0  0  0  0
  8  7  2  0  0  0  0
  9 10  2  0  0  0  0
  9  1  1  0  0  0  0
  9 11  2  0  0  0  0
 12  9  1  0  0  0  0
 13 12  1  0  0  0  0
 14 13  2  0  0  0  0
 15 17  2  0  0  0  0
 15 14  1  0  0  0  0
 16 14  1  0  0  0  0
 16 23  1  0  0  0  0
 17 19  1  0  0  0  0
 18 15  1  0  0  0  0
 19 12  2  0  0  0  0
 20 18  1  0  0  0  0
 20 21  1  0  0  0  0
 21 16  1  0  0  0  0
 22 21  2  0  0  0  0
 24 25  2  0  0  0  0
 24 30  1  0  0  0  0
 25 26  1  0  0  0  0
 26 28  2  0  0  0  0
 27 25  1  0  0  0  0
 29 28  1  0  0  0  0
 30 29  2  0  0  0  0
M  END
>  <Pose>
1

>  <Score>
-11.335

$$$$
