/Users/jonathanwahrer/Desktop/Msc/3_Semester/Drug_Design_Praktikum/waehrer_HTS_screening/HTS_experiment/out/docking_results/vina_output/6e43/1061_docked.pdbqt
 OpenBabel03212220193D

 30 34  0  0  1  0  0  0  0  0999 V2000
   21.8670   78.3110   17.2310 N   0  0  0  0  0  0  0  0  0  0  0  0
   21.8470   77.4230   16.0980 C   0  0  0  0  0  2  0  0  0  0  0  0
   22.6380   77.9810   14.9380 C   0  0  0  0  0  2  0  0  0  0  0  0
   22.1500   79.3420   14.5990 N   0  0  0  0  0  0  0  0  0  0  0  0
   22.4270   80.2020   15.7410 C   0  0  0  0  0  2  0  0  0  0  0  0
   22.7340   79.4270   17.0110 C   0  0  0  0  0  2  0  0  0  0  0  0
   22.9830   79.7370   13.4830 C   0  0  0  0  0  2  0  0  0  0  0  0
   23.0920   78.8140   12.3450 C   0  0  0  0  0  2  0  0  0  0  0  0
   22.0350   78.7350   11.3950 N   0  0  0  0  0  0  0  0  0  0  0  0
   20.6790   78.3310   11.5450 C   0  0  0  0  0  0  0  0  0  0  0  0
   20.2520   77.5630   12.4190 O   0  0  0  0  0  0  0  0  0  0  0  0
   19.8670   78.9790   10.4860 C   0  0  1  0  0  3  0  0  0  0  0  0
   20.9240   79.1040    9.3640 C   0  0  2  0  0  3  0  0  0  0  0  0
   18.9390   77.9930    9.8730 C   0  0  2  0  0  3  0  0  0  0  0  0
   20.6780   77.9580    8.4570 C   0  0  1  0  0  3  0  0  0  0  0  0
   22.2220   79.1440   10.0220 C   0  0  0  0  0  0  0  0  0  0  0  0
   19.9670   76.9570    9.3830 C   0  0  0  0  0  2  0  0  0  0  0  0
   19.4650   78.3250    7.6280 C   0  0  0  0  0  2  0  0  0  0  0  0
   18.5250   78.5580    8.5440 C   0  0  0  0  0  2  0  0  0  0  0  0
   23.2960   79.4800    9.4630 O   0  0  0  0  0  0  0  0  0  0  0  0
   20.3970   78.5980   17.9910 S   0  0  0  0  0  0  0  0  0  0  0  0
   19.2860   78.2160   17.0210 O   0  0  0  0  0  0  0  0  0  0  0  0
   20.2560   77.5810   19.1240 O   0  0  0  0  0  0  0  0  0  0  0  0
   20.1480   80.1550   18.6700 C   0  0  0  0  0  0  0  0  0  0  0  0
   19.9780   80.3140   20.0240 C   0  0  0  0  0  3  0  0  0  0  0  0
   19.7900   81.5850   20.5360 C   0  0  0  0  0  3  0  0  0  0  0  0
   19.7640   82.7120   19.7360 C   0  0  0  0  0  0  0  0  0  0  0  0
   19.9350   82.5480   18.3770 C   0  0  0  0  0  3  0  0  0  0  0  0
   19.5020   84.4650   20.4400 Br  0  0  0  0  0  0  0  0  0  0  0  0
   20.1240   81.2700   17.8630 C   0  0  0  0  0  3  0  0  0  0  0  0
  1 21  1  0  0  0  0
  2  1  1  0  0  0  0
  3  2  1  0  0  0  0
  4  3  1  0  0  0  0
  4  5  1  0  0  0  0
  5  6  1  0  0  0  0
  6  1  1  0  0  0  0
  7  4  1  0  0  0  0
  8  7  1  0  0  0  0
  9 10  1  0  0  0  0
  9  8  1  0  0  0  0
 10 11  2  0  0  0  0
 12 10  1  1  0  0  0
 13 16  1  1  0  0  0
 13 12  1  0  0  0  0
 14 19  1  6  0  0  0
 14 12  1  0  0  0  0
 15 18  1  6  0  0  0
 15 13  1  0  0  0  0
 15 17  1  0  0  0  0
 16  9  1  0  0  0  0
 17 14  1  0  0  0  0
 18 19  1  0  0  0  0
 20 16  2  0  0  0  0
 21 24  1  0  0  0  0
 21 23  2  0  0  0  0
 22 21  2  0  0  0  0
 24 25  1  0  0  0  0
 25 26  2  0  0  0  0
 27 29  1  0  0  0  0
 27 26  1  0  0  0  0
 28 27  2  0  0  0  0
 30 28  1  0  0  0  0
 30 24  2  0  0  0  0
M  END
>  <Pose>
1

>  <Score>
-10.182

$$$$
