/Users/jonathanwahrer/Desktop/Msc/3_Semester/Drug_Design_Praktikum/waehrer_HTS_screening/HTS_experiment/out/docking_results/vina_output/6e43/1073_docked.pdbqt
 OpenBabel03212220193D

 28 31  0  0  0  0  0  0  0  0999 V2000
   20.8230   77.5470   16.5100 N   0  0  0  0  0  0  0  0  0  0  0  0
   20.2390   76.7890   15.4790 C   0  0  0  0  0  2  0  0  0  0  0  0
   21.0400   76.7920   14.2070 C   0  0  0  0  0  2  0  0  0  0  0  0
   21.9530   77.8720   14.0920 N   0  0  0  0  0  0  0  0  0  0  0  0
   22.8540   77.9060   15.1890 C   0  0  0  0  0  2  0  0  0  0  0  0
   22.2280   77.6950   16.5170 C   0  0  0  0  0  2  0  0  0  0  0  0
   21.3120   79.0780   13.7200 C   0  0  0  0  0  2  0  0  0  0  0  0
   21.4740   79.5090   12.3730 N   0  0  0  0  0  0  0  0  0  0  0  0
   20.7220   79.0120   11.4120 N   0  0  0  0  0  0  0  0  0  0  0  0
   20.8140   79.3590   10.1190 C   0  0  0  0  0  0  0  0  0  0  0  0
   21.7630   80.3000    9.7960 C   0  0  0  0  0  3  0  0  0  0  0  0
   22.5810   80.8570   10.7560 C   0  0  0  0  0  3  0  0  0  0  0  0
   22.4030   80.4270   12.0640 C   0  0  0  0  0  0  0  0  0  0  0  0
   23.1640   80.9480   12.9530 O   0  0  0  0  0  0  0  0  0  0  0  0
   19.9810   78.8010    9.0960 N   0  0  0  0  0  0  0  0  0  0  0  0
   20.3440   78.1260    8.0000 C   0  0  0  0  0  3  0  0  0  0  0  0
   19.2350   77.7870    7.3180 N   0  0  0  0  0  0  0  0  0  0  0  0
   18.1540   78.2440    7.9750 C   0  0  0  0  0  3  0  0  0  0  0  0
   18.6410   78.8810    9.0960 C   0  0  0  0  0  3  0  0  0  0  0  0
   20.0250   77.6830   17.9600 S   0  0  0  0  0  0  0  0  0  0  0  0
   18.6260   77.1690   17.9010 O   0  0  0  0  0  0  0  0  0  0  0  0
   20.7600   76.9510   19.0370 O   0  0  0  0  0  0  0  0  0  0  0  0
   19.9350   79.3970   18.4170 C   0  0  0  0  0  0  0  0  0  0  0  0
   20.6370   80.7510   17.6560 S   0  0  0  0  0  0  0  0  0  0  0  0
   20.0760   81.9720   18.7020 C   0  0  0  0  0  0  0  0  0  0  0  0
   19.3440   81.2780   19.6340 C   0  0  0  0  0  3  0  0  0  0  0  0
   20.3770   83.8630   18.6240 Br  0  0  0  0  0  0  0  0  0  0  0  0
   19.2750   79.9470   19.4800 C   0  0  0  0  0  3  0  0  0  0  0  0
  1  6  1  0  0  0  0
  1 20  1  0  0  0  0
  2  1  1  0  0  0  0
  3  2  1  0  0  0  0
  4  3  1  0  0  0  0
  4  5  1  0  0  0  0
  5  6  1  0  0  0  0
  7  4  1  0  0  0  0
  8  7  1  0  0  0  0
  9  8  1  0  0  0  0
 10  9  2  0  0  0  0
 11 10  1  0  0  0  0
 11 12  2  0  0  0  0
 12 13  1  0  0  0  0
 13  8  1  0  0  0  0
 13 14  2  0  0  0  0
 15 19  1  0  0  0  0
 15 10  1  0  0  0  0
 16 15  1  0  0  0  0
 17 18  1  0  0  0  0
 17 16  2  0  0  0  0
 18 19  2  0  0  0  0
 20 23  1  0  0  0  0
 20 22  2  0  0  0  0
 21 20  2  0  0  0  0
 23 28  2  0  0  0  0
 24 23  1  0  0  0  0
 24 25  1  0  0  0  0
 25 26  2  0  0  0  0
 27 25  1  0  0  0  0
 28 26  1  0  0  0  0
M  END
>  <Pose>
1

>  <Score>
-9.260

$$$$
