/Users/jonathanwahrer/Desktop/Msc/3_Semester/Drug_Design_Praktikum/waehrer_HTS_screening/HTS_experiment/out/docking_results/vina_output/6e43/1076_docked.pdbqt
 OpenBabel03212220193D

 29 32  0  0  0  0  0  0  0  0999 V2000
   21.7290   78.5140   15.2300 N   0  0  0  0  0  0  0  0  0  0  0  0
   21.5330   77.1530   14.8390 C   0  0  0  0  0  2  0  0  0  0  0  0
   20.3480   76.6420   15.6770 C   0  0  0  0  0  2  0  0  0  0  0  0
   20.2910   77.2670   16.9260 N   0  0  0  0  0  0  0  0  0  0  0  0
   21.5490   77.6620   17.4990 C   0  0  0  0  0  2  0  0  0  0  0  0
   22.4100   78.4470   16.5350 C   0  0  0  0  0  2  0  0  0  0  0  0
   19.1850   78.0440   17.3020 C   0  0  0  0  0  2  0  0  0  0  0  0
   19.4150   79.2570   18.0170 N   0  0  0  0  0  0  0  0  0  0  0  0
   19.7260   80.4610   17.3350 N   0  0  0  0  0  0  0  0  0  0  0  0
   19.8730   81.4520   18.3490 C   0  0  0  0  0  0  0  0  0  0  0  0
   19.8270   80.5950   16.3010 H   0  0  0  0  0  0  0  0  0  0  0  0
   20.1690   82.7180   18.0840 C   0  0  0  0  0  3  0  0  0  0  0  0
   19.6640   80.9000   19.6390 N   0  0  0  0  0  0  0  0  0  0  0  0
   20.3760   83.9260   18.9150 C   0  0  0  0  0  2  0  0  0  0  0  0
   20.8600   83.5550   20.2960 C   0  0  0  0  0  2  0  0  0  0  0  0
   19.6670   82.9460   21.0110 C   0  0  0  0  0  2  0  0  0  0  0  0
   19.6940   81.4490   20.9610 C   0  0  0  0  0  2  0  0  0  0  0  0
   19.3790   79.5230   19.4120 C   0  0  0  0  0  0  0  0  0  0  0  0
   19.1380   78.7040   20.3340 O   0  0  0  0  0  0  0  0  0  0  0  0
   22.7560   79.3980   14.1850 S   0  0  0  0  0  0  0  0  0  0  0  0
   24.2050   79.0340   14.3750 O   0  0  0  0  0  0  0  0  0  0  0  0
   22.6310   80.8560   14.5630 O   0  0  0  0  0  0  0  0  0  0  0  0
   22.3540   79.2470   12.5180 C   0  0  0  0  0  0  0  0  0  0  0  0
   21.1200   79.4350   11.9680 C   0  0  0  0  0  3  0  0  0  0  0  0
   20.9020   79.2880   10.6060 C   0  0  0  0  0  0  0  0  0  0  0  0
   21.9130   78.9480    9.7570 C   0  0  0  0  0  3  0  0  0  0  0  0
   19.1540   79.5580    9.8540 Br  0  0  0  0  0  0  0  0  0  0  0  0
   23.1790   78.7500   10.2870 C   0  0  0  0  0  3  0  0  0  0  0  0
   23.3820   78.8980   11.6360 C   0  0  0  0  0  3  0  0  0  0  0  0
  1  6  1  0  0  0  0
  2  1  1  0  0  0  0
  2  3  1  0  0  0  0
  3  4  1  0  0  0  0
  4  7  1  0  0  0  0
  4  5  1  0  0  0  0
  6  5  1  0  0  0  0
  7  8  1  0  0  0  0
  8 18  1  0  0  0  0
  9  8  1  0  0  0  0
  9 10  1  0  0  0  0
 10 13  1  0  0  0  0
 11  9  1  0  0  0  0
 12 10  2  0  0  0  0
 12 14  1  0  0  0  0
 13 17  1  0  0  0  0
 14 15  1  0  0  0  0
 15 16  1  0  0  0  0
 17 16  1  0  0  0  0
 18 13  1  0  0  0  0
 18 19  2  0  0  0  0
 20 21  2  0  0  0  0
 20 22  2  0  0  0  0
 20  1  1  0  0  0  0
 23 20  1  0  0  0  0
 24 23  1  0  0  0  0
 25 24  2  0  0  0  0
 26 28  2  0  0  0  0
 26 25  1  0  0  0  0
 27 25  1  0  0  0  0
 28 29  1  0  0  0  0
 29 23  2  0  0  0  0
M  END
>  <Pose>
1

>  <Score>
-10.167

$$$$
