/Users/jonathanwahrer/Desktop/Msc/3_Semester/Drug_Design_Praktikum/waehrer_HTS_screening/HTS_experiment/out/docking_results/vina_output/6e43/1081_docked.pdbqt
 OpenBabel03212220193D

 27 30  0  0  0  0  0  0  0  0999 V2000
   23.4350   79.4480   15.6500 N   0  0  0  0  0  0  0  0  0  0  0  0
   24.0100   79.3260   16.9350 C   0  0  0  0  0  2  0  0  0  0  0  0
   23.0880   79.4310   18.1030 C   0  0  0  0  0  2  0  0  0  0  0  0
   21.7040   79.6410   17.7570 N   0  0  0  0  0  0  0  0  0  0  0  0
   21.3800   80.4310   16.6130 C   0  0  0  0  0  3  0  0  0  0  0  0
   22.3440   80.3310   15.4830 C   0  0  0  0  0  3  0  0  0  0  0  0
   20.7140   79.0400   18.6040 C   0  0  0  0  0  0  0  0  0  0  0  0
   20.0370   79.6610   19.5850 N   0  0  0  0  0  0  0  0  0  0  0  0
   19.2420   78.7240   20.1130 N   0  0  0  0  0  0  0  0  0  0  0  0
   19.4220   77.5820   19.4860 N   0  0  0  0  0  0  0  0  0  0  0  0
   20.3280   77.7380   18.5430 N   0  0  0  0  0  0  0  0  0  0  0  0
   20.1420   81.0260   19.9640 C   0  0  0  0  0  0  0  0  0  0  0  0
   19.5350   82.0210   19.2320 C   0  0  0  0  0  3  0  0  0  0  0  0
   19.6560   83.3510   19.6310 C   0  0  0  0  0  3  0  0  0  0  0  0
   20.3760   83.7000   20.7530 C   0  0  0  0  0  3  0  0  0  0  0  0
   20.9930   82.6880   21.4980 C   0  0  0  0  0  3  0  0  0  0  0  0
   20.8610   81.3610   21.0840 C   0  0  0  0  0  3  0  0  0  0  0  0
   23.3900   78.0460   14.6880 S   0  0  0  0  0  0  0  0  0  0  0  0
   22.7760   76.8670   15.3310 O   0  0  0  0  0  0  0  0  0  0  0  0
   24.8280   77.6590   14.3660 O   0  0  0  0  0  0  0  0  0  0  0  0
   22.6070   78.3940   13.1710 C   0  0  0  0  0  0  0  0  0  0  0  0
   23.2390   79.0280   12.1320 C   0  0  0  0  0  3  0  0  0  0  0  0
   22.6010   79.2980   10.9220 C   0  0  0  0  0  3  0  0  0  0  0  0
   21.2680   78.9020   10.7770 C   0  0  0  0  0  0  0  0  0  0  0  0
   20.6220   78.2650   11.8140 C   0  0  0  0  0  3  0  0  0  0  0  0
   20.3310   79.2380    9.1430 Br  0  0  0  0  0  0  0  0  0  0  0  0
   21.2830   78.0180   12.9850 C   0  0  0  0  0  3  0  0  0  0  0  0
  1  2  1  0  0  0  0
  2  3  1  0  0  0  0
  4  3  1  0  0  0  0
  4  7  1  0  0  0  0
  5  4  1  0  0  0  0
  6  1  1  0  0  0  0
  6  5  2  0  0  0  0
  7  8  1  0  0  0  0
  8 12  1  0  0  0  0
  8  9  1  0  0  0  0
 10  9  2  0  0  0  0
 11  7  2  0  0  0  0
 11 10  1  0  0  0  0
 12 17  1  0  0  0  0
 13 14  1  0  0  0  0
 13 12  2  0  0  0  0
 14 15  2  0  0  0  0
 15 16  1  0  0  0  0
 17 16  2  0  0  0  0
 18 19  2  0  0  0  0
 18  1  1  0  0  0  0
 20 18  2  0  0  0  0
 21 18  1  0  0  0  0
 22 21  2  0  0  0  0
 23 22  1  0  0  0  0
 24 23  2  0  0  0  0
 24 25  1  0  0  0  0
 25 27  2  0  0  0  0
 26 24  1  0  0  0  0
 27 21  1  0  0  0  0
M  END
>  <Pose>
1

>  <Score>
-9.707

$$$$
