/Users/jonathanwahrer/Desktop/Msc/3_Semester/Drug_Design_Praktikum/waehrer_HTS_screening/HTS_experiment/out/docking_results/vina_output/6e43/1089_docked.pdbqt
 OpenBabel03212220203D

 25 28  0  0  0  0  0  0  0  0999 V2000
   21.0870   79.2570    9.9570 N   0  0  0  0  0  0  0  0  0  0  0  0
   22.3300   78.6310    9.7190 C   0  0  0  0  0  2  0  0  0  0  0  0
   23.2680   78.5530   10.8980 C   0  0  0  0  0  2  0  0  0  0  0  0
   22.7620   79.2160   12.0580 N   0  0  0  0  0  0  0  0  0  0  0  0
   21.8500   80.3450   11.9990 C   0  0  0  0  0  2  0  0  0  0  0  0
   21.2130   80.4800   10.6470 C   0  0  0  0  0  2  0  0  0  0  0  0
   23.1460   78.7720   13.3530 C   0  0  0  0  0  0  0  0  0  0  0  0
   24.4100   79.0250   13.8040 N   0  0  0  0  0  0  0  0  0  0  0  0
   24.7890   78.6250   15.0180 C   0  0  0  0  0  3  0  0  0  0  0  0
   23.9670   77.9700   15.8360 N   0  0  0  0  0  0  0  0  0  0  0  0
   22.7300   77.7130   15.4160 C   0  0  0  0  0  0  0  0  0  0  0  0
   21.7090   77.0840   16.0050 N   0  0  0  0  0  0  0  0  0  0  0  0
   22.2650   78.1010   14.1580 C   0  0  0  0  0  0  0  0  0  0  0  0
   20.6520   77.0810   15.1450 C   0  0  0  0  0  3  0  0  0  0  0  0
   20.9920   77.7030   14.0160 N   0  0  0  0  0  0  0  0  0  0  0  0
   20.3710   77.8370   13.1970 H   0  0  0  0  0  0  0  0  0  0  0  0
   19.7320   78.3140   10.2170 S   0  0  0  0  0  0  0  0  0  0  0  0
   18.5060   79.2200   10.2360 O   0  0  0  0  0  0  0  0  0  0  0  0
   19.7450   77.6010   11.5200 O   0  0  0  0  0  0  0  0  0  0  0  0
   19.4030   77.1230    8.9550 C   0  0  0  0  0  0  0  0  0  0  0  0
   18.3820   77.2410    7.5960 S   0  0  0  0  0  0  0  0  0  0  0  0
   18.6350   75.7000    6.9190 C   0  0  0  0  0  0  0  0  0  0  0  0
   19.5280   75.1240    7.7900 C   0  0  0  0  0  3  0  0  0  0  0  0
   17.8790   74.9360    5.3410 Br  0  0  0  0  0  0  0  0  0  0  0  0
   19.9190   75.8620    8.8360 C   0  0  0  0  0  3  0  0  0  0  0  0
  1 17  1  0  0  0  0
  1  6  1  0  0  0  0
  2  1  1  0  0  0  0
  2  3  1  0  0  0  0
  3  4  1  0  0  0  0
  4  7  1  0  0  0  0
  5  4  1  0  0  0  0
  6  5  1  0  0  0  0
  7  8  1  0  0  0  0
  7 13  2  0  0  0  0
  8  9  2  0  0  0  0
  9 10  1  0  0  0  0
 11 10  2  0  0  0  0
 11 12  1  0  0  0  0
 13 11  1  0  0  0  0
 14 12  2  0  0  0  0
 15 13  1  0  0  0  0
 15 14  1  0  0  0  0
 16 15  1  0  0  0  0
 17 18  2  0  0  0  0
 17 19  2  0  0  0  0
 20 17  1  0  0  0  0
 21 20  1  0  0  0  0
 22 21  1  0  0  0  0
 22 23  2  0  0  0  0
 23 25  1  0  0  0  0
 24 22  1  0  0  0  0
 25 20  2  0  0  0  0
M  END
>  <Pose>
1

>  <Score>
-8.327

$$$$
