/Users/jonathanwahrer/Desktop/Msc/3_Semester/Drug_Design_Praktikum/waehrer_HTS_screening/HTS_experiment/out/docking_results/vina_output/6e43/1100_docked.pdbqt
 OpenBabel03212220203D

 26 29  0  0  1  0  0  0  0  0999 V2000
   21.4050   79.6410   17.8500 N   0  0  0  0  0  0  0  0  0  0  0  0
   20.6220   80.5190   17.0470 C   0  0  0  0  0  2  0  0  0  0  0  0
   19.3280   80.9350   17.7170 C   0  0  0  0  0  2  0  0  0  0  0  0
   19.5910   81.0370   19.1290 N   0  0  1  0  0  0  0  0  0  0  0  0
   19.8990   79.8010   19.8030 C   0  0  0  0  0  2  0  0  0  0  0  0
   20.7300   78.9590   18.9020 C   0  0  0  0  0  2  0  0  0  0  0  0
   19.5580   82.2580   19.8410 C   0  0  1  0  0  3  0  0  0  0  0  0
   19.2590   82.3170   21.1390 C   0  0  0  0  0  3  0  0  0  0  0  0
   19.2150   83.5500   21.9040 C   0  0  0  0  0  0  0  0  0  0  0  0
   18.9110   83.5480   23.1910 C   0  0  0  0  0  1  0  0  0  0  0  0
   19.5040   84.7650   21.2460 N   0  0  0  0  0  0  0  0  0  0  0  0
   19.8220   84.6640   19.8500 C   0  0  0  0  0  0  0  0  0  0  0  0
   19.5000   85.6900   21.6970 H   0  0  0  0  0  0  0  0  0  0  0  0
   19.8490   83.4970   19.1870 N   0  0  0  0  0  0  0  0  0  0  0  0
   20.1420   85.6130   18.9350 N   0  0  0  0  0  0  0  0  0  0  0  0
   20.1760   83.7270   17.9130 N   0  0  0  0  0  0  0  0  0  0  0  0
   20.3630   85.0470   17.7370 C   0  0  0  0  0  3  0  0  0  0  0  0
   22.3170   78.5990   16.8670 S   0  0  0  0  0  0  0  0  0  0  0  0
   21.7930   77.1860   16.8690 O   0  0  0  0  0  0  0  0  0  0  0  0
   23.7220   78.5260   17.4460 O   0  0  0  0  0  0  0  0  0  0  0  0
   22.4950   79.2030   15.2210 C   0  0  0  0  0  0  0  0  0  0  0  0
   21.9260   78.4640   13.8020 S   0  0  0  0  0  0  0  0  0  0  0  0
   22.4650   79.6050   12.6590 C   0  0  0  0  0  0  0  0  0  0  0  0
   23.0860   80.5510   13.4290 C   0  0  0  0  0  3  0  0  0  0  0  0
   22.2690   79.6050   10.7380 Br  0  0  0  0  0  0  0  0  0  0  0  0
   23.1010   80.3390   14.7660 C   0  0  0  0  0  3  0  0  0  0  0  0
  1  6  1  0  0  0  0
  2  3  1  0  0  0  0
  2  1  1  0  0  0  0
  4  3  1  6  0  0  0
  4  5  1  0  0  0  0
  4  7  1  0  0  0  0
  6  5  1  0  0  0  0
  7  8  1  1  0  0  0
  8  9  2  0  0  0  0
  9 10  1  0  0  0  0
 11 13  1  0  0  0  0
 11  9  1  0  0  0  0
 12 11  1  0  0  0  0
 14  7  1  0  0  0  0
 14 12  1  0  0  0  0
 15 12  2  0  0  0  0
 16 14  1  0  0  0  0
 17 16  2  0  0  0  0
 17 15  1  0  0  0  0
 18 19  2  0  0  0  0
 18 20  2  0  0  0  0
 18  1  1  0  0  0  0
 21 18  1  0  0  0  0
 22 21  1  0  0  0  0
 23 24  2  0  0  0  0
 23 22  1  0  0  0  0
 24 26  1  0  0  0  0
 25 23  1  0  0  0  0
 26 21  2  0  0  0  0
M  END
>  <Pose>
1

>  <Score>
-9.282

$$$$
