MODEL 1
REMARK VINA RESULT:   -10.262      0.000      0.000
REMARK INTER + INTRA:         -12.645
REMARK INTER:                 -12.062
REMARK INTRA:                  -0.583
REMARK UNBOUND:                -0.583
REMARK  3 active torsions:
REMARK  status: ('A' for Active; 'I' for Inactive)
REMARK    1  A    between atoms: S_1  and  N_4 
REMARK    2  A    between atoms: S_1  and  C_20 
REMARK    3  A    between atoms: N_7  and  C_10 
ROOT
ATOM      1  N   UNK d   1      21.036  77.165  16.697  0.00  0.00    -0.203 NA
ATOM      2  C   UNK d   1      22.102  77.569  17.534  0.00  0.00     0.127 C 
ATOM      3  C   UNK d   1      21.995  78.932  18.120  0.00  0.00     0.138 C 
ATOM      4  N   UNK d   1      20.626  79.217  18.576  0.00  0.00    -0.377 N 
ATOM      5  C   UNK d   1      19.738  78.074  18.567  0.00  0.00     0.138 C 
ATOM      6  C   UNK d   1      19.726  77.550  17.143  0.00  0.00     0.127 C 
ENDROOT
BRANCH   1   7
ATOM      7  S   UNK d   1      21.277  77.401  15.029  0.00  0.00     0.243 S 
ATOM      8  O   UNK d   1      22.750  77.141  14.741  0.00  0.00    -0.206 OA
ATOM      9  O   UNK d   1      21.026  78.831  14.651  0.00  0.00    -0.206 OA
BRANCH   7  10
ATOM     10  C   UNK d   1      20.377  76.288  14.034  0.00  0.00     0.074 A 
ATOM     11  C   UNK d   1      20.040  75.017  14.480  0.00  0.00     0.026 A 
ATOM     12  C   UNK d   1      19.329  74.139  13.693  0.00  0.00     0.020 A 
ATOM     13  C   UNK d   1      18.944  74.543  12.425  0.00  0.00     0.011 A 
ATOM     14  C   UNK d   1      19.254  75.797  11.936  0.00  0.00     0.020 A 
ATOM     15 Br   UNK d   1      17.956  73.308  11.344  0.00  0.00    -0.051 Br
ATOM     16  C   UNK d   1      19.966  76.644  12.754  0.00  0.00     0.026 A 
ENDBRANCH   7  10
ENDBRANCH   1   7
BRANCH   4  17
ATOM     17  C   UNK d   1      20.252  80.518  18.983  0.00  0.00     0.053 A 
ATOM     18  C   UNK d   1      20.543  81.589  18.146  0.00  0.00     0.085 A 
ATOM     19  C   UNK d   1      20.171  82.867  18.558  0.00  0.00     0.176 A 
ATOM     20  N   UNK d   1      19.553  83.073  19.713  0.00  0.00    -0.198 N 
ATOM     21  N   UNK d   1      20.340  84.045  17.934  0.00  0.00    -0.128 NA
ATOM     22  C   UNK d   1      19.329  84.393  19.822  0.00  0.00     0.148 A 
ATOM     23  N   UNK d   1      19.273  82.079  20.508  0.00  0.00    -0.174 NA
ATOM     24  N   UNK d   1      19.822  84.978  18.713  0.00  0.00    -0.133 NA
ATOM     25  C   UNK d   1      18.655  85.094  20.963  0.00  0.00     0.095 C 
ATOM     26  C   UNK d   1      19.615  80.812  20.154  0.00  0.00     0.168 A 
ENDBRANCH   4  17
TORSDOF 3
ENDMDL
