MODEL 1
REMARK VINA RESULT:    -9.183      0.000      0.000
REMARK INTER + INTRA:         -12.425
REMARK INTER:                 -11.867
REMARK INTRA:                  -0.558
REMARK UNBOUND:                -0.558
REMARK  5 active torsions:
REMARK  status: ('A' for Active; 'I' for Inactive)
REMARK    1  A    between atoms: S_1  and  N_4 
REMARK    2  A    between atoms: S_1  and  C_26 
REMARK    3  A    between atoms: C_10  and  C_11 
REMARK    4  A    between atoms: C_11  and  C_12 
REMARK       I    between atoms: C_12  and  N_14 
REMARK    5  A    between atoms: N_17  and  C_20 
ROOT
ATOM      1  N   UNK d   1      20.101  78.855  10.982  0.00  0.00    -0.191 NA
ATOM      2  C   UNK d   1      19.239  79.937  10.645  0.00  0.00     0.128 C 
ATOM      3  C   UNK d   1      19.946  81.237  10.338  0.00  0.00     0.138 C 
ATOM      4  N   UNK d   1      21.091  81.010   9.453  0.00  0.00    -0.358 N 
ATOM      5  C   UNK d   1      21.921  79.904   9.876  0.00  0.00     0.237 C 
ATOM      6  O   UNK d   1      22.907  79.531   9.235  0.00  0.00    -0.272 OA
ATOM      7  C   UNK d   1      21.439  79.287  11.156  0.00  0.00     0.175 C 
ATOM      8  H   UNK d   1      21.313  81.553   8.619  0.00  0.00     0.162 HD
ENDROOT
BRANCH   7   9
ATOM      9  C   UNK d   1      22.403  78.327  11.732  0.00  0.00     0.133 C 
BRANCH   9  10
ATOM     10  C   UNK d   1      22.977  78.887  12.979  0.00  0.00     0.221 C 
ATOM     11  O   UNK d   1      24.071  79.503  12.870  0.00  0.00    -0.273 OA
ATOM     12  N   UNK d   1      22.328  78.738  14.243  0.00  0.00    -0.349 N 
ATOM     13  C   UNK d   1      21.080  78.033  14.354  0.00  0.00     0.145 C 
ATOM     14  C   UNK d   1      22.942  79.308  15.413  0.00  0.00     0.145 C 
ATOM     15  C   UNK d   1      20.873  77.357  15.674  0.00  0.00     0.143 C 
ATOM     16  N   UNK d   1      21.500  78.042  16.791  0.00  0.00    -0.378 N 
ATOM     17  C   UNK d   1      22.906  78.358  16.591  0.00  0.00     0.143 C 
BRANCH  16  18
ATOM     18  C   UNK d   1      20.868  78.383  17.995  0.00  0.00     0.030 A 
ATOM     19  C   UNK d   1      20.637  77.407  18.938  0.00  0.00     0.029 A 
ATOM     20  C   UNK d   1      19.998  77.744  20.121  0.00  0.00     0.002 A 
ATOM     21  C   UNK d   1      19.579  79.022  20.401  0.00  0.00     0.000 A 
ATOM     22  C   UNK d   1      19.813  79.993  19.455  0.00  0.00     0.002 A 
ATOM     23  C   UNK d   1      20.451  79.663  18.269  0.00  0.00     0.029 A 
ENDBRANCH  16  18
ENDBRANCH   9  10
ENDBRANCH   7   9
BRANCH   1  24
ATOM     24  S   UNK d   1      19.867  77.564   9.902  0.00  0.00     0.244 S 
ATOM     25  O   UNK d   1      21.063  77.239   9.065  0.00  0.00    -0.206 OA
ATOM     26  O   UNK d   1      18.741  77.878   8.924  0.00  0.00    -0.206 OA
BRANCH  24  27
ATOM     27  C   UNK d   1      19.371  76.103  10.736  0.00  0.00     0.074 A 
ATOM     28  C   UNK d   1      19.342  76.008  12.122  0.00  0.00     0.026 A 
ATOM     29  C   UNK d   1      18.963  74.880  12.793  0.00  0.00     0.020 A 
ATOM     30  C   UNK d   1      18.583  73.761  12.098  0.00  0.00     0.011 A 
ATOM     31  C   UNK d   1      18.598  73.819  10.699  0.00  0.00     0.020 A 
ATOM     32 Br   UNK d   1      18.044  72.161  12.975  0.00  0.00    -0.051 Br
ATOM     33  C   UNK d   1      18.986  74.971  10.057  0.00  0.00     0.026 A 
ENDBRANCH  24  27
ENDBRANCH   1  24
TORSDOF 5
ENDMDL
