/Users/jonathanwahrer/Desktop/Msc/3_Semester/Drug_Design_Praktikum/waehrer_HTS_screening/HTS_experiment/out/docking_results/vina_output/6e43/1113_docked.pdbqt
 OpenBabel03212220213D

 28 31  0  0  0  0  0  0  0  0999 V2000
   20.5660   79.0590   18.5470 C   0  0  0  0  0  0  0  0  0  0  0  0
   20.4890   77.7270   18.6990 N   0  0  0  0  0  0  0  0  0  0  0  0
   21.6230   77.1630   18.2100 C   0  0  0  0  0  3  0  0  0  0  0  0
   22.4320   78.1290   17.7430 N   0  0  0  0  0  0  0  0  0  0  0  0
   21.8070   79.2810   17.9410 C   0  0  0  0  0  3  0  0  0  0  0  0
   23.7330   77.9030   17.1480 C   0  0  0  0  0  2  0  0  0  0  0  0
   23.7680   78.3360   15.7310 C   0  0  0  0  0  0  0  0  0  0  0  0
   24.5170   77.7570   14.7550 N   0  0  0  0  0  0  0  0  0  0  0  0
   24.2960   78.3950   13.6460 O   0  0  0  0  0  0  0  0  0  0  0  0
   23.4420   79.3720   13.8190 C   0  0  0  0  0  0  0  0  0  0  0  0
   23.1110   79.3320   15.1340 N   0  0  0  0  0  0  0  0  0  0  0  0
   22.9230   80.3400   12.8060 C   0  0  0  0  0  2  0  0  0  0  0  0
   22.1920   79.5420   11.7830 C   0  0  0  0  0  0  0  0  0  0  0  0
   22.6040   79.6270   10.4620 C   0  0  0  0  0  3  0  0  0  0  0  0
   21.9910   78.9280    9.4560 C   0  0  0  0  0  3  0  0  0  0  0  0
   20.9340   78.1210    9.7800 C   0  0  0  0  0  0  0  0  0  0  0  0
   20.4910   78.0040   11.0610 C   0  0  0  0  0  3  0  0  0  0  0  0
   20.0550   77.1330    8.4050 Br  0  0  0  0  0  0  0  0  0  0  0  0
   21.1340   78.7250   12.0630 C   0  0  0  0  0  3  0  0  0  0  0  0
   19.3840   80.2650   19.0030 S   0  0  0  0  0  0  0  0  0  0  0  0
   18.5210   80.5530   17.7820 O   0  0  0  0  0  0  0  0  0  0  0  0
   18.4340   79.6760   20.0260 O   0  0  0  0  0  0  0  0  0  0  0  0
   20.0380   81.7110   19.5400 N   0  0  0  0  0  0  0  0  0  0  0  0
   20.3400   82.7020   18.5940 C   0  0  0  0  0  2  0  0  0  0  0  0
   19.8740   84.0510   19.0570 C   0  0  0  0  0  2  0  0  0  0  0  0
   20.4680   84.3020   20.2820 O   0  0  0  0  0  0  0  0  0  0  0  0
   20.0090   83.4540   21.2810 C   0  0  0  0  0  2  0  0  0  0  0  0
   19.9790   82.0240   20.9020 C   0  0  0  0  0  2  0  0  0  0  0  0
  1  2  1  0  0  0  0
  1 20  1  0  0  0  0
  3  2  2  0  0  0  0
  4  5  1  0  0  0  0
  4  3  1  0  0  0  0
  5  1  2  0  0  0  0
  6  4  1  0  0  0  0
  7  6  1  0  0  0  0
  8  7  2  0  0  0  0
  9 10  1  0  0  0  0
  9  8  1  0  0  0  0
 10 11  2  0  0  0  0
 11  7  1  0  0  0  0
 12 10  1  0  0  0  0
 13 19  1  0  0  0  0
 13 12  1  0  0  0  0
 14 13  2  0  0  0  0
 15 16  2  0  0  0  0
 15 14  1  0  0  0  0
 16 17  1  0  0  0  0
 17 19  2  0  0  0  0
 18 16  1  0  0  0  0
 20 23  1  0  0  0  0
 20 22  2  0  0  0  0
 21 20  2  0  0  0  0
 23 28  1  0  0  0  0
 24 25  1  0  0  0  0
 24 23  1  0  0  0  0
 25 26  1  0  0  0  0
 26 27  1  0  0  0  0
 28 27  1  0  0  0  0
M  END
>  <Pose>
1

>  <Score>
-9.200

$$$$
