MODEL 1
REMARK VINA RESULT:    -9.200      0.000      0.000
REMARK INTER + INTRA:         -13.010
REMARK INTER:                 -12.426
REMARK INTRA:                  -0.583
REMARK UNBOUND:                -0.583
REMARK  6 active torsions:
REMARK  status: ('A' for Active; 'I' for Inactive)
REMARK    1  A    between atoms: S_1  and  N_4 
REMARK    2  A    between atoms: S_1  and  C_10 
REMARK    3  A    between atoms: N_13  and  C_15 
REMARK    4  A    between atoms: C_15  and  C_16 
REMARK    5  A    between atoms: C_19  and  C_21 
REMARK    6  A    between atoms: C_21  and  C_22 
ROOT
ATOM      1  C   UNK d   1      20.566  79.059  18.547  0.00  0.00     0.188 A 
ATOM      2  N   UNK d   1      20.489  77.727  18.699  0.00  0.00    -0.229 NA
ATOM      3  C   UNK d   1      21.623  77.163  18.210  0.00  0.00     0.211 A 
ATOM      4  N   UNK d   1      22.432  78.129  17.743  0.00  0.00    -0.341 N 
ATOM      5  C   UNK d   1      21.807  79.281  17.941  0.00  0.00     0.138 A 
ENDROOT
BRANCH   4   6
ATOM      6  C   UNK d   1      23.733  77.903  17.148  0.00  0.00     0.212 C 
BRANCH   6   7
ATOM      7  C   UNK d   1      23.768  78.336  15.731  0.00  0.00     0.174 A 
ATOM      8  N   UNK d   1      24.517  77.757  14.755  0.00  0.00    -0.109 NA
ATOM      9  O   UNK d   1      24.296  78.395  13.646  0.00  0.00    -0.196 OA
ATOM     10  C   UNK d   1      23.442  79.372  13.819  0.00  0.00     0.177 A 
ATOM     11  N   UNK d   1      23.111  79.332  15.134  0.00  0.00    -0.207 NA
BRANCH  10  12
ATOM     12  C   UNK d   1      22.923  80.340  12.806  0.00  0.00     0.127 C 
BRANCH  12  13
ATOM     13  C   UNK d   1      22.192  79.542  11.783  0.00  0.00    -0.050 A 
ATOM     14  C   UNK d   1      22.604  79.627  10.462  0.00  0.00     0.009 A 
ATOM     15  C   UNK d   1      21.991  78.928   9.456  0.00  0.00     0.019 A 
ATOM     16  C   UNK d   1      20.934  78.121   9.780  0.00  0.00     0.011 A 
ATOM     17  C   UNK d   1      20.491  78.004  11.061  0.00  0.00     0.019 A 
ATOM     18 Br   UNK d   1      20.055  77.133   8.405  0.00  0.00    -0.051 Br
ATOM     19  C   UNK d   1      21.134  78.725  12.063  0.00  0.00     0.009 A 
ENDBRANCH  12  13
ENDBRANCH  10  12
ENDBRANCH   6   7
ENDBRANCH   4   6
BRANCH   1  20
ATOM     20  S   UNK d   1      19.384  80.265  19.003  0.00  0.00     0.280 S 
ATOM     21  O   UNK d   1      18.521  80.553  17.782  0.00  0.00    -0.199 OA
ATOM     22  O   UNK d   1      18.434  79.676  20.026  0.00  0.00    -0.199 OA
BRANCH  20  23
ATOM     23  N   UNK d   1      20.038  81.711  19.540  0.00  0.00    -0.301 N 
ATOM     24  C   UNK d   1      20.340  82.702  18.594  0.00  0.00     0.161 C 
ATOM     25  C   UNK d   1      19.874  84.051  19.057  0.00  0.00     0.188 C 
ATOM     26  O   UNK d   1      20.468  84.302  20.282  0.00  0.00    -0.388 OA
ATOM     27  C   UNK d   1      20.009  83.454  21.281  0.00  0.00     0.188 C 
ATOM     28  C   UNK d   1      19.979  82.024  20.902  0.00  0.00     0.161 C 
ENDBRANCH  20  23
ENDBRANCH   1  20
TORSDOF 6
ENDMDL
