/Users/jonathanwahrer/Desktop/Msc/3_Semester/Drug_Design_Praktikum/waehrer_HTS_screening/HTS_experiment/out/docking_results/vina_output/6e43/1130_docked.pdbqt
 OpenBabel03212220213D

 29 32  0  0  0  0  0  0  0  0999 V2000
   20.4210   78.0950   10.9390 C   0  0  0  0  0  0  0  0  0  0  0  0
   21.5950   78.7320   10.7870 N   0  0  0  0  0  0  0  0  0  0  0  0
   22.4880   78.8680   11.7540 N   0  0  0  0  0  2  0  0  0  0  0  0
   22.2620   78.3600   12.9840 C   0  0  0  0  0  0  0  0  0  0  0  0
   21.0630   77.7020   13.1640 C   0  0  0  0  0  0  0  0  0  0  0  0
   21.0640   77.2890   14.4480 N   0  0  0  0  0  0  0  0  0  0  0  0
   22.1950   77.6530   15.0730 C   0  0  0  0  0  0  0  0  0  0  0  0
   22.9780   78.3380   14.1690 C   0  0  0  0  0  0  0  0  0  0  0  0
   24.2230   78.8550   14.4960 C   0  0  0  0  0  3  0  0  0  0  0  0
   24.6610   78.6560   15.7940 C   0  0  0  0  0  0  0  0  0  0  0  0
   23.8960   77.9760   16.7190 C   0  0  0  0  0  3  0  0  0  0  0  0
   22.6650   77.4710   16.3730 C   0  0  0  0  0  3  0  0  0  0  0  0
   26.3770   79.3700   16.2460 Br  0  0  0  0  0  0  0  0  0  0  0  0
   19.9670   76.5500   15.0410 C   0  0  0  0  0  1  0  0  0  0  0  0
   20.1570   77.5750   12.1500 N   0  0  0  0  0  2  0  0  0  0  0  0
   19.2520   77.9490    9.5720 S   0  0  0  0  0  0  0  0  0  0  0  0
   19.3970   76.2780    8.8840 C   0  0  0  0  0  2  0  0  0  0  0  0
   18.8030   76.2770    7.5160 C   0  0  0  0  0  0  0  0  0  0  0  0
   18.6360   77.3640    6.8770 O   0  0  0  0  0  0  0  0  0  0  0  0
   18.4060   75.0810    6.8830 N   0  0  0  0  0  0  0  0  0  0  0  0
   18.5370   74.1820    7.3950 H   0  0  0  0  0  0  0  0  0  0  0  0
   17.8440   75.0820    5.5840 C   0  0  0  0  0  0  0  0  0  0  0  0
   18.4600   75.3210    4.4140 N   0  0  0  0  0  0  0  0  0  0  0  0
   17.6120   75.2330    3.4270 O   0  0  0  0  0  0  0  0  0  0  0  0
   16.4600   74.9430    3.9280 N   0  0  0  0  0  0  0  0  0  0  0  0
   16.5150   74.8320    5.2610 C   0  0  0  0  0  0  0  0  0  0  0  0
   15.4410   74.5250    6.1240 N   0  0  0  0  0  0  0  0  0  0  0  0
   15.1340   75.2260    6.8230 H   0  0  0  0  0  0  0  0  0  0  0  0
   14.9350   73.6170    6.0900 H   0  0  0  0  0  0  0  0  0  0  0  0
  1 15  1  0  0  0  0
  2  1  2  0  0  0  0
  2  3  1  0  0  0  0
  3  4  1  0  0  0  0
  4  5  2  0  0  0  0
  4  8  1  0  0  0  0
  5  6  1  0  0  0  0
  6 14  1  0  0  0  0
  6  7  1  0  0  0  0
  7 12  1  0  0  0  0
  8  9  1  0  0  0  0
  8  7  2  0  0  0  0
  9 10  2  0  0  0  0
 10 13  1  0  0  0  0
 10 11  1  0  0  0  0
 12 11  2  0  0  0  0
 15  5  1  0  0  0  0
 16  1  1  0  0  0  0
 17 16  1  0  0  0  0
 18 17  1  0  0  0  0
 19 18  2  0  0  0  0
 20 21  1  0  0  0  0
 20 18  1  0  0  0  0
 22 20  1  0  0  0  0
 23 22  2  0  0  0  0
 24 25  1  0  0  0  0
 24 23  1  0  0  0  0
 25 26  2  0  0  0  0
 26 22  1  0  0  0  0
 26 27  1  0  0  0  0
 27 28  1  0  0  0  0
 29 27  1  0  0  0  0
M  END
>  <Pose>
1

>  <Score>
-9.658

$$$$
