MODEL 1
REMARK VINA RESULT:    -9.658      0.000      0.000
REMARK INTER + INTRA:         -12.417
REMARK INTER:                 -12.198
REMARK INTRA:                  -0.218
REMARK UNBOUND:                -0.218
REMARK  5 active torsions:
REMARK  status: ('A' for Active; 'I' for Inactive)
REMARK    1  A    between atoms: S_1  and  C_2 
REMARK    2  A    between atoms: S_1  and  C_12 
REMARK    3  A    between atoms: C_2  and  C_3 
REMARK       I    between atoms: C_3  and  N_5 
REMARK    4  A    between atoms: N_5  and  C_6 
REMARK    5  A    between atoms: C_10  and  N_11 
ROOT
ATOM      1  C   UNK d   1      20.421  78.095  10.939  0.00  0.00     0.211 A 
ATOM      2  N   UNK d   1      21.595  78.732  10.787  0.00  0.00    -0.122 NA
ATOM      3  N   UNK d   1      22.488  78.868  11.754  0.00  0.00    -0.143 NA
ATOM      4  C   UNK d   1      22.262  78.360  12.984  0.00  0.00     0.137 A 
ATOM      5  C   UNK d   1      21.063  77.702  13.164  0.00  0.00     0.164 A 
ATOM      6  N   UNK d   1      21.064  77.289  14.448  0.00  0.00    -0.333 N 
ATOM      7  C   UNK d   1      22.195  77.653  15.073  0.00  0.00     0.048 A 
ATOM      8  C   UNK d   1      22.978  78.338  14.169  0.00  0.00     0.026 A 
ATOM      9  C   UNK d   1      24.223  78.855  14.496  0.00  0.00     0.035 A 
ATOM     10  C   UNK d   1      24.661  78.656  15.794  0.00  0.00     0.011 A 
ATOM     11  C   UNK d   1      23.896  77.976  16.719  0.00  0.00     0.021 A 
ATOM     12  C   UNK d   1      22.665  77.471  16.373  0.00  0.00     0.032 A 
ATOM     13 Br   UNK d   1      26.377  79.370  16.246  0.00  0.00    -0.051 Br
ATOM     14  C   UNK d   1      19.967  76.550  15.041  0.00  0.00     0.158 C 
ATOM     15  N   UNK d   1      20.157  77.575  12.150  0.00  0.00    -0.201 NA
ENDROOT
BRANCH   1  16
ATOM     16  S   UNK d   1      19.252  77.949   9.572  0.00  0.00    -0.079 SA
BRANCH  16  17
ATOM     17  C   UNK d   1      19.397  76.278   8.884  0.00  0.00     0.185 C 
BRANCH  17  18
ATOM     18  C   UNK d   1      18.803  76.277   7.516  0.00  0.00     0.233 C 
ATOM     19  O   UNK d   1      18.636  77.364   6.877  0.00  0.00    -0.272 OA
ATOM     20  N   UNK d   1      18.406  75.081   6.883  0.00  0.00    -0.306 N 
ATOM     21  H   UNK d   1      18.537  74.182   7.395  0.00  0.00     0.170 HD
BRANCH  20  22
ATOM     22  C   UNK d   1      17.844  75.082   5.584  0.00  0.00     0.207 A 
ATOM     23  N   UNK d   1      18.460  75.321   4.414  0.00  0.00    -0.083 NA
ATOM     24  O   UNK d   1      17.612  75.233   3.427  0.00  0.00    -0.103 OA
ATOM     25  N   UNK d   1      16.460  74.943   3.928  0.00  0.00    -0.083 NA
ATOM     26  C   UNK d   1      16.515  74.832   5.261  0.00  0.00     0.199 A 
BRANCH  26  27
ATOM     27  N   UNK d   1      15.441  74.525   6.124  0.00  0.00    -0.379 N 
ATOM     28  H   UNK d   1      15.134  75.226   6.823  0.00  0.00     0.158 HD
ATOM     29  H   UNK d   1      14.935  73.617   6.090  0.00  0.00     0.158 HD
ENDBRANCH  26  27
ENDBRANCH  20  22
ENDBRANCH  17  18
ENDBRANCH  16  17
ENDBRANCH   1  16
TORSDOF 5
ENDMDL
