MODEL 1
REMARK VINA RESULT:    -4.626      0.000      0.000
REMARK INTER + INTRA:          -4.697
REMARK INTER:                  -5.438
REMARK INTRA:                   0.741
REMARK UNBOUND:                 0.741
REMARK  3 active torsions:
REMARK  status: ('A' for Active; 'I' for Inactive)
REMARK    1  A    between atoms: C_6  and  C_17 
REMARK    2  A    between atoms: N_9  and  C_10 
REMARK    3  A    between atoms: C_23  and  O_30 
ROOT
ATOM      1  C   UNK d   1      22.106  78.994  14.635  0.00  0.00     0.246 C 
ATOM      2  N   UNK d   1      23.534  78.768  14.810  0.00  0.00    -0.065 N 
ATOM      3  C   UNK d   1      23.793  77.356  15.032  0.00  0.00     0.240 C 
ATOM      4  C   UNK d   1      22.562  76.546  15.344  0.00  0.00     0.067 C 
ATOM      5  C   UNK d   1      21.711  77.340  16.300  0.00  0.00    -0.043 A 
ATOM      6  C   UNK d   1      21.488  78.683  15.912  0.00  0.00     0.017 A 
ATOM      7  C   UNK d   1      20.748  79.499  16.722  0.00  0.00     0.113 A 
ATOM      8  C   UNK d   1      20.242  78.959  17.902  0.00  0.00     0.139 A 
ATOM      9  C   UNK d   1      20.471  77.650  18.256  0.00  0.00     0.108 A 
ATOM     10  C   UNK d   1      21.218  76.813  17.449  0.00  0.00     0.047 A 
ATOM     11  O   UNK d   1      19.847  77.410  19.463  0.00  0.00    -0.323 OA
ATOM     12  C   UNK d   1      19.461  78.641  20.024  0.00  0.00     0.352 C 
ATOM     13  O   UNK d   1      19.481  79.514  18.894  0.00  0.00    -0.320 OA
ATOM     14  C   UNK d   1      24.130  79.507  15.870  0.00  0.00     0.270 C 
ATOM     15  H   UNK d   1      23.990  79.032  13.912  0.00  0.00     0.280 HD
ENDROOT
BRANCH   1  16
ATOM     16  C   UNK d   1      21.805  80.203  13.880  0.00  0.00     0.208 C 
ATOM     17  C   UNK d   1      23.183  80.752  13.450  0.00  0.00     0.261 C 
ATOM     18  N   UNK d   1      23.889  79.898  12.564  0.00  0.00    -0.187 NA
ATOM     19  O   UNK d   1      23.607  81.837  13.855  0.00  0.00    -0.270 OA
ATOM     20  C   UNK d   1      23.357  79.120  11.694  0.00  0.00     0.190 C 
ATOM     21  S   UNK d   1      24.329  78.078  10.617  0.00  0.00    -0.010 SA
ATOM     22  N   UNK d   1      21.911  79.140  11.653  0.00  0.00    -0.259 N 
ATOM     23  C   UNK d   1      21.186  79.981  12.538  0.00  0.00     0.246 C 
ATOM     24  O   UNK d   1      20.121  80.457  12.139  0.00  0.00    -0.272 OA
BRANCH  22  25
ATOM     25  C   UNK d   1      21.216  78.338  10.743  0.00  0.00     0.044 A 
ATOM     26  C   UNK d   1      21.352  78.637   9.382  0.00  0.00     0.031 A 
ATOM     27  C   UNK d   1      20.698  77.891   8.425  0.00  0.00     0.021 A 
ATOM     28  C   UNK d   1      19.892  76.829   8.824  0.00  0.00     0.011 A 
ATOM     29  C   UNK d   1      19.762  76.538  10.188  0.00  0.00     0.021 A 
ATOM     30 Br   UNK d   1      18.979  75.783   7.546  0.00  0.00    -0.051 Br
ATOM     31  C   UNK d   1      20.423  77.293  11.128  0.00  0.00     0.031 A 
ENDBRANCH  22  25
ENDBRANCH   1  16
BRANCH   7  32
ATOM     32  O   UNK d   1      20.505  80.826  16.395  0.00  0.00    -0.352 OA
ATOM     33  C   UNK d   1      20.687  81.823  17.395  0.00  0.00     0.210 C 
ENDBRANCH   7  32
TORSDOF 3
ENDMDL
