MODEL 1
REMARK VINA RESULT:    -8.404      0.000      0.000
REMARK INTER + INTRA:          -8.647
REMARK INTER:                  -8.895
REMARK INTRA:                   0.248
REMARK UNBOUND:                 0.248
REMARK  1 active torsions:
REMARK  status: ('A' for Active; 'I' for Inactive)
REMARK    1  A    between atoms: N_11  and  C_14 
ROOT
ATOM      1  S   UNK d   1      19.276  83.428  20.901  0.00  0.00     0.148 S 
ATOM      2  O   UNK d   1      18.070  84.321  20.944  0.00  0.00    -0.228 OA
ATOM      3  O   UNK d   1      19.942  83.325  22.245  0.00  0.00    -0.228 OA
ATOM      4  C   UNK d   1      18.860  81.805  20.303  0.00  0.00     0.175 C 
ATOM      5  C   UNK d   1      20.132  81.247  19.698  0.00  0.00     0.195 C 
ATOM      6  N   UNK d   1      20.426  81.974  18.479  0.00  0.00    -0.318 N 
ATOM      7  C   UNK d   1      20.169  83.396  18.389  0.00  0.00     0.143 C 
ATOM      8  C   UNK d   1      20.484  84.063  19.729  0.00  0.00     0.160 C 
ATOM      9  C   UNK d   1      20.946  81.000  17.582  0.00  0.00     0.328 C 
ATOM     10  O   UNK d   1      21.561  81.240  16.489  0.00  0.00    -0.246 OA
ATOM     11  N   UNK d   1      20.694  79.687  18.065  0.00  0.00    -0.259 N 
ATOM     12  C   UNK d   1      19.998  79.844  19.292  0.00  0.00     0.252 C 
ATOM     13  O   UNK d   1      19.371  78.951  19.934  0.00  0.00    -0.270 OA
ENDROOT
BRANCH  11  14
ATOM     14  C   UNK d   1      21.061  78.420  17.450  0.00  0.00     0.135 C 
ATOM     15  C   UNK d   1      20.418  78.266  16.083  0.00  0.00     0.058 C 
ATOM     16  C   UNK d   1      20.800  76.867  15.596  0.00  0.00     0.178 C 
ATOM     17  O   UNK d   1      22.200  76.894  15.384  0.00  0.00    -0.349 OA
ATOM     18  C   UNK d   1      23.035  77.595  16.247  0.00  0.00     0.094 A 
ATOM     19  C   UNK d   1      22.522  78.349  17.264  0.00  0.00     0.000 A 
ATOM     20  C   UNK d   1      24.400  77.491  16.023  0.00  0.00     0.044 A 
ATOM     21  C   UNK d   1      23.343  79.039  18.113  0.00  0.00     0.012 A 
ATOM     22  C   UNK d   1      24.702  78.961  17.924  0.00  0.00     0.002 A 
ATOM     23  C   UNK d   1      25.203  78.200  16.898  0.00  0.00     0.022 A 
ATOM     24 Br   UNK d   1      25.106  76.440  14.606  0.00  0.00    -0.048 Br
ENDBRANCH  11  14
TORSDOF 1
ENDMDL
