/Users/jonathanwahrer/Desktop/Msc/3_Semester/Drug_Design_Praktikum/waehrer_HTS_screening/HTS_experiment/out/docking_results/vina_output/6e43/1157_docked.pdbqt
 OpenBabel03212220223D

 24 27  0  0  1  0  0  0  0  0999 V2000
   20.0860   77.8480   18.8170 C   0  0  2  0  0  3  0  0  0  0  0  0
   21.3500   77.1270   18.4250 C   0  0  0  0  0  2  0  0  0  0  0  0
   21.4180   77.4070   16.9990 N   0  0  0  0  0  0  0  0  0  0  0  0
   20.0880   77.1530   16.4990 C   0  0  0  0  0  2  0  0  0  0  0  0
   19.1750   77.4950   17.6610 C   0  0  0  0  0  2  0  0  0  0  0  0
   20.2600   79.2930   18.8020 N   0  0  0  0  0  0  0  0  0  0  0  0
   19.3410   80.1640   19.4300 C   0  0  0  0  0  0  0  0  0  0  0  0
   18.3210   79.7590   20.0410 O   0  0  0  0  0  0  0  0  0  0  0  0
   21.0820   79.7170   18.3160 H   0  0  0  0  0  0  0  0  0  0  0  0
   19.5350   81.6310   19.4040 C   0  0  0  0  0  0  0  0  0  0  0  0
   20.3310   82.6000   18.2470 S   0  0  0  0  0  0  0  0  0  0  0  0
   20.0980   84.1300   18.9620 C   0  0  0  0  0  3  0  0  0  0  0  0
   19.3930   83.8350   20.1000 C   0  0  0  0  0  0  0  0  0  0  0  0
   19.1050   82.5510   20.3250 C   0  0  0  0  0  3  0  0  0  0  0  0
   18.8730   85.2800   21.2850 Br  0  0  0  0  0  0  0  0  0  0  0  0
   22.5910   77.8410   16.2920 C   0  0  0  0  0  0  0  0  0  0  0  0
   23.5880   76.9830   16.0060 N   0  0  0  0  0  0  0  0  0  0  0  0
   24.6740   77.4190   15.3450 C   0  0  0  0  0  3  0  0  0  0  0  0
   24.8080   78.7240   14.9450 C   0  0  0  0  0  3  0  0  0  0  0  0
   23.8220   79.5940   15.2220 N   0  0  0  0  0  0  0  0  0  0  0  0
   22.7380   79.1460   15.8860 C   0  0  0  0  0  0  0  0  0  0  0  0
   23.6800   80.9140   14.9570 C   0  0  0  0  0  3  0  0  0  0  0  0
   21.9420   80.2250   16.0150 N   0  0  0  0  0  0  0  0  0  0  0  0
   22.4940   81.2920   15.4630 N   0  0  0  0  0  0  0  0  0  0  0  0
  1  6  1  6  0  0  0
  2  1  1  0  0  0  0
  3  2  1  0  0  0  0
  4  3  1  0  0  0  0
  4  5  1  0  0  0  0
  5  1  1  0  0  0  0
  6  7  1  0  0  0  0
  7  8  2  0  0  0  0
  9  6  1  0  0  0  0
 10  7  1  0  0  0  0
 10 14  2  0  0  0  0
 11 12  1  0  0  0  0
 11 10  1  0  0  0  0
 12 13  2  0  0  0  0
 13 14  1  0  0  0  0
 13 15  1  0  0  0  0
 16  3  1  0  0  0  0
 17 16  2  0  0  0  0
 18 17  1  0  0  0  0
 19 20  1  0  0  0  0
 19 18  2  0  0  0  0
 20 21  1  0  0  0  0
 21 23  2  0  0  0  0
 21 16  1  0  0  0  0
 22 20  1  0  0  0  0
 22 24  2  0  0  0  0
 24 23  1  0  0  0  0
M  END
>  <Pose>
1

>  <Score>
-8.947

$$$$
