/Users/jonathanwahrer/Desktop/Msc/3_Semester/Drug_Design_Praktikum/waehrer_HTS_screening/HTS_experiment/out/docking_results/vina_output/6e43/1160_docked.pdbqt
 OpenBabel03212220223D

 25 28  0  0  1  0  0  0  0  0999 V2000
   20.9320   77.7260   16.6880 C   0  0  0  0  0  0  0  0  0  0  0  0
   20.0170   76.9610   16.0660 N   0  0  0  0  0  0  0  0  0  0  0  0
   20.4850   76.5570   14.8720 C   0  0  0  0  0  0  0  0  0  0  0  0
   21.7130   77.0960   14.7800 N   0  0  0  0  0  0  0  0  0  0  0  0
   21.9560   77.7860   15.8710 O   0  0  0  0  0  0  0  0  0  0  0  0
   19.8270   75.7160   13.8720 C   0  0  0  0  0  0  0  0  0  0  0  0
   19.5440   74.4090   13.9970 N   0  0  0  0  0  0  0  0  0  0  0  0
   18.9400   73.9620   12.8900 N   0  0  0  0  0  0  0  0  0  0  0  0
   18.8270   74.9980   12.0280 C   0  0  0  0  0  3  0  0  0  0  0  0
   19.3800   76.0640   12.6540 N   0  0  0  0  0  0  0  0  0  0  0  0
   18.4820   72.6050   12.6470 C   0  0  0  0  0  2  0  0  0  0  0  0
   17.0120   72.5680   12.8050 C   0  0  0  0  0  0  0  0  0  0  0  0
   16.3980   71.5340   12.4630 O   0  0  0  0  0  0  0  0  0  0  0  0
   16.3280   73.6880   13.3340 N   0  0  0  0  0  0  0  0  0  0  0  0
   15.5580   73.5810   14.0500 H   0  0  0  0  0  0  0  0  0  0  0  0
   16.5320   74.6800   13.0610 H   0  0  0  0  0  0  0  0  0  0  0  0
   20.8150   78.3810   18.0390 C   0  0  1  0  0  3  0  0  0  0  0  0
   19.5360   79.2150   18.2010 C   0  0  1  0  0  3  0  0  0  0  0  0
   19.7220   77.9720   18.9520 C   0  0  0  0  0  2  0  0  0  0  0  0
   19.7810   80.5210   18.9340 C   0  0  0  0  0  0  0  0  0  0  0  0
   19.9620   81.6860   18.2720 C   0  0  0  0  0  3  0  0  0  0  0  0
   20.1700   82.8040   19.0370 C   0  0  0  0  0  0  0  0  0  0  0  0
   20.1100   82.2110   20.6280 S   0  0  0  0  0  0  0  0  0  0  0  0
   20.4590   84.6070   18.4110 Br  0  0  0  0  0  0  0  0  0  0  0  0
   19.8220   80.5670   20.2990 C   0  0  0  0  0  3  0  0  0  0  0  0
  2  1  2  0  0  0  0
  3  2  1  0  0  0  0
  4  3  2  0  0  0  0
  4  5  1  0  0  0  0
  5  1  1  0  0  0  0
  6  7  2  0  0  0  0
  6  3  1  0  0  0  0
  8  7  1  0  0  0  0
  9 10  2  0  0  0  0
  9  8  1  0  0  0  0
 10  6  1  0  0  0  0
 11 12  1  0  0  0  0
 11  8  1  0  0  0  0
 12 14  1  0  0  0  0
 13 12  2  0  0  0  0
 14 15  1  0  0  0  0
 16 14  1  0  0  0  0
 17  1  1  6  0  0  0
 17 18  1  0  0  0  0
 17 19  1  0  0  0  0
 18 20  1  1  0  0  0
 18 19  1  0  0  0  0
 20 25  2  0  0  0  0
 21 20  1  0  0  0  0
 21 22  2  0  0  0  0
 22 23  1  0  0  0  0
 24 22  1  0  0  0  0
 25 23  1  0  0  0  0
M  END
>  <Pose>
1

>  <Score>
-9.256

$$$$
