MODEL 1
REMARK VINA RESULT:   -10.295      0.000      0.000
REMARK INTER + INTRA:         -14.907
REMARK INTER:                 -14.207
REMARK INTRA:                  -0.700
REMARK UNBOUND:                -0.700
REMARK  7 active torsions:
REMARK  status: ('A' for Active; 'I' for Inactive)
REMARK    1  A    between atoms: C_5  and  C_6 
REMARK    2  A    between atoms: C_6  and  C_8 
REMARK    3  A    between atoms: C_8  and  N_9 
REMARK    4  A    between atoms: N_16  and  C_19 
REMARK    5  A    between atoms: C_17  and  N_18 
REMARK    6  A    between atoms: C_19  and  C_20 
REMARK    7  A    between atoms: C_20  and  N_21 
ROOT
ATOM      1  N   UNK d   1      19.741  76.340  13.656  0.00  0.00    -0.172 N 
ATOM      2  C   UNK d   1      20.083  76.964  12.504  0.00  0.00     0.079 A 
ATOM      3  C   UNK d   1      21.017  77.922  12.759  0.00  0.00     0.079 A 
ATOM      4  C   UNK d   1      21.526  78.697  11.733  0.00  0.00     0.032 A 
ATOM      5  C   UNK d   1      21.076  78.485  10.450  0.00  0.00     0.002 A 
ATOM      6  C   UNK d   1      20.137  77.526  10.166  0.00  0.00     0.002 A 
ATOM      7  C   UNK d   1      19.650  76.773  11.211  0.00  0.00     0.032 A 
ATOM      8  N   UNK d   1      21.248  77.890  14.075  0.00  0.00    -0.178 N 
ATOM      9  C   UNK d   1      20.462  76.917  14.621  0.00  0.00     0.703 A 
ENDROOT
BRANCH   1  10
ATOM     10  C   UNK d   1      18.778  75.271  13.749  0.00  0.00     0.232 C 
BRANCH  10  11
ATOM     11  C   UNK d   1      19.426  73.937  13.722  0.00  0.00     0.185 C 
ATOM     12  O   UNK d   1      20.546  73.751  14.257  0.00  0.00    -0.290 OA
BRANCH  11  13
ATOM     13  C   UNK d   1      18.795  72.782  13.074  0.00  0.00     0.053 A 
ATOM     14  S   UNK d   1      17.175  72.553  12.570  0.00  0.00    -0.079 SA
ATOM     15  C   UNK d   1      17.291  70.976  11.946  0.00  0.00     0.052 A 
ATOM     16  C   UNK d   1      18.608  70.667  12.149  0.00  0.00     0.028 A 
ATOM     17 Br   UNK d   1      15.908  69.925  11.158  0.00  0.00    -0.043 Br
ATOM     18  C   UNK d   1      19.380  71.590  12.727  0.00  0.00     0.024 A 
ENDBRANCH  11  13
ENDBRANCH  10  11
ENDBRANCH   1  10
BRANCH   9  19
ATOM     19  N   UNK d   1      20.492  76.695  15.882  0.00  0.00    -0.117 NA
ATOM     20  H   UNK d   1      20.931  77.244  16.619  0.00  0.00     0.206 HD
ENDBRANCH   9  19
BRANCH   8  21
ATOM     21  C   UNK d   1      22.196  78.748  14.772  0.00  0.00     0.175 C 
BRANCH  21  22
ATOM     22  C   UNK d   1      23.581  78.089  14.699  0.00  0.00     0.255 C 
BRANCH  22  23
ATOM     23  N   UNK d   1      23.823  77.223  15.817  0.00  0.00    -0.070 N 
ATOM     24  C   UNK d   1      25.210  76.832  15.973  0.00  0.00     0.235 C 
ATOM     25  C   UNK d   1      26.132  78.018  15.975  0.00  0.00     0.028 C 
ATOM     26  C   UNK d   1      25.685  79.114  16.883  0.00  0.00     0.003 C 
ATOM     27  C   UNK d   1      24.221  79.197  17.132  0.00  0.00     0.028 C 
ATOM     28  C   UNK d   1      23.460  77.924  17.025  0.00  0.00     0.235 C 
ATOM     29  H   UNK d   1      23.287  76.335  15.714  0.00  0.00     0.279 HD
ENDBRANCH  22  23
ENDBRANCH  21  22
ENDBRANCH   8  21
TORSDOF 7
ENDMDL
