MODEL 1
REMARK VINA RESULT:    -8.126      0.000      0.000
REMARK INTER + INTRA:         -12.652
REMARK INTER:                 -11.451
REMARK INTRA:                  -1.201
REMARK UNBOUND:                -1.201
REMARK  7 active torsions:
REMARK  status: ('A' for Active; 'I' for Inactive)
REMARK    1  A    between atoms: C_5  and  C_6 
REMARK    2  A    between atoms: C_6  and  C_7 
REMARK    3  A    between atoms: C_8  and  C_23 
REMARK    4  A    between atoms: N_9  and  C_14 
REMARK    5  A    between atoms: C_14  and  C_15 
REMARK    6  A    between atoms: C_15  and  C_16 
REMARK    7  A    between atoms: C_16  and  N_17 
ROOT
ATOM      1  C   UNK d   1      20.822  77.742  16.024  0.00  0.00     0.063 C 
ATOM      2  C   UNK d   1      21.390  78.725  17.006  0.00  0.00     0.161 C 
ATOM      3  N   UNK d   1      20.250  79.471  17.439  0.00  0.00    -0.332 N 
ATOM      4  C   UNK d   1      19.166  78.500  17.441  0.00  0.00     0.295 C 
ATOM      5  O   UNK d   1      18.117  78.648  18.126  0.00  0.00    -0.264 OA
ATOM      6  C   UNK d   1      19.509  77.401  16.557  0.00  0.00     0.250 C 
ATOM      7  O   UNK d   1      18.814  76.362  16.302  0.00  0.00    -0.282 OA
ENDROOT
BRANCH   3   8
ATOM      8  C   UNK d   1      20.107  80.831  17.867  0.00  0.00     0.129 C 
BRANCH   8   9
ATOM      9  C   UNK d   1      20.384  81.105  19.309  0.00  0.00     0.048 C 
BRANCH   9  10
ATOM     10  C   UNK d   1      19.245  81.923  19.936  0.00  0.00     0.236 C 
BRANCH  10  11
ATOM     11  N   UNK d   1      19.817  82.880  20.822  0.00  0.00    -0.067 N 
ATOM     12  C   UNK d   1      20.530  83.958  20.215  0.00  0.00     0.261 C 
ATOM     13  C   UNK d   1      19.631  85.002  19.597  0.00  0.00     0.195 C 
ATOM     14  O   UNK d   1      18.304  84.546  19.762  0.00  0.00    -0.388 OA
ATOM     15  C   UNK d   1      18.078  84.594  21.152  0.00  0.00     0.195 C 
ATOM     16  C   UNK d   1      18.842  83.429  21.747  0.00  0.00     0.261 C 
ATOM     17  H   UNK d   1      20.518  82.358  21.430  0.00  0.00     0.280 HD
ENDBRANCH  10  11
ENDBRANCH   9  10
ENDBRANCH   8   9
ENDBRANCH   3   8
BRANCH   2  18
ATOM     18  C   UNK d   1      22.507  79.472  16.444  0.00  0.00    -0.029 A 
ATOM     19  C   UNK d   1      23.806  79.042  16.757  0.00  0.00     0.028 A 
ATOM     20  C   UNK d   1      24.936  79.647  16.270  0.00  0.00     0.011 A 
ATOM     21  C   UNK d   1      24.818  80.729  15.433  0.00  0.00     0.019 A 
ATOM     22 Br   UNK d   1      26.693  79.040  16.712  0.00  0.00    -0.051 Br
ATOM     23  C   UNK d   1      23.551  81.182  15.100  0.00  0.00     0.002 A 
ATOM     24  C   UNK d   1      22.437  80.549  15.608  0.00  0.00     0.009 A 
ENDBRANCH   2  18
BRANCH   1  25
ATOM     25  C   UNK d   1      21.391  77.238  14.946  0.00  0.00     0.139 C 
ATOM     26  O   UNK d   1      22.553  76.447  15.095  0.00  0.00    -0.190 OA
BRANCH  25  27
ATOM     27  C   UNK d   1      20.839  77.484  13.616  0.00  0.00     0.068 A 
ATOM     28  S   UNK d   1      21.115  78.858  12.633  0.00  0.00    -0.070 SA
ATOM     29  C   UNK d   1      20.112  78.443  11.317  0.00  0.00     0.072 A 
ATOM     30  N   UNK d   1      19.619  77.280  11.697  0.00  0.00    -0.250 NA
ATOM     31  C   UNK d   1      19.851  79.210  10.041  0.00  0.00     0.078 C 
ATOM     32  C   UNK d   1      19.961  76.770  12.844  0.00  0.00     0.051 A 
ATOM     33  C   UNK d   1      19.355  75.448  13.296  0.00  0.00     0.072 C 
ENDBRANCH  25  27
ENDBRANCH   1  25
TORSDOF 7
ENDMDL
