/Users/jonathanwahrer/Desktop/Msc/3_Semester/Drug_Design_Praktikum/waehrer_HTS_screening/HTS_experiment/out/docking_results/vina_output/6e43/1177_docked.pdbqt
 OpenBabel03212220233D

 33 36  0  0  1  0  0  0  0  0999 V2000
   20.8220   77.7420   16.0240 C   0  0  2  0  0  3  0  0  0  0  0  0
   21.3900   78.7250   17.0060 C   0  0  2  0  0  3  0  0  0  0  0  0
   20.2500   79.4710   17.4390 N   0  0  0  0  0  0  0  0  0  0  0  0
   19.1660   78.5000   17.4410 C   0  0  0  0  0  0  0  0  0  0  0  0
   18.1170   78.6480   18.1260 O   0  0  0  0  0  0  0  0  0  0  0  0
   19.5090   77.4010   16.5570 C   0  0  0  0  0  0  0  0  0  0  0  0
   18.8140   76.3620   16.3020 O   0  0  0  0  0  0  0  0  0  0  0  0
   20.1070   80.8310   17.8670 C   0  0  0  0  0  2  0  0  0  0  0  0
   20.3840   81.1050   19.3090 C   0  0  0  0  0  2  0  0  0  0  0  0
   19.2450   81.9230   19.9360 C   0  0  0  0  0  2  0  0  0  0  0  0
   19.8170   82.8800   20.8220 N   0  0  0  0  0  4  0  0  0  0  0  0
   20.5300   83.9580   20.2150 C   0  0  0  0  0  2  0  0  0  0  0  0
   19.6310   85.0020   19.5970 C   0  0  0  0  0  2  0  0  0  0  0  0
   18.3040   84.5460   19.7620 O   0  0  0  0  0  0  0  0  0  0  0  0
   18.0780   84.5940   21.1520 C   0  0  0  0  0  2  0  0  0  0  0  0
   18.8420   83.4290   21.7470 C   0  0  0  0  0  2  0  0  0  0  0  0
   20.5180   82.3580   21.4300 H   0  0  0  0  0  0  0  0  0  0  0  0
   22.5070   79.4720   16.4440 C   0  0  0  0  0  0  0  0  0  0  0  0
   23.8060   79.0420   16.7570 C   0  0  0  0  0  3  0  0  0  0  0  0
   24.9360   79.6470   16.2700 C   0  0  0  0  0  0  0  0  0  0  0  0
   24.8180   80.7290   15.4330 C   0  0  0  0  0  3  0  0  0  0  0  0
   26.6930   79.0400   16.7120 Br  0  0  0  0  0  0  0  0  0  0  0  0
   23.5510   81.1820   15.1000 C   0  0  0  0  0  3  0  0  0  0  0  0
   22.4370   80.5490   15.6080 C   0  0  0  0  0  3  0  0  0  0  0  0
   21.3910   77.2380   14.9460 C   0  0  1  0  0  3  0  0  0  0  0  0
   22.5530   76.4470   15.0950 O   0  0  0  0  0  1  0  0  0  0  0  0
   20.8390   77.4840   13.6160 C   0  0  0  0  0  0  0  0  0  0  0  0
   21.1150   78.8580   12.6330 S   0  0  0  0  0  0  0  0  0  0  0  0
   20.1120   78.4430   11.3170 C   0  0  0  0  0  0  0  0  0  0  0  0
   19.6190   77.2800   11.6970 N   0  0  0  0  0  0  0  0  0  0  0  0
   19.8510   79.2100   10.0410 C   0  0  0  0  0  1  0  0  0  0  0  0
   19.9610   76.7700   12.8440 C   0  0  0  0  0  0  0  0  0  0  0  0
   19.3550   75.4480   13.2960 C   0  0  0  0  0  1  0  0  0  0  0  0
  1 25  1  1  0  0  0
  1  6  1  0  0  0  0
  1  2  1  0  0  0  0
  2 18  1  6  0  0  0
  2  3  1  0  0  0  0
  3  4  1  0  0  0  0
  3  8  1  0  0  0  0
  4  5  2  0  0  0  0
  6  4  1  0  0  0  0
  7  6  2  0  0  0  0
  8  9  1  0  0  0  0
  9 10  1  0  0  0  0
 10 11  1  0  0  0  0
 11 17  1  0  0  0  0
 11 16  1  0  0  0  0
 12 11  1  0  0  0  0
 13 14  1  0  0  0  0
 13 12  1  0  0  0  0
 14 15  1  0  0  0  0
 15 16  1  0  0  0  0
 18 19  1  0  0  0  0
 20 22  1  0  0  0  0
 20 19  2  0  0  0  0
 21 20  1  0  0  0  0
 23 21  2  0  0  0  0
 23 24  1  0  0  0  0
 24 18  2  0  0  0  0
 25 26  1  1  0  0  0
 27 25  1  0  0  0  0
 28 27  1  0  0  0  0
 29 30  2  0  0  0  0
 29 28  1  0  0  0  0
 30 32  1  0  0  0  0
 31 29  1  0  0  0  0
 32 33  1  0  0  0  0
 32 27  2  0  0  0  0
M  END
>  <Pose>
1

>  <Score>
-8.126

$$$$
