MODEL 1
REMARK VINA RESULT:    -7.854      0.000      0.000
REMARK INTER + INTRA:          -8.595
REMARK INTER:                  -8.313
REMARK INTRA:                  -0.282
REMARK UNBOUND:                -0.282
REMARK  1 active torsions:
REMARK  status: ('A' for Active; 'I' for Inactive)
REMARK    1  A    between atoms: C_14  and  C_16 
ROOT
ATOM      1  S   UNK d   1      21.279  81.396  17.066  0.00  0.00    -0.074 SA
ATOM      2  C   UNK d   1      22.317  80.415  16.113  0.00  0.00     0.088 A 
ATOM      3  C   UNK d   1      22.339  79.239  16.813  0.00  0.00     0.073 A 
ATOM      4  C   UNK d   1      21.615  79.176  17.941  0.00  0.00    -0.023 A 
ATOM      5  C   UNK d   1      20.911  80.293  18.303  0.00  0.00     0.018 A 
ATOM      6  C   UNK d   1      20.108  80.202  19.568  0.00  0.00     0.281 C 
ATOM      7  N   UNK d   1      19.226  79.042  19.456  0.00  0.00    -0.070 N 
ATOM      8  C   UNK d   1      19.920  77.832  19.139  0.00  0.00     0.239 C 
ATOM      9  C   UNK d   1      21.417  78.046  18.940  0.00  0.00     0.068 C 
ATOM     10  C   UNK d   1      18.326  79.337  18.341  0.00  0.00     0.270 C 
ATOM     11  C   UNK d   1      23.187  78.178  16.202  0.00  0.00     0.256 C 
ATOM     12  O   UNK d   1      23.294  77.041  16.749  0.00  0.00    -0.267 OA
ATOM     13  N   UNK d   1      23.875  78.465  14.994  0.00  0.00    -0.332 N 
ATOM     14  C   UNK d   1      23.504  79.498  14.072  0.00  0.00     0.219 C 
ATOM     15  N   UNK d   1      23.052  80.619  14.881  0.00  0.00    -0.358 N 
ATOM     16  H   UNK d   1      18.619  78.972  20.297  0.00  0.00     0.279 HD
ATOM     17  H   UNK d   1      24.719  77.864  14.776  0.00  0.00     0.165 HD
ATOM     18  H   UNK d   1      23.235  81.607  14.613  0.00  0.00     0.162 HD
ENDROOT
BRANCH  14  19
ATOM     19  C   UNK d   1      22.417  79.083  13.152  0.00  0.00    -0.013 A 
ATOM     20  C   UNK d   1      21.660  77.953  13.380  0.00  0.00     0.033 A 
ATOM     21  C   UNK d   1      20.647  77.553  12.538  0.00  0.00     0.049 A 
ATOM     22  C   UNK d   1      20.359  78.297  11.412  0.00  0.00     0.141 A 
ATOM     23 Br   UNK d   1      19.613  75.998  12.864  0.00  0.00    -0.048 Br
ATOM     24  C   UNK d   1      21.100  79.427  11.163  0.00  0.00     0.049 A 
ATOM     25  O   UNK d   1      19.339  77.899  10.559  0.00  0.00    -0.189 OA
ATOM     26  C   UNK d   1      22.115  79.822  12.014  0.00  0.00     0.033 A 
ATOM     27 Br   UNK d   1      20.665  80.432   9.585  0.00  0.00    -0.048 Br
ENDBRANCH  14  19
TORSDOF 1
ENDMDL
