MODEL 1
REMARK VINA RESULT:    -8.787      0.000      0.000
REMARK INTER + INTRA:         -10.688
REMARK INTER:                 -10.328
REMARK INTRA:                  -0.359
REMARK UNBOUND:                -0.359
REMARK  3 active torsions:
REMARK  status: ('A' for Active; 'I' for Inactive)
REMARK    1  A    between atoms: C_14  and  C_16 
REMARK    2  A    between atoms: C_20  and  O_22 
REMARK    3  A    between atoms: O_22  and  C_23 
ROOT
ATOM      1  S   UNK d   1      21.629  77.519  17.709  0.00  0.00    -0.074 SA
ATOM      2  C   UNK d   1      22.618  78.160  16.474  0.00  0.00     0.088 A 
ATOM      3  C   UNK d   1      22.320  79.494  16.504  0.00  0.00     0.073 A 
ATOM      4  C   UNK d   1      21.406  79.902  17.421  0.00  0.00    -0.023 A 
ATOM      5  C   UNK d   1      20.865  78.937  18.233  0.00  0.00     0.018 A 
ATOM      6  C   UNK d   1      19.849  79.257  19.278  0.00  0.00     0.281 C 
ATOM      7  N   UNK d   1      19.992  80.550  19.854  0.00  0.00    -0.070 N 
ATOM      8  C   UNK d   1      20.844  81.460  19.167  0.00  0.00     0.239 C 
ATOM      9  C   UNK d   1      20.887  81.321  17.678  0.00  0.00     0.068 C 
ATOM     10  C   UNK d   1      18.692  81.142  20.145  0.00  0.00     0.270 C 
ATOM     11  C   UNK d   1      23.080  80.300  15.499  0.00  0.00     0.256 C 
ATOM     12  O   UNK d   1      22.888  81.557  15.427  0.00  0.00    -0.267 OA
ATOM     13  N   UNK d   1      24.001  79.661  14.637  0.00  0.00    -0.332 N 
ATOM     14  C   UNK d   1      23.833  78.271  14.274  0.00  0.00     0.219 C 
ATOM     15  N   UNK d   1      23.576  77.590  15.542  0.00  0.00    -0.358 N 
ATOM     16  H   UNK d   1      20.430  80.402  20.817  0.00  0.00     0.279 HD
ATOM     17  H   UNK d   1      24.814  80.195  14.256  0.00  0.00     0.165 HD
ATOM     18  H   UNK d   1      24.031  76.711  15.839  0.00  0.00     0.162 HD
ENDROOT
BRANCH  14  19
ATOM     19  C   UNK d   1      22.634  78.185  13.400  0.00  0.00    -0.012 A 
ATOM     20  C   UNK d   1      22.529  78.964  12.269  0.00  0.00     0.033 A 
ATOM     21  C   UNK d   1      21.425  78.899  11.446  0.00  0.00     0.051 A 
ATOM     22  C   UNK d   1      20.390  78.028  11.760  0.00  0.00     0.157 A 
ATOM     23 Br   UNK d   1      21.267  79.970   9.878  0.00  0.00    -0.048 Br
ATOM     24  C   UNK d   1      20.468  77.237  12.886  0.00  0.00     0.107 A 
ATOM     25  O   UNK d   1      19.265  77.945  10.943  0.00  0.00    -0.188 OA
ATOM     26  C   UNK d   1      21.570  77.324  13.677  0.00  0.00     0.050 A 
BRANCH  24  27
ATOM     27  O   UNK d   1      19.411  76.386  13.154  0.00  0.00    -0.348 OA
BRANCH  27  28
ATOM     28  C   UNK d   1      19.445  75.280  14.000  0.00  0.00     0.171 C 
ATOM     29  C   UNK d   1      18.982  74.026  13.291  0.00  0.00     0.034 C 
ENDBRANCH  27  28
ENDBRANCH  24  27
ENDBRANCH  14  19
TORSDOF 3
ENDMDL
