/Users/jonathanwahrer/Desktop/Msc/3_Semester/Drug_Design_Praktikum/waehrer_HTS_screening/HTS_experiment/out/docking_results/vina_output/6e43/1193_docked.pdbqt
 OpenBabel03212220243D

 29 32  0  0  1  0  0  0  0  0999 V2000
   21.6290   77.5190   17.7090 S   0  0  0  0  0  0  0  0  0  0  0  0
   22.6180   78.1600   16.4740 C   0  0  0  0  0  0  0  0  0  0  0  0
   22.3200   79.4940   16.5040 C   0  0  0  0  0  0  0  0  0  0  0  0
   21.4060   79.9020   17.4210 C   0  0  0  0  0  0  0  0  0  0  0  0
   20.8650   78.9370   18.2330 C   0  0  0  0  0  0  0  0  0  0  0  0
   19.8490   79.2570   19.2780 C   0  0  0  0  0  2  0  0  0  0  0  0
   19.9920   80.5500   19.8540 N   0  0  0  0  0  4  0  0  0  0  0  0
   20.8440   81.4600   19.1670 C   0  0  0  0  0  2  0  0  0  0  0  0
   20.8870   81.3210   17.6780 C   0  0  0  0  0  2  0  0  0  0  0  0
   18.6920   81.1420   20.1450 C   0  0  0  0  0  1  0  0  0  0  0  0
   23.0800   80.3000   15.4990 C   0  0  0  0  0  0  0  0  0  0  0  0
   22.8880   81.5570   15.4270 O   0  0  0  0  0  0  0  0  0  0  0  0
   24.0010   79.6610   14.6370 N   0  0  0  0  0  0  0  0  0  0  0  0
   23.8330   78.2710   14.2740 C   0  0  1  0  0  3  0  0  0  0  0  0
   23.5760   77.5900   15.5420 N   0  0  0  0  0  0  0  0  0  0  0  0
   20.4300   80.4020   20.8170 H   0  0  0  0  0  0  0  0  0  0  0  0
   24.8140   80.1950   14.2560 H   0  0  0  0  0  0  0  0  0  0  0  0
   24.0310   76.7110   15.8390 H   0  0  0  0  0  0  0  0  0  0  0  0
   22.6340   78.1850   13.4000 C   0  0  0  0  0  0  0  0  0  0  0  0
   22.5290   78.9640   12.2690 C   0  0  0  0  0  3  0  0  0  0  0  0
   21.4250   78.8990   11.4460 C   0  0  0  0  0  0  0  0  0  0  0  0
   20.3900   78.0280   11.7600 C   0  0  0  0  0  0  0  0  0  0  0  0
   21.2670   79.9700    9.8780 Br  0  0  0  0  0  0  0  0  0  0  0  0
   20.4680   77.2370   12.8860 C   0  0  0  0  0  0  0  0  0  0  0  0
   19.2650   77.9450   10.9430 O   0  0  0  0  0  1  0  0  0  0  0  0
   21.5700   77.3240   13.6770 C   0  0  0  0  0  3  0  0  0  0  0  0
   19.4110   76.3860   13.1540 O   0  0  0  0  0  0  0  0  0  0  0  0
   19.4450   75.2800   14.0000 C   0  0  0  0  0  2  0  0  0  0  0  0
   18.9820   74.0260   13.2910 C   0  0  0  0  0  1  0  0  0  0  0  0
  1  5  1  0  0  0  0
  2  3  2  0  0  0  0
  2  1  1  0  0  0  0
  3  4  1  0  0  0  0
  4  9  1  0  0  0  0
  4  5  2  0  0  0  0
  5  6  1  0  0  0  0
  6  7  1  0  0  0  0
  7 10  1  0  0  0  0
  7 16  1  0  0  0  0
  8  7  1  0  0  0  0
  9  8  1  0  0  0  0
 11  3  1  0  0  0  0
 12 11  2  0  0  0  0
 13 11  1  0  0  0  0
 14 19  1  6  0  0  0
 14 13  1  0  0  0  0
 14 15  1  0  0  0  0
 15 18  1  0  0  0  0
 15  2  1  0  0  0  0
 17 13  1  0  0  0  0
 19 26  1  0  0  0  0
 20 19  2  0  0  0  0
 21 22  2  0  0  0  0
 21 20  1  0  0  0  0
 22 24  1  0  0  0  0
 23 21  1  0  0  0  0
 24 27  1  0  0  0  0
 24 26  2  0  0  0  0
 25 22  1  0  0  0  0
 27 28  1  0  0  0  0
 29 28  1  0  0  0  0
M  END
>  <Pose>
1

>  <Score>
-8.787

$$$$
