MODEL 1
REMARK VINA RESULT:    -8.803      0.000      0.000
REMARK INTER + INTRA:         -10.893
REMARK INTER:                 -10.347
REMARK INTRA:                  -0.546
REMARK UNBOUND:                -0.546
REMARK  3 active torsions:
REMARK  status: ('A' for Active; 'I' for Inactive)
REMARK    1  A    between atoms: N_6  and  C_18 
REMARK    2  A    between atoms: C_8  and  C_9 
REMARK    3  A    between atoms: C_12  and  N_15 
ROOT
ATOM      1  S   UNK d   1      24.164  77.274  15.422  0.00  0.00    -0.087 SA
ATOM      2  C   UNK d   1      24.850  77.858  16.994  0.00  0.00     0.069 C 
ATOM      3  C   UNK d   1      23.580  78.320  17.656  0.00  0.00     0.146 C 
ATOM      4  N   UNK d   1      22.638  78.842  16.713  0.00  0.00    -0.324 N 
ATOM      5  C   UNK d   1      22.793  78.423  15.446  0.00  0.00     0.154 A 
ATOM      6  N   UNK d   1      21.868  79.005  14.673  0.00  0.00    -0.300 N 
ATOM      7  C   UNK d   1      21.104  79.808  15.446  0.00  0.00     0.130 A 
ATOM      8  C   UNK d   1      21.575  79.716  16.734  0.00  0.00     0.062 A 
ATOM      9  C   UNK d   1      25.733  79.066  16.794  0.00  0.00     0.023 C 
ENDROOT
BRANCH   8  10
ATOM     10  C   UNK d   1      21.023  80.437  17.857  0.00  0.00    -0.008 A 
ATOM     11  C   UNK d   1      20.795  81.816  17.703  0.00  0.00     0.016 A 
ATOM     12  C   UNK d   1      20.236  82.554  18.714  0.00  0.00     0.037 A 
ATOM     13  C   UNK d   1      19.869  82.011  19.920  0.00  0.00     0.102 A 
ATOM     14  C   UNK d   1      20.082  80.663  20.096  0.00  0.00     0.037 A 
ATOM     15  C   UNK d   1      20.651  79.908  19.064  0.00  0.00     0.016 A 
BRANCH  13  16
ATOM     16  N   UNK d   1      19.299  82.840  20.914  0.00  0.00    -0.116 N 
ATOM     17  O   UNK d   1      18.296  83.521  20.671  0.00  0.00    -0.532 OA
ATOM     18  O   UNK d   1      19.867  82.886  22.150  0.00  0.00    -0.532 OA
ENDBRANCH  13  16
ENDBRANCH   8  10
BRANCH   6  19
ATOM     19  C   UNK d   1      21.698  78.824  13.272  0.00  0.00     0.041 A 
ATOM     20  C   UNK d   1      20.733  77.989  12.757  0.00  0.00     0.031 A 
ATOM     21  C   UNK d   1      20.547  77.797  11.404  0.00  0.00     0.021 A 
ATOM     22  C   UNK d   1      21.354  78.460  10.507  0.00  0.00     0.011 A 
ATOM     23  C   UNK d   1      22.336  79.308  10.989  0.00  0.00     0.021 A 
ATOM     24 Br   UNK d   1      21.126  78.217   8.623  0.00  0.00    -0.051 Br
ATOM     25  C   UNK d   1      22.501  79.484  12.347  0.00  0.00     0.031 A 
ENDBRANCH   6  19
TORSDOF 3
ENDMDL
