/Users/jonathanwahrer/Desktop/Msc/3_Semester/Drug_Design_Praktikum/waehrer_HTS_screening/HTS_experiment/out/docking_results/vina_output/6e43/1211_docked.pdbqt
 OpenBabel03212220243D

 26 29  0  0  1  0  0  0  0  0999 V2000
   23.0640   79.5310   15.2450 S   0  0  0  0  0  0  0  0  0  0  0  0
   24.7460   79.7300   15.9520 C   0  0  0  0  0  2  0  0  0  0  0  0
   24.9240   78.5080   16.8560 C   0  0  0  0  0  2  0  0  0  0  0  0
   23.9440   78.6450   18.0170 C   0  0  0  0  0  2  0  0  0  0  0  0
   22.6730   78.1360   17.5660 N   0  0  1  0  0  0  0  0  0  0  0  0
   22.2050   78.4570   16.3870 C   0  0  2  0  0  3  0  0  0  0  0  0
   20.9320   77.7750   16.2300 N   0  0  0  0  0  0  0  0  0  0  0  0
   20.4050   77.8420   17.5760 C   0  0  2  0  0  0  0  0  0  0  0  0
   21.7120   77.2330   18.2080 C   0  0  0  0  0  2  0  0  0  0  0  0
   19.3180   77.0670   17.8300 O   0  0  0  0  0  0  0  0  0  0  0  0
   18.6770   77.5950   18.3980 H   0  0  0  0  0  0  0  0  0  0  0  0
   20.3060   79.2430   17.9990 C   0  0  0  0  0  0  0  0  0  0  0  0
   20.0620   80.2830   17.1180 C   0  0  0  0  0  3  0  0  0  0  0  0
   20.0140   81.6020   17.5940 C   0  0  0  0  0  3  0  0  0  0  0  0
   20.1990   81.9080   18.8890 C   0  0  0  0  0  0  0  0  0  0  0  0
   20.4470   80.8730   19.8140 C   0  0  0  0  0  3  0  0  0  0  0  0
   20.4860   79.5870   19.3050 C   0  0  0  0  0  3  0  0  0  0  0  0
   20.1610   83.2280   19.4090 O   0  0  0  0  0  0  0  0  0  0  0  0
   20.4540   83.4670   20.7690 C   0  0  0  0  0  1  0  0  0  0  0  0
   20.4370   77.1590   15.0630 C   0  0  0  0  0  0  0  0  0  0  0  0
   19.6320   76.0040   15.2190 C   0  0  0  0  0  3  0  0  0  0  0  0
   19.1460   75.3010   14.1310 C   0  0  0  0  0  3  0  0  0  0  0  0
   19.4270   75.6960   12.8520 C   0  0  0  0  0  0  0  0  0  0  0  0
   20.2090   76.8170   12.6670 C   0  0  0  0  0  3  0  0  0  0  0  0
   18.7960   74.7460   11.3200 Br  0  0  0  0  0  0  0  0  0  0  0  0
   20.6980   77.5290   13.7790 C   0  0  0  0  0  3  0  0  0  0  0  0
  1  2  1  0  0  0  0
  2  3  1  0  0  0  0
  3  4  1  0  0  0  0
  5  4  1  6  0  0  0
  5  9  1  0  0  0  0
  6  1  1  6  0  0  0
  6  5  1  0  0  0  0
  7  6  1  0  0  0  0
  7  8  1  0  0  0  0
  8 10  1  1  0  0  0
  8 12  1  0  0  0  0
  8  9  1  0  0  0  0
 10 11  1  0  0  0  0
 12 17  1  0  0  0  0
 13 14  1  0  0  0  0
 13 12  2  0  0  0  0
 14 15  2  0  0  0  0
 15 18  1  0  0  0  0
 15 16  1  0  0  0  0
 17 16  2  0  0  0  0
 18 19  1  0  0  0  0
 20 21  1  0  0  0  0
 20  7  1  0  0  0  0
 22 21  2  0  0  0  0
 23 22  1  0  0  0  0
 24 23  2  0  0  0  0
 24 26  1  0  0  0  0
 25 23  1  0  0  0  0
 26 20  2  0  0  0  0
M  END
>  <Pose>
1

>  <Score>
-8.438

$$$$
