/Users/jonathanwahrer/Desktop/Msc/3_Semester/Drug_Design_Praktikum/waehrer_HTS_screening/HTS_experiment/out/docking_results/vina_output/6e43/1217_docked.pdbqt
 OpenBabel03212220243D

 28 31  0  0  1  0  0  0  0  0999 V2000
   24.2850   79.4050   17.2780 S   0  0  0  0  0  0  0  0  0  0  0  0
   25.7990   78.5830   16.8470 C   0  0  0  0  0  2  0  0  0  0  0  0
   25.6250   77.8540   15.5300 C   0  0  0  0  0  2  0  0  0  0  0  0
   24.5230   76.8190   15.6710 C   0  0  0  0  0  2  0  0  0  0  0  0
   23.2330   77.4710   15.6770 N   0  0  2  0  0  0  0  0  0  0  0  0
   22.0730   77.2950   14.8650 C   0  0  2  0  0  0  0  0  0  0  0  0
   20.9940   77.5940   15.8950 C   0  0  0  0  0  2  0  0  0  0  0  0
   21.5900   78.6400   16.6950 N   0  0  0  0  0  0  0  0  0  0  0  0
   22.8670   78.5170   16.5940 C   0  0  2  0  0  3  0  0  0  0  0  0
   20.9180   79.6520   17.4320 C   0  0  0  0  0  0  0  0  0  0  0  0
   20.0050   79.2350   18.3910 C   0  0  0  0  0  0  0  0  0  0  0  0
   19.2850   80.1720   19.1390 C   0  0  0  0  0  3  0  0  0  0  0  0
   19.4850   81.5240   18.9180 C   0  0  0  0  0  3  0  0  0  0  0  0
   20.3820   81.9720   17.9770 C   0  0  0  0  0  0  0  0  0  0  0  0
   21.0740   80.9770   17.2590 C   0  0  0  0  0  3  0  0  0  0  0  0
   19.8060   77.8880   18.6050 O   0  0  0  0  0  0  0  0  0  0  0  0
   20.4040   77.1330   19.6330 C   0  0  0  0  0  1  0  0  0  0  0  0
   20.6270   83.3070   17.7100 O   0  0  0  0  0  0  0  0  0  0  0  0
   20.2970   84.3860   18.5380 C   0  0  0  0  0  1  0  0  0  0  0  0
   21.9880   75.9800   14.4210 O   0  0  0  0  0  0  0  0  0  0  0  0
   21.3750   75.4660   14.9940 H   0  0  0  0  0  0  0  0  0  0  0  0
   21.9120   78.2620   13.7610 C   0  0  0  0  0  0  0  0  0  0  0  0
   22.5840   79.4330   13.6120 C   0  0  0  0  0  3  0  0  0  0  0  0
   22.3250   80.2930   12.5420 C   0  0  0  0  0  3  0  0  0  0  0  0
   21.3710   79.9870   11.5940 C   0  0  0  0  0  0  0  0  0  0  0  0
   20.6920   78.8160   11.7340 C   0  0  0  0  0  3  0  0  0  0  0  0
   21.0220   81.1810   10.1350 Br  0  0  0  0  0  0  0  0  0  0  0  0
   20.9460   77.9740   12.7810 C   0  0  0  0  0  3  0  0  0  0  0  0
  2  1  1  0  0  0  0
  3  4  1  0  0  0  0
  3  2  1  0  0  0  0
  5  4  1  6  0  0  0
  5  9  1  0  0  0  0
  6 20  1  6  0  0  0
  6  5  1  0  0  0  0
  6  7  1  0  0  0  0
  7  8  1  0  0  0  0
  8 10  1  0  0  0  0
  9  8  1  0  0  0  0
  9  1  1  6  0  0  0
 10 11  1  0  0  0  0
 11 16  1  0  0  0  0
 11 12  2  0  0  0  0
 13 12  1  0  0  0  0
 14 13  2  0  0  0  0
 15 10  2  0  0  0  0
 15 14  1  0  0  0  0
 16 17  1  0  0  0  0
 18 14  1  0  0  0  0
 18 19  1  0  0  0  0
 20 21  1  0  0  0  0
 22  6  1  0  0  0  0
 23 22  1  0  0  0  0
 24 23  2  0  0  0  0
 25 26  2  0  0  0  0
 25 24  1  0  0  0  0
 26 28  1  0  0  0  0
 27 25  1  0  0  0  0
 28 22  2  0  0  0  0
M  END
>  <Pose>
1

>  <Score>
-8.132

$$$$
