MODEL 1
REMARK VINA RESULT:    -8.132      0.000      0.000
REMARK INTER + INTRA:         -10.577
REMARK INTER:                 -10.271
REMARK INTRA:                  -0.306
REMARK UNBOUND:                -0.306
REMARK  5 active torsions:
REMARK  status: ('A' for Active; 'I' for Inactive)
REMARK    1  A    between atoms: C_6  and  O_20 
REMARK    2  A    between atoms: C_6  and  C_21 
REMARK    3  A    between atoms: N_8  and  C_10 
REMARK    4  A    between atoms: C_11  and  O_18 
REMARK    5  A    between atoms: C_14  and  O_16 
ROOT
ATOM      1  S   UNK d   1      24.285  79.405  17.278  0.00  0.00    -0.094 SA
ATOM      2  C   UNK d   1      25.799  78.583  16.847  0.00  0.00     0.084 C 
ATOM      3  C   UNK d   1      25.625  77.854  15.530  0.00  0.00     0.030 C 
ATOM      4  C   UNK d   1      24.523  76.819  15.671  0.00  0.00     0.129 C 
ATOM      5  N   UNK d   1      23.233  77.471  15.677  0.00  0.00    -0.324 N 
ATOM      6  C   UNK d   1      22.073  77.295  14.865  0.00  0.00     0.181 C 
ATOM      7  C   UNK d   1      20.994  77.594  15.895  0.00  0.00     0.198 C 
ATOM      8  N   UNK d   1      21.590  78.640  16.695  0.00  0.00    -0.320 N 
ATOM      9  C   UNK d   1      22.867  78.517  16.594  0.00  0.00     0.148 C 
ENDROOT
BRANCH   8  10
ATOM     10  C   UNK d   1      20.918  79.652  17.432  0.00  0.00     0.072 A 
ATOM     11  C   UNK d   1      20.005  79.235  18.391  0.00  0.00     0.095 A 
ATOM     12  C   UNK d   1      19.285  80.172  19.139  0.00  0.00     0.042 A 
ATOM     13  C   UNK d   1      19.485  81.524  18.918  0.00  0.00     0.039 A 
ATOM     14  C   UNK d   1      20.382  81.972  17.977  0.00  0.00     0.070 A 
ATOM     15  C   UNK d   1      21.074  80.977  17.259  0.00  0.00     0.069 A 
BRANCH  11  16
ATOM     16  O   UNK d   1      19.806  77.888  18.605  0.00  0.00    -0.354 OA
ATOM     17  C   UNK d   1      20.404  77.133  19.633  0.00  0.00     0.210 C 
ENDBRANCH  11  16
BRANCH  14  18
ATOM     18  O   UNK d   1      20.627  83.307  17.710  0.00  0.00    -0.356 OA
ATOM     19  C   UNK d   1      20.297  84.386  18.538  0.00  0.00     0.210 C 
ENDBRANCH  14  18
ENDBRANCH   8  10
BRANCH   6  20
ATOM     20  O   UNK d   1      21.988  75.980  14.421  0.00  0.00    -0.365 OA
ATOM     21  H   UNK d   1      21.375  75.466  14.994  0.00  0.00     0.213 HD
ENDBRANCH   6  20
BRANCH   6  22
ATOM     22  C   UNK d   1      21.912  78.262  13.761  0.00  0.00    -0.002 A 
ATOM     23  C   UNK d   1      22.584  79.433  13.612  0.00  0.00     0.013 A 
ATOM     24  C   UNK d   1      22.325  80.293  12.542  0.00  0.00     0.020 A 
ATOM     25  C   UNK d   1      21.371  79.987  11.594  0.00  0.00     0.011 A 
ATOM     26  C   UNK d   1      20.692  78.816  11.734  0.00  0.00     0.020 A 
ATOM     27 Br   UNK d   1      21.022  81.181  10.135  0.00  0.00    -0.051 Br
ATOM     28  C   UNK d   1      20.946  77.974  12.781  0.00  0.00     0.013 A 
ENDBRANCH   6  22
TORSDOF 5
ENDMDL
