/Users/jonathanwahrer/Desktop/Msc/3_Semester/Drug_Design_Praktikum/waehrer_HTS_screening/HTS_experiment/out/docking_results/vina_output/6e43/1219_docked.pdbqt
 OpenBabel03212220243D

 27 30  0  0  1  0  0  0  0  0999 V2000
   23.7650   79.1400   14.9730 S   0  0  0  0  0  0  0  0  0  0  0  0
   25.3670   78.5900   15.6920 C   0  0  0  0  0  2  0  0  0  0  0  0
   25.0920   77.7250   16.9100 C   0  0  0  0  0  2  0  0  0  0  0  0
   24.0430   78.3510   17.7940 C   0  0  0  0  0  2  0  0  0  0  0  0
   22.7420   78.0690   17.2770 N   0  0  2  0  0  0  0  0  0  0  0  0
   21.4530   77.6720   17.8140 C   0  0  1  0  0  0  0  0  0  0  0  0
   20.8230   76.9090   16.6630 C   0  0  0  0  0  2  0  0  0  0  0  0
   21.4740   77.5460   15.5000 N   0  0  0  0  0  0  0  0  0  0  0  0
   22.5240   78.1690   15.8610 C   0  0  1  0  0  3  0  0  0  0  0  0
   21.5720   76.9000   18.9520 O   0  0  0  0  0  0  0  0  0  0  0  0
   20.9300   77.0760   19.6550 H   0  0  0  0  0  0  0  0  0  0  0  0
   20.5950   78.8460   18.1030 C   0  0  0  0  0  0  0  0  0  0  0  0
   21.0690   79.8590   18.9140 C   0  0  0  0  0  3  0  0  0  0  0  0
   20.2280   80.9440   19.1590 C   0  0  0  0  0  0  0  0  0  0  0  0
   18.9800   81.0060   18.6170 C   0  0  0  0  0  3  0  0  0  0  0  0
   18.4930   80.0000   17.8020 C   0  0  0  0  0  3  0  0  0  0  0  0
   19.3430   78.9140   17.5610 C   0  0  0  0  0  3  0  0  0  0  0  0
   20.7060   81.9890   19.9900 N   0  0  0  0  0  0  0  0  0  0  0  0
   21.1310   81.7710   21.1410 O   0  0  0  0  0  0  0  0  0  0  0  0
   20.7200   83.2860   19.5600 O   0  0  0  0  0  0  0  0  0  0  0  0
   20.9900   77.4520   14.1630 C   0  0  0  0  0  0  0  0  0  0  0  0
   21.2810   78.3040   13.1390 C   0  0  0  0  0  3  0  0  0  0  0  0
   20.7880   78.1410   11.8510 C   0  0  0  0  0  3  0  0  0  0  0  0
   19.9600   77.0740   11.5680 C   0  0  0  0  0  0  0  0  0  0  0  0
   19.6420   76.1850   12.5880 C   0  0  0  0  0  3  0  0  0  0  0  0
   19.2270   76.7670    9.8270 Br  0  0  0  0  0  0  0  0  0  0  0  0
   20.1470   76.3690   13.8690 C   0  0  0  0  0  3  0  0  0  0  0  0
  1  2  1  0  0  0  0
  2  3  1  0  0  0  0
  3  4  1  0  0  0  0
  5  4  1  6  0  0  0
  5  6  1  0  0  0  0
  6 12  1  0  0  0  0
  6 10  1  1  0  0  0
  7  6  1  0  0  0  0
  8  9  1  0  0  0  0
  8  7  1  0  0  0  0
  9  1  1  1  0  0  0
  9  5  1  0  0  0  0
 10 11  1  0  0  0  0
 12 13  1  0  0  0  0
 13 14  2  0  0  0  0
 14 18  1  0  0  0  0
 15 14  1  0  0  0  0
 16 15  2  0  0  0  0
 17 16  1  0  0  0  0
 17 12  2  0  0  0  0
 18 19  2  0  0  0  0
 20 18  2  0  0  0  0
 21  8  1  0  0  0  0
 22 21  2  0  0  0  0
 23 22  1  0  0  0  0
 24 23  2  0  0  0  0
 24 25  1  0  0  0  0
 25 27  2  0  0  0  0
 26 24  1  0  0  0  0
 27 21  1  0  0  0  0
M  END
>  <Pose>
1

>  <Score>
-8.722

$$$$
