MODEL 1
REMARK VINA RESULT:    -8.722      0.000      0.000
REMARK INTER + INTRA:         -10.765
REMARK INTER:                 -10.506
REMARK INTRA:                  -0.258
REMARK UNBOUND:                -0.258
REMARK  4 active torsions:
REMARK  status: ('A' for Active; 'I' for Inactive)
REMARK    1  A    between atoms: C_6  and  O_17 
REMARK    2  A    between atoms: C_6  and  C_18 
REMARK    3  A    between atoms: N_8  and  C_10 
REMARK    4  A    between atoms: C_20  and  N_24 
ROOT
ATOM      1  S   UNK d   1      23.765  79.140  14.973  0.00  0.00    -0.094 SA
ATOM      2  C   UNK d   1      25.367  78.590  15.692  0.00  0.00     0.084 C 
ATOM      3  C   UNK d   1      25.092  77.725  16.910  0.00  0.00     0.030 C 
ATOM      4  C   UNK d   1      24.043  78.351  17.794  0.00  0.00     0.129 C 
ATOM      5  N   UNK d   1      22.742  78.069  17.277  0.00  0.00    -0.324 N 
ATOM      6  C   UNK d   1      21.453  77.672  17.814  0.00  0.00     0.181 C 
ATOM      7  C   UNK d   1      20.823  76.909  16.663  0.00  0.00     0.198 C 
ATOM      8  N   UNK d   1      21.474  77.546  15.500  0.00  0.00    -0.323 N 
ATOM      9  C   UNK d   1      22.524  78.169  15.861  0.00  0.00     0.147 C 
ENDROOT
BRANCH   6  10
ATOM     10  O   UNK d   1      21.572  76.900  18.952  0.00  0.00    -0.365 OA
ATOM     11  H   UNK d   1      20.930  77.076  19.655  0.00  0.00     0.213 HD
ENDBRANCH   6  10
BRANCH   6  12
ATOM     12  C   UNK d   1      20.595  78.846  18.103  0.00  0.00     0.001 A 
ATOM     13  C   UNK d   1      21.069  79.859  18.914  0.00  0.00     0.048 A 
ATOM     14  C   UNK d   1      20.228  80.944  19.159  0.00  0.00     0.103 A 
ATOM     15  C   UNK d   1      18.980  81.006  18.617  0.00  0.00     0.036 A 
ATOM     16  C   UNK d   1      18.493  80.000  17.802  0.00  0.00     0.003 A 
ATOM     17  C   UNK d   1      19.343  78.914  17.561  0.00  0.00     0.012 A 
BRANCH  14  18
ATOM     18  N   UNK d   1      20.706  81.989  19.990  0.00  0.00    -0.116 N 
ATOM     19  O   UNK d   1      21.131  81.771  21.141  0.00  0.00    -0.532 OA
ATOM     20  O   UNK d   1      20.720  83.286  19.560  0.00  0.00    -0.532 OA
ENDBRANCH  14  18
ENDBRANCH   6  12
BRANCH   8  21
ATOM     21  C   UNK d   1      20.990  77.452  14.163  0.00  0.00     0.036 A 
ATOM     22  C   UNK d   1      21.281  78.304  13.139  0.00  0.00     0.031 A 
ATOM     23  C   UNK d   1      20.788  78.141  11.851  0.00  0.00     0.021 A 
ATOM     24  C   UNK d   1      19.960  77.074  11.568  0.00  0.00     0.011 A 
ATOM     25  C   UNK d   1      19.642  76.185  12.588  0.00  0.00     0.021 A 
ATOM     26 Br   UNK d   1      19.227  76.767   9.827  0.00  0.00    -0.051 Br
ATOM     27  C   UNK d   1      20.147  76.369  13.869  0.00  0.00     0.031 A 
ENDBRANCH   8  21
TORSDOF 4
ENDMDL
