MODEL 1
REMARK VINA RESULT:    -9.091      0.000      0.000
REMARK INTER + INTRA:         -11.547
REMARK INTER:                 -10.951
REMARK INTRA:                  -0.597
REMARK UNBOUND:                -0.597
REMARK  4 active torsions:
REMARK  status: ('A' for Active; 'I' for Inactive)
REMARK    1  A    between atoms: C_6  and  O_17 
REMARK    2  A    between atoms: C_6  and  C_18 
REMARK    3  A    between atoms: N_8  and  C_10 
REMARK    4  A    between atoms: C_21  and  N_24 
ROOT
ATOM      1  S   UNK d   1      23.850  79.067  17.399  0.00  0.00    -0.094 SA
ATOM      2  C   UNK d   1      24.813  79.275  15.847  0.00  0.00     0.084 C 
ATOM      3  C   UNK d   1      24.313  78.458  14.732  0.00  0.00     0.030 C 
ATOM      4  C   UNK d   1      23.310  77.409  14.990  0.00  0.00     0.129 C 
ATOM      5  N   UNK d   1      22.175  77.741  15.749  0.00  0.00    -0.324 N 
ATOM      6  C   UNK d   1      20.827  77.262  15.793  0.00  0.00     0.181 C 
ATOM      7  C   UNK d   1      20.088  78.536  16.137  0.00  0.00     0.198 C 
ATOM      8  N   UNK d   1      21.037  79.202  17.003  0.00  0.00    -0.323 N 
ATOM      9  C   UNK d   1      22.185  78.766  16.777  0.00  0.00     0.147 C 
ENDROOT
BRANCH   6  10
ATOM     10  O   UNK d   1      20.678  76.411  16.891  0.00  0.00    -0.365 OA
ATOM     11  H   UNK d   1      21.163  76.781  17.646  0.00  0.00     0.213 HD
ENDBRANCH   6  10
BRANCH   6  12
ATOM     12  C   UNK d   1      20.313  76.647  14.554  0.00  0.00    -0.001 A 
ATOM     13  C   UNK d   1      19.711  75.397  14.667  0.00  0.00     0.014 A 
ATOM     14  C   UNK d   1      19.198  74.744  13.569  0.00  0.00     0.037 A 
ATOM     15  C   UNK d   1      19.254  75.296  12.301  0.00  0.00     0.102 A 
ATOM     16  C   UNK d   1      19.849  76.538  12.184  0.00  0.00     0.037 A 
ATOM     17  C   UNK d   1      20.370  77.199  13.301  0.00  0.00     0.014 A 
BRANCH  15  18
ATOM     18  N   UNK d   1      18.717  74.605  11.189  0.00  0.00    -0.116 N 
ATOM     19  O   UNK d   1      18.884  74.962  10.017  0.00  0.00    -0.532 OA
ATOM     20  O   UNK d   1      17.973  73.474  11.406  0.00  0.00    -0.532 OA
ENDBRANCH  15  18
ENDBRANCH   6  12
BRANCH   8  21
ATOM     21  C   UNK d   1      20.701  80.196  17.979  0.00  0.00     0.036 A 
ATOM     22  C   UNK d   1      20.314  79.776  19.243  0.00  0.00     0.031 A 
ATOM     23  C   UNK d   1      19.952  80.683  20.236  0.00  0.00     0.021 A 
ATOM     24  C   UNK d   1      19.968  82.038  19.987  0.00  0.00     0.011 A 
ATOM     25  C   UNK d   1      20.349  82.469  18.740  0.00  0.00     0.021 A 
ATOM     26 Br   UNK d   1      19.451  83.285  21.358  0.00  0.00    -0.051 Br
ATOM     27  C   UNK d   1      20.705  81.533  17.761  0.00  0.00     0.031 A 
ENDBRANCH   8  21
TORSDOF 4
ENDMDL
