MODEL 1
REMARK VINA RESULT:    -8.053      0.000      0.000
REMARK INTER + INTRA:          -9.916
REMARK INTER:                  -9.229
REMARK INTRA:                  -0.686
REMARK UNBOUND:                -0.686
REMARK  3 active torsions:
REMARK  status: ('A' for Active; 'I' for Inactive)
REMARK    1  A    between atoms: C_6  and  O_17 
REMARK    2  A    between atoms: C_6  and  C_18 
REMARK    3  A    between atoms: N_8  and  C_10 
ROOT
ATOM      1  S   UNK d   1      20.863  76.410  14.624  0.00  0.00    -0.094 SA
ATOM      2  C   UNK d   1      19.202  76.163  15.396  0.00  0.00     0.084 C 
ATOM      3  C   UNK d   1      19.064  77.024  16.624  0.00  0.00     0.030 C 
ATOM      4  C   UNK d   1      20.377  77.318  17.317  0.00  0.00     0.129 C 
ATOM      5  N   UNK d   1      21.212  78.215  16.620  0.00  0.00    -0.324 N 
ATOM      6  C   UNK d   1      22.152  79.323  16.864  0.00  0.00     0.181 C 
ATOM      7  C   UNK d   1      21.799  80.162  15.659  0.00  0.00     0.198 C 
ATOM      8  N   UNK d   1      21.687  79.144  14.624  0.00  0.00    -0.323 N 
ATOM      9  C   UNK d   1      21.280  78.098  15.171  0.00  0.00     0.147 C 
ENDROOT
BRANCH   6  10
ATOM     10  O   UNK d   1      21.893  80.003  18.015  0.00  0.00    -0.365 OA
ATOM     11  H   UNK d   1      22.621  80.021  18.684  0.00  0.00     0.213 HD
ENDBRANCH   6  10
BRANCH   6  12
ATOM     12  C   UNK d   1      23.571  78.849  16.746  0.00  0.00    -0.002 A 
ATOM     13  C   UNK d   1      23.939  77.531  16.936  0.00  0.00     0.012 A 
ATOM     14  C   UNK d   1      25.275  77.175  16.800  0.00  0.00     0.001 A 
ATOM     15  C   UNK d   1      26.268  78.091  16.478  0.00  0.00     0.000 A 
ATOM     16  C   UNK d   1      25.910  79.398  16.288  0.00  0.00     0.001 A 
ATOM     17  C   UNK d   1      24.571  79.759  16.426  0.00  0.00     0.012 A 
ENDBRANCH   6  12
BRANCH   8  18
ATOM     18  C   UNK d   1      22.052  79.317  13.238  0.00  0.00     0.036 A 
ATOM     19  C   UNK d   1      21.231  79.790  12.264  0.00  0.00     0.031 A 
ATOM     20  C   UNK d   1      21.608  79.897  10.931  0.00  0.00     0.021 A 
ATOM     21  C   UNK d   1      22.867  79.512  10.552  0.00  0.00     0.011 A 
ATOM     22  C   UNK d   1      23.706  79.032  11.540  0.00  0.00     0.021 A 
ATOM     23 Br   UNK d   1      23.475  79.620   8.735  0.00  0.00    -0.051 Br
ATOM     24  C   UNK d   1      23.332  78.927  12.851  0.00  0.00     0.031 A 
ENDBRANCH   8  18
TORSDOF 3
ENDMDL
