MODEL 1
REMARK VINA RESULT:    -9.362      0.000      0.000
REMARK INTER + INTRA:         -11.026
REMARK INTER:                 -10.730
REMARK INTRA:                  -0.296
REMARK UNBOUND:                -0.296
REMARK  3 active torsions:
REMARK  status: ('A' for Active; 'I' for Inactive)
REMARK    1  A    between atoms: C_6  and  O_16 
REMARK    2  A    between atoms: C_6  and  C_17 
REMARK    3  A    between atoms: N_8  and  C_10 
ROOT
ATOM      1  S   UNK d   1      21.588  77.611  14.562  0.00  0.00    -0.094 SA
ATOM      2  C   UNK d   1      20.083  76.673  14.178  0.00  0.00     0.084 C 
ATOM      3  C   UNK d   1      19.633  76.033  15.496  0.00  0.00     0.030 C 
ATOM      4  C   UNK d   1      19.227  77.165  16.454  0.00  0.00     0.129 C 
ATOM      5  N   UNK d   1      20.448  77.659  17.102  0.00  0.00    -0.324 N 
ATOM      6  C   UNK d   1      20.757  78.026  18.424  0.00  0.00     0.181 C 
ATOM      7  C   UNK d   1      22.280  78.097  18.461  0.00  0.00     0.198 C 
ATOM      8  N   UNK d   1      22.670  78.006  17.088  0.00  0.00    -0.323 N 
ATOM      9  C   UNK d   1      21.650  77.799  16.359  0.00  0.00     0.147 C 
ENDROOT
BRANCH   6  10
ATOM     10  O   UNK d   1      20.409  76.970  19.295  0.00  0.00    -0.365 OA
ATOM     11  H   UNK d   1      20.620  77.288  20.212  0.00  0.00     0.213 HD
ENDBRANCH   6  10
BRANCH   6  12
ATOM     12  C   UNK d   1      20.213  79.270  18.964  0.00  0.00    -0.002 A 
ATOM     13  C   UNK d   1      20.712  80.451  18.416  0.00  0.00     0.013 A 
ATOM     14  C   UNK d   1      20.282  81.711  18.789  0.00  0.00     0.020 A 
ATOM     15  C   UNK d   1      19.316  81.843  19.749  0.00  0.00     0.011 A 
ATOM     16  C   UNK d   1      18.808  80.683  20.305  0.00  0.00     0.020 A 
ATOM     17 Br   UNK d   1      18.663  83.571  20.307  0.00  0.00    -0.051 Br
ATOM     18  C   UNK d   1      19.249  79.421  19.919  0.00  0.00     0.013 A 
ENDBRANCH   6  12
BRANCH   8  19
ATOM     19  C   UNK d   1      24.044  78.095  16.675  0.00  0.00     0.036 A 
ATOM     20  C   UNK d   1      24.762  79.198  17.007  0.00  0.00     0.029 A 
ATOM     21  C   UNK d   1      26.099  79.245  16.622  0.00  0.00     0.002 A 
ATOM     22  C   UNK d   1      26.712  78.228  15.926  0.00  0.00     0.000 A 
ATOM     23  C   UNK d   1      25.940  77.129  15.610  0.00  0.00     0.002 A 
ATOM     24  C   UNK d   1      24.618  77.049  15.974  0.00  0.00     0.029 A 
ENDBRANCH   8  19
TORSDOF 3
ENDMDL
