/Users/jonathanwahrer/Desktop/Msc/3_Semester/Drug_Design_Praktikum/waehrer_HTS_screening/HTS_experiment/out/docking_results/vina_output/6e43/1231_docked.pdbqt
 OpenBabel03212220253D

 37 40  0  0  0  0  0  0  0  0999 V2000
   18.6590   77.0340    7.8340 C   0  0  0  0  0  0  0  0  0  0  0  0
   17.7440   77.1540    6.8650 N   0  0  0  0  0  0  0  0  0  0  0  0
   17.2050   78.3750    7.0260 N   0  0  0  0  0  0  0  0  0  0  0  0
   17.7350   78.9900    8.0210 N   0  0  0  0  0  0  0  0  0  0  0  0
   18.6980   78.1950    8.6140 C   0  0  0  0  0  0  0  0  0  0  0  0
   19.4880   78.6000    9.7470 C   0  0  0  0  0  0  0  0  0  0  0  0
   18.8380   78.9550   10.8090 O   0  0  0  0  0  0  0  0  0  0  0  0
   20.8740   78.6640    9.8610 N   0  0  0  0  0  0  0  0  0  0  0  0
   21.5920   78.4410    9.1510 H   0  0  0  0  0  0  0  0  0  0  0  0
   21.4700   79.0960   11.0970 N   0  0  0  0  0  0  0  0  0  0  0  0
   21.7290   78.2810   12.0410 C   0  0  0  0  0  3  0  0  0  0  0  0
   22.3310   78.6780   13.3060 C   0  0  0  0  0  0  0  0  0  0  0  0
   23.4770   78.0790   13.7810 C   0  0  0  0  0  3  0  0  0  0  0  0
   24.0630   78.4480   14.9740 C   0  0  0  0  0  0  0  0  0  0  0  0
   23.5190   79.4410   15.7470 C   0  0  0  0  0  0  0  0  0  0  0  0
   25.6540   77.5880   15.5920 Br  0  0  0  0  0  0  0  0  0  0  0  0
   22.3510   80.0730   15.2940 C   0  0  0  0  0  0  0  0  0  0  0  0
   24.1250   79.7950   16.9430 O   0  0  0  0  0  1  0  0  0  0  0  0
   21.7890   79.6820   14.0970 C   0  0  0  0  0  3  0  0  0  0  0  0
   21.8590   81.0590   16.1170 O   0  0  0  0  0  0  0  0  0  0  0  0
   20.9150   80.8770   17.1430 C   0  0  0  0  0  1  0  0  0  0  0  0
   19.5500   75.8890    8.0780 C   0  0  0  0  0  2  0  0  0  0  0  0
   18.8500   74.4750    8.9050 S   0  0  0  0  0  0  0  0  0  0  0  0
   18.8390   74.6510   10.6840 C   0  0  0  0  0  0  0  0  0  0  0  0
   18.2010   73.3750   11.7710 S   0  0  0  0  0  0  0  0  0  0  0  0
   18.3170   74.3600   13.2960 C   0  0  0  0  0  2  0  0  0  0  0  0
   19.1250   75.5120   12.7920 C   0  0  0  0  0  2  0  0  0  0  0  0
   19.2200   75.5680   11.4230 N   0  0  0  0  0  0  0  0  0  0  0  0
   17.3480   76.2830    5.8080 C   0  0  0  0  0  0  0  0  0  0  0  0
   18.1310   75.5970    4.9500 N   0  0  0  0  0  0  0  0  0  0  0  0
   17.4460   74.8850    4.1350 O   0  0  0  0  0  0  0  0  0  0  0  0
   16.1920   75.0600    4.4080 N   0  0  0  0  0  0  0  0  0  0  0  0
   16.0630   75.9300    5.4530 C   0  0  0  0  0  0  0  0  0  0  0  0
   14.8550   76.3540    6.0510 N   0  0  0  0  0  4  0  0  0  0  0  0
   15.0850   76.7570    6.9970 H   0  0  0  0  0  0  0  0  0  0  0  0
   14.1360   75.6150    6.1420 H   0  0  0  0  0  0  0  0  0  0  0  0
   14.4570   77.1510    5.4840 H   0  0  0  0  0  0  0  0  0  0  0  0
  1 22  1  0  0  0  0
  1  5  2  0  0  0  0
  2  3  1  0  0  0  0
  2  1  1  0  0  0  0
  3  4  2  0  0  0  0
  4  5  1  0  0  0  0
  5  6  1  0  0  0  0
  6  8  1  0  0  0  0
  6  7  2  0  0  0  0
  8 10  1  0  0  0  0
  9  8  1  0  0  0  0
 10 11  2  0  0  0  0
 11 12  1  0  0  0  0
 12 13  2  0  0  0  0
 12 19  1  0  0  0  0
 13 14  1  0  0  0  0
 14 16  1  0  0  0  0
 14 15  2  0  0  0  0
 15 18  1  0  0  0  0
 17 15  1  0  0  0  0
 17 20  1  0  0  0  0
 19 17  2  0  0  0  0
 20 21  1  0  0  0  0
 22 23  1  0  0  0  0
 23 24  1  0  0  0  0
 24 28  2  0  0  0  0
 24 25  1  0  0  0  0
 25 26  1  0  0  0  0
 27 26  1  0  0  0  0
 28 27  1  0  0  0  0
 29  2  1  0  0  0  0
 30 29  2  0  0  0  0
 31 32  1  0  0  0  0
 31 30  1  0  0  0  0
 32 33  2  0  0  0  0
 33 29  1  0  0  0  0
 33 34  1  0  0  0  0
 34 36  1  0  0  0  0
 34 35  1  0  0  0  0
 37 34  1  0  0  0  0
M  END
>  <Pose>
1

>  <Score>
-8.800

$$$$
