MODEL 1
REMARK VINA RESULT:    -8.800      0.000      0.000
REMARK INTER + INTRA:         -14.520
REMARK INTER:                 -13.173
REMARK INTRA:                  -1.346
REMARK UNBOUND:                -1.346
REMARK  9 active torsions:
REMARK  status: ('A' for Active; 'I' for Inactive)
REMARK    1  A    between atoms: C_5  and  S_6 
REMARK    2  A    between atoms: S_6  and  C_7 
REMARK    3  A    between atoms: C_7  and  C_8 
REMARK    4  A    between atoms: N_9  and  C_28 
REMARK    5  A    between atoms: C_12  and  C_13 
REMARK       I    between atoms: C_13  and  N_15 
REMARK    6  A    between atoms: N_15  and  N_16 
REMARK    7  A    between atoms: C_17  and  C_18 
REMARK    8  A    between atoms: C_22  and  O_24 
REMARK    9  A    between atoms: C_32  and  N_33 
ROOT
ATOM      1  C   UNK d   1      18.659  77.034   7.834  0.00  0.00     0.086 A 
ATOM      2  N   UNK d   1      17.744  77.154   6.865  0.00  0.00    -0.192 N 
ATOM      3  N   UNK d   1      17.205  78.375   7.026  0.00  0.00    -0.058 NA
ATOM      4  N   UNK d   1      17.735  78.990   8.021  0.00  0.00    -0.124 NA
ATOM      5  C   UNK d   1      18.698  78.195   8.614  0.00  0.00     0.175 A 
ENDROOT
BRANCH   5   6
ATOM      6  C   UNK d   1      19.488  78.600   9.747  0.00  0.00     0.294 C 
ATOM      7  O   UNK d   1      18.838  78.955  10.809  0.00  0.00    -0.264 OA
ATOM      8  N   UNK d   1      20.874  78.664   9.861  0.00  0.00    -0.242 N 
ATOM      9  H   UNK d   1      21.592  78.441   9.151  0.00  0.00     0.192 HD
BRANCH   8  10
ATOM     10  N   UNK d   1      21.470  79.096  11.097  0.00  0.00    -0.183 NA
ATOM     11  C   UNK d   1      21.729  78.281  12.041  0.00  0.00     0.150 C 
BRANCH  11  12
ATOM     12  C   UNK d   1      22.331  78.678  13.306  0.00  0.00    -0.013 A 
ATOM     13  C   UNK d   1      23.477  78.079  13.781  0.00  0.00     0.035 A 
ATOM     14  C   UNK d   1      24.063  78.448  14.974  0.00  0.00     0.051 A 
ATOM     15  C   UNK d   1      23.519  79.441  15.747  0.00  0.00     0.157 A 
ATOM     16 Br   UNK d   1      25.654  77.588  15.592  0.00  0.00    -0.048 Br
ATOM     17  C   UNK d   1      22.351  80.073  15.294  0.00  0.00     0.106 A 
ATOM     18  O   UNK d   1      24.125  79.795  16.943  0.00  0.00    -0.188 OA
ATOM     19  C   UNK d   1      21.789  79.682  14.097  0.00  0.00     0.052 A 
BRANCH  17  20
ATOM     20  O   UNK d   1      21.859  81.059  16.117  0.00  0.00    -0.353 OA
ATOM     21  C   UNK d   1      20.915  80.877  17.143  0.00  0.00     0.210 C 
ENDBRANCH  17  20
ENDBRANCH  11  12
ENDBRANCH   8  10
ENDBRANCH   5   6
BRANCH   1  22
ATOM     22  C   UNK d   1      19.550  75.889   8.078  0.00  0.00     0.143 C 
BRANCH  22  23
ATOM     23  S   UNK d   1      18.850  74.475   8.905  0.00  0.00    -0.098 SA
BRANCH  23  24
ATOM     24  C   UNK d   1      18.839  74.651  10.684  0.00  0.00     0.125 C 
ATOM     25  S   UNK d   1      18.201  73.375  11.771  0.00  0.00    -0.102 SA
ATOM     26  C   UNK d   1      18.317  74.360  13.296  0.00  0.00     0.103 C 
ATOM     27  C   UNK d   1      19.125  75.512  12.792  0.00  0.00     0.161 C 
ATOM     28  N   UNK d   1      19.220  75.568  11.423  0.00  0.00    -0.275 NA
ENDBRANCH  23  24
ENDBRANCH  22  23
ENDBRANCH   1  22
BRANCH   2  29
ATOM     29  C   UNK d   1      17.348  76.283   5.808  0.00  0.00     0.237 A 
ATOM     30  N   UNK d   1      18.131  75.597   4.950  0.00  0.00    -0.081 NA
ATOM     31  O   UNK d   1      17.446  74.885   4.135  0.00  0.00    -0.103 OA
ATOM     32  N   UNK d   1      16.192  75.060   4.408  0.00  0.00    -0.075 NA
ATOM     33  C   UNK d   1      16.063  75.930   5.453  0.00  0.00     0.300 A 
BRANCH  33  34
ATOM     34  N   UNK d   1      14.855  76.354   6.051  0.00  0.00    -0.026 N 
ATOM     35  H   UNK d   1      15.085  76.757   6.997  0.00  0.00     0.283 HD
ATOM     36  H   UNK d   1      14.136  75.615   6.142  0.00  0.00     0.283 HD
ATOM     37  H   UNK d   1      14.457  77.151   5.484  0.00  0.00     0.283 HD
ENDBRANCH  33  34
ENDBRANCH   2  29
TORSDOF 9
ENDMDL
