/Users/jonathanwahrer/Desktop/Msc/3_Semester/Drug_Design_Praktikum/waehrer_HTS_screening/HTS_experiment/out/docking_results/vina_output/6e43/1236_docked.pdbqt
 OpenBabel03212220263D

 30 34  0  0  1  0  0  0  0  0999 V2000
   22.8570   78.1630   13.0210 C   0  0  2  0  0  3  0  0  0  0  0  0
   23.4120   79.1250   12.0300 C   0  0  1  0  0  3  0  0  0  0  0  0
   23.7260   78.3580   10.7930 C   0  0  0  0  0  0  0  0  0  0  0  0
   22.6260   78.0410    9.9180 N   0  0  0  0  0  0  0  0  0  0  0  0
   24.9110   78.0180   10.5540 O   0  0  0  0  0  0  0  0  0  0  0  0
   21.5430   78.6950    9.9170 C   0  0  0  0  0  0  0  0  0  0  0  0
   20.0350   78.5540    8.9800 S   0  0  0  0  0  0  0  0  0  0  0  0
   21.3590   79.8050   10.7670 N   0  0  0  0  0  0  0  0  0  0  0  0
   19.5280   80.3150    9.2760 C   0  0  0  0  0  2  0  0  0  0  0  0
   20.0720   80.4340   10.6760 C   0  0  0  0  0  2  0  0  0  0  0  0
   22.4510   80.1840   11.6460 C   0  0  0  0  0  0  0  0  0  0  0  0
   22.5110   81.3790   12.0210 O   0  0  0  0  0  0  0  0  0  0  0  0
   21.5550   78.6080   13.6410 C   0  0  2  0  0  3  0  0  0  0  0  0
   21.7030   79.2860   14.9400 C   0  0  0  0  0  0  0  0  0  0  0  0
   22.1090   80.5000   14.9840 O   0  0  0  0  0  0  0  0  0  0  0  0
   21.3920   78.5840   16.1700 N   0  0  0  0  0  0  0  0  0  0  0  0
   21.7040   79.0150   17.5040 C   0  0  0  0  0  2  0  0  0  0  0  0
   20.6910   77.3600   16.0870 C   0  0  0  0  0  0  0  0  0  0  0  0
   21.9310   77.8300   18.4090 C   0  0  0  0  0  2  0  0  0  0  0  0
   20.5290   76.7940   17.7790 S   0  0  0  0  0  0  0  0  0  0  0  0
   20.3180   76.8490   14.9780 N   0  0  0  0  0  0  0  0  0  0  0  0
   20.5880   77.4850   13.7190 C   0  0  0  0  0  0  0  0  0  0  0  0
   19.9820   77.0600   12.7040 O   0  0  0  0  0  0  0  0  0  0  0  0
   23.8900   77.8680   14.0390 C   0  0  0  0  0  0  0  0  0  0  0  0
   24.7130   78.8740   14.5300 C   0  0  0  0  0  3  0  0  0  0  0  0
   25.6770   78.6110   15.4810 C   0  0  0  0  0  0  0  0  0  0  0  0
   25.8440   77.3340   15.9690 C   0  0  0  0  0  3  0  0  0  0  0  0
   26.8120   79.9850   16.1620 Br  0  0  0  0  0  0  0  0  0  0  0  0
   25.0360   76.3500   15.4860 C   0  0  0  0  0  3  0  0  0  0  0  0
   24.0680   76.5970   14.5340 C   0  0  0  0  0  3  0  0  0  0  0  0
  1 24  1  1  0  0  0
  2  1  1  1  0  0  0
  3  2  1  0  0  0  0
  4  3  1  0  0  0  0
  5  3  2  0  0  0  0
  6  4  2  0  0  0  0
  6  8  1  0  0  0  0
  7  9  1  0  0  0  0
  7  6  1  0  0  0  0
  8 11  1  0  0  0  0
  9 10  1  0  0  0  0
 10  8  1  0  0  0  0
 11 12  2  0  0  0  0
 11  2  1  0  0  0  0
 13  1  1  1  0  0  0
 13 22  1  0  0  0  0
 13 14  1  0  0  0  0
 14 15  2  0  0  0  0
 14 16  1  0  0  0  0
 16 17  1  0  0  0  0
 17 19  1  0  0  0  0
 18 16  1  0  0  0  0
 18 20  1  0  0  0  0
 20 19  1  0  0  0  0
 21 18  2  0  0  0  0
 22 21  1  0  0  0  0
 23 22  2  0  0  0  0
 24 25  2  0  0  0  0
 24 30  1  0  0  0  0
 25 26  1  0  0  0  0
 26 27  2  0  0  0  0
 26 28  1  0  0  0  0
 29 27  1  0  0  0  0
 30 29  2  0  0  0  0
M  END
>  <Pose>
1

>  <Score>
-5.654

$$$$
