MODEL 1
REMARK VINA RESULT:    -5.654      0.000      0.000
REMARK INTER + INTRA:          -7.274
REMARK INTER:                  -6.645
REMARK INTRA:                  -0.629
REMARK UNBOUND:                -0.629
REMARK  3 active torsions:
REMARK  status: ('A' for Active; 'I' for Inactive)
REMARK    1  A    between atoms: C_9  and  C_12 
REMARK    2  A    between atoms: C_12  and  C_13 
REMARK    3  A    between atoms: C_12  and  C_24 
ROOT
ATOM      1  C   UNK d   1      22.857  78.163  13.021  0.00  0.00     0.063 C 
ENDROOT
BRANCH   1   2
ATOM      2  C   UNK d   1      23.412  79.125  12.030  0.00  0.00     0.182 C 
ATOM      3  C   UNK d   1      23.726  78.358  10.793  0.00  0.00     0.259 C 
ATOM      4  N   UNK d   1      22.626  78.041   9.918  0.00  0.00    -0.188 NA
ATOM      5  O   UNK d   1      24.911  78.018  10.554  0.00  0.00    -0.270 OA
ATOM      6  C   UNK d   1      21.543  78.695   9.917  0.00  0.00     0.174 C 
ATOM      7  S   UNK d   1      20.035  78.554   8.980  0.00  0.00    -0.090 SA
ATOM      8  N   UNK d   1      21.359  79.805  10.767  0.00  0.00    -0.295 N 
ATOM      9  C   UNK d   1      19.528  80.315   9.276  0.00  0.00     0.103 C 
ATOM     10  C   UNK d   1      20.072  80.434  10.676  0.00  0.00     0.144 C 
ATOM     11  C   UNK d   1      22.451  80.184  11.646  0.00  0.00     0.239 C 
ATOM     12  O   UNK d   1      22.511  81.379  12.021  0.00  0.00    -0.272 OA
ENDBRANCH   1   2
BRANCH   1  13
ATOM     13  C   UNK d   1      21.555  78.608  13.641  0.00  0.00     0.182 C 
ATOM     14  C   UNK d   1      21.703  79.286  14.940  0.00  0.00     0.239 C 
ATOM     15  O   UNK d   1      22.109  80.500  14.984  0.00  0.00    -0.272 OA
ATOM     16  N   UNK d   1      21.392  78.584  16.170  0.00  0.00    -0.295 N 
ATOM     17  C   UNK d   1      21.704  79.015  17.504  0.00  0.00     0.144 C 
ATOM     18  C   UNK d   1      20.691  77.360  16.087  0.00  0.00     0.174 C 
ATOM     19  C   UNK d   1      21.931  77.830  18.409  0.00  0.00     0.103 C 
ATOM     20  S   UNK d   1      20.529  76.794  17.779  0.00  0.00    -0.090 SA
ATOM     21  N   UNK d   1      20.318  76.849  14.978  0.00  0.00    -0.188 NA
ATOM     22  C   UNK d   1      20.588  77.485  13.719  0.00  0.00     0.259 C 
ATOM     23  O   UNK d   1      19.982  77.060  12.704  0.00  0.00    -0.270 OA
ENDBRANCH   1  13
BRANCH   1  24
ATOM     24  C   UNK d   1      23.890  77.868  14.039  0.00  0.00    -0.050 A 
ATOM     25  C   UNK d   1      24.713  78.874  14.530  0.00  0.00     0.026 A 
ATOM     26  C   UNK d   1      25.677  78.611  15.481  0.00  0.00     0.011 A 
ATOM     27  C   UNK d   1      25.844  77.334  15.969  0.00  0.00     0.019 A 
ATOM     28 Br   UNK d   1      26.812  79.985  16.162  0.00  0.00    -0.051 Br
ATOM     29  C   UNK d   1      25.036  76.350  15.486  0.00  0.00     0.002 A 
ATOM     30  C   UNK d   1      24.068  76.597  14.534  0.00  0.00     0.007 A 
ENDBRANCH   1  24
TORSDOF 3
ENDMDL
