/Users/jonathanwahrer/Desktop/Msc/3_Semester/Drug_Design_Praktikum/waehrer_HTS_screening/HTS_experiment/out/docking_results/vina_output/6e43/1237_docked.pdbqt
 OpenBabel03212220263D

 30 34  0  0  1  0  0  0  0  0999 V2000
   20.9840   77.9790   15.6220 C   0  0  2  0  0  3  0  0  0  0  0  0
   22.3960   78.3660   15.4830 C   0  0  1  0  0  3  0  0  0  0  0  0
   23.3990   77.4940   14.9390 C   0  0  0  0  0  0  0  0  0  0  0  0
   23.6390   77.5730   13.5060 N   0  0  0  0  0  0  0  0  0  0  0  0
   24.1300   76.6500   15.5130 O   0  0  0  0  0  0  0  0  0  0  0  0
   23.3790   78.6610   12.8540 C   0  0  0  0  0  0  0  0  0  0  0  0
   23.5620   79.0760   11.1000 S   0  0  0  0  0  0  0  0  0  0  0  0
   22.8170   79.8180   13.4340 N   0  0  0  0  0  0  0  0  0  0  0  0
   22.3880   80.4990   11.1620 C   0  0  0  0  0  2  0  0  0  0  0  0
   22.6170   80.9260   12.5780 C   0  0  0  0  0  2  0  0  0  0  0  0
   22.5310   79.7300   14.8490 C   0  0  0  0  0  0  0  0  0  0  0  0
   22.4000   80.7690   15.5210 O   0  0  0  0  0  0  0  0  0  0  0  0
   20.4240   77.5270   16.9020 C   0  0  1  0  0  3  0  0  0  0  0  0
   21.2330   78.1960   18.0140 C   0  0  0  0  0  0  0  0  0  0  0  0
   22.3600   77.7450   18.3210 O   0  0  0  0  0  0  0  0  0  0  0  0
   20.6990   79.3460   18.7080 N   0  0  0  0  0  0  0  0  0  0  0  0
   21.4100   80.2800   19.5100 C   0  0  0  0  0  2  0  0  0  0  0  0
   19.3050   79.5710   18.6010 C   0  0  0  0  0  0  0  0  0  0  0  0
   20.7640   81.6430   19.4720 C   0  0  0  0  0  2  0  0  0  0  0  0
   19.0030   81.0640   19.5300 S   0  0  0  0  0  0  0  0  0  0  0  0
   18.5090   78.8250   17.9420 N   0  0  0  0  0  0  0  0  0  0  0  0
   19.0320   77.6560   17.2410 C   0  0  0  0  0  0  0  0  0  0  0  0
   18.1860   76.7860   16.9690 O   0  0  0  0  0  0  0  0  0  0  0  0
   20.4830   77.1890   14.4320 C   0  0  0  0  0  0  0  0  0  0  0  0
   20.4000   77.7620   13.1860 C   0  0  0  0  0  3  0  0  0  0  0  0
   19.9350   77.0160   12.1340 C   0  0  0  0  0  3  0  0  0  0  0  0
   19.5480   75.7190   12.2600 C   0  0  0  0  0  0  0  0  0  0  0  0
   19.6190   75.1180   13.4930 C   0  0  0  0  0  3  0  0  0  0  0  0
   18.8990   74.6820   10.7820 Br  0  0  0  0  0  0  0  0  0  0  0  0
   20.0910   75.8770   14.5640 C   0  0  0  0  0  3  0  0  0  0  0  0
  1 24  1  6  0  0  0
  2  1  1  6  0  0  0
  3  2  1  0  0  0  0
  3  5  2  0  0  0  0
  4  3  1  0  0  0  0
  6  8  1  0  0  0  0
  6  4  2  0  0  0  0
  7  9  1  0  0  0  0
  7  6  1  0  0  0  0
  8 11  1  0  0  0  0
  9 10  1  0  0  0  0
 10  8  1  0  0  0  0
 11  2  1  0  0  0  0
 11 12  2  0  0  0  0
 13  1  1  6  0  0  0
 13 22  1  0  0  0  0
 13 14  1  0  0  0  0
 14 15  2  0  0  0  0
 14 16  1  0  0  0  0
 16 17  1  0  0  0  0
 18 16  1  0  0  0  0
 18 20  1  0  0  0  0
 19 17  1  0  0  0  0
 19 20  1  0  0  0  0
 21 18  2  0  0  0  0
 22 21  1  0  0  0  0
 23 22  2  0  0  0  0
 24 30  1  0  0  0  0
 25 24  2  0  0  0  0
 26 27  2  0  0  0  0
 26 25  1  0  0  0  0
 27 28  1  0  0  0  0
 28 30  2  0  0  0  0
 29 27  1  0  0  0  0
M  END
>  <Pose>
1

>  <Score>
-6.461

$$$$
