MODEL 1
REMARK VINA RESULT:    -6.461      0.000      0.000
REMARK INTER + INTRA:          -7.508
REMARK INTER:                  -7.595
REMARK INTRA:                   0.087
REMARK UNBOUND:                 0.087
REMARK  3 active torsions:
REMARK  status: ('A' for Active; 'I' for Inactive)
REMARK    1  A    between atoms: C_9  and  C_12 
REMARK    2  A    between atoms: C_12  and  C_13 
REMARK    3  A    between atoms: C_12  and  C_24 
ROOT
ATOM      1  C   UNK d   1      20.984  77.979  15.622  0.00  0.00     0.063 C 
ENDROOT
BRANCH   1   2
ATOM      2  C   UNK d   1      22.396  78.366  15.483  0.00  0.00     0.182 C 
ATOM      3  C   UNK d   1      23.399  77.494  14.939  0.00  0.00     0.259 C 
ATOM      4  N   UNK d   1      23.639  77.573  13.506  0.00  0.00    -0.188 NA
ATOM      5  O   UNK d   1      24.130  76.650  15.513  0.00  0.00    -0.270 OA
ATOM      6  C   UNK d   1      23.379  78.661  12.854  0.00  0.00     0.174 C 
ATOM      7  S   UNK d   1      23.562  79.076  11.100  0.00  0.00    -0.090 SA
ATOM      8  N   UNK d   1      22.817  79.818  13.434  0.00  0.00    -0.295 N 
ATOM      9  C   UNK d   1      22.388  80.499  11.162  0.00  0.00     0.103 C 
ATOM     10  C   UNK d   1      22.617  80.926  12.578  0.00  0.00     0.144 C 
ATOM     11  C   UNK d   1      22.531  79.730  14.849  0.00  0.00     0.239 C 
ATOM     12  O   UNK d   1      22.400  80.769  15.521  0.00  0.00    -0.272 OA
ENDBRANCH   1   2
BRANCH   1  13
ATOM     13  C   UNK d   1      20.424  77.527  16.902  0.00  0.00     0.182 C 
ATOM     14  C   UNK d   1      21.233  78.196  18.014  0.00  0.00     0.239 C 
ATOM     15  O   UNK d   1      22.360  77.745  18.321  0.00  0.00    -0.272 OA
ATOM     16  N   UNK d   1      20.699  79.346  18.708  0.00  0.00    -0.295 N 
ATOM     17  C   UNK d   1      21.410  80.280  19.510  0.00  0.00     0.144 C 
ATOM     18  C   UNK d   1      19.305  79.571  18.601  0.00  0.00     0.174 C 
ATOM     19  C   UNK d   1      20.764  81.643  19.472  0.00  0.00     0.103 C 
ATOM     20  S   UNK d   1      19.003  81.064  19.530  0.00  0.00    -0.090 SA
ATOM     21  N   UNK d   1      18.509  78.825  17.942  0.00  0.00    -0.188 NA
ATOM     22  C   UNK d   1      19.032  77.656  17.241  0.00  0.00     0.259 C 
ATOM     23  O   UNK d   1      18.186  76.786  16.969  0.00  0.00    -0.270 OA
ENDBRANCH   1  13
BRANCH   1  24
ATOM     24  C   UNK d   1      20.483  77.189  14.432  0.00  0.00    -0.051 A 
ATOM     25  C   UNK d   1      20.400  77.762  13.186  0.00  0.00     0.009 A 
ATOM     26  C   UNK d   1      19.935  77.016  12.134  0.00  0.00     0.019 A 
ATOM     27  C   UNK d   1      19.548  75.719  12.260  0.00  0.00     0.011 A 
ATOM     28  C   UNK d   1      19.619  75.118  13.493  0.00  0.00     0.019 A 
ATOM     29 Br   UNK d   1      18.899  74.682  10.782  0.00  0.00    -0.051 Br
ATOM     30  C   UNK d   1      20.091  75.877  14.564  0.00  0.00     0.009 A 
ENDBRANCH   1  24
TORSDOF 3
ENDMDL
