MODEL 1
REMARK VINA RESULT:    -8.917      0.000      0.000
REMARK INTER + INTRA:         -10.164
REMARK INTER:                  -9.959
REMARK INTRA:                  -0.205
REMARK UNBOUND:                -0.205
REMARK  2 active torsions:
REMARK  status: ('A' for Active; 'I' for Inactive)
REMARK    1  A    between atoms: C_4  and  C_7 
REMARK    2  A    between atoms: C_14  and  C_15 
ROOT
ATOM      1  S   UNK d   1      19.157  79.954  19.565  0.00  0.00    -0.025 SA
ATOM      2  C   UNK d   1      19.969  78.549  19.001  0.00  0.00     0.219 A 
ATOM      3  N   UNK d   1      21.027  79.087  18.396  0.00  0.00    -0.184 N 
ATOM      4  C   UNK d   1      21.725  78.002  17.918  0.00  0.00     0.205 A 
ATOM      5  N   UNK d   1      21.082  76.882  18.242  0.00  0.00    -0.125 NA
ATOM      6  N   UNK d   1      19.989  77.180  18.914  0.00  0.00    -0.120 NA
ATOM      7  N   UNK d   1      21.158  80.352  18.387  0.00  0.00    -0.154 NA
ATOM      8  C   UNK d   1      20.265  81.131  18.965  0.00  0.00     0.153 A 
ENDROOT
BRANCH   8   9
ATOM      9  C   UNK d   1      20.215  82.593  19.075  0.00  0.00     0.133 A 
ATOM     10  N   UNK d   1      20.018  83.465  18.079  0.00  0.00    -0.171 NA
ATOM     11  N   UNK d   1      20.038  84.713  18.574  0.00  0.00    -0.287 N 
ATOM     12  C   UNK d   1      20.248  84.648  19.904  0.00  0.00     0.131 A 
ATOM     13  H   UNK d   1      19.909  85.580  18.004  0.00  0.00     0.188 HD
ATOM     14  C   UNK d   1      20.361  83.292  20.222  0.00  0.00     0.061 A 
ATOM     15 Br   UNK d   1      20.664  82.646  21.968  0.00  0.00    -0.047 Br
ENDBRANCH   8   9
BRANCH   4  16
ATOM     16  C   UNK d   1      22.992  78.050  17.160  0.00  0.00     0.123 A 
ATOM     17  N   UNK d   1      23.250  77.164  16.179  0.00  0.00    -0.254 NA
ATOM     18  C   UNK d   1      24.414  77.218  15.494  0.00  0.00     0.136 A 
ATOM     19  C   UNK d   1      25.346  78.175  15.787  0.00  0.00     0.135 A 
ATOM     20  N   UNK d   1      25.076  79.046  16.760  0.00  0.00    -0.269 NA
ATOM     21  C   UNK d   1      23.922  79.015  17.462  0.00  0.00     0.151 A 
ENDBRANCH   4  16
TORSDOF 2
ENDMDL
