/Users/jonathanwahrer/Desktop/Msc/3_Semester/Drug_Design_Praktikum/waehrer_HTS_screening/HTS_experiment/out/docking_results/vina_output/6e43/1255_docked.pdbqt
 OpenBabel03212220263D

 34 38  0  0  1  0  0  0  0  0999 V2000
   21.6340   78.6650   15.2390 C   0  0  1  0  0  3  0  0  0  0  0  0
   21.5630   77.5340   16.2250 C   0  0  2  0  0  3  0  0  0  0  0  0
   20.0990   77.1270   16.3800 C   0  0  0  0  0  0  0  0  0  0  0  0
   19.2220   78.1130   16.9720 N   0  0  0  0  0  0  0  0  0  0  0  0
   19.7640   76.0070   15.9980 O   0  0  0  0  0  0  0  0  0  0  0  0
   19.6980   78.9650   17.8200 C   0  0  0  0  0  0  0  0  0  0  0  0
   18.9080   80.2900   18.7200 S   0  0  0  0  0  0  0  0  0  0  0  0
   21.0520   78.9830   18.2220 N   0  0  0  0  0  0  0  0  0  0  0  0
   20.3810   80.8120   19.5850 C   0  0  0  0  0  0  0  0  0  0  0  0
   21.3980   79.9410   19.1360 N   0  0  0  0  0  0  0  0  0  0  0  0
   20.4640   81.8120   20.4570 C   0  0  0  0  0  2  0  0  0  0  0  0
   22.3960   80.0590   19.5350 H   0  0  0  0  0  0  0  0  0  0  0  0
   21.9030   77.9670   17.6170 C   0  0  0  0  0  0  0  0  0  0  0  0
   22.8760   77.4930   18.2720 O   0  0  0  0  0  0  0  0  0  0  0  0
   22.9440   79.3170   15.0420 C   0  0  2  0  0  3  0  0  0  0  0  0
   23.0280   80.4020   14.0750 C   0  0  0  0  0  0  0  0  0  0  0  0
   23.0510   81.6150   14.4760 O   0  0  0  0  0  0  0  0  0  0  0  0
   23.0900   80.1470   12.6480 N   0  0  0  0  0  0  0  0  0  0  0  0
   22.7360   80.9770   11.6330 N   0  0  0  0  0  0  0  0  0  0  0  0
   23.5880   78.8770   12.2910 C   0  0  0  0  0  0  0  0  0  0  0  0
   22.8990   80.4940   10.3110 C   0  0  0  0  0  0  0  0  0  0  0  0
   22.3440   81.9740   11.7560 H   0  0  0  0  0  0  0  0  0  0  0  0
   22.6440   81.0860    9.1640 C   0  0  0  0  0  2  0  0  0  0  0  0
   23.5530   78.8390   10.5090 S   0  0  0  0  0  0  0  0  0  0  0  0
   23.9670   77.9890   13.1400 N   0  0  0  0  0  0  0  0  0  0  0  0
   23.9030   78.2460   14.5530 C   0  0  0  0  0  0  0  0  0  0  0  0
   24.5780   77.6500   15.4050 O   0  0  0  0  0  0  0  0  0  0  0  0
   21.0530   78.2760   13.9220 C   0  0  0  0  0  0  0  0  0  0  0  0
   20.9520   76.9550   13.5490 C   0  0  0  0  0  3  0  0  0  0  0  0
   20.4170   76.5900   12.3350 C   0  0  0  0  0  3  0  0  0  0  0  0
   19.9720   77.5640   11.4700 C   0  0  0  0  0  0  0  0  0  0  0  0
   20.0560   78.9160   11.8090 C   0  0  0  0  0  3  0  0  0  0  0  0
   19.2230   77.0890    9.7750 Br  0  0  0  0  0  0  0  0  0  0  0  0
   20.5980   79.2410   13.0350 C   0  0  0  0  0  3  0  0  0  0  0  0
  1 28  1  6  0  0  0
  2  1  1  6  0  0  0
  2  3  1  0  0  0  0
  2 13  1  0  0  0  0
  3  4  1  0  0  0  0
  4  6  2  0  0  0  0
  5  3  2  0  0  0  0
  6  8  1  0  0  0  0
  6  7  1  0  0  0  0
  7  9  1  0  0  0  0
  8 10  1  0  0  0  0
  9 11  2  0  0  0  0
 10 12  1  0  0  0  0
 10  9  1  0  0  0  0
 13  8  1  0  0  0  0
 13 14  2  0  0  0  0
 15  1  1  6  0  0  0
 16 17  2  0  0  0  0
 16 15  1  0  0  0  0
 18 16  1  0  0  0  0
 19 22  1  0  0  0  0
 19 18  1  0  0  0  0
 20 18  1  0  0  0  0
 20 25  2  0  0  0  0
 21 24  1  0  0  0  0
 21 19  1  0  0  0  0
 23 21  2  0  0  0  0
 24 20  1  0  0  0  0
 25 26  1  0  0  0  0
 26 15  1  0  0  0  0
 26 27  2  0  0  0  0
 29 28  1  0  0  0  0
 30 29  2  0  0  0  0
 31 32  2  0  0  0  0
 31 30  1  0  0  0  0
 32 34  1  0  0  0  0
 33 31  1  0  0  0  0
 34 28  2  0  0  0  0
M  END
>  <Pose>
1

>  <Score>
-6.635

$$$$
