MODEL 1
REMARK VINA RESULT:    -6.635      0.000      0.000
REMARK INTER + INTRA:          -4.572
REMARK INTER:                  -7.798
REMARK INTRA:                   3.226
REMARK UNBOUND:                 3.226
REMARK  3 active torsions:
REMARK  status: ('A' for Active; 'I' for Inactive)
REMARK    1  A    between atoms: C_6  and  C_13 
REMARK    2  A    between atoms: C_13  and  C_14 
REMARK    3  A    between atoms: C_13  and  C_26 
ROOT
ATOM      1  C   UNK d   1      21.634  78.665  15.239  0.00  0.00     0.063 C 
ENDROOT
BRANCH   1   2
ATOM      2  C   UNK d   1      21.563  77.534  16.225  0.00  0.00     0.184 C 
ATOM      3  C   UNK d   1      20.099  77.127  16.380  0.00  0.00     0.259 C 
ATOM      4  N   UNK d   1      19.222  78.113  16.972  0.00  0.00    -0.186 NA
ATOM      5  O   UNK d   1      19.764  76.007  15.998  0.00  0.00    -0.270 OA
ATOM      6  C   UNK d   1      19.698  78.965  17.820  0.00  0.00     0.200 A 
ATOM      7  S   UNK d   1      18.908  80.290  18.720  0.00  0.00    -0.032 SA
ATOM      8  N   UNK d   1      21.052  78.983  18.222  0.00  0.00    -0.197 N 
ATOM      9  C   UNK d   1      20.381  80.812  19.585  0.00  0.00     0.083 A 
ATOM     10  N   UNK d   1      21.398  79.941  19.136  0.00  0.00    -0.283 N 
ATOM     11  C   UNK d   1      20.464  81.812  20.457  0.00  0.00     0.052 C 
ATOM     12  H   UNK d   1      22.396  80.059  19.535  0.00  0.00     0.188 HD
ATOM     13  C   UNK d   1      21.903  77.967  17.617  0.00  0.00     0.259 C 
ATOM     14  O   UNK d   1      22.876  77.493  18.272  0.00  0.00    -0.270 OA
ENDBRANCH   1   2
BRANCH   1  15
ATOM     15  C   UNK d   1      22.944  79.317  15.042  0.00  0.00     0.184 C 
ATOM     16  C   UNK d   1      23.028  80.402  14.075  0.00  0.00     0.259 C 
ATOM     17  O   UNK d   1      23.051  81.615  14.476  0.00  0.00    -0.270 OA
ATOM     18  N   UNK d   1      23.090  80.147  12.648  0.00  0.00    -0.197 N 
ATOM     19  N   UNK d   1      22.736  80.977  11.633  0.00  0.00    -0.283 N 
ATOM     20  C   UNK d   1      23.588  78.877  12.291  0.00  0.00     0.200 A 
ATOM     21  C   UNK d   1      22.899  80.494  10.311  0.00  0.00     0.083 A 
ATOM     22  H   UNK d   1      22.344  81.974  11.756  0.00  0.00     0.188 HD
ATOM     23  C   UNK d   1      22.644  81.086   9.164  0.00  0.00     0.052 C 
ATOM     24  S   UNK d   1      23.553  78.839  10.509  0.00  0.00    -0.032 SA
ATOM     25  N   UNK d   1      23.967  77.989  13.140  0.00  0.00    -0.186 NA
ATOM     26  C   UNK d   1      23.903  78.246  14.553  0.00  0.00     0.259 C 
ATOM     27  O   UNK d   1      24.578  77.650  15.405  0.00  0.00    -0.270 OA
ENDBRANCH   1  15
BRANCH   1  28
ATOM     28  C   UNK d   1      21.053  78.276  13.922  0.00  0.00    -0.051 A 
ATOM     29  C   UNK d   1      20.952  76.955  13.549  0.00  0.00     0.009 A 
ATOM     30  C   UNK d   1      20.417  76.590  12.335  0.00  0.00     0.019 A 
ATOM     31  C   UNK d   1      19.972  77.564  11.470  0.00  0.00     0.011 A 
ATOM     32  C   UNK d   1      20.056  78.916  11.809  0.00  0.00     0.019 A 
ATOM     33 Br   UNK d   1      19.223  77.089   9.775  0.00  0.00    -0.051 Br
ATOM     34  C   UNK d   1      20.598  79.241  13.035  0.00  0.00     0.009 A 
ENDBRANCH   1  28
TORSDOF 3
ENDMDL
