/Users/jonathanwahrer/Desktop/Msc/3_Semester/Drug_Design_Praktikum/waehrer_HTS_screening/HTS_experiment/out/docking_results/vina_output/6e43/1256_docked.pdbqt
 OpenBabel03212220273D

 30 33  0  0  0  0  0  0  0  0999 V2000
   19.4780   75.9580    9.5740 S   0  0  0  0  0  0  0  0  0  0  0  0
   18.8950   74.8970   10.7850 C   0  0  0  0  0  0  0  0  0  0  0  0
   18.3680   73.6330   10.7760 N   0  0  0  0  0  0  0  0  0  0  0  0
   18.0170   73.0180   11.9170 C   0  0  0  0  0  0  0  0  0  0  0  0
   17.5340   71.8740   12.0050 O   0  0  0  0  0  0  0  0  0  0  0  0
   18.2270   73.7500   13.0620 C   0  0  0  0  0  3  0  0  0  0  0  0
   18.7500   75.0090   13.0810 C   0  0  0  0  0  0  0  0  0  0  0  0
   19.1010   75.6100   11.8970 N   0  0  0  0  0  0  0  0  0  0  0  0
   19.6230   76.7680   11.7730 N   0  0  0  0  0  0  0  0  0  0  0  0
   19.9510   77.2570   10.6100 C   0  0  0  0  0  0  0  0  0  0  0  0
   18.9250   75.6560   14.3800 C   0  0  0  0  0  0  0  0  0  0  0  0
   17.8870   75.9910   15.0600 O   0  0  0  0  0  0  0  0  0  0  0  0
   20.1720   75.9580   14.9660 N   0  0  0  0  0  0  0  0  0  0  0  0
   21.0640   75.7450   14.4810 H   0  0  0  0  0  0  0  0  0  0  0  0
   20.2200   76.5940   16.2770 C   0  0  0  0  0  2  0  0  0  0  0  0
   21.3810   77.5130   16.3720 C   0  0  0  0  0  0  0  0  0  0  0  0
   21.7140   78.0540   17.6040 C   0  0  0  0  0  0  0  0  0  0  0  0
   22.7610   78.9370   17.6960 C   0  0  0  0  0  3  0  0  0  0  0  0
   23.4990   79.3100   16.6030 C   0  0  0  0  0  3  0  0  0  0  0  0
   23.1740   78.7740   15.3710 C   0  0  0  0  0  0  0  0  0  0  0  0
   22.1170   77.8830   15.2820 C   0  0  0  0  0  3  0  0  0  0  0  0
   24.1550   79.2370   13.8000 Br  0  0  0  0  0  0  0  0  0  0  0  0
   20.9650   77.6720   18.6950 O   0  0  0  0  0  0  0  0  0  0  0  0
   20.0600   78.6220   19.2580 C   0  0  0  0  0  1  0  0  0  0  0  0
   20.5640   78.5220   10.2670 N   0  0  0  0  0  0  0  0  0  0  0  0
   21.9540   78.6060   10.0300 C   0  0  0  0  0  2  0  0  0  0  0  0
   22.3590   80.0410    9.7850 C   0  0  0  0  0  2  0  0  0  0  0  0
   21.6560   80.8800   10.6530 O   0  0  0  0  0  0  0  0  0  0  0  0
   20.3160   80.9710   10.2570 C   0  0  0  0  0  2  0  0  0  0  0  0
   19.6650   79.6240   10.1980 C   0  0  0  0  0  2  0  0  0  0  0  0
  1 10  1  0  0  0  0
  1  2  1  0  0  0  0
  2  8  1  0  0  0  0
  3  2  2  0  0  0  0
  3  4  1  0  0  0  0
  4  5  2  0  0  0  0
  4  6  1  0  0  0  0
  6  7  2  0  0  0  0
  7 11  1  0  0  0  0
  8  7  1  0  0  0  0
  9  8  1  0  0  0  0
 10  9  2  0  0  0  0
 11 13  1  0  0  0  0
 11 12  2  0  0  0  0
 13 15  1  0  0  0  0
 14 13  1  0  0  0  0
 15 16  1  0  0  0  0
 16 17  1  0  0  0  0
 17 18  2  0  0  0  0
 17 23  1  0  0  0  0
 19 18  1  0  0  0  0
 20 19  2  0  0  0  0
 21 20  1  0  0  0  0
 21 16  2  0  0  0  0
 22 20  1  0  0  0  0
 23 24  1  0  0  0  0
 25 10  1  0  0  0  0
 26 25  1  0  0  0  0
 27 26  1  0  0  0  0
 27 28  1  0  0  0  0
 29 28  1  0  0  0  0
 30 29  1  0  0  0  0
 30 25  1  0  0  0  0
M  END
>  <Pose>
1

>  <Score>
-9.555

$$$$
