MODEL 1
REMARK VINA RESULT:    -9.659      0.000      0.000
REMARK INTER + INTRA:         -12.631
REMARK INTER:                 -11.918
REMARK INTRA:                  -0.713
REMARK UNBOUND:                -0.713
REMARK  4 active torsions:
REMARK  status: ('A' for Active; 'I' for Inactive)
REMARK    1  A    between atoms: N_3  and  C_15 
REMARK    2  A    between atoms: C_7  and  C_9 
REMARK    3  A    between atoms: C_15  and  C_16 
REMARK    4  A    between atoms: C_16  and  C_18 
ROOT
ATOM      1  S   UNK d   1      20.403  76.792  14.341  0.00  0.00    -0.063 SA
ATOM      2  C   UNK d   1      20.083  77.044  12.600  0.00  0.00     0.149 A 
ATOM      3  N   UNK d   1      20.236  77.902  11.644  0.00  0.00    -0.352 N 
ATOM      4  C   UNK d   1      19.711  77.421  10.421  0.00  0.00     0.145 A 
ATOM      5  C   UNK d   1      19.178  76.064  10.747  0.00  0.00     0.151 A 
ATOM      6  N   UNK d   1      19.450  75.857  12.189  0.00  0.00    -0.325 N 
ATOM      7  C   UNK d   1      19.260  74.881  13.174  0.00  0.00     0.053 A 
ATOM      8  C   UNK d   1      19.684  75.157  14.387  0.00  0.00     0.083 A 
ENDROOT
BRANCH   3   9
ATOM      9  C   UNK d   1      20.898  79.198  11.875  0.00  0.00     0.208 C 
BRANCH   9  10
ATOM     10  C   UNK d   1      22.352  78.942  11.887  0.00  0.00     0.177 C 
ATOM     11  O   UNK d   1      22.973  78.673  10.838  0.00  0.00    -0.291 OA
BRANCH  10  12
ATOM     12  C   UNK d   1      23.093  78.999  13.138  0.00  0.00     0.011 A 
ATOM     13  C   UNK d   1      23.966  77.973  13.505  0.00  0.00     0.016 A 
ATOM     14  C   UNK d   1      24.676  77.998  14.691  0.00  0.00     0.020 A 
ATOM     15  C   UNK d   1      24.497  79.077  15.515  0.00  0.00     0.011 A 
ATOM     16  C   UNK d   1      23.646  80.119  15.197  0.00  0.00     0.020 A 
ATOM     17 Br   UNK d   1      25.487  79.102  17.157  0.00  0.00    -0.051 Br
ATOM     18  C   UNK d   1      22.940  80.071  13.993  0.00  0.00     0.016 A 
ENDBRANCH  10  12
ENDBRANCH   9  10
ENDBRANCH   3   9
BRANCH   7  19
ATOM     19  C   UNK d   1      18.621  73.546  12.933  0.00  0.00    -0.009 A 
ATOM     20  C   UNK d   1      19.373  72.398  12.821  0.00  0.00     0.014 A 
ATOM     21  C   UNK d   1      18.838  71.148  12.596  0.00  0.00     0.001 A 
ATOM     22  C   UNK d   1      17.476  70.995  12.470  0.00  0.00     0.000 A 
ATOM     23  C   UNK d   1      16.708  72.120  12.576  0.00  0.00     0.001 A 
ATOM     24  C   UNK d   1      17.265  73.392  12.806  0.00  0.00     0.014 A 
ENDBRANCH   7  19
TORSDOF 4
ENDMDL
