MODEL 1
REMARK VINA RESULT:    -9.610      0.000      0.000
REMARK INTER + INTRA:         -10.702
REMARK INTER:                 -10.734
REMARK INTRA:                   0.032
REMARK UNBOUND:                 0.032
REMARK  2 active torsions:
REMARK  status: ('A' for Active; 'I' for Inactive)
REMARK    1  A    between atoms: C_3  and  C_8 
REMARK       I    between atoms: N_12  and  C_14 
REMARK    2  A    between atoms: C_14  and  C_16 
ROOT
ATOM      1  C   UNK d   1      22.617  78.454  17.582  0.00  0.00     0.273 C 
ATOM      2  N   UNK d   1      23.679  79.416  17.315  0.00  0.00     0.095 NA
ATOM      3  C   UNK d   1      24.241  79.475  16.048  0.00  0.00     0.290 C 
ATOM      4  C   UNK d   1      23.429  79.023  14.853  0.00  0.00     0.155 C 
ATOM      5  N   UNK d   1      22.461  78.063  15.162  0.00  0.00    -0.355 N 
ATOM      6  C   UNK d   1      22.446  77.510  16.482  0.00  0.00     0.165 C 
ATOM      7  C   UNK d   1      21.462  77.566  14.286  0.00  0.00     0.189 C 
ATOM      8  O   UNK d   1      20.801  76.563  14.818  0.00  0.00    -0.171 OA
ATOM      9  H   UNK d   1      23.430  80.348  17.703  0.00  0.00     0.316 HD
ENDROOT
BRANCH   7  10
ATOM     10  C   UNK d   1      21.039  77.932  12.983  0.00  0.00     0.038 A 
ATOM     11  C   UNK d   1      21.618  79.094  12.417  0.00  0.00     0.135 A 
ATOM     12  N   UNK d   1      21.380  79.436  11.151  0.00  0.00    -0.234 NA
ATOM     13  C   UNK d   1      20.590  78.707  10.361  0.00  0.00     0.192 A 
ATOM     14  C   UNK d   1      20.002  77.573  10.852  0.00  0.00     0.089 A 
ATOM     15  O   UNK d   1      20.350  79.085   9.035  0.00  0.00    -0.323 OA
ATOM     16  C   UNK d   1      20.224  77.181  12.170  0.00  0.00     0.051 A 
ATOM     17  N   UNK d   1      19.181  76.765  10.004  0.00  0.00    -0.322 N 
ATOM     18  C   UNK d   1      18.996  77.170   8.647  0.00  0.00     0.246 C 
ATOM     19  H   UNK d   1      18.731  75.902  10.345  0.00  0.00     0.169 HD
ATOM     20  O   UNK d   1      18.695  76.396   7.715  0.00  0.00    -0.271 OA
ATOM     21  C   UNK d   1      19.180  78.622   8.340  0.00  0.00     0.280 C 
ENDBRANCH   7  10
BRANCH   1  22
ATOM     22  C   UNK d   1      21.405  79.302  17.860  0.00  0.00    -0.002 A 
ATOM     23  C   UNK d   1      20.468  78.814  18.786  0.00  0.00     0.042 A 
ATOM     24 Cl   UNK d   1      20.730  77.173  19.413  0.00  0.00    -0.084 Cl
ATOM     25  C   UNK d   1      19.379  79.543  19.211  0.00  0.00     0.024 A 
ATOM     26  C   UNK d   1      19.185  80.825  18.708  0.00  0.00     0.002 A 
ATOM     27  C   UNK d   1      20.110  81.304  17.796  0.00  0.00     0.001 A 
ATOM     28  C   UNK d   1      21.200  80.561  17.377  0.00  0.00     0.011 A 
ENDBRANCH   1  22
TORSDOF 2
ENDMDL
