MODEL 1
REMARK VINA RESULT:    -9.751      0.000      0.000
REMARK INTER + INTRA:         -15.211
REMARK INTER:                 -14.026
REMARK INTRA:                  -1.185
REMARK UNBOUND:                -1.185
REMARK  8 active torsions:
REMARK  status: ('A' for Active; 'I' for Inactive)
REMARK    1  A    between atoms: C_4  and  C_8 
REMARK    2  A    between atoms: C_8  and  N_10 
REMARK    3  A    between atoms: N_10  and  N_11 
REMARK       I    between atoms: N_11  and  C_12 
REMARK    4  A    between atoms: C_12  and  C_14 
REMARK    5  A    between atoms: N_17  and  C_26 
REMARK    6  A    between atoms: C_18  and  C_19 
REMARK    7  A    between atoms: C_19  and  N_20 
REMARK    8  A    between atoms: C_30  and  N_31 
ROOT
ATOM      1  C   UNK d   1      19.868  78.449  18.076  0.00  0.00     0.176 A 
ATOM      2  N   UNK d   1      19.238  78.556  19.253  0.00  0.00    -0.124 NA
ATOM      3  N   UNK d   1      19.327  79.812  19.611  0.00  0.00    -0.058 NA
ATOM      4  N   UNK d   1      19.996  80.511  18.698  0.00  0.00    -0.191 N 
ATOM      5  C   UNK d   1      20.362  79.711  17.709  0.00  0.00     0.104 A 
ENDROOT
BRANCH   1   6
ATOM      6  C   UNK d   1      19.987  77.213  17.325  0.00  0.00     0.292 C 
ATOM      7  N   UNK d   1      19.289  76.985  16.116  0.00  0.00    -0.264 N 
ATOM      8  H   UNK d   1      18.637  77.702  15.697  0.00  0.00     0.190 HD
ATOM      9  O   UNK d   1      20.741  76.317  17.769  0.00  0.00    -0.264 OA
BRANCH   7  10
ATOM     10  N   UNK d   1      19.416  75.796  15.399  0.00  0.00    -0.298 N 
ATOM     11  H   UNK d   1      19.256  74.847  15.778  0.00  0.00     0.187 HD
BRANCH  10  12
ATOM     12  C   UNK d   1      19.801  75.879  14.010  0.00  0.00     0.049 C 
ATOM     13  C   UNK d   1      20.631  76.824  13.646  0.00  0.00     0.045 C 
BRANCH  12  14
ATOM     14  C   UNK d   1      19.238  74.922  13.078  0.00  0.00    -0.008 A 
ATOM     15  C   UNK d   1      18.851  73.658  13.522  0.00  0.00     0.032 A 
ATOM     16  C   UNK d   1      18.302  72.747  12.654  0.00  0.00     0.011 A 
ATOM     17 Br   UNK d   1      17.772  71.020  13.248  0.00  0.00    -0.051 Br
ATOM     18  C   UNK d   1      18.114  73.044  11.315  0.00  0.00     0.019 A 
ATOM     19  C   UNK d   1      18.488  74.274  10.869  0.00  0.00     0.002 A 
ATOM     20  C   UNK d   1      19.044  75.196  11.756  0.00  0.00     0.014 A 
ENDBRANCH  12  14
ENDBRANCH  10  12
ENDBRANCH   7  10
ENDBRANCH   1   6
BRANCH   5  21
ATOM     21  C   UNK d   1      21.130  79.922  16.503  0.00  0.00     0.334 C 
BRANCH  21  22
ATOM     22  N   UNK d   1      22.493  80.382  16.681  0.00  0.00     0.094 NA
ATOM     23  C   UNK d   1      23.382  79.264  16.982  0.00  0.00     0.273 C 
ATOM     24  C   UNK d   1      23.168  78.103  16.036  0.00  0.00     0.030 C 
ATOM     25  C   UNK d   1      23.364  78.561  14.602  0.00  0.00     0.003 C 
ATOM     26  C   UNK d   1      23.739  80.015  14.549  0.00  0.00     0.030 C 
ATOM     27  C   UNK d   1      22.985  80.936  15.423  0.00  0.00     0.273 C 
ENDBRANCH  21  22
ENDBRANCH   5  21
BRANCH   4  28
ATOM     28  C   UNK d   1      20.276  81.893  18.819  0.00  0.00     0.229 A 
ATOM     29  N   UNK d   1      20.345  82.731  17.748  0.00  0.00    -0.081 NA
ATOM     30  O   UNK d   1      20.619  83.916  18.197  0.00  0.00    -0.103 OA
ATOM     31  N   UNK d   1      20.738  83.919  19.475  0.00  0.00    -0.083 NA
ATOM     32  C   UNK d   1      20.530  82.669  19.911  0.00  0.00     0.201 A 
BRANCH  32  33
ATOM     33  N   UNK d   1      20.562  82.211  21.237  0.00  0.00    -0.379 N 
ATOM     34  H   UNK d   1      20.868  81.265  21.553  0.00  0.00     0.158 HD
ATOM     35  H   UNK d   1      20.254  82.857  21.995  0.00  0.00     0.158 HD
ENDBRANCH  32  33
ENDBRANCH   4  28
TORSDOF 8
ENDMDL
