/Users/jonathanwahrer/Desktop/Msc/3_Semester/Drug_Design_Praktikum/waehrer_HTS_screening/HTS_experiment/out/docking_results/vina_output/6e43/1271_docked.pdbqt
 OpenBabel03212220273D

 35 38  0  0  0  0  0  0  0  0999 V2000
   19.8680   78.4490   18.0760 C   0  0  0  0  0  0  0  0  0  0  0  0
   19.2380   78.5560   19.2530 N   0  0  0  0  0  0  0  0  0  0  0  0
   19.3270   79.8120   19.6110 N   0  0  0  0  0  0  0  0  0  0  0  0
   19.9960   80.5110   18.6980 N   0  0  0  0  0  0  0  0  0  0  0  0
   20.3620   79.7110   17.7090 C   0  0  0  0  0  0  0  0  0  0  0  0
   19.9870   77.2130   17.3250 C   0  0  0  0  0  0  0  0  0  0  0  0
   19.2890   76.9850   16.1160 N   0  0  0  0  0  0  0  0  0  0  0  0
   18.6370   77.7020   15.6970 H   0  0  0  0  0  0  0  0  0  0  0  0
   20.7410   76.3170   17.7690 O   0  0  0  0  0  0  0  0  0  0  0  0
   19.4160   75.7960   15.3990 N   0  0  0  0  0  0  0  0  0  0  0  0
   19.2560   74.8470   15.7780 H   0  0  0  0  0  0  0  0  0  0  0  0
   19.8010   75.8790   14.0100 C   0  0  0  0  0  0  0  0  0  0  0  0
   20.6310   76.8240   13.6460 C   0  0  0  0  0  2  0  0  0  0  0  0
   19.2380   74.9220   13.0780 C   0  0  0  0  0  0  0  0  0  0  0  0
   18.8510   73.6580   13.5220 C   0  0  0  0  0  3  0  0  0  0  0  0
   18.3020   72.7470   12.6540 C   0  0  0  0  0  0  0  0  0  0  0  0
   17.7720   71.0200   13.2480 Br  0  0  0  0  0  0  0  0  0  0  0  0
   18.1140   73.0440   11.3150 C   0  0  0  0  0  3  0  0  0  0  0  0
   18.4880   74.2740   10.8690 C   0  0  0  0  0  3  0  0  0  0  0  0
   19.0440   75.1960   11.7560 C   0  0  0  0  0  3  0  0  0  0  0  0
   21.1300   79.9220   16.5030 C   0  0  0  0  0  2  0  0  0  0  0  0
   22.4930   80.3820   16.6810 N   0  0  0  0  0  0  0  0  0  0  0  0
   23.3820   79.2640   16.9820 C   0  0  0  0  0  2  0  0  0  0  0  0
   23.1680   78.1030   16.0360 C   0  0  0  0  0  2  0  0  0  0  0  0
   23.3640   78.5610   14.6020 C   0  0  0  0  0  2  0  0  0  0  0  0
   23.7390   80.0150   14.5490 C   0  0  0  0  0  2  0  0  0  0  0  0
   22.9850   80.9360   15.4230 C   0  0  0  0  0  2  0  0  0  0  0  0
   20.2760   81.8930   18.8190 C   0  0  0  0  0  0  0  0  0  0  0  0
   20.3450   82.7310   17.7480 N   0  0  0  0  0  0  0  0  0  0  0  0
   20.6190   83.9160   18.1970 O   0  0  0  0  0  0  0  0  0  0  0  0
   20.7380   83.9190   19.4750 N   0  0  0  0  0  0  0  0  0  0  0  0
   20.5300   82.6690   19.9110 C   0  0  0  0  0  0  0  0  0  0  0  0
   20.5620   82.2110   21.2370 N   0  0  0  0  0  0  0  0  0  0  0  0
   20.8680   81.2650   21.5530 H   0  0  0  0  0  0  0  0  0  0  0  0
   20.2540   82.8570   21.9950 H   0  0  0  0  0  0  0  0  0  0  0  0
  1  2  1  0  0  0  0
  2  3  2  0  0  0  0
  4 28  1  0  0  0  0
  4  3  1  0  0  0  0
  5  1  2  0  0  0  0
  5  4  1  0  0  0  0
  6  9  2  0  0  0  0
  6  1  1  0  0  0  0
  7  6  1  0  0  0  0
  8  7  1  0  0  0  0
 10 11  1  0  0  0  0
 10  7  1  0  0  0  0
 12 10  1  0  0  0  0
 13 12  2  0  0  0  0
 14 15  1  0  0  0  0
 14 12  1  0  0  0  0
 16 17  1  0  0  0  0
 16 15  2  0  0  0  0
 18 16  1  0  0  0  0
 19 18  2  0  0  0  0
 19 20  1  0  0  0  0
 20 14  2  0  0  0  0
 21 22  1  0  0  0  0
 21  5  1  0  0  0  0
 22 23  1  0  0  0  0
 24 23  1  0  0  0  0
 25 24  1  0  0  0  0
 26 25  1  0  0  0  0
 26 27  1  0  0  0  0
 27 22  1  0  0  0  0
 28 32  1  0  0  0  0
 29 30  1  0  0  0  0
 29 28  2  0  0  0  0
 30 31  1  0  0  0  0
 31 32  2  0  0  0  0
 32 33  1  0  0  0  0
 33 34  1  0  0  0  0
 33 35  1  0  0  0  0
M  END
>  <Pose>
1

>  <Score>
-9.751

$$$$
