MODEL 1
REMARK VINA RESULT:    -8.622      0.000      0.000
REMARK INTER + INTRA:         -13.047
REMARK INTER:                 -12.151
REMARK INTRA:                  -0.896
REMARK UNBOUND:                -0.896
REMARK  7 active torsions:
REMARK  status: ('A' for Active; 'I' for Inactive)
REMARK    1  A    between atoms: C_4  and  C_8 
REMARK    2  A    between atoms: N_9  and  C_26 
REMARK    3  A    between atoms: C_15  and  C_17 
REMARK    4  A    between atoms: C_20  and  O_23 
REMARK    5  A    between atoms: C_26  and  C_27 
REMARK    6  A    between atoms: C_27  and  C_28 
REMARK    7  A    between atoms: C_28  and  N_29 
ROOT
ATOM      1  C   UNK d   1      20.783  78.826  15.715  0.00  0.00     0.161 C 
ATOM      2  N   UNK d   1      21.330  77.568  16.182  0.00  0.00    -0.332 N 
ATOM      3  C   UNK d   1      22.345  77.882  17.120  0.00  0.00     0.295 C 
ATOM      4  O   UNK d   1      23.315  77.167  17.391  0.00  0.00    -0.264 OA
ATOM      5  C   UNK d   1      22.002  79.200  17.681  0.00  0.00     0.250 C 
ATOM      6  O   UNK d   1      22.629  79.850  18.552  0.00  0.00    -0.282 OA
ATOM      7  C   UNK d   1      20.769  79.590  17.008  0.00  0.00     0.062 C 
ATOM      8  C   UNK d   1      19.853  80.413  17.497  0.00  0.00     0.130 C 
ATOM      9  O   UNK d   1      18.712  80.606  16.682  0.00  0.00    -0.190 OA
ENDROOT
BRANCH   1  10
ATOM     10  C   UNK d   1      21.657  79.417  14.691  0.00  0.00    -0.029 A 
ATOM     11  C   UNK d   1      21.662  78.907  13.401  0.00  0.00     0.028 A 
ATOM     12  C   UNK d   1      22.467  79.462  12.399  0.00  0.00     0.011 A 
ATOM     13 Br   UNK d   1      22.448  78.730  10.622  0.00  0.00    -0.051 Br
ATOM     14  C   UNK d   1      23.274  80.534  12.680  0.00  0.00     0.019 A 
ATOM     15  C   UNK d   1      23.279  81.051  13.953  0.00  0.00     0.002 A 
ATOM     16  C   UNK d   1      22.474  80.486  14.934  0.00  0.00     0.009 A 
ENDBRANCH   1  10
BRANCH   8  17
ATOM     17  C   UNK d   1      19.969  81.096  18.780  0.00  0.00     0.007 A 
ATOM     18  C   UNK d   1      19.683  80.528  19.986  0.00  0.00    -0.046 A 
ATOM     19  C   UNK d   1      19.775  81.276  21.174  0.00  0.00     0.044 A 
ATOM     20  C   UNK d   1      19.314  79.096  20.072  0.00  0.00     0.049 C 
ATOM     21  C   UNK d   1      20.151  82.592  21.188  0.00  0.00     0.068 A 
ATOM     22  C   UNK d   1      20.443  83.168  19.970  0.00  0.00     0.037 A 
ATOM     23  C   UNK d   1      20.357  82.449  18.807  0.00  0.00     0.017 A 
BRANCH  21  24
ATOM     24  O   UNK d   1      20.245  83.337  22.363  0.00  0.00    -0.356 OA
ATOM     25  C   UNK d   1      19.089  83.801  23.011  0.00  0.00     0.210 C 
ENDBRANCH  21  24
ENDBRANCH   8  17
BRANCH   2  26
ATOM     26  C   UNK d   1      20.884  76.266  15.731  0.00  0.00     0.129 C 
BRANCH  26  27
ATOM     27  C   UNK d   1      19.566  76.294  15.024  0.00  0.00     0.048 C 
BRANCH  27  28
ATOM     28  C   UNK d   1      19.591  75.927  13.589  0.00  0.00     0.236 C 
BRANCH  28  29
ATOM     29  N   UNK d   1      19.069  74.644  13.274  0.00  0.00    -0.067 N 
ATOM     30  C   UNK d   1      18.739  74.476  11.849  0.00  0.00     0.261 C 
ATOM     31  C   UNK d   1      17.712  73.342  11.806  0.00  0.00     0.195 C 
ATOM     32  O   UNK d   1      17.631  72.669  13.011  0.00  0.00    -0.388 OA
ATOM     33  C   UNK d   1      18.896  72.284  13.455  0.00  0.00     0.195 C 
ATOM     34  C   UNK d   1      19.816  73.502  13.659  0.00  0.00     0.261 C 
ATOM     35  H   UNK d   1      18.128  74.568  13.766  0.00  0.00     0.280 HD
ENDBRANCH  28  29
ENDBRANCH  27  28
ENDBRANCH  26  27
ENDBRANCH   2  26
TORSDOF 7
ENDMDL
