MODEL 1
REMARK VINA RESULT:    -8.780      0.000      0.000
REMARK INTER + INTRA:         -13.797
REMARK INTER:                 -12.374
REMARK INTRA:                  -1.424
REMARK UNBOUND:                -1.424
REMARK  7 active torsions:
REMARK  status: ('A' for Active; 'I' for Inactive)
REMARK    1  A    between atoms: C_4  and  C_8 
REMARK    2  A    between atoms: N_9  and  C_29 
REMARK    3  A    between atoms: C_15  and  C_17 
REMARK    4  A    between atoms: N_19  and  C_22 
REMARK    5  A    between atoms: C_29  and  C_30 
REMARK    6  A    between atoms: C_30  and  C_31 
REMARK    7  A    between atoms: C_31  and  N_32 
ROOT
ATOM      1  C   UNK d   1      19.858  78.420   8.691  0.00  0.00     0.161 C 
ATOM      2  N   UNK d   1      18.601  79.039   8.489  0.00  0.00    -0.332 N 
ATOM      3  C   UNK d   1      18.259  79.809   9.629  0.00  0.00     0.295 C 
ATOM      4  O   UNK d   1      17.152  80.410   9.797  0.00  0.00    -0.264 OA
ATOM      5  C   UNK d   1      19.377  79.795  10.547  0.00  0.00     0.250 C 
ATOM      6  O   UNK d   1      19.337  80.404  11.650  0.00  0.00    -0.282 OA
ATOM      7  C   UNK d   1      20.422  78.991   9.942  0.00  0.00     0.062 C 
ATOM      8  C   UNK d   1      21.608  78.790  10.470  0.00  0.00     0.133 C 
ATOM      9  O   UNK d   1      22.492  77.950   9.831  0.00  0.00    -0.190 OA
ENDROOT
BRANCH   1  10
ATOM     10  C   UNK d   1      19.721  76.962   8.763  0.00  0.00    -0.029 A 
ATOM     11  C   UNK d   1      19.301  76.399   9.956  0.00  0.00     0.028 A 
ATOM     12  C   UNK d   1      19.105  75.071  10.180  0.00  0.00     0.011 A 
ATOM     13 Br   UNK d   1      18.523  74.348  11.848  0.00  0.00    -0.051 Br
ATOM     14  C   UNK d   1      19.356  74.208   9.101  0.00  0.00     0.019 A 
ATOM     15  C   UNK d   1      19.779  74.740   7.895  0.00  0.00     0.002 A 
ATOM     16  C   UNK d   1      19.966  76.095   7.701  0.00  0.00     0.009 A 
ENDBRANCH   1  10
BRANCH   8  17
ATOM     17  C   UNK d   1      22.001  79.438  11.696  0.00  0.00     0.045 A 
ATOM     18  C   UNK d   1      21.786  78.894  12.975  0.00  0.00     0.047 A 
ATOM     19  N   UNK d   1      22.298  79.721  13.895  0.00  0.00    -0.238 N 
ATOM     20  C   UNK d   1      21.093  77.596  13.219  0.00  0.00     0.071 C 
ATOM     21  N   UNK d   1      22.818  80.747  13.246  0.00  0.00    -0.179 NA
ATOM     22  C   UNK d   1      22.662  80.613  11.920  0.00  0.00     0.155 A 
BRANCH  19  23
ATOM     23  C   UNK d   1      22.306  79.542  15.304  0.00  0.00     0.058 A 
ATOM     24  C   UNK d   1      23.447  79.030  15.906  0.00  0.00     0.031 A 
ATOM     25  C   UNK d   1      23.529  78.839  17.271  0.00  0.00     0.002 A 
ATOM     26  C   UNK d   1      22.457  79.158  18.106  0.00  0.00     0.000 A 
ATOM     27  C   UNK d   1      21.320  79.669  17.506  0.00  0.00     0.002 A 
ATOM     28  C   UNK d   1      21.264  79.848  16.148  0.00  0.00     0.031 A 
ENDBRANCH  19  23
ENDBRANCH   8  17
BRANCH   2  29
ATOM     29  C   UNK d   1      17.745  78.947   7.274  0.00  0.00     0.129 C 
BRANCH  29  30
ATOM     30  C   UNK d   1      16.825  77.759   7.392  0.00  0.00     0.048 C 
BRANCH  30  31
ATOM     31  C   UNK d   1      15.631  77.836   6.494  0.00  0.00     0.235 C 
BRANCH  31  32
ATOM     32  N   UNK d   1      14.566  76.933   6.781  0.00  0.00    -0.079 N 
ATOM     33  C   UNK d   1      13.258  77.497   6.856  0.00  0.00     0.269 C 
ATOM     34  C   UNK d   1      14.529  75.858   5.776  0.00  0.00     0.269 C 
ATOM     35  H   UNK d   1      14.766  76.427   7.696  0.00  0.00     0.278 HD
ENDBRANCH  31  32
ENDBRANCH  30  31
ENDBRANCH  29  30
ENDBRANCH   2  29
TORSDOF 7
ENDMDL
