MODEL 1
REMARK VINA RESULT:    -8.424      0.000      0.000
REMARK INTER + INTRA:          -9.070
REMARK INTER:                  -8.916
REMARK INTRA:                  -0.154
REMARK UNBOUND:                -0.154
REMARK  1 active torsions:
REMARK  status: ('A' for Active; 'I' for Inactive)
REMARK    1  A    between atoms: C_5  and  C_8 
ROOT
ATOM      1  C   UNK d   1      21.302  78.396  13.783  0.00  0.00     0.102 A 
ATOM      2  C   UNK d   1      21.306  78.569  12.347  0.00  0.00     0.068 A 
ATOM      3  C   UNK d   1      20.678  77.676  11.524  0.00  0.00     0.124 A 
ATOM      4  N   UNK d   1      19.965  76.542  12.033  0.00  0.00    -0.343 N 
ATOM      5  C   UNK d   1      19.950  76.402  13.448  0.00  0.00     0.048 A 
ATOM      6  C   UNK d   1      20.538  77.241  14.254  0.00  0.00     0.055 A 
ATOM      7  C   UNK d   1      20.288  76.808  15.663  0.00  0.00     0.292 A 
ATOM      8  O   UNK d   1      20.741  77.436  16.667  0.00  0.00    -0.259 OA
ATOM      9  O   UNK d   1      19.530  75.686  15.581  0.00  0.00    -0.312 OA
ATOM     10  C   UNK d   1      19.286  75.311  14.268  0.00  0.00     0.237 A 
ATOM     11  N   UNK d   1      20.715  77.869  10.166  0.00  0.00    -0.289 N 
ATOM     12  C   UNK d   1      21.358  78.919   9.644  0.00  0.00     0.332 A 
ATOM     13  O   UNK d   1      21.378  79.077   8.391  0.00  0.00    -0.246 OA
ATOM     14  N   UNK d   1      21.972  79.791  10.461  0.00  0.00    -0.270 N 
ATOM     15  C   UNK d   1      21.984  79.677  11.787  0.00  0.00     0.262 A 
ATOM     16  O   UNK d   1      22.554  80.487  12.559  0.00  0.00    -0.267 OA
ATOM     17  C   UNK d   1      22.662  80.925   9.845  0.00  0.00     0.164 C 
ATOM     18  C   UNK d   1      20.028  76.883   9.344  0.00  0.00     0.163 C 
ATOM     19  H   UNK d   1      19.504  75.888  11.375  0.00  0.00     0.167 HD
ENDROOT
BRANCH   1  20
ATOM     20  C   UNK d   1      22.597  78.533  14.443  0.00  0.00    -0.045 A 
ATOM     21  C   UNK d   1      23.619  77.656  14.234  0.00  0.00     0.009 A 
ATOM     22  C   UNK d   1      24.853  77.811  14.888  0.00  0.00     0.019 A 
ATOM     23  C   UNK d   1      25.034  78.862  15.750  0.00  0.00     0.011 A 
ATOM     24 Br   UNK d   1      26.705  79.115  16.668  0.00  0.00    -0.051 Br
ATOM     25  C   UNK d   1      24.018  79.747  15.968  0.00  0.00     0.019 A 
ATOM     26  C   UNK d   1      22.788  79.581  15.308  0.00  0.00     0.009 A 
ENDBRANCH   1  20
TORSDOF 1
ENDMDL
