MODEL 1
REMARK VINA RESULT:    -8.474      0.000      0.000
REMARK INTER + INTRA:          -9.852
REMARK INTER:                  -9.464
REMARK INTRA:                  -0.388
REMARK UNBOUND:                -0.388
REMARK  2 active torsions:
REMARK  status: ('A' for Active; 'I' for Inactive)
REMARK    1  A    between atoms: C_3  and  N_11 
REMARK    2  A    between atoms: C_6  and  N_8 
ROOT
ATOM      1  N   UNK d   1      22.424  78.971  16.085  0.00  0.00    -0.250 N 
ATOM      2  C   UNK d   1      22.646  78.007  17.098  0.00  0.00     0.239 C 
ATOM      3  O   UNK d   1      23.362  76.988  17.011  0.00  0.00    -0.272 OA
ATOM      4  C   UNK d   1      21.898  78.363  18.323  0.00  0.00     0.127 C 
ATOM      5  C   UNK d   1      20.593  77.598  18.273  0.00  0.00     0.159 C 
ATOM      6  O   UNK d   1      19.911  78.346  17.277  0.00  0.00    -0.371 OA
ATOM      7  C   UNK d   1      19.928  79.583  17.975  0.00  0.00     0.159 C 
ATOM      8  C   UNK d   1      21.414  79.792  18.096  0.00  0.00     0.127 C 
ATOM      9  C   UNK d   1      21.941  80.137  16.756  0.00  0.00     0.239 C 
ATOM     10  O   UNK d   1      21.963  81.310  16.260  0.00  0.00    -0.272 OA
ATOM     11  C   UNK d   1      19.315  79.158  19.251  0.00  0.00     0.004 C 
ATOM     12  C   UNK d   1      19.756  77.920  19.456  0.00  0.00     0.004 C 
ENDROOT
BRANCH   1  13
ATOM     13  C   UNK d   1      22.610  78.901  14.680  0.00  0.00     0.062 A 
ATOM     14  C   UNK d   1      23.862  78.971  14.112  0.00  0.00     0.040 A 
ATOM     15 Br   UNK d   1      25.342  79.155  15.314  0.00  0.00    -0.049 Br
ATOM     16  C   UNK d   1      24.071  78.911  12.736  0.00  0.00     0.057 A 
ATOM     17  C   UNK d   1      23.004  78.776  11.870  0.00  0.00     0.104 A 
ATOM     18  C   UNK d   1      21.744  78.706  12.440  0.00  0.00     0.038 A 
ATOM     19  C   UNK d   1      21.537  78.765  13.798  0.00  0.00     0.034 A 
BRANCH  17  20
ATOM     20  N   UNK d   1      23.186  78.715  10.461  0.00  0.00    -0.116 N 
ATOM     21  O   UNK d   1      24.300  78.373  10.026  0.00  0.00    -0.532 OA
ATOM     22  O   UNK d   1      22.214  79.008   9.544  0.00  0.00    -0.532 OA
ENDBRANCH  17  20
ENDBRANCH   1  13
TORSDOF 2
ENDMDL
