MODEL 1
REMARK VINA RESULT:    -9.391      0.000      0.000
REMARK INTER + INTRA:         -12.741
REMARK INTER:                 -12.685
REMARK INTRA:                  -0.055
REMARK UNBOUND:                -0.055
REMARK  6 active torsions:
REMARK  status: ('A' for Active; 'I' for Inactive)
REMARK    1  A    between atoms: C_4  and  C_8 
REMARK    2  A    between atoms: N_9  and  C_26 
REMARK    3  A    between atoms: C_15  and  C_17 
REMARK    4  A    between atoms: C_26  and  C_27 
REMARK    5  A    between atoms: C_27  and  C_28 
REMARK    6  A    between atoms: C_28  and  N_29 
ROOT
ATOM      1  C   UNK d   1      21.531  78.907  16.551  0.00  0.00     0.161 C 
ATOM      2  N   UNK d   1      20.652  77.776  16.758  0.00  0.00    -0.332 N 
ATOM      3  C   UNK d   1      20.627  77.524  18.152  0.00  0.00     0.295 C 
ATOM      4  O   UNK d   1      20.402  76.436  18.738  0.00  0.00    -0.264 OA
ATOM      5  C   UNK d   1      20.920  78.804  18.798  0.00  0.00     0.251 C 
ATOM      6  O   UNK d   1      21.006  79.070  20.018  0.00  0.00    -0.282 OA
ATOM      7  C   UNK d   1      21.104  79.767  17.700  0.00  0.00     0.064 C 
ATOM      8  C   UNK d   1      20.946  81.067  17.794  0.00  0.00     0.153 C 
ATOM      9  O   UNK d   1      21.214  81.824  16.646  0.00  0.00    -0.188 OA
ENDROOT
BRANCH   1  10
ATOM     10  C   UNK d   1      22.958  78.573  16.564  0.00  0.00    -0.029 A 
ATOM     11  C   UNK d   1      23.525  77.501  15.924  0.00  0.00     0.028 A 
ATOM     12  C   UNK d   1      24.895  77.233  15.964  0.00  0.00     0.011 A 
ATOM     13 Br   UNK d   1      25.613  75.706  15.040  0.00  0.00    -0.051 Br
ATOM     14  C   UNK d   1      25.735  78.066  16.670  0.00  0.00     0.019 A 
ATOM     15  C   UNK d   1      25.193  79.152  17.322  0.00  0.00     0.002 A 
ATOM     16  C   UNK d   1      23.842  79.403  17.275  0.00  0.00     0.009 A 
ENDBRANCH   1  10
BRANCH   8  17
ATOM     17  C   UNK d   1      20.498  81.726  19.037  0.00  0.00     0.114 A 
ATOM     18  O   UNK d   1      21.047  81.707  20.215  0.00  0.00    -0.307 OA
ATOM     19  C   UNK d   1      20.361  82.417  21.082  0.00  0.00     0.086 A 
ATOM     20  C   UNK d   1      19.259  82.961  20.442  0.00  0.00     0.001 A 
ATOM     21  C   UNK d   1      20.524  82.703  22.425  0.00  0.00     0.038 A 
ATOM     22  C   UNK d   1      19.364  82.510  19.140  0.00  0.00     0.054 A 
ATOM     23  C   UNK d   1      18.371  83.755  21.135  0.00  0.00     0.014 A 
ATOM     24  C   UNK d   1      18.533  84.040  22.472  0.00  0.00     0.001 A 
ATOM     25  C   UNK d   1      19.624  83.506  23.122  0.00  0.00     0.003 A 
ENDBRANCH   8  17
BRANCH   2  26
ATOM     26  C   UNK d   1      19.879  76.997  15.792  0.00  0.00     0.129 C 
BRANCH  26  27
ATOM     27  C   UNK d   1      20.747  76.601  14.613  0.00  0.00     0.048 C 
BRANCH  27  28
ATOM     28  C   UNK d   1      19.950  76.357  13.359  0.00  0.00     0.235 C 
BRANCH  28  29
ATOM     29  N   UNK d   1      19.217  75.139  13.485  0.00  0.00    -0.079 N 
ATOM     30  C   UNK d   1      18.574  74.727  12.255  0.00  0.00     0.269 C 
ATOM     31  C   UNK d   1      19.963  74.022  13.982  0.00  0.00     0.269 C 
ATOM     32  H   UNK d   1      18.429  75.316  14.177  0.00  0.00     0.278 HD
ENDBRANCH  28  29
ENDBRANCH  27  28
ENDBRANCH  26  27
ENDBRANCH   2  26
TORSDOF 6
ENDMDL
