/Users/jonathanwahrer/Desktop/Msc/3_Semester/Drug_Design_Praktikum/waehrer_HTS_screening/HTS_experiment/out/docking_results/vina_output/6e43/1310_docked.pdbqt
 OpenBabel03212220293D

 32 35  0  0  1  0  0  0  0  0999 V2000
   21.5310   78.9070   16.5510 C   0  0  1  0  0  3  0  0  0  0  0  0
   20.6520   77.7760   16.7580 N   0  0  0  0  0  0  0  0  0  0  0  0
   20.6270   77.5240   18.1520 C   0  0  0  0  0  0  0  0  0  0  0  0
   20.4020   76.4360   18.7380 O   0  0  0  0  0  0  0  0  0  0  0  0
   20.9200   78.8040   18.7980 C   0  0  0  0  0  0  0  0  0  0  0  0
   21.0060   79.0700   20.0180 O   0  0  0  0  0  0  0  0  0  0  0  0
   21.1040   79.7670   17.7000 C   0  0  0  0  0  0  0  0  0  0  0  0
   20.9460   81.0670   17.7940 C   0  0  0  0  0  0  0  0  0  0  0  0
   21.2140   81.8240   16.6460 O   0  0  0  0  0  1  0  0  0  0  0  0
   22.9580   78.5730   16.5640 C   0  0  0  0  0  0  0  0  0  0  0  0
   23.5250   77.5010   15.9240 C   0  0  0  0  0  3  0  0  0  0  0  0
   24.8950   77.2330   15.9640 C   0  0  0  0  0  0  0  0  0  0  0  0
   25.6130   75.7060   15.0400 Br  0  0  0  0  0  0  0  0  0  0  0  0
   25.7350   78.0660   16.6700 C   0  0  0  0  0  3  0  0  0  0  0  0
   25.1930   79.1520   17.3220 C   0  0  0  0  0  3  0  0  0  0  0  0
   23.8420   79.4030   17.2750 C   0  0  0  0  0  3  0  0  0  0  0  0
   20.4980   81.7260   19.0370 C   0  0  0  0  0  0  0  0  0  0  0  0
   21.0470   81.7070   20.2150 O   0  0  0  0  0  0  0  0  0  0  0  0
   20.3610   82.4170   21.0820 C   0  0  0  0  0  0  0  0  0  0  0  0
   19.2590   82.9610   20.4420 C   0  0  0  0  0  0  0  0  0  0  0  0
   20.5240   82.7030   22.4250 C   0  0  0  0  0  3  0  0  0  0  0  0
   19.3640   82.5100   19.1400 C   0  0  0  0  0  3  0  0  0  0  0  0
   18.3710   83.7550   21.1350 C   0  0  0  0  0  3  0  0  0  0  0  0
   18.5330   84.0400   22.4720 C   0  0  0  0  0  3  0  0  0  0  0  0
   19.6240   83.5060   23.1220 C   0  0  0  0  0  3  0  0  0  0  0  0
   19.8790   76.9970   15.7920 C   0  0  0  0  0  2  0  0  0  0  0  0
   20.7470   76.6010   14.6130 C   0  0  0  0  0  2  0  0  0  0  0  0
   19.9500   76.3570   13.3590 C   0  0  0  0  0  2  0  0  0  0  0  0
   19.2170   75.1390   13.4850 N   0  0  0  0  0  4  0  0  0  0  0  0
   18.5740   74.7270   12.2550 C   0  0  0  0  0  1  0  0  0  0  0  0
   19.9630   74.0220   13.9820 C   0  0  0  0  0  1  0  0  0  0  0  0
   18.4290   75.3160   14.1770 H   0  0  0  0  0  0  0  0  0  0  0  0
  1 10  1  1  0  0  0
  1  2  1  0  0  0  0
  1  7  1  0  0  0  0
  2  3  1  0  0  0  0
  3  4  2  0  0  0  0
  3  5  1  0  0  0  0
  5  6  2  0  0  0  0
  7  8  2  0  0  0  0
  7  5  1  0  0  0  0
  8 17  1  0  0  0  0
  9  8  1  0  0  0  0
 10 16  1  0  0  0  0
 11 12  1  0  0  0  0
 11 10  2  0  0  0  0
 12 14  2  0  0  0  0
 13 12  1  0  0  0  0
 14 15  1  0  0  0  0
 16 15  2  0  0  0  0
 17 22  2  0  0  0  0
 17 18  1  0  0  0  0
 18 19  1  0  0  0  0
 19 21  1  0  0  0  0
 20 19  2  0  0  0  0
 20 23  1  0  0  0  0
 21 25  2  0  0  0  0
 22 20  1  0  0  0  0
 23 24  2  0  0  0  0
 24 25  1  0  0  0  0
 26  2  1  0  0  0  0
 27 26  1  0  0  0  0
 28 29  1  0  0  0  0
 28 27  1  0  0  0  0
 29 31  1  0  0  0  0
 29 32  1  0  0  0  0
 30 29  1  0  0  0  0
M  END
>  <Pose>
1

>  <Score>
-9.391

$$$$
