MODEL 1
REMARK VINA RESULT:    -9.494      0.000      0.000
REMARK INTER + INTRA:         -14.038
REMARK INTER:                 -13.101
REMARK INTRA:                  -0.937
REMARK UNBOUND:                -0.937
REMARK  7 active torsions:
REMARK  status: ('A' for Active; 'I' for Inactive)
REMARK    1  A    between atoms: C_3  and  C_8 
REMARK    2  A    between atoms: C_8  and  N_9 
REMARK    3  A    between atoms: N_9  and  N_10 
REMARK       I    between atoms: N_10  and  C_11 
REMARK    4  A    between atoms: C_11  and  C_13 
REMARK    5  A    between atoms: N_16  and  C_24 
REMARK    6  A    between atoms: C_17  and  C_18 
REMARK    7  A    between atoms: C_28  and  N_29 
ROOT
ATOM      1  C   UNK d   1      19.321  75.486  12.538  0.00  0.00     0.176 A 
ATOM      2  N   UNK d   1      18.854  74.395  12.013  0.00  0.00    -0.124 NA
ATOM      3  N   UNK d   1      18.754  74.539  10.736  0.00  0.00    -0.058 NA
ATOM      4  N   UNK d   1      19.169  75.795  10.316  0.00  0.00    -0.191 N 
ATOM      5  C   UNK d   1      19.535  76.414  11.417  0.00  0.00     0.093 A 
ENDROOT
BRANCH   1   6
ATOM      6  C   UNK d   1      19.382  75.925  13.872  0.00  0.00     0.294 C 
ATOM      7  N   UNK d   1      20.714  76.343  14.534  0.00  0.00    -0.242 N 
ATOM      8  H   UNK d   1      21.518  76.311  13.913  0.00  0.00     0.192 HD
ATOM      9  O   UNK d   1      18.425  76.011  14.634  0.00  0.00    -0.264 OA
BRANCH   7  10
ATOM     10  N   UNK d   1      20.390  76.579  15.762  0.00  0.00    -0.183 NA
BRANCH  10  11
ATOM     11  C   UNK d   1      20.556  76.709  16.987  0.00  0.00     0.151 C 
BRANCH  11  12
ATOM     12  C   UNK d   1      20.313  78.188  17.378  0.00  0.00     0.000 A 
ATOM     13  C   UNK d   1      21.419  78.903  17.771  0.00  0.00     0.022 A 
ATOM     14 Br   UNK d   1      23.145  78.196  17.486  0.00  0.00    -0.050 Br
ATOM     15  C   UNK d   1      21.209  80.116  18.435  0.00  0.00     0.020 A 
ATOM     16  C   UNK d   1      19.914  80.589  18.664  0.00  0.00     0.001 A 
ATOM     17  C   UNK d   1      18.844  79.874  18.241  0.00  0.00     0.001 A 
ATOM     18  C   UNK d   1      19.070  78.624  17.584  0.00  0.00     0.014 A 
ENDBRANCH  11  12
ENDBRANCH  10  11
ENDBRANCH   7  10
ENDBRANCH   1   6
BRANCH   5  19
ATOM     19  C   UNK d   1      20.221  77.655  11.766  0.00  0.00     0.179 C 
ATOM     20  N   UNK d   1      20.884  78.539  11.014  0.00  0.00    -0.407 N 
ATOM     21  C   UNK d   1      21.236  79.709  11.806  0.00  0.00     0.117 C 
ATOM     22  C   UNK d   1      21.788  78.437   9.995  0.00  0.00     0.117 C 
ATOM     23  C   UNK d   1      22.675  80.016  11.516  0.00  0.00     0.021 C 
ATOM     24  C   UNK d   1      23.145  78.926  10.559  0.00  0.00     0.021 C 
ENDBRANCH   5  19
BRANCH   4  25
ATOM     25  C   UNK d   1      19.050  76.084   8.958  0.00  0.00     0.229 A 
ATOM     26  N   UNK d   1      19.399  75.152   7.981  0.00  0.00    -0.081 NA
ATOM     27  O   UNK d   1      19.301  75.711   6.840  0.00  0.00    -0.103 OA
ATOM     28  N   UNK d   1      18.918  76.921   6.937  0.00  0.00    -0.083 NA
ATOM     29  C   UNK d   1      18.753  77.184   8.264  0.00  0.00     0.201 A 
BRANCH  29  30
ATOM     30  N   UNK d   1      18.341  78.485   8.699  0.00  0.00    -0.379 N 
ATOM     31  H   UNK d   1      18.820  78.878   9.523  0.00  0.00     0.158 HD
ATOM     32  H   UNK d   1      17.566  78.966   8.248  0.00  0.00     0.158 HD
ENDBRANCH  29  30
ENDBRANCH   4  25
TORSDOF 7
ENDMDL
