MODEL 1
REMARK VINA RESULT:    -9.715      0.000      0.000
REMARK INTER + INTRA:         -11.767
REMARK INTER:                 -11.419
REMARK INTRA:                  -0.347
REMARK UNBOUND:                -0.347
REMARK  3 active torsions:
REMARK  status: ('A' for Active; 'I' for Inactive)
REMARK    1  A    between atoms: C_4  and  C_8 
REMARK    2  A    between atoms: C_16  and  C_17 
REMARK    3  A    between atoms: C_17  and  N_18 
ROOT
ATOM      1  C   UNK d   1      19.658  75.442  14.837  0.00  0.00     0.053 C 
ATOM      2  C   UNK d   1      20.369  76.569  14.897  0.00  0.00     0.127 A 
ATOM      3  O   UNK d   1      20.814  77.341  13.825  0.00  0.00    -0.305 OA
ATOM      4  C   UNK d   1      21.508  78.432  14.271  0.00  0.00     0.101 A 
ATOM      5  C   UNK d   1      21.559  78.437  15.660  0.00  0.00     0.051 A 
ATOM      6  C   UNK d   1      22.221  79.479  16.289  0.00  0.00     0.021 A 
ATOM      7  C   UNK d   1      22.807  80.477  15.544  0.00  0.00     0.041 A 
ATOM      8  C   UNK d   1      22.737  80.439  14.149  0.00  0.00     0.118 A 
ATOM      9  C   UNK d   1      22.090  79.419  13.502  0.00  0.00     0.039 A 
ATOM     10  O   UNK d   1      23.358  81.489  13.491  0.00  0.00    -0.191 OA
ATOM     11  C   UNK d   1      20.829  77.240  16.111  0.00  0.00     0.218 A 
ATOM     12  O   UNK d   1      20.669  76.907  17.314  0.00  0.00    -0.284 OA
ENDROOT
BRANCH   9  13
ATOM     13  C   UNK d   1      22.113  79.383  12.039  0.00  0.00     0.279 C 
BRANCH  13  14
ATOM     14  N   UNK d   1      21.146  78.558  11.412  0.00  0.00    -0.064 N 
ATOM     15  C   UNK d   1      21.719  78.039  10.181  0.00  0.00     0.265 C 
ATOM     16  C   UNK d   1      20.776  77.953   9.030  0.00  0.00     0.299 C 
ATOM     17  N   UNK d   1      20.019  79.127   8.772  0.00  0.00     0.087 N 
ATOM     18  C   UNK d   1      20.066  80.043   9.864  0.00  0.00     0.299 C 
ATOM     19  C   UNK d   1      18.662  78.768   8.416  0.00  0.00     0.310 C 
ATOM     20  C   UNK d   1      19.938  79.304  11.153  0.00  0.00     0.265 C 
ATOM     21  H   UNK d   1      20.836  77.745  12.026  0.00  0.00     0.280 HD
ENDBRANCH  13  14
ENDBRANCH   9  13
BRANCH   1  22
ATOM     22  C   UNK d   1      19.253  74.879  13.565  0.00  0.00    -0.032 A 
ATOM     23  C   UNK d   1      18.874  73.559  13.461  0.00  0.00     0.030 A 
ATOM     24  C   UNK d   1      18.500  73.027  12.229  0.00  0.00     0.011 A 
ATOM     25 Br   UNK d   1      17.983  71.194  12.083  0.00  0.00    -0.051 Br
ATOM     26  C   UNK d   1      18.509  73.831  11.100  0.00  0.00     0.019 A 
ATOM     27  C   UNK d   1      18.896  75.145  11.245  0.00  0.00     0.002 A 
ATOM     28  C   UNK d   1      19.267  75.686  12.454  0.00  0.00     0.011 A 
ENDBRANCH   1  22
TORSDOF 3
ENDMDL
