/Users/jonathanwahrer/Desktop/Msc/3_Semester/Drug_Design_Praktikum/waehrer_HTS_screening/HTS_experiment/out/docking_results/vina_output/6e43/1329_docked.pdbqt
 OpenBabel03212220303D

 28 31  0  0  0  0  0  0  0  0999 V2000
   19.6580   75.4420   14.8370 C   0  0  0  0  0  3  0  0  0  0  0  0
   20.3690   76.5690   14.8970 C   0  0  0  0  0  0  0  0  0  0  0  0
   20.8140   77.3410   13.8250 O   0  0  0  0  0  0  0  0  0  0  0  0
   21.5080   78.4320   14.2710 C   0  0  0  0  0  0  0  0  0  0  0  0
   21.5590   78.4370   15.6600 C   0  0  0  0  0  0  0  0  0  0  0  0
   22.2210   79.4790   16.2890 C   0  0  0  0  0  3  0  0  0  0  0  0
   22.8070   80.4770   15.5440 C   0  0  0  0  0  3  0  0  0  0  0  0
   22.7370   80.4390   14.1490 C   0  0  0  0  0  0  0  0  0  0  0  0
   22.0900   79.4190   13.5020 C   0  0  0  0  0  0  0  0  0  0  0  0
   23.3580   81.4890   13.4910 O   0  0  0  0  0  1  0  0  0  0  0  0
   20.8290   77.2400   16.1110 C   0  0  0  0  0  0  0  0  0  0  0  0
   20.6690   76.9070   17.3140 O   0  0  0  0  0  0  0  0  0  0  0  0
   22.1130   79.3830   12.0390 C   0  0  0  0  0  2  0  0  0  0  0  0
   21.1460   78.5580   11.4120 N   0  0  0  0  0  4  0  0  0  0  0  0
   21.7190   78.0390   10.1810 C   0  0  0  0  0  2  0  0  0  0  0  0
   20.7760   77.9530    9.0300 C   0  0  0  0  0  2  0  0  0  0  0  0
   20.0190   79.1270    8.7720 N   0  0  0  0  0  0  0  0  0  0  0  0
   20.0660   80.0430    9.8640 C   0  0  0  0  0  2  0  0  0  0  0  0
   18.6620   78.7680    8.4160 C   0  0  0  0  0  1  0  0  0  0  0  0
   19.9380   79.3040   11.1530 C   0  0  0  0  0  2  0  0  0  0  0  0
   20.8360   77.7450   12.0260 H   0  0  0  0  0  0  0  0  0  0  0  0
   19.2530   74.8790   13.5650 C   0  0  0  0  0  0  0  0  0  0  0  0
   18.8740   73.5590   13.4610 C   0  0  0  0  0  3  0  0  0  0  0  0
   18.5000   73.0270   12.2290 C   0  0  0  0  0  0  0  0  0  0  0  0
   17.9830   71.1940   12.0830 Br  0  0  0  0  0  0  0  0  0  0  0  0
   18.5090   73.8310   11.1000 C   0  0  0  0  0  3  0  0  0  0  0  0
   18.8960   75.1450   11.2450 C   0  0  0  0  0  3  0  0  0  0  0  0
   19.2670   75.6860   12.4540 C   0  0  0  0  0  3  0  0  0  0  0  0
  1  2  2  0  0  0  0
  2 11  1  0  0  0  0
  3  4  1  0  0  0  0
  3  2  1  0  0  0  0
  4  5  1  0  0  0  0
  5 11  1  0  0  0  0
  5  6  2  0  0  0  0
  7  6  1  0  0  0  0
  8  7  2  0  0  0  0
  9  8  1  0  0  0  0
  9  4  2  0  0  0  0
 10  8  1  0  0  0  0
 11 12  2  0  0  0  0
 13  9  1  0  0  0  0
 14 21  1  0  0  0  0
 14 13  1  0  0  0  0
 15 14  1  0  0  0  0
 16 15  1  0  0  0  0
 17 16  1  0  0  0  0
 17 18  1  0  0  0  0
 18 20  1  0  0  0  0
 19 17  1  0  0  0  0
 20 14  1  0  0  0  0
 22  1  1  0  0  0  0
 23 22  1  0  0  0  0
 24 23  2  0  0  0  0
 25 24  1  0  0  0  0
 26 27  2  0  0  0  0
 26 24  1  0  0  0  0
 27 28  1  0  0  0  0
 28 22  2  0  0  0  0
M  END
>  <Pose>
1

>  <Score>
-9.715

$$$$
