/Users/jonathanwahrer/Desktop/Msc/3_Semester/Drug_Design_Praktikum/waehrer_HTS_screening/HTS_experiment/out/docking_results/vina_output/6e43/1337_docked.pdbqt
 OpenBabel03212220303D

 32 35  0  0  1  0  0  0  0  0999 V2000
   21.8730   77.1700   14.3770 C   0  0  2  0  0  3  0  0  0  0  0  0
   23.0300   76.9800   15.0340 O   0  0  0  0  0  0  0  0  0  0  0  0
   24.1640   77.5340   14.5290 C   0  0  2  0  0  3  0  0  0  0  0  0
   25.1370   77.5070   15.5380 O   0  0  0  0  0  0  0  0  0  0  0  0
   25.0150   78.6680   16.2610 C   0  0  0  0  0  0  0  0  0  0  0  0
   24.1390   79.5100   15.6040 O   0  0  0  0  0  0  0  0  0  0  0  0
   24.0590   79.0200   14.2800 C   0  0  2  0  0  3  0  0  0  0  0  0
   22.7910   79.3970   13.6170 C   0  0  1  0  0  3  0  0  0  0  0  0
   23.0090   79.8050   12.2810 O   0  0  0  0  0  0  0  0  0  0  0  0
   22.0200   79.2440   11.5130 C   0  0  0  0  0  0  0  0  0  0  0  0
   21.7160   78.0700   12.1510 O   0  0  0  0  0  0  0  0  0  0  0  0
   21.7430   78.3740   13.5200 C   0  0  1  0  0  3  0  0  0  0  0  0
   22.6270   78.9880   10.1270 C   0  0  0  0  0  1  0  0  0  0  0  0
   20.8400   80.1530   11.2930 C   0  0  0  0  0  1  0  0  0  0  0  0
   26.3440   79.4180   16.3640 C   0  0  0  0  0  1  0  0  0  0  0  0
   24.5540   78.4210   17.6880 C   0  0  0  0  0  1  0  0  0  0  0  0
   20.7500   77.0850   15.3480 C   0  0  0  0  0  0  0  0  0  0  0  0
   20.8450   77.7420   16.6000 N   0  0  0  0  0  0  0  0  0  0  0  0
   21.7150   78.2760   16.8080 H   0  0  0  0  0  0  0  0  0  0  0  0
   19.6950   76.4390   15.1020 O   0  0  0  0  0  0  0  0  0  0  0  0
   19.8130   77.7110   17.5930 C   0  0  0  0  0  2  0  0  0  0  0  0
   19.4250   79.0860   18.0020 C   0  0  0  0  0  0  0  0  0  0  0  0
   20.2960   79.9460   18.6940 N   0  0  0  0  0  0  0  0  0  0  0  0
   21.2630   79.5350   18.9060 H   0  0  0  0  0  0  0  0  0  0  0  0
   18.2720   79.4500   17.6990 O   0  0  0  0  0  0  0  0  0  0  0  0
   20.0710   81.2450   19.1370 C   0  0  0  0  0  0  0  0  0  0  0  0
   19.5190   81.4500   20.3940 C   0  0  0  0  0  3  0  0  0  0  0  0
   19.2590   82.6940   20.9200 C   0  0  0  0  0  3  0  0  0  0  0  0
   19.5520   83.8200   20.1830 C   0  0  0  0  0  0  0  0  0  0  0  0
   19.1790   85.5390   20.9400 Br  0  0  0  0  0  0  0  0  0  0  0  0
   20.0930   83.6660   18.9460 C   0  0  0  0  0  3  0  0  0  0  0  0
   20.3520   82.3890   18.4250 C   0  0  0  0  0  3  0  0  0  0  0  0
  1  2  1  0  0  0  0
  1 17  1  1  0  0  0
  3  2  1  1  0  0  0
  3  4  1  0  0  0  0
  4  5  1  0  0  0  0
  5 15  1  0  0  0  0
  5 16  1  0  0  0  0
  6  5  1  0  0  0  0
  7  3  1  0  0  0  0
  7  6  1  1  0  0  0
  8  9  1  6  0  0  0
  8  7  1  0  0  0  0
 10 11  1  0  0  0  0
 10  9  1  0  0  0  0
 12 11  1  6  0  0  0
 12  8  1  0  0  0  0
 12  1  1  0  0  0  0
 13 10  1  0  0  0  0
 14 10  1  0  0  0  0
 17 18  1  0  0  0  0
 18 19  1  0  0  0  0
 18 21  1  0  0  0  0
 20 17  2  0  0  0  0
 21 22  1  0  0  0  0
 22 23  1  0  0  0  0
 23 24  1  0  0  0  0
 23 26  1  0  0  0  0
 25 22  2  0  0  0  0
 26 27  1  0  0  0  0
 27 28  2  0  0  0  0
 29 28  1  0  0  0  0
 29 30  1  0  0  0  0
 31 29  2  0  0  0  0
 32 31  1  0  0  0  0
 32 26  2  0  0  0  0
M  END
>  <Pose>
1

>  <Score>
-10.693

$$$$
