MODEL 1
REMARK VINA RESULT:   -10.693      0.000      0.000
REMARK INTER + INTRA:         -14.109
REMARK INTER:                 -13.193
REMARK INTRA:                  -0.916
REMARK UNBOUND:                -0.916
REMARK  4 active torsions:
REMARK  status: ('A' for Active; 'I' for Inactive)
REMARK    1  A    between atoms: C_5  and  N_8 
REMARK       I    between atoms: N_8  and  C_9 
REMARK    2  A    between atoms: C_9  and  C_11 
REMARK    3  A    between atoms: C_11  and  N_12 
REMARK       I    between atoms: N_12  and  C_13 
REMARK    4  A    between atoms: C_13  and  C_15 
ROOT
ATOM      1  C   UNK d   1      21.873  77.170  14.377  0.00  0.00     0.248 C 
ATOM      2  O   UNK d   1      23.030  76.980  15.034  0.00  0.00    -0.341 OA
ATOM      3  C   UNK d   1      24.164  77.534  14.529  0.00  0.00     0.296 C 
ATOM      4  O   UNK d   1      25.137  77.507  15.538  0.00  0.00    -0.323 OA
ATOM      5  C   UNK d   1      25.015  78.668  16.261  0.00  0.00     0.160 C 
ATOM      6  O   UNK d   1      24.139  79.510  15.604  0.00  0.00    -0.343 OA
ATOM      7  C   UNK d   1      24.059  79.020  14.280  0.00  0.00     0.212 C 
ATOM      8  C   UNK d   1      22.791  79.397  13.617  0.00  0.00     0.191 C 
ATOM      9  O   UNK d   1      23.009  79.805  12.281  0.00  0.00    -0.345 OA
ATOM     10  C   UNK d   1      22.020  79.244  11.513  0.00  0.00     0.158 C 
ATOM     11  O   UNK d   1      21.716  78.070  12.151  0.00  0.00    -0.345 OA
ATOM     12  C   UNK d   1      21.743  78.374  13.520  0.00  0.00     0.195 C 
ATOM     13  C   UNK d   1      22.627  78.988  10.127  0.00  0.00     0.078 C 
ATOM     14  C   UNK d   1      20.840  80.153  11.293  0.00  0.00     0.078 C 
ATOM     15  C   UNK d   1      26.344  79.418  16.364  0.00  0.00     0.078 C 
ATOM     16  C   UNK d   1      24.554  78.421  17.688  0.00  0.00     0.078 C 
ENDROOT
BRANCH   1  17
ATOM     17  C   UNK d   1      20.750  77.085  15.348  0.00  0.00     0.249 C 
ATOM     18  N   UNK d   1      20.845  77.742  16.600  0.00  0.00    -0.350 N 
ATOM     19  H   UNK d   1      21.715  78.276  16.808  0.00  0.00     0.163 HD
ATOM     20  O   UNK d   1      19.695  76.439  15.102  0.00  0.00    -0.271 OA
BRANCH  18  21
ATOM     21  C   UNK d   1      19.813  77.711  17.593  0.00  0.00     0.225 C 
BRANCH  21  22
ATOM     22  C   UNK d   1      19.425  79.086  18.002  0.00  0.00     0.239 C 
ATOM     23  N   UNK d   1      20.296  79.946  18.694  0.00  0.00    -0.326 N 
ATOM     24  H   UNK d   1      21.263  79.535  18.906  0.00  0.00     0.169 HD
ATOM     25  O   UNK d   1      18.272  79.450  17.699  0.00  0.00    -0.271 OA
BRANCH  23  26
ATOM     26  C   UNK d   1      20.071  81.245  19.137  0.00  0.00     0.034 A 
ATOM     27  C   UNK d   1      19.519  81.450  20.394  0.00  0.00     0.031 A 
ATOM     28  C   UNK d   1      19.259  82.694  20.920  0.00  0.00     0.021 A 
ATOM     29  C   UNK d   1      19.552  83.820  20.183  0.00  0.00     0.011 A 
ATOM     30 Br   UNK d   1      19.179  85.539  20.940  0.00  0.00    -0.051 Br
ATOM     31  C   UNK d   1      20.093  83.666  18.946  0.00  0.00     0.021 A 
ATOM     32  C   UNK d   1      20.352  82.389  18.425  0.00  0.00     0.031 A 
ENDBRANCH  23  26
ENDBRANCH  21  22
ENDBRANCH  18  21
ENDBRANCH   1  17
TORSDOF 4
ENDMDL
