/Users/jonathanwahrer/Desktop/Msc/3_Semester/Drug_Design_Praktikum/waehrer_HTS_screening/HTS_experiment/out/docking_results/vina_output/6e43/1341_docked.pdbqt
 OpenBabel03212220313D

 28 31  0  0  0  0  0  0  0  0999 V2000
   22.1320   78.0030   14.7020 C   0  0  0  0  0  0  0  0  0  0  0  0
   23.3220   78.0590   15.3450 N   0  0  0  0  0  0  0  0  0  0  0  0
   23.1150   77.8130   16.6550 C   0  0  0  0  0  0  0  0  0  0  0  0
   21.8030   77.5970   16.8900 N   0  0  0  0  0  0  0  0  0  0  0  0
   21.2070   77.7160   15.6810 C   0  0  0  0  0  3  0  0  0  0  0  0
   24.4070   77.8670   17.3860 C   0  0  0  0  0  3  0  0  0  0  0  0
   25.4350   78.2650   16.3840 C   0  0  0  0  0  3  0  0  0  0  0  0
   24.7240   78.2950   15.0820 C   0  0  0  0  0  3  0  0  0  0  0  0
   21.1490   77.2990   18.1480 C   0  0  0  0  0  2  0  0  0  0  0  0
   20.4610   78.5170   18.6620 C   0  0  0  0  0  0  0  0  0  0  0  0
   19.3000   78.4010   19.0580 O   0  0  0  0  0  0  0  0  0  0  0  0
   21.1740   79.7180   18.6650 N   0  0  0  0  0  0  0  0  0  0  0  0
   22.1860   79.7620   18.3070 H   0  0  0  0  0  0  0  0  0  0  0  0
   20.6660   80.9600   19.1280 C   0  0  0  0  0  0  0  0  0  0  0  0
   20.3760   81.9610   18.1930 C   0  0  0  0  0  3  0  0  0  0  0  0
   19.9060   83.1680   18.6030 C   0  0  0  0  0  3  0  0  0  0  0  0
   19.7010   83.4410   19.9450 C   0  0  0  0  0  0  0  0  0  0  0  0
   19.9870   82.4590   20.8500 C   0  0  0  0  0  3  0  0  0  0  0  0
   20.4730   81.2050   20.4580 C   0  0  0  0  0  3  0  0  0  0  0  0
   19.1860   84.7680   20.3700 C   0  0  0  0  0  2  0  0  0  0  0  0
   18.0470   84.5380   21.3680 C   0  0  0  0  0  1  0  0  0  0  0  0
   21.8220   78.1970   13.2870 C   0  0  0  0  0  0  0  0  0  0  0  0
   20.6690   77.6730   12.7350 C   0  0  0  0  0  3  0  0  0  0  0  0
   20.3530   77.8390   11.3990 C   0  0  0  0  0  3  0  0  0  0  0  0
   21.1810   78.5430   10.5520 C   0  0  0  0  0  0  0  0  0  0  0  0
   20.7840   78.7600    8.8520 Cl  0  0  0  0  0  0  0  0  0  0  0  0
   22.3360   79.0710   11.0880 C   0  0  0  0  0  3  0  0  0  0  0  0
   22.6530   78.9000   12.4410 C   0  0  0  0  0  3  0  0  0  0  0  0
  1  2  1  0  0  0  0
  1  5  2  0  0  0  0
  2  3  1  0  0  0  0
  3  4  1  0  0  0  0
  3  6  2  0  0  0  0
  4  9  1  0  0  0  0
  5  4  1  0  0  0  0
  7  6  1  0  0  0  0
  8  2  1  0  0  0  0
  8  7  2  0  0  0  0
  9 10  1  0  0  0  0
 10 12  1  0  0  0  0
 10 11  2  0  0  0  0
 12 14  1  0  0  0  0
 13 12  1  0  0  0  0
 14 19  1  0  0  0  0
 15 16  1  0  0  0  0
 15 14  2  0  0  0  0
 16 17  2  0  0  0  0
 17 20  1  0  0  0  0
 17 18  1  0  0  0  0
 19 18  2  0  0  0  0
 20 21  1  0  0  0  0
 22  1  1  0  0  0  0
 23 22  1  0  0  0  0
 24 23  2  0  0  0  0
 25 27  2  0  0  0  0
 25 24  1  0  0  0  0
 26 25  1  0  0  0  0
 27 28  1  0  0  0  0
 28 22  2  0  0  0  0
M  END
>  <Pose>
1

>  <Score>
-10.509

$$$$
