MODEL 1
REMARK VINA RESULT:    -8.945      0.000      0.000
REMARK INTER + INTRA:         -15.010
REMARK INTER:                 -13.912
REMARK INTRA:                  -1.098
REMARK UNBOUND:                -1.098
REMARK  12 active torsions:
REMARK  status: ('A' for Active; 'I' for Inactive)
REMARK    1  A    between atoms: C_3  and  C_12 
REMARK    2  A    between atoms: C_5  and  O_10 
REMARK    3  A    between atoms: C_6  and  O_8 
REMARK    4  A    between atoms: N_13  and  N_14 
REMARK    5  A    between atoms: N_14  and  C_15 
REMARK    6  A    between atoms: N_16  and  C_26 
REMARK    7  A    between atoms: C_19  and  N_25 
REMARK    8  A    between atoms: C_21  and  O_24 
REMARK    9  A    between atoms: C_28  and  C_33 
REMARK   10  A    between atoms: C_29  and  O_32 
REMARK   11  A    between atoms: C_30  and  O_31 
REMARK   12  A    between atoms: C_33  and  O_34 
ROOT
ATOM      1  C   UNK d   1      20.698  76.720  14.593  0.00  0.00     0.727 A 
ATOM      2  N   UNK d   1      20.665  77.387  13.411  0.00  0.00    -0.130 N 
ATOM      3  C   UNK d   1      19.971  76.644  12.511  0.00  0.00     0.201 A 
ATOM      4  N   UNK d   1      19.634  76.809  11.227  0.00  0.00    -0.042 NA
ATOM      5  C   UNK d   1      18.920  75.892  10.550  0.00  0.00     0.724 A 
ATOM      6  N   UNK d   1      18.530  74.767  11.187  0.00  0.00    -0.036 NA
ATOM      7  C   UNK d   1      18.828  74.535  12.461  0.00  0.00     0.215 A 
ATOM      8  C   UNK d   1      19.560  75.481  13.151  0.00  0.00     0.176 A 
ATOM      9  N   UNK d   1      20.017  75.572  14.388  0.00  0.00    -0.055 NA
ENDROOT
BRANCH   1  10
ATOM     10  N   UNK d   1      21.328  77.160  15.790  0.00  0.00    -0.107 N 
ATOM     11  H   UNK d   1      22.227  76.742  16.073  0.00  0.00     0.208 HD
BRANCH  10  12
ATOM     12  N   UNK d   1      20.678  78.163  16.536  0.00  0.00    -0.172 NA
ATOM     13  C   UNK d   1      21.277  78.948  17.333  0.00  0.00     0.152 C 
BRANCH  13  14
ATOM     14  C   UNK d   1      20.632  79.994  18.118  0.00  0.00     0.003 A 
ATOM     15  C   UNK d   1      19.991  79.700  19.302  0.00  0.00     0.025 A 
ATOM     16 Br   UNK d   1      19.962  77.895  19.899  0.00  0.00    -0.050 Br
ATOM     17  C   UNK d   1      19.370  80.697  20.060  0.00  0.00     0.059 A 
ATOM     18  C   UNK d   1      19.377  82.013  19.649  0.00  0.00     0.102 A 
ATOM     19  C   UNK d   1      20.018  82.307  18.464  0.00  0.00     0.102 A 
ATOM     20  C   UNK d   1      20.627  81.315  17.725  0.00  0.00     0.054 A 
BRANCH  18  21
ATOM     21  O   UNK d   1      18.762  83.021  20.393  0.00  0.00    -0.353 OA
ATOM     22  C   UNK d   1      19.280  83.516  21.591  0.00  0.00     0.210 C 
ENDBRANCH  18  21
BRANCH  19  23
ATOM     23  O   UNK d   1      20.018  83.639  18.060  0.00  0.00    -0.353 OA
ATOM     24  C   UNK d   1      20.972  84.580  18.438  0.00  0.00     0.210 C 
ENDBRANCH  19  23
ENDBRANCH  13  14
ENDBRANCH  10  12
ENDBRANCH   1  10
BRANCH   2  25
ATOM     25  C   UNK d   1      21.263  78.662  13.160  0.00  0.00     0.279 C 
ATOM     26  O   UNK d   1      20.918  79.217  11.936  0.00  0.00    -0.353 OA
ATOM     27  C   UNK d   1      21.876  80.122  11.582  0.00  0.00     0.179 C 
ATOM     28  C   UNK d   1      23.069  79.968  12.463  0.00  0.00     0.182 C 
ATOM     29  C   UNK d   1      22.777  78.638  13.162  0.00  0.00     0.199 C 
BRANCH  27  30
ATOM     30  C   UNK d   1      22.315  79.820  10.148  0.00  0.00     0.198 C 
BRANCH  30  31
ATOM     31  O   UNK d   1      21.723  78.631   9.708  0.00  0.00    -0.398 OA
ATOM     32  H   UNK d   1      22.401  78.001   9.354  0.00  0.00     0.209 HD
ENDBRANCH  30  31
ENDBRANCH  27  30
BRANCH  28  33
ATOM     33  O   UNK d   1      23.048  80.937  13.488  0.00  0.00    -0.390 OA
ATOM     34  H   UNK d   1      23.117  81.845  13.124  0.00  0.00     0.210 HD
ENDBRANCH  28  33
BRANCH  29  35
ATOM     35  O   UNK d   1      23.296  78.639  14.456  0.00  0.00    -0.388 OA
ATOM     36  H   UNK d   1      22.920  79.399  14.971  0.00  0.00     0.210 HD
ENDBRANCH  29  35
ENDBRANCH   2  25
BRANCH   7  37
ATOM     37  O   UNK d   1      18.438  73.381  13.149  0.00  0.00    -0.343 OA
ATOM     38  H   UNK d   1      18.425  72.525  12.609  0.00  0.00     0.219 HD
ENDBRANCH   7  37
BRANCH   5  39
ATOM     39  N   UNK d   1      18.568  76.086   9.172  0.00  0.00    -0.231 N 
ATOM     40  H   UNK d   1      18.817  75.442   8.414  0.00  0.00     0.174 HD
ATOM     41  H   UNK d   1      18.022  76.945   8.951  0.00  0.00     0.174 HD
ENDBRANCH   5  39
TORSDOF 12
ENDMDL
