/Users/jonathanwahrer/Desktop/Msc/3_Semester/Drug_Design_Praktikum/waehrer_HTS_screening/HTS_experiment/out/docking_results/vina_output/6e43/1343_docked.pdbqt
 OpenBabel03212220313D

 41 44  0  0  1  0  0  0  0  0999 V2000
   20.6980   76.7200   14.5930 C   0  0  0  0  0  0  0  0  0  0  0  0
   20.6650   77.3870   13.4110 N   0  0  0  0  0  0  0  0  0  0  0  0
   19.9710   76.6440   12.5110 C   0  0  0  0  0  0  0  0  0  0  0  0
   19.6340   76.8090   11.2270 N   0  0  0  0  0  0  0  0  0  0  0  0
   18.9200   75.8920   10.5500 C   0  0  0  0  0  0  0  0  0  0  0  0
   18.5300   74.7670   11.1870 N   0  0  0  0  0  0  0  0  0  0  0  0
   18.8280   74.5350   12.4610 C   0  0  0  0  0  0  0  0  0  0  0  0
   19.5600   75.4810   13.1510 C   0  0  0  0  0  0  0  0  0  0  0  0
   20.0170   75.5720   14.3880 N   0  0  0  0  0  0  0  0  0  0  0  0
   21.3280   77.1600   15.7900 N   0  0  0  0  0  0  0  0  0  0  0  0
   22.2270   76.7420   16.0730 H   0  0  0  0  0  0  0  0  0  0  0  0
   20.6780   78.1630   16.5360 N   0  0  0  0  0  0  0  0  0  0  0  0
   21.2770   78.9480   17.3330 C   0  0  0  0  0  3  0  0  0  0  0  0
   20.6320   79.9940   18.1180 C   0  0  0  0  0  0  0  0  0  0  0  0
   19.9910   79.7000   19.3020 C   0  0  0  0  0  0  0  0  0  0  0  0
   19.9620   77.8950   19.8990 Br  0  0  0  0  0  0  0  0  0  0  0  0
   19.3700   80.6970   20.0600 C   0  0  0  0  0  3  0  0  0  0  0  0
   19.3770   82.0130   19.6490 C   0  0  0  0  0  0  0  0  0  0  0  0
   20.0180   82.3070   18.4640 C   0  0  0  0  0  0  0  0  0  0  0  0
   20.6270   81.3150   17.7250 C   0  0  0  0  0  3  0  0  0  0  0  0
   18.7620   83.0210   20.3930 O   0  0  0  0  0  0  0  0  0  0  0  0
   19.2800   83.5160   21.5910 C   0  0  0  0  0  1  0  0  0  0  0  0
   20.0180   83.6390   18.0600 O   0  0  0  0  0  0  0  0  0  0  0  0
   20.9720   84.5800   18.4380 C   0  0  0  0  0  1  0  0  0  0  0  0
   21.2630   78.6620   13.1600 C   0  0  2  0  0  3  0  0  0  0  0  0
   20.9180   79.2170   11.9360 O   0  0  0  0  0  0  0  0  0  0  0  0
   21.8760   80.1220   11.5820 C   0  0  1  0  0  3  0  0  0  0  0  0
   23.0690   79.9680   12.4630 C   0  0  2  0  0  3  0  0  0  0  0  0
   22.7770   78.6380   13.1620 C   0  0  1  0  0  3  0  0  0  0  0  0
   22.3150   79.8200   10.1480 C   0  0  0  0  0  2  0  0  0  0  0  0
   21.7230   78.6310    9.7080 O   0  0  0  0  0  0  0  0  0  0  0  0
   22.4010   78.0010    9.3540 H   0  0  0  0  0  0  0  0  0  0  0  0
   23.0480   80.9370   13.4880 O   0  0  0  0  0  0  0  0  0  0  0  0
   23.1170   81.8450   13.1240 H   0  0  0  0  0  0  0  0  0  0  0  0
   23.2960   78.6390   14.4560 O   0  0  0  0  0  0  0  0  0  0  0  0
   22.9200   79.3990   14.9710 H   0  0  0  0  0  0  0  0  0  0  0  0
   18.4380   73.3810   13.1490 O   0  0  0  0  0  0  0  0  0  0  0  0
   18.4250   72.5250   12.6090 H   0  0  0  0  0  0  0  0  0  0  0  0
   18.5680   76.0860    9.1720 N   0  0  0  0  0  0  0  0  0  0  0  0
   18.8170   75.4420    8.4140 H   0  0  0  0  0  0  0  0  0  0  0  0
   18.0220   76.9450    8.9510 H   0  0  0  0  0  0  0  0  0  0  0  0
  1 10  1  0  0  0  0
  2  1  1  0  0  0  0
  3  8  2  0  0  0  0
  3  2  1  0  0  0  0
  4  3  1  0  0  0  0
  5  6  1  0  0  0  0
  5  4  2  0  0  0  0
  6  7  2  0  0  0  0
  7 37  1  0  0  0  0
  7  8  1  0  0  0  0
  8  9  1  0  0  0  0
  9  1  2  0  0  0  0
 10 11  1  0  0  0  0
 10 12  1  0  0  0  0
 12 13  2  0  0  0  0
 13 14  1  0  0  0  0
 14 15  1  0  0  0  0
 15 16  1  0  0  0  0
 15 17  2  0  0  0  0
 18 17  1  0  0  0  0
 18 21  1  0  0  0  0
 19 18  2  0  0  0  0
 20 14  2  0  0  0  0
 20 19  1  0  0  0  0
 21 22  1  0  0  0  0
 23 24  1  0  0  0  0
 23 19  1  0  0  0  0
 25 29  1  0  0  0  0
 25  2  1  6  0  0  0
 26 25  1  0  0  0  0
 27 30  1  6  0  0  0
 27 26  1  0  0  0  0
 27 28  1  0  0  0  0
 28 29  1  0  0  0  0
 28 33  1  1  0  0  0
 29 35  1  1  0  0  0
 31 30  1  0  0  0  0
 32 31  1  0  0  0  0
 34 33  1  0  0  0  0
 35 36  1  0  0  0  0
 38 37  1  0  0  0  0
 39  5  1  0  0  0  0
 40 39  1  0  0  0  0
 41 39  1  0  0  0  0
M  END
>  <Pose>
1

>  <Score>
-8.945

$$$$
