/Users/jonathanwahrer/Desktop/Msc/3_Semester/Drug_Design_Praktikum/waehrer_HTS_screening/HTS_experiment/out/docking_results/vina_output/6e43/1360_docked.pdbqt
 OpenBabel03212220323D

 34 37  0  0  1  0  0  0  0  0999 V2000
   21.3130   78.3100   16.2240 C   0  0  1  0  0  3  0  0  0  0  0  0
   20.9630   77.8880   14.8920 N   0  0  0  0  0  0  0  0  0  0  0  0
   21.7760   78.8140   14.0700 C   0  0  2  0  0  3  0  0  0  0  0  0
   21.6480   78.3850   12.7310 N   0  0  0  0  0  0  0  0  0  0  0  0
   20.6880   77.3240   12.7030 C   0  0  0  0  0  0  0  0  0  0  0  0
   20.2910   77.0460   14.0120 C   0  0  0  0  0  0  0  0  0  0  0  0
   19.3610   76.0500   14.2250 C   0  0  0  0  0  0  0  0  0  0  0  0
   19.0190   75.8180   15.4130 O   0  0  0  0  0  0  0  0  0  0  0  0
   18.8610   75.3780   13.1820 N   0  0  0  0  0  0  0  0  0  0  0  0
   19.2560   75.6630   11.9520 C   0  0  0  0  0  0  0  0  0  0  0  0
   18.7600   75.0050   10.9970 O   0  0  0  0  0  0  0  0  0  0  0  0
   20.1750   76.6380   11.6770 N   0  0  0  0  0  0  0  0  0  0  0  0
   20.5180   76.8530   10.2900 C   0  0  0  0  0  1  0  0  0  0  0  0
   17.8740   74.3270   13.4530 C   0  0  0  0  0  1  0  0  0  0  0  0
   22.3070   78.9050   11.5610 C   0  0  0  0  0  1  0  0  0  0  0  0
   23.0830   78.8530   14.7420 C   0  0  1  0  0  3  0  0  0  0  0  0
   22.8400   78.1800   16.1000 C   0  0  1  0  0  3  0  0  0  0  0  0
   20.9710   79.6930   16.4650 C   0  0  2  0  0  3  0  0  0  0  0  0
   21.0650   80.4480   15.4070 O   0  0  0  0  0  1  0  0  0  0  0  0
   20.5480   80.3690   17.6710 C   0  0  0  0  0  0  0  0  0  0  0  0
   20.0230   79.7080   18.7560 C   0  0  0  0  0  3  0  0  0  0  0  0
   19.6150   80.4260   19.8530 C   0  0  0  0  0  3  0  0  0  0  0  0
   19.7180   81.8080   19.8990 C   0  0  0  0  0  0  0  0  0  0  0  0
   19.1440   82.7790   21.4350 Br  0  0  0  0  0  0  0  0  0  0  0  0
   20.2470   82.4680   18.8040 C   0  0  0  0  0  3  0  0  0  0  0  0
   20.6590   81.7620   17.7000 C   0  0  0  0  0  3  0  0  0  0  0  0
   23.5620   78.8480   17.1770 C   0  0  0  0  0  0  0  0  0  0  0  0
   23.2390   78.6300   18.3920 O   0  0  0  0  0  0  0  0  0  0  0  0
   24.5920   79.7170   16.9330 O   0  0  0  0  0  0  0  0  0  0  0  0
   25.9680   79.3500   17.0610 C   0  0  0  0  0  1  0  0  0  0  0  0
   24.2410   78.2780   14.0700 C   0  0  0  0  0  0  0  0  0  0  0  0
   24.9870   79.0100   13.3680 O   0  0  0  0  0  0  0  0  0  0  0  0
   24.5560   76.9410   14.1780 O   0  0  0  0  0  0  0  0  0  0  0  0
   25.4660   76.4750   15.1500 C   0  0  0  0  0  1  0  0  0  0  0  0
  1 18  1  6  0  0  0
  2  1  1  0  0  0  0
  3  4  1  6  0  0  0
  3 16  1  0  0  0  0
  3  2  1  0  0  0  0
  5  4  1  0  0  0  0
  5  6  2  0  0  0  0
  6  7  1  0  0  0  0
  6  2  1  0  0  0  0
  7  8  2  0  0  0  0
  9 14  1  0  0  0  0
  9  7  1  0  0  0  0
 10  9  1  0  0  0  0
 11 10  2  0  0  0  0
 12 10  1  0  0  0  0
 12  5  1  0  0  0  0
 13 12  1  0  0  0  0
 15  4  1  0  0  0  0
 16 31  1  6  0  0  0
 16 17  1  0  0  0  0
 17  1  1  0  0  0  0
 17 27  1  1  0  0  0
 18 19  1  1  0  0  0
 18 20  1  0  0  0  0
 20 26  2  0  0  0  0
 20 21  1  0  0  0  0
 21 22  2  0  0  0  0
 22 23  1  0  0  0  0
 23 24  1  0  0  0  0
 25 23  2  0  0  0  0
 26 25  1  0  0  0  0
 27 28  2  0  0  0  0
 29 30  1  0  0  0  0
 29 27  1  0  0  0  0
 31 33  1  0  0  0  0
 32 31  2  0  0  0  0
 33 34  1  0  0  0  0
M  END
>  <Pose>
1

>  <Score>
-6.990

$$$$
