MODEL 1
REMARK VINA RESULT:    -6.990      0.000      0.000
REMARK INTER + INTRA:          -7.917
REMARK INTER:                  -9.441
REMARK INTRA:                   1.524
REMARK UNBOUND:                 1.524
REMARK  6 active torsions:
REMARK  status: ('A' for Active; 'I' for Inactive)
REMARK    1  A    between atoms: C_5  and  C_8 
REMARK    2  A    between atoms: C_8  and  C_10 
REMARK    3  A    between atoms: C_25  and  C_31 
REMARK    4  A    between atoms: C_26  and  C_27 
REMARK    5  A    between atoms: C_27  and  O_29 
REMARK    6  A    between atoms: C_31  and  O_33 
ROOT
ATOM      1  C   UNK d   1      21.313  78.310  16.224  0.00  0.00     0.162 C 
ATOM      2  N   UNK d   1      20.963  77.888  14.892  0.00  0.00    -0.339 N 
ATOM      3  C   UNK d   1      21.776  78.814  14.070  0.00  0.00     0.203 A 
ATOM      4  N   UNK d   1      21.648  78.385  12.731  0.00  0.00    -0.347 N 
ATOM      5  C   UNK d   1      20.688  77.324  12.703  0.00  0.00     0.143 A 
ATOM      6  C   UNK d   1      20.291  77.046  14.012  0.00  0.00     0.146 A 
ATOM      7  C   UNK d   1      19.361  76.050  14.225  0.00  0.00     0.281 A 
ATOM      8  O   UNK d   1      19.019  75.818  15.413  0.00  0.00    -0.265 OA
ATOM      9  N   UNK d   1      18.861  75.378  13.182  0.00  0.00    -0.269 N 
ATOM     10  C   UNK d   1      19.256  75.663  11.952  0.00  0.00     0.332 A 
ATOM     11  O   UNK d   1      18.760  75.005  10.997  0.00  0.00    -0.246 OA
ATOM     12  N   UNK d   1      20.175  76.638  11.677  0.00  0.00    -0.287 N 
ATOM     13  C   UNK d   1      20.518  76.853  10.290  0.00  0.00     0.163 C 
ATOM     14  C   UNK d   1      17.874  74.327  13.453  0.00  0.00     0.164 C 
ATOM     15  C   UNK d   1      22.307  78.905  11.561  0.00  0.00     0.153 C 
ATOM     16  C   UNK d   1      23.083  78.853  14.742  0.00  0.00     0.144 C 
ATOM     17  C   UNK d   1      22.840  78.180  16.100  0.00  0.00     0.132 C 
ENDROOT
BRANCH   1  18
ATOM     18  C   UNK d   1      20.971  79.693  16.465  0.00  0.00     0.118 C 
ATOM     19  O   UNK d   1      21.065  80.448  15.407  0.00  0.00    -0.194 OA
BRANCH  18  20
ATOM     20  C   UNK d   1      20.548  80.369  17.671  0.00  0.00    -0.002 A 
ATOM     21  C   UNK d   1      20.023  79.708  18.756  0.00  0.00     0.015 A 
ATOM     22  C   UNK d   1      19.615  80.426  19.853  0.00  0.00     0.020 A 
ATOM     23  C   UNK d   1      19.718  81.808  19.899  0.00  0.00     0.011 A 
ATOM     24 Br   UNK d   1      19.144  82.779  21.435  0.00  0.00    -0.051 Br
ATOM     25  C   UNK d   1      20.247  82.468  18.804  0.00  0.00     0.020 A 
ATOM     26  C   UNK d   1      20.659  81.762  17.700  0.00  0.00     0.015 A 
ENDBRANCH  18  20
ENDBRANCH   1  18
BRANCH  17  27
ATOM     27  C   UNK d   1      23.562  78.848  17.177  0.00  0.00     0.266 C 
ATOM     28  O   UNK d   1      23.239  78.630  18.392  0.00  0.00    -0.265 OA
BRANCH  27  29
ATOM     29  O   UNK d   1      24.592  79.717  16.933  0.00  0.00    -0.326 OA
ATOM     30  C   UNK d   1      25.968  79.350  17.061  0.00  0.00     0.213 C 
ENDBRANCH  27  29
ENDBRANCH  17  27
BRANCH  16  31
ATOM     31  C   UNK d   1      24.241  78.278  14.070  0.00  0.00     0.267 C 
ATOM     32  O   UNK d   1      24.987  79.010  13.368  0.00  0.00    -0.265 OA
BRANCH  31  33
ATOM     33  O   UNK d   1      24.556  76.941  14.178  0.00  0.00    -0.326 OA
ATOM     34  C   UNK d   1      25.466  76.475  15.150  0.00  0.00     0.213 C 
ENDBRANCH  31  33
ENDBRANCH  16  31
TORSDOF 6
ENDMDL
