/Users/jonathanwahrer/Desktop/Msc/3_Semester/Drug_Design_Praktikum/waehrer_HTS_screening/HTS_experiment/out/docking_results/vina_output/6e43/1372_docked.pdbqt
 OpenBabel03212220323D

 31 34  0  0  1  0  0  0  0  0999 V2000
   21.6620   78.2040   17.7320 C   0  0  0  0  0  0  0  0  0  0  0  0
   21.5130   77.1770   18.4280 O   0  0  0  0  0  0  0  0  0  0  0  0
   22.8250   78.3760   16.9740 N   0  0  0  0  0  0  0  0  0  0  0  0
   23.8050   77.4330   16.5530 C   0  0  0  0  0  2  0  0  0  0  0  0
   24.3160   77.9890   15.2140 C   0  0  0  0  0  2  0  0  0  0  0  0
   23.2530   78.7750   14.4860 C   0  0  1  0  0  0  0  0  0  0  0  0
   23.7480   79.2950   13.2410 N   0  0  0  0  0  0  0  0  0  0  0  0
   22.6850   80.1200   12.6490 C   0  0  0  0  0  2  0  0  0  0  0  0
   21.5060   79.2950   12.2360 C   0  0  0  0  0  2  0  0  0  0  0  0
   21.2850   78.1280   13.1190 C   0  0  0  0  0  0  0  0  0  0  0  0
   20.3430   77.1800   13.0820 N   0  0  0  0  0  0  0  0  0  0  0  0
   20.5540   76.3260   14.1030 C   0  0  0  0  0  3  0  0  0  0  0  0
   21.6340   76.7590   14.7680 N   0  0  0  0  0  0  0  0  0  0  0  0
   22.1320   77.8700   14.2060 C   0  0  0  0  0  0  0  0  0  0  0  0
   22.8020   80.0190   15.2690 C   0  0  0  0  0  2  0  0  0  0  0  0
   23.2530   79.7770   16.6460 C   0  0  0  0  0  2  0  0  0  0  0  0
   24.5400   79.9540   13.4320 H   0  0  0  0  0  0  0  0  0  0  0  0
   19.5500   77.0490   12.4160 H   0  0  0  0  0  0  0  0  0  0  0  0
   20.5580   79.2120   17.7370 C   0  0  1  0  0  3  0  0  0  0  0  0
   19.2350   78.4130   17.6140 C   0  0  0  0  0  1  0  0  0  0  0  0
   20.4110   79.9120   18.9900 N   0  0  0  0  0  0  0  0  0  0  0  0
   20.3210   81.3620   18.9810 C   0  0  0  0  0  0  0  0  0  0  0  0
   20.3220   82.0060   17.9240 O   0  0  0  0  0  0  0  0  0  0  0  0
   20.3650   79.3980   19.8680 H   0  0  0  0  0  0  0  0  0  0  0  0
   20.2440   82.0090   20.3010 C   0  0  0  0  0  0  0  0  0  0  0  0
   19.2270   82.9560   20.5060 C   0  0  0  0  0  3  0  0  0  0  0  0
   19.0620   83.6360   21.6870 C   0  0  0  0  0  0  0  0  0  0  0  0
   17.6270   84.9120   21.8760 Br  0  0  0  0  0  0  0  0  0  0  0  0
   19.9350   83.3790   22.7180 C   0  0  0  0  0  3  0  0  0  0  0  0
   20.9460   82.4510   22.5330 C   0  0  0  0  0  3  0  0  0  0  0  0
   21.1030   81.7690   21.3300 C   0  0  0  0  0  3  0  0  0  0  0  0
  1 19  1  0  0  0  0
  1  2  2  0  0  0  0
  3  1  1  0  0  0  0
  4  3  1  0  0  0  0
  5  4  1  0  0  0  0
  6  5  1  1  0  0  0
  6 15  1  0  0  0  0
  7 17  1  0  0  0  0
  7  6  1  0  0  0  0
  8  7  1  0  0  0  0
  9  8  1  0  0  0  0
  9 10  1  0  0  0  0
 10 14  2  0  0  0  0
 11 10  1  0  0  0  0
 11 12  1  0  0  0  0
 12 13  2  0  0  0  0
 14  6  1  0  0  0  0
 14 13  1  0  0  0  0
 15 16  1  0  0  0  0
 16  3  1  0  0  0  0
 18 11  1  0  0  0  0
 19 20  1  1  0  0  0
 19 21  1  0  0  0  0
 21 24  1  0  0  0  0
 22 21  1  0  0  0  0
 22 25  1  0  0  0  0
 23 22  2  0  0  0  0
 25 26  2  0  0  0  0
 25 31  1  0  0  0  0
 26 27  1  0  0  0  0
 27 28  1  0  0  0  0
 27 29  2  0  0  0  0
 30 29  1  0  0  0  0
 31 30  2  0  0  0  0
M  END
>  <Pose>
1

>  <Score>
-11.118

$$$$
