MODEL 1
REMARK VINA RESULT:   -10.487      0.000      0.000
REMARK INTER + INTRA:         -15.102
REMARK INTER:                 -14.472
REMARK INTRA:                  -0.630
REMARK UNBOUND:                -0.630
REMARK  7 active torsions:
REMARK  status: ('A' for Active; 'I' for Inactive)
REMARK    1  A    between atoms: C_7  and  C_11 
REMARK    2  A    between atoms: C_11  and  O_12 
REMARK    3  A    between atoms: O_12  and  C_13 
REMARK    4  A    between atoms: C_13  and  C_15 
REMARK    5  A    between atoms: N_17  and  C_26 
REMARK    6  A    between atoms: C_26  and  C_27 
REMARK    7  A    between atoms: C_27  and  O_28 
ROOT
ATOM      1  C   UNK d   1      22.408  77.683  15.715  0.00  0.00     0.315 C 
ATOM      2  O   UNK d   1      23.491  77.208  16.032  0.00  0.00    -0.257 OA
ENDROOT
BRANCH   1   3
ATOM      3  O   UNK d   1      21.962  78.634  16.673  0.00  0.00    -0.310 OA
BRANCH   3   4
ATOM      4  C   UNK d   1      21.437  79.844  16.197  0.00  0.00     0.238 C 
BRANCH   4   5
ATOM      5  C   UNK d   1      20.713  80.482  17.314  0.00  0.00     0.066 A 
ATOM      6  N   UNK d   1      20.832  81.805  17.519  0.00  0.00    -0.233 NA
ATOM      7  C   UNK d   1      20.197  82.438  18.518  0.00  0.00     0.137 A 
ATOM      8  N   UNK d   1      19.410  81.760  19.361  0.00  0.00    -0.272 N 
ATOM      9  C   UNK d   1      20.343  83.788  18.695  0.00  0.00     0.052 A 
ATOM     10  C   UNK d   1      18.767  82.395  20.372  0.00  0.00     0.121 A 
ATOM     11  C   UNK d   1      19.235  80.430  19.227  0.00  0.00     0.255 A 
ATOM     12  C   UNK d   1      18.902  83.758  20.566  0.00  0.00     0.027 A 
ATOM     13 Br   UNK d   1      17.980  84.638  22.007  0.00  0.00    -0.050 Br
ATOM     14  C   UNK d   1      19.706  84.470  19.711  0.00  0.00     0.024 A 
ATOM     15  C   UNK d   1      19.906  79.785  18.177  0.00  0.00     0.104 A 
ATOM     16  O   UNK d   1      18.504  79.762  19.999  0.00  0.00    -0.268 OA
ENDBRANCH   4   5
ENDBRANCH   3   4
ENDBRANCH   1   3
BRANCH   1  17
ATOM     17  C   UNK d   1      21.575  77.415  14.559  0.00  0.00     0.163 A 
ATOM     18  N   UNK d   1      20.606  76.453  14.611  0.00  0.00    -0.163 NA
ATOM     19  N   UNK d   1      19.834  76.190  13.572  0.00  0.00    -0.231 N 
ATOM     20  C   UNK d   1      19.967  76.858  12.413  0.00  0.00     0.274 A 
ATOM     21  O   UNK d   1      19.215  76.594  11.415  0.00  0.00    -0.266 OA
ATOM     22  C   UNK d   1      20.919  77.840  12.278  0.00  0.00     0.046 A 
ATOM     23  C   UNK d   1      21.722  78.099  13.392  0.00  0.00     0.016 A 
ATOM     24  C   UNK d   1      21.037  78.507  11.087  0.00  0.00     0.018 A 
ATOM     25  C   UNK d   1      22.658  79.088  13.213  0.00  0.00     0.015 A 
ATOM     26  C   UNK d   1      22.787  79.772  12.009  0.00  0.00     0.001 A 
ATOM     27  C   UNK d   1      21.980  79.491  10.932  0.00  0.00     0.001 A 
BRANCH  19  28
ATOM     28  C   UNK d   1      18.810  75.168  13.639  0.00  0.00     0.180 C 
BRANCH  28  29
ATOM     29  C   UNK d   1      19.370  73.780  13.470  0.00  0.00     0.186 C 
BRANCH  29  30
ATOM     30  O   UNK d   1      20.365  73.491  14.386  0.00  0.00    -0.399 OA
ATOM     31  H   UNK d   1      20.978  72.843  13.965  0.00  0.00     0.209 HD
ENDBRANCH  29  30
ENDBRANCH  28  29
ENDBRANCH  19  28
ENDBRANCH   1  17
TORSDOF 7
ENDMDL
