MODEL 1
REMARK VINA RESULT:    -9.339      0.000      0.000
REMARK INTER + INTRA:         -11.845
REMARK INTER:                 -11.796
REMARK INTRA:                  -0.048
REMARK UNBOUND:                -0.048
REMARK  5 active torsions:
REMARK  status: ('A' for Active; 'I' for Inactive)
REMARK    1  A    between atoms: C_6  and  C_12 
REMARK    2  A    between atoms: C_12  and  C_13 
REMARK    3  A    between atoms: C_13  and  C_14 
REMARK       I    between atoms: C_14  and  N_16 
REMARK    4  A    between atoms: C_18  and  N_24 
REMARK    5  A    between atoms: C_19  and  O_22 
ROOT
ATOM      1  C   UNK d   1      21.981  77.895  13.968  0.00  0.00     0.220 C 
ATOM      2  O   UNK d   1      21.445  76.783  14.176  0.00  0.00    -0.273 OA
ATOM      3  N   UNK d   1      21.514  78.697  12.862  0.00  0.00    -0.350 N 
ATOM      4  C   UNK d   1      20.450  78.192  12.038  0.00  0.00     0.154 C 
ATOM      5  C   UNK d   1      21.039  77.908  10.671  0.00  0.00     0.146 C 
ATOM      6  C   UNK d   1      22.143  78.827  10.295  0.00  0.00     0.078 C 
ATOM      7  C   UNK d   1      22.195  80.109  11.042  0.00  0.00     0.059 C 
ATOM      8  C   UNK d   1      22.048  79.987  12.523  0.00  0.00     0.129 C 
ATOM      9  C   UNK d   1      21.964  79.170   8.810  0.00  0.00     0.048 C 
ENDROOT
BRANCH   1  10
ATOM     10  C   UNK d   1      23.067  78.416  14.805  0.00  0.00     0.110 C 
BRANCH  10  11
ATOM     11  C   UNK d   1      23.066  78.068  16.233  0.00  0.00     0.088 C 
BRANCH  11  12
ATOM     12  C   UNK d   1      22.053  78.733  17.092  0.00  0.00     0.107 A 
ATOM     13  N   UNK d   1      21.995  80.093  17.314  0.00  0.00    -0.233 NA
ATOM     14  C   UNK d   1      21.006  80.358  18.180  0.00  0.00     0.087 A 
ATOM     15  C   UNK d   1      20.515  81.525  18.742  0.00  0.00     0.057 A 
ATOM     16  C   UNK d   1      20.408  79.171  18.536  0.00  0.00     0.064 A 
ATOM     17  C   UNK d   1      19.461  81.497  19.626  0.00  0.00     0.036 A 
ATOM     18 Cl   UNK d   1      18.871  83.018  20.315  0.00  0.00    -0.084 Cl
ATOM     19  C   UNK d   1      18.871  80.297  19.971  0.00  0.00     0.026 A 
ATOM     20  C   UNK d   1      19.350  79.133  19.420  0.00  0.00     0.034 A 
ATOM     21  N   UNK d   1      21.088  78.213  17.842  0.00  0.00    -0.338 N 
ATOM     22  C   UNK d   1      20.756  76.809  18.007  0.00  0.00     0.158 C 
ENDBRANCH  11  12
ENDBRANCH  10  11
ENDBRANCH   1  10
BRANCH   5  23
ATOM     23  N   UNK d   1      19.954  77.884   9.720  0.00  0.00    -0.300 N 
ATOM     24  C   UNK d   1      19.188  78.977   9.536  0.00  0.00     0.102 A 
ATOM     25  C   UNK d   1      18.144  78.998   8.639  0.00  0.00     0.092 A 
ATOM     26  C   UNK d   1      17.882  77.861   7.911  0.00  0.00     0.250 A 
ATOM     27  O   UNK d   1      16.929  77.817   7.065  0.00  0.00    -0.268 OA
ATOM     28  N   UNK d   1      18.661  76.787   8.116  0.00  0.00    -0.275 N 
ATOM     29  C   UNK d   1      19.667  76.792   8.991  0.00  0.00     0.329 A 
ATOM     30  H   UNK d   1      18.493  75.886   7.574  0.00  0.00     0.173 HD
ATOM     31  O   UNK d   1      20.372  75.753   9.145  0.00  0.00    -0.246 OA
ENDBRANCH   5  23
BRANCH   6  32
ATOM     32  O   UNK d   1      23.408  78.224  10.384  0.00  0.00    -0.388 OA
ATOM     33  H   UNK d   1      23.338  77.459  11.036  0.00  0.00     0.210 HD
ENDBRANCH   6  32
TORSDOF 5
ENDMDL
