/Users/jonathanwahrer/Desktop/Msc/3_Semester/Drug_Design_Praktikum/waehrer_HTS_screening/HTS_experiment/out/docking_results/vina_output/6e43/1386_docked.pdbqt
 OpenBabel03212220333D

 33 36  0  0  1  0  0  0  0  0999 V2000
   21.9810   77.8950   13.9680 C   0  0  0  0  0  0  0  0  0  0  0  0
   21.4450   76.7830   14.1760 O   0  0  0  0  0  0  0  0  0  0  0  0
   21.5140   78.6970   12.8620 N   0  0  0  0  0  0  0  0  0  0  0  0
   20.4500   78.1920   12.0380 C   0  0  0  0  0  2  0  0  0  0  0  0
   21.0390   77.9080   10.6710 C   0  0  2  0  0  3  0  0  0  0  0  0
   22.1430   78.8270   10.2950 C   0  0  2  0  0  0  0  0  0  0  0  0
   22.1950   80.1090   11.0420 C   0  0  0  0  0  2  0  0  0  0  0  0
   22.0480   79.9870   12.5230 C   0  0  0  0  0  2  0  0  0  0  0  0
   21.9640   79.1700    8.8100 C   0  0  0  0  0  1  0  0  0  0  0  0
   23.0670   78.4160   14.8050 C   0  0  0  0  0  2  0  0  0  0  0  0
   23.0660   78.0680   16.2330 C   0  0  0  0  0  2  0  0  0  0  0  0
   22.0530   78.7330   17.0920 C   0  0  0  0  0  0  0  0  0  0  0  0
   21.9950   80.0930   17.3140 N   0  0  0  0  0  0  0  0  0  0  0  0
   21.0060   80.3580   18.1800 C   0  0  0  0  0  0  0  0  0  0  0  0
   20.5150   81.5250   18.7420 C   0  0  0  0  0  3  0  0  0  0  0  0
   20.4080   79.1710   18.5360 C   0  0  0  0  0  0  0  0  0  0  0  0
   19.4610   81.4970   19.6260 C   0  0  0  0  0  0  0  0  0  0  0  0
   18.8710   83.0180   20.3150 Cl  0  0  0  0  0  0  0  0  0  0  0  0
   18.8710   80.2970   19.9710 C   0  0  0  0  0  3  0  0  0  0  0  0
   19.3500   79.1330   19.4200 C   0  0  0  0  0  3  0  0  0  0  0  0
   21.0880   78.2130   17.8420 N   0  0  0  0  0  0  0  0  0  0  0  0
   20.7560   76.8090   18.0070 C   0  0  0  0  0  1  0  0  0  0  0  0
   19.9540   77.8840    9.7200 N   0  0  0  0  0  0  0  0  0  0  0  0
   19.1880   78.9770    9.5360 C   0  0  0  0  0  3  0  0  0  0  0  0
   18.1440   78.9980    8.6390 C   0  0  0  0  0  3  0  0  0  0  0  0
   17.8820   77.8610    7.9110 C   0  0  0  0  0  0  0  0  0  0  0  0
   16.9290   77.8170    7.0650 O   0  0  0  0  0  0  0  0  0  0  0  0
   18.6610   76.7870    8.1160 N   0  0  0  0  0  0  0  0  0  0  0  0
   19.6670   76.7920    8.9910 C   0  0  0  0  0  0  0  0  0  0  0  0
   18.4930   75.8860    7.5740 H   0  0  0  0  0  0  0  0  0  0  0  0
   20.3720   75.7530    9.1450 O   0  0  0  0  0  0  0  0  0  0  0  0
   23.4080   78.2240   10.3840 O   0  0  0  0  0  0  0  0  0  0  0  0
   23.3380   77.4590   11.0360 H   0  0  0  0  0  0  0  0  0  0  0  0
  1  2  2  0  0  0  0
  1 10  1  0  0  0  0
  3  1  1  0  0  0  0
  4  3  1  0  0  0  0
  5 23  1  6  0  0  0
  5  4  1  0  0  0  0
  6  9  1  6  0  0  0
  6 32  1  0  0  0  0
  6  5  1  0  0  0  0
  6  7  1  0  0  0  0
  7  8  1  0  0  0  0
  8  3  1  0  0  0  0
 10 11  1  0  0  0  0
 11 12  1  0  0  0  0
 12 13  2  0  0  0  0
 12 21  1  0  0  0  0
 13 14  1  0  0  0  0
 14 16  2  0  0  0  0
 14 15  1  0  0  0  0
 15 17  2  0  0  0  0
 16 20  1  0  0  0  0
 17 19  1  0  0  0  0
 17 18  1  0  0  0  0
 20 19  2  0  0  0  0
 21 22  1  0  0  0  0
 21 16  1  0  0  0  0
 24 23  1  0  0  0  0
 25 24  2  0  0  0  0
 26 28  1  0  0  0  0
 26 25  1  0  0  0  0
 27 26  2  0  0  0  0
 28 29  1  0  0  0  0
 29 31  2  0  0  0  0
 29 23  1  0  0  0  0
 30 28  1  0  0  0  0
 32 33  1  0  0  0  0
M  END
>  <Pose>
1

>  <Score>
-9.339

$$$$
