/Users/jonathanwahrer/Desktop/Msc/3_Semester/Drug_Design_Praktikum/waehrer_HTS_screening/HTS_experiment/out/docking_results/vina_output/6e43/1404_docked.pdbqt
 OpenBabel03212220333D

 26 29  0  0  1  0  0  0  0  0999 V2000
   21.5980   80.9130    9.4990 Br  0  0  0  0  0  0  0  0  0  0  0  0
   21.4690   79.6840   10.9530 C   0  0  0  0  0  0  0  0  0  0  0  0
   22.3990   79.6830   11.9750 C   0  0  0  0  0  3  0  0  0  0  0  0
   22.3490   78.8160   13.0460 C   0  0  0  0  0  0  0  0  0  0  0  0
   21.2830   77.9130   13.0480 C   0  0  0  0  0  0  0  0  0  0  0  0
   20.3590   77.9140   12.0330 C   0  0  0  0  0  3  0  0  0  0  0  0
   20.4210   78.7880   10.9670 C   0  0  0  0  0  0  0  0  0  0  0  0
   19.3900   78.7440    9.8920 C   0  0  0  0  0  1  0  0  0  0  0  0
   21.2640   77.0580   14.1420 O   0  0  0  0  0  0  0  0  0  0  0  0
   22.3260   76.9210   15.0680 C   0  0  0  0  0  2  0  0  0  0  0  0
   22.9040   78.3250   15.4470 C   0  0  2  0  0  0  0  0  0  0  0  0
   23.3410   78.8040   14.1130 C   0  0  0  0  0  0  0  0  0  0  0  0
   24.4740   79.2020   13.7910 O   0  0  0  0  0  0  0  0  0  0  0  0
   23.8440   78.2820   16.4290 N   0  0  0  0  0  0  0  0  0  0  0  0
   24.4410   79.4130   16.9980 C   0  0  0  0  0  2  0  0  0  0  0  0
   25.8190   79.6250   16.4100 C   0  0  0  0  0  2  0  0  0  0  0  0
   26.5920   78.5240   16.8510 O   0  0  0  0  0  0  0  0  0  0  0  0
   26.1060   77.4410   16.0980 C   0  0  0  0  0  2  0  0  0  0  0  0
   24.6700   77.1630   16.5470 C   0  0  0  0  0  2  0  0  0  0  0  0
   21.6970   79.0750   15.8820 C   0  0  0  0  0  2  0  0  0  0  0  0
   21.4320   79.1860   17.2830 N   0  0  0  0  0  0  0  0  0  0  0  0
   20.9160   80.4040   17.7800 C   0  0  0  0  0  2  0  0  0  0  0  0
   19.4240   80.5380   17.4400 C   0  0  0  0  0  2  0  0  0  0  0  0
   18.7840   79.5310   18.1700 O   0  0  0  0  0  0  0  0  0  0  0  0
   19.1520   78.3120   17.5870 C   0  0  0  0  0  2  0  0  0  0  0  0
   20.6200   78.0400   17.6990 C   0  0  0  0  0  2  0  0  0  0  0  0
  1  2  1  0  0  0  0
  2  7  2  0  0  0  0
  2  3  1  0  0  0  0
  3  4  2  0  0  0  0
  4  5  1  0  0  0  0
  4 12  1  0  0  0  0
  5  9  1  0  0  0  0
  6  5  2  0  0  0  0
  7  6  1  0  0  0  0
  8  7  1  0  0  0  0
  9 10  1  0  0  0  0
 10 11  1  0  0  0  0
 11 20  1  1  0  0  0
 11 14  1  0  0  0  0
 12 11  1  0  0  0  0
 13 12  2  0  0  0  0
 14 19  1  0  0  0  0
 14 15  1  0  0  0  0
 16 17  1  0  0  0  0
 16 15  1  0  0  0  0
 18 19  1  0  0  0  0
 18 17  1  0  0  0  0
 20 21  1  0  0  0  0
 21 26  1  0  0  0  0
 21 22  1  0  0  0  0
 23 22  1  0  0  0  0
 23 24  1  0  0  0  0
 25 26  1  0  0  0  0
 25 24  1  0  0  0  0
M  END
>  <Pose>
1

>  <Score>
-7.868

$$$$
