/Users/jonathanwahrer/Desktop/Msc/3_Semester/Drug_Design_Praktikum/waehrer_HTS_screening/HTS_experiment/out/docking_results/vina_output/6e43/1405_docked.pdbqt
 OpenBabel03212220333D

 27 30  0  0  1  0  0  0  0  0999 V2000
   18.8750   80.8590   18.3650 Br  0  0  0  0  0  0  0  0  0  0  0  0
   20.3770   79.8700   17.6710 C   0  0  0  0  0  0  0  0  0  0  0  0
   20.5020   79.6240   16.3300 C   0  0  0  0  0  3  0  0  0  0  0  0
   21.5860   78.9140   15.8570 C   0  0  0  0  0  0  0  0  0  0  0  0
   22.5070   78.4780   16.7700 C   0  0  0  0  0  0  0  0  0  0  0  0
   22.3770   78.7320   18.1500 C   0  0  0  0  0  3  0  0  0  0  0  0
   21.2940   79.4390   18.6020 C   0  0  0  0  0  3  0  0  0  0  0  0
   23.5620   77.7640   16.1320 N   0  0  0  0  0  0  0  0  0  0  0  0
   23.3000   77.7460   14.7570 C   0  0  0  0  0  0  0  0  0  0  0  0
   24.0340   77.1940   13.8800 O   0  0  0  0  0  0  0  0  0  0  0  0
   22.0140   78.4850   14.5030 C   0  0  2  0  0  0  0  0  0  0  0  0
   22.3600   79.6020   13.6310 C   0  0  0  0  0  0  0  0  0  0  0  0
   21.8540   79.6980   12.3720 C   0  0  0  0  0  0  0  0  0  0  0  0
   22.3680   80.8420   11.8310 N   0  0  0  0  0  0  0  0  0  0  0  0
   23.1580   81.4400   12.6980 N   0  0  0  0  0  0  0  0  0  0  0  0
   23.1840   80.7160   13.8150 C   0  0  0  0  0  0  0  0  0  0  0  0
   23.9280   80.9680   15.0890 C   0  0  0  0  0  1  0  0  0  0  0  0
   20.9790   78.7490   11.8330 O   0  0  0  0  0  0  0  0  0  0  0  0
   20.6510   77.6850   12.6670 C   0  0  0  0  0  0  0  0  0  0  0  0
   21.1050   77.5380   13.8840 C   0  0  0  0  0  0  0  0  0  0  0  0
   20.6500   76.3480   14.6250 C   0  0  0  0  0  0  0  0  0  0  0  0
   20.3020   75.4120   15.2300 N   0  0  0  0  0  0  0  0  0  0  0  0
   24.7260   77.1500   16.7890 C   0  0  0  0  0  1  0  0  0  0  0  0
   23.6990   82.3350   12.5820 H   0  0  0  0  0  0  0  0  0  0  0  0
   19.7440   76.6650   12.1610 N   0  0  0  0  0  0  0  0  0  0  0  0
   19.0650   77.0030   11.4500 H   0  0  0  0  0  0  0  0  0  0  0  0
   19.7600   75.6950   12.4700 H   0  0  0  0  0  0  0  0  0  0  0  0
  2  1  1  0  0  0  0
  2  7  1  0  0  0  0
  3  2  2  0  0  0  0
  4  3  1  0  0  0  0
  4  5  2  0  0  0  0
  5  6  1  0  0  0  0
  6  7  2  0  0  0  0
  8  5  1  0  0  0  0
  8 23  1  0  0  0  0
  9  8  1  0  0  0  0
 10  9  2  0  0  0  0
 11 12  1  6  0  0  0
 11  9  1  0  0  0  0
 11  4  1  0  0  0  0
 12 16  2  0  0  0  0
 13 12  1  0  0  0  0
 14 13  2  0  0  0  0
 14 15  1  0  0  0  0
 15 16  1  0  0  0  0
 16 17  1  0  0  0  0
 18 13  1  0  0  0  0
 18 19  1  0  0  0  0
 19 20  2  0  0  0  0
 20 11  1  0  0  0  0
 20 21  1  0  0  0  0
 21 22  3  0  0  0  0
 24 15  1  0  0  0  0
 25 27  1  0  0  0  0
 25 19  1  0  0  0  0
 26 25  1  0  0  0  0
M  END
>  <Pose>
1

>  <Score>
-6.486

$$$$
