MODEL 1
REMARK VINA RESULT:   -10.048      0.000      0.000
REMARK INTER + INTRA:         -12.072
REMARK INTER:                 -11.811
REMARK INTRA:                  -0.261
REMARK UNBOUND:                -0.261
REMARK  3 active torsions:
REMARK  status: ('A' for Active; 'I' for Inactive)
REMARK    1  A    between atoms: N_9  and  C_11 
REMARK    2  A    between atoms: C_11  and  C_12 
REMARK    3  A    between atoms: C_12  and  C_14 
ROOT
ATOM      1  C   UNK d   1      19.615  77.942  18.114  0.00  0.00     0.211 C 
ENDROOT
BRANCH   1   2
ATOM      2  N   UNK d   1      20.852  77.954  17.350  0.00  0.00    -0.355 N 
ATOM      3  C   UNK d   1      22.054  77.705  17.894  0.00  0.00     0.127 A 
ATOM      4  C   UNK d   1      23.213  77.728  17.124  0.00  0.00     0.126 A 
ATOM      5  C   UNK d   1      23.163  78.008  15.777  0.00  0.00     0.104 A 
ATOM      6  N   UNK d   1      24.531  77.523  17.382  0.00  0.00    -0.128 NA
ATOM      7  C   UNK d   1      21.954  78.260  15.223  0.00  0.00     0.057 A 
ATOM      8  N   UNK d   1      24.400  77.974  15.245  0.00  0.00    -0.252 N 
ATOM      9 Br   UNK d   1      21.859  78.650  13.372  0.00  0.00    -0.047 Br
ATOM     10  C   UNK d   1      20.815  78.228  16.027  0.00  0.00     0.112 A 
ATOM     11  N   UNK d   1      25.194  77.673  16.269  0.00  0.00    -0.065 NA
ATOM     12  C   UNK d   1      24.863  78.190  13.927  0.00  0.00     0.182 C 
ENDBRANCH   1   2
BRANCH   1  13
ATOM     13  C   UNK d   1      19.609  78.846  19.260  0.00  0.00     0.177 C 
ATOM     14  O   UNK d   1      19.501  78.305  20.403  0.00  0.00    -0.291 OA
BRANCH  13  15
ATOM     15  C   UNK d   1      19.715  80.301  19.216  0.00  0.00     0.012 A 
ATOM     16  C   UNK d   1      19.253  81.031  20.275  0.00  0.00     0.027 A 
ATOM     17  C   UNK d   1      19.333  82.399  20.258  0.00  0.00    -0.025 A 
ATOM     18  C   UNK d   1      19.876  83.089  19.189  0.00  0.00    -0.026 A 
ATOM     19  C   UNK d   1      18.860  83.117  21.342  0.00  0.00     0.012 A 
ATOM     20  C   UNK d   1      20.336  82.316  18.126  0.00  0.00     0.013 A 
ATOM     21  C   UNK d   1      19.968  84.465  19.150  0.00  0.00     0.012 A 
ATOM     22  C   UNK d   1      20.258  80.950  18.139  0.00  0.00     0.016 A 
ATOM     23  C   UNK d   1      19.492  85.167  20.237  0.00  0.00     0.001 A 
ATOM     24  C   UNK d   1      18.949  84.490  21.309  0.00  0.00     0.001 A 
ENDBRANCH  13  15
ENDBRANCH   1  13
TORSDOF 3
ENDMDL
