/Users/jonathanwahrer/Desktop/Msc/3_Semester/Drug_Design_Praktikum/waehrer_HTS_screening/HTS_experiment/out/docking_results/vina_output/6e43/1413_docked.pdbqt
 OpenBabel03212220333D

 24 27  0  0  0  0  0  0  0  0999 V2000
   19.6150   77.9420   18.1140 C   0  0  0  0  0  2  0  0  0  0  0  0
   20.8520   77.9540   17.3500 N   0  0  0  0  0  0  0  0  0  0  0  0
   22.0540   77.7050   17.8940 C   0  0  0  0  0  2  0  0  0  0  0  0
   23.2130   77.7280   17.1240 C   0  0  0  0  0  0  0  0  0  0  0  0
   23.1630   78.0080   15.7770 C   0  0  0  0  0  0  0  0  0  0  0  0
   24.5310   77.5230   17.3820 N   0  0  0  0  0  0  0  0  0  0  0  0
   21.9540   78.2600   15.2230 C   0  0  0  0  0  0  0  0  0  0  0  0
   24.4000   77.9740   15.2450 N   0  0  0  0  0  0  0  0  0  0  0  0
   21.8590   78.6500   13.3720 Br  0  0  0  0  0  0  0  0  0  0  0  0
   20.8150   78.2280   16.0270 C   0  0  0  0  0  3  0  0  0  0  0  0
   25.1940   77.6730   16.2690 N   0  0  0  0  0  0  0  0  0  0  0  0
   24.8630   78.1900   13.9270 C   0  0  0  0  0  1  0  0  0  0  0  0
   19.6090   78.8460   19.2600 C   0  0  0  0  0  0  0  0  0  0  0  0
   19.5010   78.3050   20.4030 O   0  0  0  0  0  0  0  0  0  0  0  0
   19.7150   80.3010   19.2160 C   0  0  0  0  0  0  0  0  0  0  0  0
   19.2530   81.0310   20.2750 C   0  0  0  0  0  3  0  0  0  0  0  0
   19.3330   82.3990   20.2580 C   0  0  0  0  0  0  0  0  0  0  0  0
   19.8760   83.0890   19.1890 C   0  0  0  0  0  0  0  0  0  0  0  0
   18.8600   83.1170   21.3420 C   0  0  0  0  0  3  0  0  0  0  0  0
   20.3360   82.3160   18.1260 C   0  0  0  0  0  3  0  0  0  0  0  0
   19.9680   84.4650   19.1500 C   0  0  0  0  0  3  0  0  0  0  0  0
   20.2580   80.9500   18.1390 C   0  0  0  0  0  3  0  0  0  0  0  0
   19.4920   85.1670   20.2370 C   0  0  0  0  0  3  0  0  0  0  0  0
   18.9490   84.4900   21.3090 C   0  0  0  0  0  3  0  0  0  0  0  0
  1 13  1  0  0  0  0
  2  3  1  0  0  0  0
  2  1  1  0  0  0  0
  4  6  1  0  0  0  0
  4  3  1  0  0  0  0
  5  4  2  0  0  0  0
  7  5  1  0  0  0  0
  7 10  2  0  0  0  0
  8  5  1  0  0  0  0
  8 11  1  0  0  0  0
  9  7  1  0  0  0  0
 10  2  1  0  0  0  0
 11  6  2  0  0  0  0
 12  8  1  0  0  0  0
 13 14  2  0  0  0  0
 15 13  1  0  0  0  0
 15 16  1  0  0  0  0
 17 16  2  0  0  0  0
 17 19  1  0  0  0  0
 18 17  1  0  0  0  0
 20 22  1  0  0  0  0
 20 18  2  0  0  0  0
 21 18  1  0  0  0  0
 21 23  2  0  0  0  0
 22 15  2  0  0  0  0
 23 24  1  0  0  0  0
 24 19  2  0  0  0  0
M  END
>  <Pose>
1

>  <Score>
-10.048

$$$$
