MODEL 1
REMARK VINA RESULT:    -8.929      0.000      0.000
REMARK INTER + INTRA:         -10.134
REMARK INTER:                  -9.973
REMARK INTRA:                  -0.161
REMARK UNBOUND:                -0.161
REMARK  2 active torsions:
REMARK  status: ('A' for Active; 'I' for Inactive)
REMARK    1  A    between atoms: N_4  and  C_8 
REMARK    2  A    between atoms: C_8  and  C_9 
ROOT
ATOM      1  C   UNK d   1      20.709  79.321  16.606  0.00  0.00     0.168 A 
ATOM      2  N   UNK d   1      20.034  78.867  17.675  0.00  0.00    -0.148 NA
ATOM      3  N   UNK d   1      19.734  79.877  18.508  0.00  0.00    -0.206 N 
ATOM      4  C   UNK d   1      20.226  81.001  17.957  0.00  0.00     0.169 A 
ATOM      5  N   UNK d   1      20.818  80.653  16.799  0.00  0.00    -0.209 NA
ATOM      6  C   UNK d   1      20.038  82.187  18.640  0.00  0.00     0.079 A 
ATOM      7  C   UNK d   1      19.370  82.242  19.849  0.00  0.00     0.162 A 
ATOM      8  N   UNK d   1      19.326  83.514  20.301  0.00  0.00    -0.256 N 
ATOM      9  N   UNK d   1      19.952  84.241  19.395  0.00  0.00    -0.182 NA
ATOM     10  C   UNK d   1      20.400  83.487  18.375  0.00  0.00     0.158 A 
ATOM     11  C   UNK d   1      18.703  83.962  21.544  0.00  0.00     0.182 C 
ATOM     12  N   UNK d   1      18.904  81.081  20.340  0.00  0.00    -0.222 NA
ATOM     13  C   UNK d   1      19.081  79.922  19.685  0.00  0.00     0.239 A 
ENDROOT
BRANCH   1  14
ATOM     14  C   UNK d   1      21.234  78.554  15.443  0.00  0.00     0.232 C 
BRANCH  14  15
ATOM     15  N   UNK d   1      22.649  78.255  15.591  0.00  0.00    -0.272 N 
ATOM     16  C   UNK d   1      23.595  79.064  16.109  0.00  0.00     0.134 A 
ATOM     17  C   UNK d   1      24.816  78.395  16.066  0.00  0.00     0.054 A 
ATOM     18 Br   UNK d   1      26.520  79.016  16.652  0.00  0.00    -0.047 Br
ATOM     19  C   UNK d   1      24.555  77.163  15.504  0.00  0.00     0.069 A 
ATOM     20  N   UNK d   1      23.237  77.114  15.230  0.00  0.00    -0.176 NA
ATOM     21  C   UNK d   1      25.592  76.130  15.274  0.00  0.00     0.074 C 
ENDBRANCH  14  15
ENDBRANCH   1  14
TORSDOF 2
ENDMDL
