/Users/jonathanwahrer/Desktop/Msc/3_Semester/Drug_Design_Praktikum/waehrer_HTS_screening/HTS_experiment/out/docking_results/vina_output/6e43/1432_docked.pdbqt
 OpenBabel03212220343D

 21 24  0  0  0  0  0  0  0  0999 V2000
   20.7090   79.3210   16.6060 C   0  0  0  0  0  0  0  0  0  0  0  0
   20.0340   78.8670   17.6750 N   0  0  0  0  0  0  0  0  0  0  0  0
   19.7340   79.8770   18.5080 N   0  0  0  0  0  0  0  0  0  0  0  0
   20.2260   81.0010   17.9570 C   0  0  0  0  0  0  0  0  0  0  0  0
   20.8180   80.6530   16.7990 N   0  0  0  0  0  0  0  0  0  0  0  0
   20.0380   82.1870   18.6400 C   0  0  0  0  0  0  0  0  0  0  0  0
   19.3700   82.2420   19.8490 C   0  0  0  0  0  0  0  0  0  0  0  0
   19.3260   83.5140   20.3010 N   0  0  0  0  0  0  0  0  0  0  0  0
   19.9520   84.2410   19.3950 N   0  0  0  0  0  0  0  0  0  0  0  0
   20.4000   83.4870   18.3750 C   0  0  0  0  0  3  0  0  0  0  0  0
   18.7030   83.9620   21.5440 C   0  0  0  0  0  1  0  0  0  0  0  0
   18.9040   81.0810   20.3400 N   0  0  0  0  0  0  0  0  0  0  0  0
   19.0810   79.9220   19.6850 C   0  0  0  0  0  3  0  0  0  0  0  0
   21.2340   78.5540   15.4430 C   0  0  0  0  0  2  0  0  0  0  0  0
   22.6490   78.2550   15.5910 N   0  0  0  0  0  0  0  0  0  0  0  0
   23.5950   79.0640   16.1090 C   0  0  0  0  0  3  0  0  0  0  0  0
   24.8160   78.3950   16.0660 C   0  0  0  0  0  0  0  0  0  0  0  0
   26.5200   79.0160   16.6520 Br  0  0  0  0  0  0  0  0  0  0  0  0
   24.5550   77.1630   15.5040 C   0  0  0  0  0  0  0  0  0  0  0  0
   23.2370   77.1140   15.2300 N   0  0  0  0  0  0  0  0  0  0  0  0
   25.5920   76.1300   15.2740 C   0  0  0  0  0  1  0  0  0  0  0  0
  1  5  1  0  0  0  0
  1  2  2  0  0  0  0
  2  3  1  0  0  0  0
  3 13  1  0  0  0  0
  4  3  1  0  0  0  0
  4  6  1  0  0  0  0
  5  4  2  0  0  0  0
  6  7  2  0  0  0  0
  7  8  1  0  0  0  0
  7 12  1  0  0  0  0
  8 11  1  0  0  0  0
  9  8  1  0  0  0  0
 10  6  1  0  0  0  0
 10  9  2  0  0  0  0
 13 12  2  0  0  0  0
 14 15  1  0  0  0  0
 14  1  1  0  0  0  0
 15 16  1  0  0  0  0
 17 16  2  0  0  0  0
 17 18  1  0  0  0  0
 19 17  1  0  0  0  0
 20 19  2  0  0  0  0
 20 15  1  0  0  0  0
 21 19  1  0  0  0  0
M  END
>  <Pose>
1

>  <Score>
-8.929

$$$$
