/Users/jonathanwahrer/Desktop/Msc/3_Semester/Drug_Design_Praktikum/waehrer_HTS_screening/HTS_experiment/out/docking_results/vina_output/6e43/1433_docked.pdbqt
 OpenBabel03212220343D

 28 31  0  0  1  0  0  0  0  0999 V2000
   20.7350   80.8310   10.3260 Br  0  0  0  0  0  0  0  0  0  0  0  0
   20.6010   79.2230   11.3220 C   0  0  0  0  0  0  0  0  0  0  0  0
   21.1600   79.1520   12.6020 C   0  0  0  0  0  0  0  0  0  0  0  0
   21.0720   78.0080   13.3560 C   0  0  0  0  0  0  0  0  0  0  0  0
   20.4160   76.9330   12.8060 C   0  0  0  0  0  3  0  0  0  0  0  0
   19.8500   76.9760   11.5330 C   0  0  0  0  0  0  0  0  0  0  0  0
   19.9440   78.1480   10.7780 C   0  0  0  0  0  0  0  0  0  0  0  0
   19.3390   78.2080    9.4190 C   0  0  0  0  0  1  0  0  0  0  0  0
   19.1680   75.7780   10.9750 C   0  0  0  0  0  1  0  0  0  0  0  0
   21.6040   77.8570   14.7410 C   0  0  2  0  0  3  0  0  0  0  0  0
   22.4630   78.9920   15.2050 C   0  0  2  0  0  0  0  0  0  0  0  0
   22.9720   79.7480   13.9910 C   0  0  0  0  0  2  0  0  0  0  0  0
   21.8420   80.2020   13.2020 O   0  0  0  0  0  0  0  0  0  0  0  0
   23.6050   78.3960   15.8640 N   0  0  0  0  0  0  0  0  0  0  0  0
   24.1680   79.2120   16.8870 C   0  0  0  0  0  2  0  0  0  0  0  0
   25.5560   78.8390   17.3230 C   0  0  0  0  0  2  0  0  0  0  0  0
   26.3840   78.3990   16.3260 O   0  0  0  0  0  0  0  0  0  0  0  0
   25.7740   77.2940   15.7170 C   0  0  0  0  0  2  0  0  0  0  0  0
   24.5870   77.9180   14.9370 C   0  0  0  0  0  2  0  0  0  0  0  0
   21.7910   80.0220   16.0310 C   0  0  0  0  0  2  0  0  0  0  0  0
   20.4500   79.9740   16.3960 N   0  0  0  0  0  0  0  0  0  0  0  0
   20.2170   78.7860   17.2870 C   0  0  0  0  0  2  0  0  0  0  0  0
   21.1180   78.8130   18.4650 C   0  0  0  0  0  2  0  0  0  0  0  0
   21.4530   80.0640   18.9100 O   0  0  0  0  0  0  0  0  0  0  0  0
   20.5740   81.0630   18.6080 C   0  0  0  0  0  2  0  0  0  0  0  0
   19.9190   81.0080   17.2650 C   0  0  0  0  0  2  0  0  0  0  0  0
   22.3480   76.6360   14.7690 O   0  0  0  0  0  0  0  0  0  0  0  0
   23.2250   76.8470   15.1750 H   0  0  0  0  0  0  0  0  0  0  0  0
  1  2  1  0  0  0  0
  2  3  1  0  0  0  0
  3 13  1  0  0  0  0
  3  4  2  0  0  0  0
  4 10  1  0  0  0  0
  5  4  1  0  0  0  0
  6  5  2  0  0  0  0
  7  2  2  0  0  0  0
  7  6  1  0  0  0  0
  8  7  1  0  0  0  0
  9  6  1  0  0  0  0
 10 27  1  6  0  0  0
 10 11  1  0  0  0  0
 11 14  1  0  0  0  0
 11 20  1  1  0  0  0
 12 11  1  0  0  0  0
 13 12  1  0  0  0  0
 14 15  1  0  0  0  0
 15 16  1  0  0  0  0
 17 16  1  0  0  0  0
 18 17  1  0  0  0  0
 19 18  1  0  0  0  0
 19 14  1  0  0  0  0
 20 21  1  0  0  0  0
 21 26  1  0  0  0  0
 21 22  1  0  0  0  0
 22 23  1  0  0  0  0
 23 24  1  0  0  0  0
 25 24  1  0  0  0  0
 26 25  1  0  0  0  0
 27 28  1  0  0  0  0
M  END
>  <Pose>
1

>  <Score>
-8.065

$$$$
