MODEL 1
REMARK VINA RESULT:    -9.414      0.000      0.000
REMARK INTER + INTRA:         -10.870
REMARK INTER:                 -10.515
REMARK INTRA:                  -0.355
REMARK UNBOUND:                -0.355
REMARK  2 active torsions:
REMARK  status: ('A' for Active; 'I' for Inactive)
REMARK    1  A    between atoms: N_5  and  C_8 
REMARK    2  A    between atoms: C_8  and  C_9 
REMARK       I    between atoms: C_9  and  N_11 
ROOT
ATOM      1  C   UNK d   1      22.191  78.976  12.544  0.00  0.00     0.171 C 
ATOM      2  O   UNK d   1      21.492  79.786  13.331  0.00  0.00    -0.175 OA
ATOM      3  N   UNK d   1      22.222  79.357  11.212  0.00  0.00    -0.361 N 
ATOM      4  C   UNK d   1      22.872  78.710  10.129  0.00  0.00     0.127 C 
ATOM      5  C   UNK d   1      21.834  78.060   9.213  0.00  0.00     0.061 C 
ATOM      6  C   UNK d   1      20.562  78.891   9.216  0.00  0.00     0.118 C 
ATOM      7  N   UNK d   1      20.021  78.782   7.872  0.00  0.00    -0.324 N 
ATOM      8  C   UNK d   1      19.157  77.627   7.875  0.00  0.00     0.323 C 
ATOM      9  O   UNK d   1      18.753  77.005   6.861  0.00  0.00    -0.247 OA
ATOM     10  N   UNK d   1      18.850  77.329   9.250  0.00  0.00    -0.277 N 
ATOM     11  C   UNK d   1      19.516  78.285  10.066  0.00  0.00     0.254 C 
ATOM     12  O   UNK d   1      19.240  78.533  11.263  0.00  0.00    -0.270 OA
ATOM     13  C   UNK d   1      20.817  80.336   9.508  0.00  0.00     0.061 C 
ATOM     14  C   UNK d   1      21.491  80.586  10.818  0.00  0.00     0.127 C 
ATOM     15  H   UNK d   1      20.210  79.405   7.059  0.00  0.00     0.165 HD
ATOM     16  H   UNK d   1      18.252  76.558   9.579  0.00  0.00     0.173 HD
ENDROOT
BRANCH   1  17
ATOM     17  C   UNK d   1      22.760  77.867  13.284  0.00  0.00     0.216 C 
BRANCH  17  18
ATOM     18  N   UNK d   1      22.758  77.887  14.705  0.00  0.00    -0.341 N 
ATOM     19  C   UNK d   1      23.828  78.297  15.448  0.00  0.00     0.046 A 
ATOM     20  C   UNK d   1      23.506  78.220  16.779  0.00  0.00     0.010 A 
ATOM     21  C   UNK d   1      25.097  78.743  15.076  0.00  0.00     0.030 A 
ATOM     22  C   UNK d   1      22.217  77.756  16.849  0.00  0.00     0.045 A 
ATOM     23  C   UNK d   1      24.440  78.586  17.737  0.00  0.00     0.015 A 
ATOM     24 Br   UNK d   1      21.297  77.474  18.501  0.00  0.00    -0.048 Br
ATOM     25  C   UNK d   1      21.771  77.557  15.572  0.00  0.00     0.027 A 
ATOM     26  C   UNK d   1      20.430  77.063  15.185  0.00  0.00     0.070 C 
ATOM     27  C   UNK d   1      25.688  79.025  17.360  0.00  0.00     0.001 A 
ATOM     28  C   UNK d   1      26.029  79.108  16.039  0.00  0.00     0.002 A 
ENDBRANCH  17  18
ENDBRANCH   1  17
TORSDOF 2
ENDMDL
