MODEL 1
REMARK VINA RESULT:   -10.166      0.000      0.000
REMARK INTER + INTRA:         -14.539
REMARK INTER:                 -13.732
REMARK INTRA:                  -0.807
REMARK UNBOUND:                -0.807
REMARK  6 active torsions:
REMARK  status: ('A' for Active; 'I' for Inactive)
REMARK    1  A    between atoms: N_3  and  C_14 
REMARK    2  A    between atoms: C_14  and  C_15 
REMARK    3  A    between atoms: C_15  and  O_16 
REMARK    4  A    between atoms: O_16  and  C_17 
REMARK    5  A    between atoms: C_17  and  C_18 
REMARK    6  A    between atoms: C_18  and  N_19 
ROOT
ATOM      1  O   UNK d   1      20.810  76.038  14.447  0.00  0.00    -0.388 OA
ENDROOT
BRANCH   1   2
ATOM      2  C   UNK d   1      20.218  76.762  15.429  0.00  0.00     0.188 C 
BRANCH   2   3
ATOM      3  C   UNK d   1      20.965  77.280  16.587  0.00  0.00     0.158 C 
BRANCH   3   4
ATOM      4  N   UNK d   1      20.991  78.687  16.804  0.00  0.00    -0.316 N 
ATOM      5  C   UNK d   1      21.581  79.671  16.129  0.00  0.00     0.180 A 
ATOM      6 Br   UNK d   1      22.729  79.509  14.607  0.00  0.00    -0.008 Br
ATOM      7  N   UNK d   1      21.312  80.879  16.677  0.00  0.00    -0.203 NA
ATOM      8  C   UNK d   1      20.536  80.645  17.726  0.00  0.00     0.169 A 
ATOM      9  C   UNK d   1      20.323  79.288  17.828  0.00  0.00     0.152 A 
ATOM     10  N   UNK d   1      19.970  81.473  18.648  0.00  0.00    -0.286 N 
ATOM     11  C   UNK d   1      19.553  78.744  18.837  0.00  0.00     0.280 A 
ATOM     12  N   UNK d   1      19.014  79.625  19.727  0.00  0.00    -0.273 N 
ATOM     13  O   UNK d   1      19.349  77.510  18.948  0.00  0.00    -0.265 OA
ATOM     14  C   UNK d   1      19.228  80.946  19.620  0.00  0.00     0.330 A 
ATOM     15  H   UNK d   1      18.431  79.226  20.494  0.00  0.00     0.173 HD
ATOM     16  O   UNK d   1      18.715  81.740  20.460  0.00  0.00    -0.246 OA
ATOM     17  C   UNK d   1      20.170  82.906  18.576  0.00  0.00     0.163 C 
ENDBRANCH   3   4
ENDBRANCH   2   3
ENDBRANCH   1   2
BRANCH   1  18
ATOM     18  C   UNK d   1      20.052  74.930  14.107  0.00  0.00     0.188 C 
BRANCH  18  19
ATOM     19  C   UNK d   1      18.817  75.382  13.386  0.00  0.00     0.158 C 
BRANCH  19  20
ATOM     20  N   UNK d   1      18.807  74.960  12.021  0.00  0.00    -0.316 N 
ATOM     21  C   UNK d   1      19.199  75.693  10.971  0.00  0.00     0.152 A 
ATOM     22  C   UNK d   1      19.029  74.939   9.851  0.00  0.00     0.169 A 
ATOM     23  C   UNK d   1      19.704  76.974  10.866  0.00  0.00     0.280 A 
ATOM     24  N   UNK d   1      18.538  73.768  10.246  0.00  0.00    -0.203 NA
ATOM     25  N   UNK d   1      19.351  75.441   8.646  0.00  0.00    -0.286 N 
ATOM     26  C   UNK d   1      18.387  73.742  11.581  0.00  0.00     0.180 A 
ATOM     27 Br   UNK d   1      17.736  72.350  12.697  0.00  0.00    -0.008 Br
ATOM     28  C   UNK d   1      19.836  76.677   8.568  0.00  0.00     0.330 A 
ATOM     29  C   UNK d   1      19.176  74.653   7.444  0.00  0.00     0.163 C 
ATOM     30  O   UNK d   1      20.134  77.134   7.432  0.00  0.00    -0.246 OA
ATOM     31  N   UNK d   1      20.010  77.429   9.648  0.00  0.00    -0.273 N 
ATOM     32  H   UNK d   1      20.392  78.396   9.566  0.00  0.00     0.173 HD
ATOM     33  O   UNK d   1      19.886  77.726  11.876  0.00  0.00    -0.265 OA
ENDBRANCH  19  20
ENDBRANCH  18  19
ENDBRANCH   1  18
TORSDOF 6
ENDMDL
