MODEL 1
REMARK VINA RESULT:    -8.470      0.000      0.000
REMARK INTER + INTRA:         -12.648
REMARK INTER:                 -12.184
REMARK INTRA:                  -0.464
REMARK UNBOUND:                -0.464
REMARK  9 active torsions:
REMARK  status: ('A' for Active; 'I' for Inactive)
REMARK    1  A    between atoms: C_3  and  O_33 
REMARK    2  A    between atoms: C_6  and  C_9 
REMARK    3  A    between atoms: C_7  and  O_8 
REMARK    4  A    between atoms: N_10  and  N_11 
REMARK       I    between atoms: N_11  and  C_12 
REMARK    5  A    between atoms: C_12  and  C_14 
REMARK    6  A    between atoms: N_17  and  C_26 
REMARK    7  A    between atoms: C_18  and  C_19 
REMARK    8  A    between atoms: C_19  and  N_20 
REMARK    9  A    between atoms: C_30  and  N_31 
ROOT
ATOM      1  C   UNK d   1      19.136  76.267   8.112  0.00  0.00     0.176 A 
ATOM      2  N   UNK d   1      19.810  75.222   7.530  0.00  0.00    -0.124 NA
ATOM      3  N   UNK d   1      19.221  74.895   6.414  0.00  0.00    -0.058 NA
ATOM      4  N   UNK d   1      18.167  75.659   6.181  0.00  0.00    -0.191 N 
ATOM      5  C   UNK d   1      18.091  76.514   7.215  0.00  0.00     0.104 A 
ENDROOT
BRANCH   1   6
ATOM      6  C   UNK d   1      19.495  76.899   9.367  0.00  0.00     0.294 C 
ATOM      7  N   UNK d   1      19.220  76.485  10.664  0.00  0.00    -0.242 N 
ATOM      8  H   UNK d   1      18.692  75.630  10.959  0.00  0.00     0.192 HD
ATOM      9  O   UNK d   1      20.161  77.995   9.241  0.00  0.00    -0.264 OA
BRANCH   7  10
ATOM     10  N   UNK d   1      19.704  77.314  11.732  0.00  0.00    -0.183 NA
ATOM     11  C   UNK d   1      20.352  76.773  12.701  0.00  0.00     0.153 C 
BRANCH  11  12
ATOM     12  C   UNK d   1      20.885  77.520  13.830  0.00  0.00     0.019 A 
ATOM     13  C   UNK d   1      20.658  77.116  15.119  0.00  0.00     0.038 A 
ATOM     14  C   UNK d   1      21.159  77.817  16.211  0.00  0.00     0.046 A 
ATOM     15  C   UNK d   1      21.918  78.966  16.003  0.00  0.00     0.103 A 
ATOM     16 Br   UNK d   1      20.819  77.222  17.979  0.00  0.00    -0.048 Br
ATOM     17  C   UNK d   1      22.149  79.375  14.722  0.00  0.00     0.079 A 
ATOM     18 Br   UNK d   1      23.177  80.932  14.395  0.00  0.00    -0.045 Br
ATOM     19  C   UNK d   1      21.637  78.658  13.639  0.00  0.00     0.097 A 
BRANCH  15  20
ATOM     20  O   UNK d   1      22.408  79.650  17.106  0.00  0.00    -0.358 OA
ATOM     21  H   UNK d   1      22.922  80.509  16.998  0.00  0.00     0.217 HD
ENDBRANCH  15  20
BRANCH  19  22
ATOM     22  O   UNK d   1      21.860  79.057  12.331  0.00  0.00    -0.358 OA
ATOM     23  H   UNK d   1      21.130  79.525  11.809  0.00  0.00     0.217 HD
ENDBRANCH  19  22
ENDBRANCH  11  12
ENDBRANCH   7  10
ENDBRANCH   1   6
BRANCH   5  24
ATOM     24  C   UNK d   1      17.108  77.585   7.401  0.00  0.00     0.334 C 
BRANCH  24  25
ATOM     25  N   UNK d   1      16.371  77.946   6.187  0.00  0.00     0.098 N 
ATOM     26  C   UNK d   1      16.526  79.396   5.959  0.00  0.00     0.299 C 
ATOM     27  C   UNK d   1      16.281  80.135   7.228  0.00  0.00     0.198 C 
ATOM     28  O   UNK d   1      15.059  79.777   7.743  0.00  0.00    -0.388 OA
ATOM     29  C   UNK d   1      14.291  79.018   6.900  0.00  0.00     0.198 C 
ATOM     30  C   UNK d   1      14.928  77.731   6.446  0.00  0.00     0.299 C 
ENDBRANCH  24  25
ENDBRANCH   5  24
BRANCH   4  31
ATOM     31  C   UNK d   1      17.352  75.555   5.028  0.00  0.00     0.229 A 
ATOM     32  N   UNK d   1      17.574  76.013   3.777  0.00  0.00    -0.081 NA
ATOM     33  O   UNK d   1      16.569  75.694   3.005  0.00  0.00    -0.103 OA
ATOM     34  N   UNK d   1      15.664  75.034   3.682  0.00  0.00    -0.083 NA
ATOM     35  C   UNK d   1      16.118  74.929   4.942  0.00  0.00     0.201 A 
BRANCH  35  36
ATOM     36  N   UNK d   1      15.423  74.278   5.985  0.00  0.00    -0.379 N 
ATOM     37  H   UNK d   1      15.787  73.377   6.342  0.00  0.00     0.158 HD
ATOM     38  H   UNK d   1      14.561  74.666   6.408  0.00  0.00     0.158 HD
ENDBRANCH  35  36
ENDBRANCH   4  31
TORSDOF 9
ENDMDL
