/Users/jonathanwahrer/Desktop/Msc/3_Semester/Drug_Design_Praktikum/waehrer_HTS_screening/HTS_experiment/out/docking_results/vina_output/6e43/1466_docked.pdbqt
 OpenBabel03212220353D

 29 32  0  0  0  0  0  0  0  0999 V2000
   21.7620   78.0570   16.7380 N   0  0  0  0  0  0  0  0  0  0  0  0
   22.7580   77.8620   15.8890 N   0  0  0  0  0  0  0  0  0  0  0  0
   22.3440   77.1670   14.8390 N   0  0  0  0  0  0  0  0  0  0  0  0
   21.0390   76.8850   14.9800 C   0  0  0  0  0  0  0  0  0  0  0  0
   20.6800   77.4500   16.1810 C   0  0  0  0  0  3  0  0  0  0  0  0
   21.7870   78.7720   18.0190 C   0  0  0  0  0  2  0  0  0  0  0  0
   20.3420   78.9650   18.4190 C   0  0  0  0  0  2  0  0  0  0  0  0
   20.1900   80.1500   19.2490 N   0  0  0  0  0  0  0  0  0  0  0  0
   19.9320   81.3890   18.6040 C   0  0  0  0  0  0  0  0  0  0  0  0
   19.8410   81.4320   17.3320 O   0  0  0  0  0  0  0  0  0  0  0  0
   20.2670   80.0990   20.2840 H   0  0  0  0  0  0  0  0  0  0  0  0
   19.7630   82.6350   19.3360 C   0  0  0  0  0  0  0  0  0  0  0  0
   19.8980   83.8300   18.6880 C   0  0  0  0  0  3  0  0  0  0  0  0
   19.7610   85.0340   19.2740 N   0  0  0  0  0  0  0  0  0  0  0  0
   19.4720   85.0800   20.5950 C   0  0  0  0  0  3  0  0  0  0  0  0
   19.3230   83.9120   21.3080 C   0  0  0  0  0  0  0  0  0  0  0  0
   18.9130   84.0240   23.1700 Br  0  0  0  0  0  0  0  0  0  0  0  0
   19.4670   82.6720   20.6840 C   0  0  0  0  0  3  0  0  0  0  0  0
   20.1870   76.1450   14.0660 C   0  0  0  0  0  0  0  0  0  0  0  0
   19.8020   74.8610   14.1740 N   0  0  0  0  0  0  0  0  0  0  0  0
   19.0170   74.5430   13.1320 C   0  0  0  0  0  0  0  0  0  0  0  0
   18.9310   75.6580   12.3880 N   0  0  0  0  0  0  0  0  0  0  0  0
   19.6330   76.5830   12.9670 O   0  0  0  0  0  0  0  0  0  0  0  0
   18.3800   73.2370   12.8590 C   0  0  0  0  0  0  0  0  0  0  0  0
   17.0100   73.1510   12.7660 C   0  0  0  0  0  3  0  0  0  0  0  0
   16.4190   71.9660   12.5170 N   0  0  0  0  0  0  0  0  0  0  0  0
   17.1100   70.8210   12.3480 C   0  0  0  0  0  3  0  0  0  0  0  0
   18.4850   70.9190   12.4420 C   0  0  0  0  0  3  0  0  0  0  0  0
   19.1270   72.1030   12.6940 C   0  0  0  0  0  3  0  0  0  0  0  0
  1  6  1  0  0  0  0
  2  1  1  0  0  0  0
  3  4  1  0  0  0  0
  3  2  2  0  0  0  0
  4  5  2  0  0  0  0
  5  1  1  0  0  0  0
  6  7  1  0  0  0  0
  7  8  1  0  0  0  0
  8 11  1  0  0  0  0
  9  8  1  0  0  0  0
  9 12  1  0  0  0  0
 10  9  2  0  0  0  0
 12 18  1  0  0  0  0
 13 14  1  0  0  0  0
 13 12  2  0  0  0  0
 14 15  2  0  0  0  0
 15 16  1  0  0  0  0
 16 17  1  0  0  0  0
 18 16  2  0  0  0  0
 19 20  2  0  0  0  0
 19  4  1  0  0  0  0
 21 20  1  0  0  0  0
 22 23  1  0  0  0  0
 22 21  2  0  0  0  0
 23 19  1  0  0  0  0
 24 21  1  0  0  0  0
 25 24  1  0  0  0  0
 26 25  2  0  0  0  0
 27 28  2  0  0  0  0
 27 26  1  0  0  0  0
 28 29  1  0  0  0  0
 29 24  2  0  0  0  0
M  END
>  <Pose>
1

>  <Score>
-11.049

$$$$
