/Users/jonathanwahrer/Desktop/Msc/3_Semester/Drug_Design_Praktikum/waehrer_HTS_screening/HTS_experiment/out/docking_results/vina_output/6e43/1471_docked.pdbqt
 OpenBabel03212220363D

 31 34  0  0  0  0  0  0  0  0999 V2000
   21.2770   77.4460   14.6870 C   0  0  0  0  0  0  0  0  0  0  0  0
   20.4670   76.4820   14.1520 C   0  0  0  0  0  2  0  0  0  0  0  0
   19.9840   76.5060   12.8720 N   0  0  0  0  0  0  0  0  0  0  0  0
   20.3320   77.5370   12.1090 C   0  0  0  0  0  3  0  0  0  0  0  0
   21.1390   78.5510   12.5550 C   0  0  0  0  0  0  0  0  0  0  0  0
   21.6430   78.5090   13.9150 C   0  0  0  0  0  0  0  0  0  0  0  0
   22.3950   79.6150   14.0670 N   0  0  0  0  0  2  0  0  0  0  0  0
   22.3980   80.3170   12.9460 N   0  0  0  0  0  0  0  0  0  0  0  0
   21.6550   79.7130   12.0100 C   0  0  0  0  0  0  0  0  0  0  0  0
   21.4170   80.0720   10.8170 O   0  0  0  0  0  0  0  0  0  0  0  0
   22.8960   81.2310   12.7550 H   0  0  0  0  0  0  0  0  0  0  0  0
   21.7470   77.3430   16.0590 C   0  0  0  0  0  0  0  0  0  0  0  0
   20.8590   77.2900   17.1560 N   0  0  0  0  0  0  0  0  0  0  0  0
   21.2920   77.1870   18.5240 C   0  0  0  0  0  2  0  0  0  0  0  0
   19.4420   77.3390   16.9070 C   0  0  0  0  0  2  0  0  0  0  0  0
   20.4630   78.1370   19.3520 C   0  0  0  0  0  2  0  0  0  0  0  0
   19.7520   79.1080   18.5630 N   0  0  0  0  0  0  0  0  0  0  0  0
   18.9770   78.7260   17.3730 C   0  0  0  0  0  2  0  0  0  0  0  0
   23.0010   77.3020   16.2260 O   0  0  0  0  0  0  0  0  0  0  0  0
   19.7660   80.4770   18.8940 C   0  0  0  0  0  0  0  0  0  0  0  0
   20.4800   81.3980   18.1600 C   0  0  0  0  0  0  0  0  0  0  0  0
   21.4120   80.8570   16.7600 Cl  0  0  0  0  0  0  0  0  0  0  0  0
   20.4850   82.7350   18.4950 C   0  0  0  0  0  3  0  0  0  0  0  0
   19.7630   83.1600   19.5830 C   0  0  0  0  0  3  0  0  0  0  0  0
   19.0240   82.2560   20.3540 C   0  0  0  0  0  3  0  0  0  0  0  0
   19.0530   80.9230   19.9740 C   0  0  0  0  0  3  0  0  0  0  0  0
   19.0980   75.4460   12.4170 C   0  0  0  0  0  2  0  0  0  0  0  0
   18.7740   74.4110   13.4000 C   0  0  0  0  0  2  0  0  0  0  0  0
   19.0730   72.9880   13.2290 C   0  0  0  0  0  2  0  0  0  0  0  0
   18.1050   72.0620   13.1270 O   0  0  0  0  0  0  0  0  0  0  0  0
   16.8940   72.3070   12.6230 C   0  0  0  0  0  1  0  0  0  0  0  0
  1 12  1  0  0  0  0
  2  1  1  0  0  0  0
  3  2  1  0  0  0  0
  4  5  2  0  0  0  0
  4  3  1  0  0  0  0
  5  6  1  0  0  0  0
  6  7  1  0  0  0  0
  6  1  2  0  0  0  0
  8  7  1  0  0  0  0
  9  5  1  0  0  0  0
  9  8  1  0  0  0  0
 10  9  2  0  0  0  0
 11  8  1  0  0  0  0
 12 19  2  0  0  0  0
 12 13  1  0  0  0  0
 13 14  1  0  0  0  0
 14 16  1  0  0  0  0
 15 13  1  0  0  0  0
 15 18  1  0  0  0  0
 17 20  1  0  0  0  0
 17 16  1  0  0  0  0
 18 17  1  0  0  0  0
 20 26  1  0  0  0  0
 21 23  1  0  0  0  0
 21 20  2  0  0  0  0
 22 21  1  0  0  0  0
 23 24  2  0  0  0  0
 24 25  1  0  0  0  0
 26 25  2  0  0  0  0
 27  3  1  0  0  0  0
 27 28  1  0  0  0  0
 29 28  1  0  0  0  0
 30 29  1  0  0  0  0
 31 30  1  0  0  0  0
M  END
>  <Pose>
1

>  <Score>
-10.001

$$$$
