MODEL 1
REMARK VINA RESULT:   -10.001      0.000      0.000
REMARK INTER + INTRA:         -14.020
REMARK INTER:                 -13.509
REMARK INTRA:                  -0.511
REMARK UNBOUND:                -0.511
REMARK  6 active torsions:
REMARK  status: ('A' for Active; 'I' for Inactive)
REMARK    1  A    between atoms: C_3  and  N_8 
REMARK       I    between atoms: N_11  and  C_14 
REMARK    2  A    between atoms: C_14  and  C_16 
REMARK    3  A    between atoms: N_18  and  C_26 
REMARK    4  A    between atoms: C_26  and  C_27 
REMARK    5  A    between atoms: C_27  and  C_28 
REMARK    6  A    between atoms: C_28  and  O_29 
ROOT
ATOM      1  C   UNK d   1      21.277  77.446  14.687  0.00  0.00     0.079 A 
ATOM      2  C   UNK d   1      20.467  76.482  14.152  0.00  0.00     0.110 A 
ATOM      3  N   UNK d   1      19.984  76.506  12.872  0.00  0.00    -0.364 N 
ATOM      4  C   UNK d   1      20.332  77.537  12.109  0.00  0.00     0.110 A 
ATOM      5  C   UNK d   1      21.139  78.551  12.555  0.00  0.00     0.080 A 
ATOM      6  C   UNK d   1      21.643  78.509  13.915  0.00  0.00     0.111 A 
ATOM      7  N   UNK d   1      22.395  79.615  14.067  0.00  0.00    -0.170 NA
ATOM      8  N   UNK d   1      22.398  80.317  12.946  0.00  0.00    -0.242 N 
ATOM      9  C   UNK d   1      21.655  79.713  12.010  0.00  0.00     0.275 A 
ATOM     10  O   UNK d   1      21.417  80.072  10.817  0.00  0.00    -0.266 OA
ATOM     11  H   UNK d   1      22.896  81.231  12.755  0.00  0.00     0.192 HD
ENDROOT
BRANCH   1  12
ATOM     12  C   UNK d   1      21.747  77.343  16.059  0.00  0.00     0.257 C 
ATOM     13  N   UNK d   1      20.859  77.290  17.156  0.00  0.00    -0.345 N 
ATOM     14  C   UNK d   1      21.292  77.187  18.524  0.00  0.00     0.146 C 
ATOM     15  C   UNK d   1      19.442  77.339  16.907  0.00  0.00     0.146 C 
ATOM     16  C   UNK d   1      20.463  78.137  19.352  0.00  0.00     0.143 C 
ATOM     17  N   UNK d   1      19.752  79.108  18.563  0.00  0.00    -0.376 N 
ATOM     18  C   UNK d   1      18.977  78.726  17.373  0.00  0.00     0.143 C 
ATOM     19  O   UNK d   1      23.001  77.302  16.226  0.00  0.00    -0.267 OA
BRANCH  17  20
ATOM     20  C   UNK d   1      19.766  80.477  18.894  0.00  0.00     0.052 A 
ATOM     21  C   UNK d   1      20.480  81.398  18.160  0.00  0.00     0.060 A 
ATOM     22 Cl   UNK d   1      21.412  80.857  16.760  0.00  0.00    -0.082 Cl
ATOM     23  C   UNK d   1      20.485  82.735  18.495  0.00  0.00     0.026 A 
ATOM     24  C   UNK d   1      19.763  83.160  19.583  0.00  0.00     0.002 A 
ATOM     25  C   UNK d   1      19.024  82.256  20.354  0.00  0.00     0.002 A 
ATOM     26  C   UNK d   1      19.053  80.923  19.974  0.00  0.00     0.031 A 
ENDBRANCH  17  20
ENDBRANCH   1  12
BRANCH   3  27
ATOM     27  C   UNK d   1      19.098  75.446  12.417  0.00  0.00     0.130 C 
BRANCH  27  28
ATOM     28  C   UNK d   1      18.774  74.411  13.400  0.00  0.00     0.046 C 
BRANCH  28  29
ATOM     29  C   UNK d   1      19.073  72.988  13.229  0.00  0.00     0.168 C 
BRANCH  29  30
ATOM     30  O   UNK d   1      18.105  72.062  13.127  0.00  0.00    -0.396 OA
ATOM     31  C   UNK d   1      16.894  72.307  12.623  0.00  0.00     0.201 C 
ENDBRANCH  29  30
ENDBRANCH  28  29
ENDBRANCH  27  28
ENDBRANCH   3  27
TORSDOF 6
ENDMDL
