/Users/jonathanwahrer/Desktop/Msc/3_Semester/Drug_Design_Praktikum/waehrer_HTS_screening/HTS_experiment/out/docking_results/vina_output/6e43/1477_docked.pdbqt
 OpenBabel03212220363D

 35 39  0  0  1  0  0  0  0  0999 V2000
   20.7650   79.0700   16.1630 C   0  0  2  0  0  3  0  0  0  0  0  0
   19.9940   79.2560   17.3130 N   0  0  0  0  0  0  0  0  0  0  0  0
   19.8000   77.9400   17.9140 C   0  0  0  0  0  0  0  0  0  0  0  0
   19.2840   77.6750   19.0290 O   0  0  0  0  0  0  0  0  0  0  0  0
   20.3020   76.9130   17.0160 C   0  0  0  0  0  0  0  0  0  0  0  0
   20.2980   75.6540   17.2270 O   0  0  0  0  0  0  0  0  0  0  0  0
   20.8030   77.6030   15.8570 C   0  0  2  0  0  3  0  0  0  0  0  0
   21.2540   77.0290   14.7610 C   0  0  2  0  0  3  0  0  0  0  0  0
   22.6400   76.7450   14.7580 O   0  0  0  0  0  1  0  0  0  0  0  0
   20.4740   76.6800   13.5890 C   0  0  0  0  0  0  0  0  0  0  0  0
   19.8030   75.5720   13.2380 N   0  0  0  0  0  0  0  0  0  0  0  0
   19.2490   75.6660   12.0200 C   0  0  0  0  0  0  0  0  0  0  0  0
   19.6270   74.4330   13.9620 C   0  0  0  0  0  3  0  0  0  0  0  0
   19.5760   76.8950   11.5610 N   0  0  0  0  0  0  0  0  0  0  0  0
   18.4990   74.6460   11.4670 C   0  0  0  0  0  3  0  0  0  0  0  0
   20.3110   77.5330   12.4750 C   0  0  0  0  0  0  0  0  0  0  0  0
   20.8670   78.8890   12.3710 C   0  0  0  0  0  1  0  0  0  0  0  0
   18.3160   73.4950   12.1860 C   0  0  0  0  0  3  0  0  0  0  0  0
   18.8860   73.3980   13.4410 C   0  0  0  0  0  3  0  0  0  0  0  0
   22.0520   79.7020   15.9570 C   0  0  0  0  0  0  0  0  0  0  0  0
   23.2060   79.1730   16.5500 C   0  0  0  0  0  3  0  0  0  0  0  0
   24.4420   79.7350   16.3180 C   0  0  0  0  0  0  0  0  0  0  0  0
   26.0020   79.0100   17.1210 Br  0  0  0  0  0  0  0  0  0  0  0  0
   24.5840   80.8350   15.4970 C   0  0  0  0  0  3  0  0  0  0  0  0
   23.4680   81.3870   14.8950 C   0  0  0  0  0  3  0  0  0  0  0  0
   22.2630   80.7990   15.1500 C   0  0  0  0  0  3  0  0  0  0  0  0
   19.3870   80.4360   17.8110 C   0  0  0  0  0  2  0  0  0  0  0  0
   19.5510   80.8530   19.2010 C   0  0  0  0  0  2  0  0  0  0  0  0
   20.5810   81.7770   19.5740 N   0  0  0  0  0  4  0  0  0  0  0  0
   20.3310   83.0080   18.8230 C   0  0  0  0  0  2  0  0  0  0  0  0
   19.4240   83.9530   19.5430 C   0  0  0  0  0  2  0  0  0  0  0  0
   18.8070   83.3240   20.6350 O   0  0  0  0  0  0  0  0  0  0  0  0
   19.8260   83.0350   21.5150 C   0  0  0  0  0  2  0  0  0  0  0  0
   20.7040   81.9660   20.9800 C   0  0  0  0  0  2  0  0  0  0  0  0
   21.5320   81.4740   19.2070 H   0  0  0  0  0  0  0  0  0  0  0  0
  1 20  1  1  0  0  0
  1  2  1  0  0  0  0
  2 27  1  0  0  0  0
  2  3  1  0  0  0  0
  3  4  2  0  0  0  0
  5  6  2  0  0  0  0
  5  3  1  0  0  0  0
  7  8  1  1  0  0  0
  7  1  1  0  0  0  0
  7  5  1  0  0  0  0
  8  9  1  6  0  0  0
 10  8  1  0  0  0  0
 11 10  1  0  0  0  0
 11 13  1  0  0  0  0
 12 11  1  0  0  0  0
 14 12  2  0  0  0  0
 14 16  1  0  0  0  0
 15 12  1  0  0  0  0
 15 18  2  0  0  0  0
 16 10  2  0  0  0  0
 17 16  1  0  0  0  0
 18 19  1  0  0  0  0
 19 13  2  0  0  0  0
 20 21  1  0  0  0  0
 22 21  2  0  0  0  0
 22 23  1  0  0  0  0
 24 22  1  0  0  0  0
 25 26  1  0  0  0  0
 25 24  2  0  0  0  0
 26 20  2  0  0  0  0
 27 28  1  0  0  0  0
 28 29  1  0  0  0  0
 29 34  1  0  0  0  0
 30 31  1  0  0  0  0
 30 29  1  0  0  0  0
 31 32  1  0  0  0  0
 32 33  1  0  0  0  0
 34 33  1  0  0  0  0
 35 29  1  0  0  0  0
M  END
>  <Pose>
1

>  <Score>
-9.443

$$$$
