MODEL 1
REMARK VINA RESULT:   -11.641      0.000      0.000
REMARK INTER + INTRA:         -17.460
REMARK INTER:                 -16.405
REMARK INTRA:                  -1.054
REMARK UNBOUND:                -1.054
REMARK  7 active torsions:
REMARK  status: ('A' for Active; 'I' for Inactive)
REMARK    1  A    between atoms: C_5  and  C_8 
REMARK    2  A    between atoms: C_8  and  C_10 
REMARK    3  A    between atoms: C_10  and  N_11 
REMARK    4  A    between atoms: C_13  and  C_21 
REMARK    5  A    between atoms: C_21  and  N_22 
REMARK    6  A    between atoms: N_22  and  C_23 
REMARK    7  A    between atoms: C_26  and  O_29 
ROOT
ATOM      1  N   UNK d   1      21.508  77.639  16.702  0.00  0.00    -0.249 N 
ATOM      2  N   UNK d   1      20.681  76.802  16.120  0.00  0.00    -0.155 NA
ATOM      3  C   UNK d   1      20.795  76.878  14.785  0.00  0.00     0.145 A 
ATOM      4  N   UNK d   1      21.732  77.801  14.526  0.00  0.00    -0.321 N 
ATOM      5  C   UNK d   1      22.172  78.273  15.730  0.00  0.00     0.104 A 
ATOM      6  C   UNK d   1      23.197  79.295  15.930  0.00  0.00     0.078 C 
ATOM      7  C   UNK d   1      22.860  80.609  15.265  0.00  0.00     0.008 C 
ATOM      8  C   UNK d   1      22.990  80.530  13.760  0.00  0.00     0.002 C 
ATOM      9  C   UNK d   1      21.914  79.712  13.117  0.00  0.00     0.020 C 
ATOM     10  C   UNK d   1      22.188  78.218  13.214  0.00  0.00     0.132 C 
ENDROOT
BRANCH   3  11
ATOM     11  C   UNK d   1      20.054  76.114  13.772  0.00  0.00     0.200 C 
BRANCH  11  12
ATOM     12  N   UNK d   1      20.128  74.701  13.985  0.00  0.00    -0.383 N 
ATOM     13  H   UNK d   1      20.936  74.294  14.479  0.00  0.00     0.160 HD
BRANCH  12  14
ATOM     14  C   UNK d   1      19.121  73.796  13.542  0.00  0.00     0.028 A 
ATOM     15  C   UNK d   1      19.379  72.463  13.315  0.00  0.00     0.032 A 
ATOM     16  C   UNK d   1      18.400  71.600  12.893  0.00  0.00     0.039 A 
ATOM     17  C   UNK d   1      17.139  72.064  12.690  0.00  0.00     0.068 A 
ATOM     18  C   UNK d   1      16.877  73.397  12.916  0.00  0.00     0.039 A 
ATOM     19  C   UNK d   1      17.853  74.274  13.341  0.00  0.00     0.032 A 
BRANCH  17  20
ATOM     20  O   UNK d   1      16.138  71.222  12.266  0.00  0.00    -0.356 OA
ATOM     21  C   UNK d   1      16.376  70.097  11.457  0.00  0.00     0.210 C 
ENDBRANCH  17  20
ENDBRANCH  12  14
ENDBRANCH  11  12
ENDBRANCH   3  11
BRANCH   1  22
ATOM     22  C   UNK d   1      21.674  77.843  18.111  0.00  0.00     0.236 C 
BRANCH  22  23
ATOM     23  C   UNK d   1      20.434  78.366  18.744  0.00  0.00     0.179 C 
ATOM     24  O   UNK d   1      19.570  77.527  19.114  0.00  0.00    -0.290 OA
BRANCH  23  25
ATOM     25  C   UNK d   1      20.185  79.777  18.947  0.00  0.00     0.011 A 
ATOM     26  C   UNK d   1      20.600  80.728  18.044  0.00  0.00     0.016 A 
ATOM     27  C   UNK d   1      20.354  82.081  18.253  0.00  0.00     0.020 A 
ATOM     28  C   UNK d   1      19.679  82.498  19.387  0.00  0.00     0.011 A 
ATOM     29 Br   UNK d   1      19.343  84.371  19.668  0.00  0.00    -0.051 Br
ATOM     30  C   UNK d   1      19.260  81.555  20.295  0.00  0.00     0.020 A 
ATOM     31  C   UNK d   1      19.516  80.225  20.064  0.00  0.00     0.016 A 
ENDBRANCH  23  25
ENDBRANCH  22  23
ENDBRANCH   1  22
TORSDOF 7
ENDMDL
