/Users/jonathanwahrer/Desktop/Msc/3_Semester/Drug_Design_Praktikum/waehrer_HTS_screening/HTS_experiment/out/docking_results/vina_output/6e43/1487_docked.pdbqt
 OpenBabel03212220363D

 29 32  0  0  1  0  0  0  0  0999 V2000
   21.4850   76.9930   14.5490 N   0  0  0  0  0  4  0  0  0  0  0  0
   20.5690   77.3930   15.5880 C   0  0  0  0  0  2  0  0  0  0  0  0
   21.2810   77.8660   16.7840 C   0  0  2  0  0  0  0  0  0  0  0  0
   22.6640   77.6970   16.4400 N   0  0  0  0  0  0  0  0  0  0  0  0
   23.8560   77.5600   17.2430 C   0  0  0  0  0  3  0  0  0  0  0  0
   24.8900   78.6190   17.0280 C   0  0  0  0  0  3  0  0  0  0  0  0
   24.6510   79.5120   15.8610 C   0  0  0  0  0  2  0  0  0  0  0  0
   24.9910   78.7220   14.5780 C   0  0  0  0  0  2  0  0  0  0  0  0
   23.6800   78.0540   14.2010 C   0  0  0  0  0  3  0  0  0  0  0  0
   22.7200   77.6270   14.9890 C   0  0  0  0  0  0  0  0  0  0  0  0
   21.6890   76.0030   14.4570 H   0  0  0  0  0  0  0  0  0  0  0  0
   21.0270   76.9790   17.8680 O   0  0  0  0  0  0  0  0  0  0  0  0
   20.8880   77.5770   18.6750 H   0  0  0  0  0  0  0  0  0  0  0  0
   20.9440   79.1780   17.2830 C   0  0  0  0  0  0  0  0  0  0  0  0
   20.0970   79.3920   18.3700 C   0  0  0  0  0  3  0  0  0  0  0  0
   19.7960   80.6550   18.8600 C   0  0  0  0  0  0  0  0  0  0  0  0
   20.3680   81.7660   18.2390 C   0  0  0  0  0  3  0  0  0  0  0  0
   21.2010   81.6000   17.1710 C   0  0  0  0  0  3  0  0  0  0  0  0
   21.4810   80.3060   16.7040 C   0  0  0  0  0  3  0  0  0  0  0  0
   18.9280   80.7970   19.9670 N   0  0  0  0  0  0  0  0  0  0  0  0
   18.1880   79.8250   20.3120 O   0  0  0  0  0  0  0  0  0  0  0  0
   18.8300   81.9250   20.6930 O   0  0  0  0  0  0  0  0  0  0  0  0
   21.2300   77.5420   13.2650 C   0  0  0  0  0  0  0  0  0  0  0  0
   21.7860   78.7220   12.8360 C   0  0  0  0  0  3  0  0  0  0  0  0
   21.4460   79.3110   11.6210 C   0  0  0  0  0  0  0  0  0  0  0  0
   22.2140   80.8060   11.1060 Cl  0  0  0  0  0  0  0  0  0  0  0  0
   20.5200   78.7060   10.7960 C   0  0  0  0  0  3  0  0  0  0  0  0
   19.9390   77.5290   11.1880 C   0  0  0  0  0  3  0  0  0  0  0  0
   20.2920   76.9580   12.4060 C   0  0  0  0  0  3  0  0  0  0  0  0
  1 10  1  0  0  0  0
  1  2  1  0  0  0  0
  2  3  1  0  0  0  0
  3 14  1  0  0  0  0
  3 12  1  1  0  0  0
  4  3  1  0  0  0  0
  4  5  1  0  0  0  0
  6  5  2  0  0  0  0
  7  6  1  0  0  0  0
  8  7  1  0  0  0  0
  9  8  1  0  0  0  0
  9 10  2  0  0  0  0
 10  4  1  0  0  0  0
 11  1  1  0  0  0  0
 12 13  1  0  0  0  0
 14 15  1  0  0  0  0
 15 16  2  0  0  0  0
 16 20  1  0  0  0  0
 17 16  1  0  0  0  0
 18 17  2  0  0  0  0
 19 18  1  0  0  0  0
 19 14  2  0  0  0  0
 20 21  2  0  0  0  0
 20 22  2  0  0  0  0
 23  1  1  0  0  0  0
 24 23  1  0  0  0  0
 25 24  2  0  0  0  0
 26 25  1  0  0  0  0
 27 28  2  0  0  0  0
 27 25  1  0  0  0  0
 28 29  1  0  0  0  0
 29 23  2  0  0  0  0
M  END
>  <Pose>
1

>  <Score>
-9.669

$$$$
