MODEL 1
REMARK VINA RESULT:    -9.669      0.000      0.000
REMARK INTER + INTRA:         -11.307
REMARK INTER:                 -11.647
REMARK INTRA:                   0.340
REMARK UNBOUND:                 0.340
REMARK  4 active torsions:
REMARK  status: ('A' for Active; 'I' for Inactive)
REMARK    1  A    between atoms: C_4  and  N_8 
REMARK    2  A    between atoms: C_10  and  O_18 
REMARK    3  A    between atoms: C_10  and  C_19 
REMARK    4  A    between atoms: C_21  and  N_25 
ROOT
ATOM      1  N   UNK d   1      21.485  76.993  14.549  0.00  0.00     0.009 N 
ATOM      2  C   UNK d   1      20.569  77.393  15.588  0.00  0.00     0.316 C 
ATOM      3  C   UNK d   1      21.281  77.866  16.784  0.00  0.00     0.189 C 
ATOM      4  N   UNK d   1      22.664  77.697  16.440  0.00  0.00    -0.324 N 
ATOM      5  C   UNK d   1      23.856  77.560  17.243  0.00  0.00     0.128 C 
ATOM      6  C   UNK d   1      24.890  78.619  17.028  0.00  0.00     0.020 C 
ATOM      7  C   UNK d   1      24.651  79.512  15.861  0.00  0.00     0.005 C 
ATOM      8  C   UNK d   1      24.991  78.722  14.578  0.00  0.00     0.031 C 
ATOM      9  C   UNK d   1      23.680  78.054  14.201  0.00  0.00     0.030 C 
ATOM     10  C   UNK d   1      22.720  77.627  14.989  0.00  0.00     0.208 C 
ATOM     11  H   UNK d   1      21.689  76.003  14.457  0.00  0.00     0.295 HD
ENDROOT
BRANCH   3  12
ATOM     12  O   UNK d   1      21.027  76.979  17.868  0.00  0.00    -0.365 OA
ATOM     13  H   UNK d   1      20.888  77.577  18.675  0.00  0.00     0.213 HD
ENDBRANCH   3  12
BRANCH   3  14
ATOM     14  C   UNK d   1      20.944  79.178  17.283  0.00  0.00     0.001 A 
ATOM     15  C   UNK d   1      20.097  79.392  18.370  0.00  0.00     0.048 A 
ATOM     16  C   UNK d   1      19.796  80.655  18.860  0.00  0.00     0.103 A 
ATOM     17  C   UNK d   1      20.368  81.766  18.239  0.00  0.00     0.036 A 
ATOM     18  C   UNK d   1      21.201  81.600  17.171  0.00  0.00     0.003 A 
ATOM     19  C   UNK d   1      21.481  80.306  16.704  0.00  0.00     0.012 A 
BRANCH  16  20
ATOM     20  N   UNK d   1      18.928  80.797  19.967  0.00  0.00    -0.116 N 
ATOM     21  O   UNK d   1      18.188  79.825  20.312  0.00  0.00    -0.532 OA
ATOM     22  O   UNK d   1      18.830  81.925  20.693  0.00  0.00    -0.532 OA
ENDBRANCH  16  20
ENDBRANCH   3  14
BRANCH   1  23
ATOM     23  C   UNK d   1      21.230  77.542  13.265  0.00  0.00     0.143 A 
ATOM     24  C   UNK d   1      21.786  78.722  12.836  0.00  0.00     0.061 A 
ATOM     25  C   UNK d   1      21.446  79.311  11.621  0.00  0.00     0.036 A 
ATOM     26 Cl   UNK d   1      22.214  80.806  11.106  0.00  0.00    -0.084 Cl
ATOM     27  C   UNK d   1      20.520  78.706  10.796  0.00  0.00     0.024 A 
ATOM     28  C   UNK d   1      19.939  77.529  11.188  0.00  0.00     0.004 A 
ATOM     29  C   UNK d   1      20.292  76.958  12.406  0.00  0.00     0.038 A 
ENDBRANCH   1  23
TORSDOF 4
ENDMDL
