/Users/jonathanwahrer/Desktop/Msc/3_Semester/Drug_Design_Praktikum/waehrer_HTS_screening/HTS_experiment/out/docking_results/vina_output/6e43/1491_docked.pdbqt
 OpenBabel03212220373D

 34 38  0  0  0  0  0  0  0  0999 V2000
   19.1620   74.5540   14.2810 F   0  0  0  0  0  0  0  0  0  0  0  0
   19.5870   75.5460   13.4790 C   0  0  0  0  0  0  0  0  0  0  0  0
   19.2100   75.4000   12.1470 C   0  0  0  0  0  3  0  0  0  0  0  0
   19.5690   76.3450   11.2120 C   0  0  0  0  0  0  0  0  0  0  0  0
   20.3030   77.4270   11.6350 C   0  0  0  0  0  0  0  0  0  0  0  0
   20.6690   77.5550   12.9710 C   0  0  0  0  0  3  0  0  0  0  0  0
   20.3200   76.6220   13.9100 C   0  0  0  0  0  0  0  0  0  0  0  0
   20.6420   78.3400   10.7020 N   0  0  0  0  0  0  0  0  0  0  0  0
   20.2900   78.2220    9.4090 C   0  0  0  0  0  3  0  0  0  0  0  0
   19.5550   77.1500    8.9540 C   0  0  0  0  0  0  0  0  0  0  0  0
   19.1870   76.1940    9.8710 C   0  0  0  0  0  0  0  0  0  0  0  0
   18.5170   75.1940    9.5240 O   0  0  0  0  0  0  0  0  0  0  0  0
   20.7150   76.7810   15.2380 N   0  0  0  0  0  4  0  0  0  0  0  0
   19.7460   77.3990   16.1070 C   0  0  0  0  0  2  0  0  0  0  0  0
   20.2590   77.3720   17.5660 C   0  0  0  0  0  2  0  0  0  0  0  0
   21.4230   78.1660   17.5710 N   0  0  0  0  0  0  0  0  0  0  0  0
   22.5260   77.4790   16.7940 C   0  0  0  0  0  2  0  0  0  0  0  0
   21.7140   79.3910   18.0700 C   0  0  0  0  0  0  0  0  0  0  0  0
   21.9710   77.4360   15.4030 C   0  0  0  0  0  2  0  0  0  0  0  0
   22.9630   79.7690   17.9360 O   0  0  0  0  0  0  0  0  0  0  0  0
   20.8480   75.7970   15.6270 H   0  0  0  0  0  0  0  0  0  0  0  0
   20.8920   80.3660   18.7310 C   0  0  0  0  0  0  0  0  0  0  0  0
   20.8570   81.6840   18.4080 C   0  0  0  0  0  3  0  0  0  0  0  0
   20.0050   82.5810   19.0390 C   0  0  0  0  0  0  0  0  0  0  0  0
   19.1680   82.1280   20.0260 C   0  0  0  0  0  3  0  0  0  0  0  0
   19.9920   84.2860   18.5820 Cl  0  0  0  0  0  0  0  0  0  0  0  0
   19.1650   80.8120   20.3910 C   0  0  0  0  0  3  0  0  0  0  0  0
   20.0110   79.9560   19.7530 C   0  0  0  0  0  3  0  0  0  0  0  0
   21.4260   79.4880   11.1720 C   0  0  0  0  0  3  0  0  0  0  0  0
   21.8890   80.5200   10.2400 C   0  0  0  0  0  2  0  0  0  0  0  0
   22.8870   79.5170   10.6120 C   0  0  0  0  0  2  0  0  0  0  0  0
   19.1770   77.0350    7.5320 C   0  0  0  0  0  0  0  0  0  0  0  0
   19.3570   75.9960    6.8760 O   0  0  0  0  0  0  0  0  0  0  0  0
   18.6020   78.1280    6.9260 O   0  0  0  0  0  1  0  0  0  0  0  0
  2  7  1  0  0  0  0
  2  1  1  0  0  0  0
  3  2  2  0  0  0  0
  4  5  2  0  0  0  0
  4  3  1  0  0  0  0
  5  6  1  0  0  0  0
  6  7  2  0  0  0  0
  7 13  1  0  0  0  0
  8 29  1  0  0  0  0
  8  5  1  0  0  0  0
  9  8  1  0  0  0  0
 10  9  2  0  0  0  0
 10 11  1  0  0  0  0
 11  4  1  0  0  0  0
 12 11  2  0  0  0  0
 13 19  1  0  0  0  0
 13 21  1  0  0  0  0
 13 14  1  0  0  0  0
 14 15  1  0  0  0  0
 15 16  1  0  0  0  0
 16 18  1  0  0  0  0
 17 16  1  0  0  0  0
 18 22  1  0  0  0  0
 19 17  1  0  0  0  0
 20 18  2  0  0  0  0
 22 28  1  0  0  0  0
 23 22  2  0  0  0  0
 23 24  1  0  0  0  0
 24 25  2  0  0  0  0
 25 27  1  0  0  0  0
 26 24  1  0  0  0  0
 28 27  2  0  0  0  0
 30 31  1  0  0  0  0
 30 29  1  0  0  0  0
 31 29  1  0  0  0  0
 32 10  1  0  0  0  0
 33 32  2  0  0  0  0
 34 32  1  0  0  0  0
M  END
>  <Pose>
1

>  <Score>
-10.502

$$$$
