MODEL 1
REMARK VINA RESULT:   -10.502      0.000      0.000
REMARK INTER + INTRA:         -13.242
REMARK INTER:                 -12.958
REMARK INTRA:                  -0.285
REMARK UNBOUND:                -0.285
REMARK  4 active torsions:
REMARK  status: ('A' for Active; 'I' for Inactive)
REMARK    1  A    between atoms: C_7  and  N_8 
REMARK    2  A    between atoms: C_14  and  C_16 
REMARK    3  A    between atoms: N_23  and  C_31 
REMARK    4  A    between atoms: C_25  and  C_28 
ROOT
ATOM      1  F   UNK d   1      19.162  74.554  14.281  0.00  0.00    -0.204 F 
ATOM      2  C   UNK d   1      19.587  75.546  13.479  0.00  0.00     0.151 A 
ATOM      3  C   UNK d   1      19.210  75.400  12.147  0.00  0.00     0.062 A 
ATOM      4  C   UNK d   1      19.569  76.345  11.212  0.00  0.00     0.045 A 
ATOM      5  C   UNK d   1      20.303  77.427  11.635  0.00  0.00     0.051 A 
ATOM      6  C   UNK d   1      20.669  77.555  12.971  0.00  0.00     0.071 A 
ATOM      7  C   UNK d   1      20.320  76.622  13.910  0.00  0.00     0.175 A 
ATOM      8  N   UNK d   1      20.642  78.340  10.702  0.00  0.00    -0.350 N 
ATOM      9  C   UNK d   1      20.290  78.222   9.409  0.00  0.00     0.114 A 
ATOM     10  C   UNK d   1      19.555  77.150   8.954  0.00  0.00     0.107 A 
ATOM     11  C   UNK d   1      19.187  76.194   9.871  0.00  0.00     0.202 A 
ATOM     12  O   UNK d   1      18.517  75.194   9.524  0.00  0.00    -0.286 OA
ENDROOT
BRANCH   7  13
ATOM     13  N   UNK d   1      20.715  76.781  15.238  0.00  0.00    -0.035 N 
ATOM     14  C   UNK d   1      19.746  77.399  16.107  0.00  0.00     0.261 C 
ATOM     15  C   UNK d   1      20.259  77.372  17.566  0.00  0.00     0.153 C 
ATOM     16  N   UNK d   1      21.423  78.166  17.571  0.00  0.00    -0.356 N 
ATOM     17  C   UNK d   1      22.526  77.479  16.794  0.00  0.00     0.153 C 
ATOM     18  C   UNK d   1      21.714  79.391  18.070  0.00  0.00     0.187 C 
ATOM     19  C   UNK d   1      21.971  77.436  15.403  0.00  0.00     0.261 C 
ATOM     20  O   UNK d   1      22.963  79.769  17.936  0.00  0.00    -0.171 OA
ATOM     21  H   UNK d   1      20.848  75.797  15.627  0.00  0.00     0.287 HD
BRANCH  18  22
ATOM     22  C   UNK d   1      20.892  80.366  18.731  0.00  0.00     0.019 A 
ATOM     23  C   UNK d   1      20.857  81.684  18.408  0.00  0.00     0.039 A 
ATOM     24  C   UNK d   1      20.005  82.581  19.039  0.00  0.00     0.035 A 
ATOM     25  C   UNK d   1      19.168  82.128  20.026  0.00  0.00     0.024 A 
ATOM     26 Cl   UNK d   1      19.992  84.286  18.582  0.00  0.00    -0.084 Cl
ATOM     27  C   UNK d   1      19.165  80.812  20.391  0.00  0.00     0.003 A 
ATOM     28  C   UNK d   1      20.011  79.956  19.753  0.00  0.00     0.016 A 
ENDBRANCH  18  22
ENDBRANCH   7  13
BRANCH   8  29
ATOM     29  C   UNK d   1      21.426  79.488  11.172  0.00  0.00     0.090 A 
ATOM     30  C   UNK d   1      21.889  80.520  10.240  0.00  0.00     0.028 A 
ATOM     31  C   UNK d   1      22.887  79.517  10.612  0.00  0.00     0.028 A 
ENDBRANCH   8  29
BRANCH  10  32
ATOM     32  C   UNK d   1      19.177  77.035   7.532  0.00  0.00     0.214 C 
ATOM     33  O   UNK d   1      19.357  75.996   6.876  0.00  0.00    -0.644 OA
ATOM     34  O   UNK d   1      18.602  78.128   6.926  0.00  0.00    -0.644 OA
ENDBRANCH  10  32
TORSDOF 4
ENDMDL
