MODEL 1
REMARK VINA RESULT:   -10.606      0.000      0.000
REMARK INTER + INTRA:         -15.596
REMARK INTER:                 -14.327
REMARK INTRA:                  -1.270
REMARK UNBOUND:                -1.270
REMARK  6 active torsions:
REMARK  status: ('A' for Active; 'I' for Inactive)
REMARK    1  A    between atoms: C_5  and  C_8 
REMARK       I    between atoms: C_8  and  N_10 
REMARK    2  A    between atoms: N_10  and  C_11 
REMARK    3  A    between atoms: C_11  and  C_12 
REMARK    4  A    between atoms: C_12  and  N_13 
REMARK       I    between atoms: N_13  and  C_14 
REMARK    5  A    between atoms: C_14  and  C_16 
REMARK    6  A    between atoms: N_19  and  C_22 
ROOT
ATOM      1  N   UNK d   1      22.548  77.811  17.672  0.00  0.00    -0.359 N 
ATOM      2  C   UNK d   1      21.260  77.376  17.191  0.00  0.00     0.222 C 
ATOM      3  O   UNK d   1      21.190  76.788  16.101  0.00  0.00    -0.273 OA
ATOM      4  H   UNK d   1      22.534  78.259  18.585  0.00  0.00     0.162 HD
ENDROOT
BRANCH   2   5
ATOM      5  C   UNK d   1      20.021  77.615  17.968  0.00  0.00     0.081 C 
ATOM      6  C   UNK d   1      19.233  78.701  17.270  0.00  0.00     0.034 C 
ATOM      7  C   UNK d   1      19.976  80.000  17.484  0.00  0.00     0.125 C 
ATOM      8  N   UNK d   1      19.810  80.319  18.899  0.00  0.00    -0.364 N 
ATOM      9  C   UNK d   1      19.779  79.275  19.865  0.00  0.00     0.125 C 
ATOM     10  C   UNK d   1      20.264  77.953  19.393  0.00  0.00     0.034 C 
BRANCH   8  11
ATOM     11  C   UNK d   1      19.687  81.684  19.250  0.00  0.00     0.148 A 
ATOM     12  N   UNK d   1      18.971  82.105  20.309  0.00  0.00    -0.129 NA
ATOM     13  N   UNK d   1      18.844  83.374  20.649  0.00  0.00    -0.108 N 
ATOM     14  N   UNK d   1      18.191  83.967  21.643  0.00  0.00    -0.021 NA
ATOM     15  C   UNK d   1      19.426  84.362  19.959  0.00  0.00     0.196 A 
ATOM     16  N   UNK d   1      18.348  85.262  21.588  0.00  0.00    -0.021 NA
ATOM     17  N   UNK d   1      19.112  85.533  20.552  0.00  0.00    -0.107 NA
ATOM     18  C   UNK d   1      20.176  83.993  18.857  0.00  0.00     0.060 A 
ATOM     19  C   UNK d   1      20.310  82.667  18.500  0.00  0.00     0.056 A 
ENDBRANCH   8  11
ENDBRANCH   2   5
BRANCH   1  20
ATOM     20  C   UNK d   1      23.666  77.534  16.860  0.00  0.00     0.142 C 
BRANCH  20  21
ATOM     21  C   UNK d   1      24.134  78.473  15.827  0.00  0.00     0.142 C 
BRANCH  21  22
ATOM     22  N   UNK d   1      23.588  78.380  14.528  0.00  0.00    -0.355 N 
ATOM     23  C   UNK d   1      22.539  79.056  13.921  0.00  0.00     0.251 C 
ATOM     24  O   UNK d   1      21.888  79.938  14.520  0.00  0.00    -0.268 OA
ATOM     25  H   UNK d   1      24.051  77.637  13.842  0.00  0.00     0.162 HD
BRANCH  23  26
ATOM     26  C   UNK d   1      22.116  78.784  12.527  0.00  0.00     0.032 A 
ATOM     27  C   UNK d   1      20.851  78.297  12.281  0.00  0.00     0.018 A 
ATOM     28  C   UNK d   1      20.411  78.037  11.004  0.00  0.00     0.025 A 
ATOM     29  C   UNK d   1      21.260  78.270   9.934  0.00  0.00     0.034 A 
ATOM     30 Cl   UNK d   1      20.709  77.941   8.299  0.00  0.00    -0.084 Cl
ATOM     31  C   UNK d   1      22.523  78.755  10.143  0.00  0.00     0.025 A 
ATOM     32  C   UNK d   1      22.937  79.007  11.453  0.00  0.00     0.018 A 
ENDBRANCH  23  26
ENDBRANCH  21  22
ENDBRANCH  20  21
ENDBRANCH   1  20
TORSDOF 6
ENDMDL
