/Users/jonathanwahrer/Desktop/Msc/3_Semester/Drug_Design_Praktikum/waehrer_HTS_screening/HTS_experiment/out/docking_results/vina_output/6e43/1506_docked.pdbqt
 OpenBabel03212220373D

 32 35  0  0  1  0  0  0  0  0999 V2000
   22.5480   77.8110   17.6720 N   0  0  0  0  0  0  0  0  0  0  0  0
   21.2600   77.3760   17.1910 C   0  0  0  0  0  0  0  0  0  0  0  0
   21.1900   76.7880   16.1010 O   0  0  0  0  0  0  0  0  0  0  0  0
   22.5340   78.2590   18.5850 H   0  0  0  0  0  0  0  0  0  0  0  0
   20.0210   77.6150   17.9680 C   0  0  2  0  0  3  0  0  0  0  0  0
   19.2330   78.7010   17.2700 C   0  0  0  0  0  2  0  0  0  0  0  0
   19.9760   80.0000   17.4840 C   0  0  0  0  0  2  0  0  0  0  0  0
   19.8100   80.3190   18.8990 N   0  0  0  0  0  0  0  0  0  0  0  0
   19.7790   79.2750   19.8650 C   0  0  0  0  0  2  0  0  0  0  0  0
   20.2640   77.9530   19.3930 C   0  0  0  0  0  2  0  0  0  0  0  0
   19.6870   81.6840   19.2500 C   0  0  0  0  0  0  0  0  0  0  0  0
   18.9710   82.1050   20.3090 N   0  0  0  0  0  0  0  0  0  0  0  0
   18.8440   83.3740   20.6490 N   0  0  0  0  0  0  0  0  0  0  0  0
   18.1910   83.9670   21.6430 N   0  0  0  0  0  0  0  0  0  0  0  0
   19.4260   84.3620   19.9590 C   0  0  0  0  0  0  0  0  0  0  0  0
   18.3480   85.2620   21.5880 N   0  0  0  0  0  0  0  0  0  0  0  0
   19.1120   85.5330   20.5520 N   0  0  0  0  0  0  0  0  0  0  0  0
   20.1760   83.9930   18.8570 C   0  0  0  0  0  3  0  0  0  0  0  0
   20.3100   82.6670   18.5000 C   0  0  0  0  0  3  0  0  0  0  0  0
   23.6660   77.5340   16.8600 C   0  0  0  0  0  2  0  0  0  0  0  0
   24.1340   78.4730   15.8270 C   0  0  0  0  0  2  0  0  0  0  0  0
   23.5880   78.3800   14.5280 N   0  0  0  0  0  0  0  0  0  0  0  0
   22.5390   79.0560   13.9210 C   0  0  0  0  0  0  0  0  0  0  0  0
   21.8880   79.9380   14.5200 O   0  0  0  0  0  0  0  0  0  0  0  0
   24.0510   77.6370   13.8420 H   0  0  0  0  0  0  0  0  0  0  0  0
   22.1160   78.7840   12.5270 C   0  0  0  0  0  0  0  0  0  0  0  0
   20.8510   78.2970   12.2810 C   0  0  0  0  0  3  0  0  0  0  0  0
   20.4110   78.0370   11.0040 C   0  0  0  0  0  3  0  0  0  0  0  0
   21.2600   78.2700    9.9340 C   0  0  0  0  0  0  0  0  0  0  0  0
   20.7090   77.9410    8.2990 Cl  0  0  0  0  0  0  0  0  0  0  0  0
   22.5230   78.7550   10.1430 C   0  0  0  0  0  3  0  0  0  0  0  0
   22.9370   79.0070   11.4530 C   0  0  0  0  0  3  0  0  0  0  0  0
  1  4  1  0  0  0  0
  2  1  1  0  0  0  0
  3  2  2  0  0  0  0
  5  2  1  6  0  0  0
  5 10  1  0  0  0  0
  6  7  1  0  0  0  0
  6  5  1  0  0  0  0
  7  8  1  0  0  0  0
  8 11  1  0  0  0  0
  8  9  1  0  0  0  0
 10  9  1  0  0  0  0
 11 12  2  0  0  0  0
 12 13  1  0  0  0  0
 13 14  1  0  0  0  0
 15 17  2  0  0  0  0
 15 13  1  0  0  0  0
 16 14  2  0  0  0  0
 17 16  1  0  0  0  0
 18 15  1  0  0  0  0
 19 18  2  0  0  0  0
 19 11  1  0  0  0  0
 20  1  1  0  0  0  0
 21 20  1  0  0  0  0
 22 21  1  0  0  0  0
 23 24  2  0  0  0  0
 23 22  1  0  0  0  0
 25 22  1  0  0  0  0
 26 23  1  0  0  0  0
 27 26  1  0  0  0  0
 28 27  2  0  0  0  0
 29 31  2  0  0  0  0
 29 28  1  0  0  0  0
 30 29  1  0  0  0  0
 31 32  1  0  0  0  0
 32 26  2  0  0  0  0
M  END
>  <Pose>
1

>  <Score>
-10.606

$$$$
