/Users/jonathanwahrer/Desktop/Msc/3_Semester/Drug_Design_Praktikum/waehrer_HTS_screening/HTS_experiment/out/docking_results/vina_output/6e43/1507_docked.pdbqt
 OpenBabel03212220373D

 32 35  0  0  1  0  0  0  0  0999 V2000
   21.2440   76.8080   15.2000 C   0  0  0  0  0  0  0  0  0  0  0  0
   20.6910   77.4430   16.2140 C   0  0  0  0  0  0  0  0  0  0  0  0
   21.3180   78.3470   17.2320 C   0  0  2  0  0  3  0  0  0  0  0  0
   20.3510   79.3770   17.3470 N   0  0  0  0  0  0  0  0  0  0  0  0
   19.0830   78.6540   17.3970 C   0  0  0  0  0  0  0  0  0  0  0  0
   18.0130   79.0150   17.9520 O   0  0  0  0  0  0  0  0  0  0  0  0
   19.3010   77.4100   16.6670 C   0  0  0  0  0  0  0  0  0  0  0  0
   18.5000   76.4460   16.4280 O   0  0  0  0  0  0  0  0  0  0  0  0
   22.5970   76.8990   14.9260 O   0  0  0  0  0  1  0  0  0  0  0  0
   20.4500   75.9690   14.3110 C   0  0  0  0  0  0  0  0  0  0  0  0
   19.8070   76.4850   13.2020 C   0  0  0  0  0  3  0  0  0  0  0  0
   19.0580   75.6390   12.4330 C   0  0  0  0  0  3  0  0  0  0  0  0
   18.9010   74.2980   12.6940 C   0  0  0  0  0  0  0  0  0  0  0  0
   17.8300   73.1710   11.5630 Br  0  0  0  0  0  0  0  0  0  0  0  0
   19.5390   73.7760   13.8010 C   0  0  0  0  0  3  0  0  0  0  0  0
   20.3090   74.6300   14.5960 C   0  0  0  0  0  3  0  0  0  0  0  0
   22.7050   78.6000   17.0250 C   0  0  0  0  0  0  0  0  0  0  0  0
   23.6320   77.7640   17.5980 C   0  0  0  0  0  3  0  0  0  0  0  0
   24.9860   77.9330   17.4300 C   0  0  0  0  0  3  0  0  0  0  0  0
   25.4740   78.9770   16.6580 C   0  0  0  0  0  0  0  0  0  0  0  0
   24.5270   79.8060   16.0910 C   0  0  0  0  0  3  0  0  0  0  0  0
   27.1910   79.2020   16.4370 Cl  0  0  0  0  0  0  0  0  0  0  0  0
   23.1720   79.6300   16.2640 C   0  0  0  0  0  3  0  0  0  0  0  0
   20.4120   80.8210   17.4700 C   0  0  0  0  0  2  0  0  0  0  0  0
   20.5970   81.3840   18.8250 C   0  0  0  0  0  2  0  0  0  0  0  0
   19.5580   82.3390   19.2250 N   0  0  0  0  0  4  0  0  0  0  0  0
   19.9700   83.6690   18.9290 C   0  0  0  0  0  2  0  0  0  0  0  0
   20.1770   84.5780   20.0890 C   0  0  0  0  0  2  0  0  0  0  0  0
   19.4280   84.2920   21.2140 O   0  0  0  0  0  0  0  0  0  0  0  0
   19.8310   82.9920   21.5990 C   0  0  0  0  0  2  0  0  0  0  0  0
   19.2370   82.0680   20.5950 C   0  0  0  0  0  2  0  0  0  0  0  0
   18.7130   82.0730   18.6320 H   0  0  0  0  0  0  0  0  0  0  0  0
  1  2  2  0  0  0  0
  2  7  1  0  0  0  0
  2  3  1  0  0  0  0
  3 17  1  6  0  0  0
  3  4  1  0  0  0  0
  4  5  1  0  0  0  0
  4 24  1  0  0  0  0
  5  6  2  0  0  0  0
  7  5  1  0  0  0  0
  8  7  2  0  0  0  0
  9  1  1  0  0  0  0
 10 16  1  0  0  0  0
 10  1  1  0  0  0  0
 11 10  2  0  0  0  0
 12 13  2  0  0  0  0
 12 11  1  0  0  0  0
 13 15  1  0  0  0  0
 14 13  1  0  0  0  0
 15 16  2  0  0  0  0
 17 18  1  0  0  0  0
 19 18  2  0  0  0  0
 20 19  1  0  0  0  0
 21 23  1  0  0  0  0
 21 20  2  0  0  0  0
 22 20  1  0  0  0  0
 23 17  2  0  0  0  0
 24 25  1  0  0  0  0
 25 26  1  0  0  0  0
 26 31  1  0  0  0  0
 27 26  1  0  0  0  0
 27 28  1  0  0  0  0
 28 29  1  0  0  0  0
 29 30  1  0  0  0  0
 31 30  1  0  0  0  0
 32 26  1  0  0  0  0
M  END
>  <Pose>
1

>  <Score>
-9.214

$$$$
