MODEL 1
REMARK VINA RESULT:    -9.214      0.000      0.000
REMARK INTER + INTRA:         -12.206
REMARK INTER:                 -11.907
REMARK INTRA:                  -0.298
REMARK UNBOUND:                -0.298
REMARK  5 active torsions:
REMARK  status: ('A' for Active; 'I' for Inactive)
REMARK    1  A    between atoms: C_5  and  C_8 
REMARK    2  A    between atoms: C_10  and  C_24 
REMARK    3  A    between atoms: N_11  and  C_16 
REMARK    4  A    between atoms: C_16  and  C_17 
REMARK    5  A    between atoms: C_17  and  N_18 
ROOT
ATOM      1  C   UNK d   1      21.244  76.808  15.200  0.00  0.00     0.130 C 
ATOM      2  C   UNK d   1      20.691  77.443  16.214  0.00  0.00     0.062 C 
ATOM      3  C   UNK d   1      21.318  78.347  17.232  0.00  0.00     0.161 C 
ATOM      4  N   UNK d   1      20.351  79.377  17.347  0.00  0.00    -0.331 N 
ATOM      5  C   UNK d   1      19.083  78.654  17.397  0.00  0.00     0.295 C 
ATOM      6  O   UNK d   1      18.013  79.015  17.952  0.00  0.00    -0.264 OA
ATOM      7  C   UNK d   1      19.301  77.410  16.667  0.00  0.00     0.250 C 
ATOM      8  O   UNK d   1      18.500  76.446  16.428  0.00  0.00    -0.282 OA
ATOM      9  O   UNK d   1      22.597  76.899  14.926  0.00  0.00    -0.190 OA
ENDROOT
BRANCH   1  10
ATOM     10  C   UNK d   1      20.450  75.969  14.311  0.00  0.00     0.001 A 
ATOM     11  C   UNK d   1      19.807  76.485  13.202  0.00  0.00     0.015 A 
ATOM     12  C   UNK d   1      19.058  75.639  12.433  0.00  0.00     0.020 A 
ATOM     13  C   UNK d   1      18.901  74.298  12.694  0.00  0.00     0.011 A 
ATOM     14 Br   UNK d   1      17.830  73.171  11.563  0.00  0.00    -0.051 Br
ATOM     15  C   UNK d   1      19.539  73.776  13.801  0.00  0.00     0.020 A 
ATOM     16  C   UNK d   1      20.309  74.630  14.596  0.00  0.00     0.015 A 
ENDBRANCH   1  10
BRANCH   3  17
ATOM     17  C   UNK d   1      22.705  78.600  17.025  0.00  0.00    -0.030 A 
ATOM     18  C   UNK d   1      23.632  77.764  17.598  0.00  0.00     0.011 A 
ATOM     19  C   UNK d   1      24.986  77.933  17.430  0.00  0.00     0.024 A 
ATOM     20  C   UNK d   1      25.474  78.977  16.658  0.00  0.00     0.034 A 
ATOM     21  C   UNK d   1      24.527  79.806  16.091  0.00  0.00     0.024 A 
ATOM     22 Cl   UNK d   1      27.191  79.202  16.437  0.00  0.00    -0.084 Cl
ATOM     23  C   UNK d   1      23.172  79.630  16.264  0.00  0.00     0.011 A 
ENDBRANCH   3  17
BRANCH   4  24
ATOM     24  C   UNK d   1      20.412  80.821  17.470  0.00  0.00     0.155 C 
BRANCH  24  25
ATOM     25  C   UNK d   1      20.597  81.384  18.825  0.00  0.00     0.255 C 
BRANCH  25  26
ATOM     26  N   UNK d   1      19.558  82.339  19.225  0.00  0.00    -0.066 N 
ATOM     27  C   UNK d   1      19.970  83.669  18.929  0.00  0.00     0.261 C 
ATOM     28  C   UNK d   1      20.177  84.578  20.089  0.00  0.00     0.195 C 
ATOM     29  O   UNK d   1      19.428  84.292  21.214  0.00  0.00    -0.388 OA
ATOM     30  C   UNK d   1      19.831  82.992  21.599  0.00  0.00     0.195 C 
ATOM     31  C   UNK d   1      19.237  82.068  20.595  0.00  0.00     0.261 C 
ATOM     32  H   UNK d   1      18.713  82.073  18.632  0.00  0.00     0.280 HD
ENDBRANCH  25  26
ENDBRANCH  24  25
ENDBRANCH   4  24
TORSDOF 5
ENDMDL
