MODEL 1
REMARK VINA RESULT:    -9.668      0.000      0.000
REMARK INTER + INTRA:         -13.912
REMARK INTER:                 -13.059
REMARK INTRA:                  -0.853
REMARK UNBOUND:                -0.853
REMARK  6 active torsions:
REMARK  status: ('A' for Active; 'I' for Inactive)
REMARK    1  A    between atoms: C_5  and  N_8 
REMARK    2  A    between atoms: N_15  and  C_16 
REMARK    3  A    between atoms: C_16  and  C_17 
REMARK       I    between atoms: C_17  and  N_19 
REMARK    4  A    between atoms: N_19  and  C_20 
REMARK    5  A    between atoms: C_22  and  O_28 
REMARK    6  A    between atoms: C_23  and  O_26 
ROOT
ATOM      1  N   UNK d   1      20.593  78.316  10.846  0.00  0.00    -0.241 N 
ATOM      2  C   UNK d   1      20.586  77.960  12.141  0.00  0.00     0.286 A 
ATOM      3  O   UNK d   1      19.944  76.965  12.564  0.00  0.00    -0.265 OA
ATOM      4  C   UNK d   1      21.360  78.821  12.901  0.00  0.00     0.155 A 
ATOM      5  C   UNK d   1      21.847  79.716  12.051  0.00  0.00     0.152 A 
ATOM      6  N   UNK d   1      22.596  80.550  12.788  0.00  0.00    -0.279 N 
ATOM      7  N   UNK d   1      22.568  80.174  14.054  0.00  0.00    -0.239 N 
ATOM      8  N   UNK d   1      21.814  79.111  14.144  0.00  0.00    -0.261 N 
ATOM      9  C   UNK d   1      21.380  79.413  10.789  0.00  0.00     0.286 A 
ATOM     10  O   UNK d   1      21.649  80.066   9.726  0.00  0.00    -0.265 OA
ATOM     11  H   UNK d   1      23.131  81.375  12.450  0.00  0.00     0.189 HD
ATOM     12  H   UNK d   1      23.063  80.635  14.874  0.00  0.00     0.208 HD
ENDROOT
BRANCH   8  13
ATOM     13  C   UNK d   1      21.493  78.356  15.332  0.00  0.00     0.254 C 
BRANCH  13  14
ATOM     14  C   UNK d   1      21.435  79.294  16.515  0.00  0.00     0.242 C 
ATOM     15  O   UNK d   1      22.477  79.512  17.172  0.00  0.00    -0.271 OA
ATOM     16  N   UNK d   1      20.225  79.909  16.866  0.00  0.00    -0.326 N 
ATOM     17  H   UNK d   1      19.374  79.676  16.257  0.00  0.00     0.169 HD
BRANCH  16  18
ATOM     18  C   UNK d   1      20.034  80.805  17.936  0.00  0.00     0.037 A 
ATOM     19  C   UNK d   1      20.469  82.105  17.986  0.00  0.00     0.069 A 
ATOM     20  C   UNK d   1      20.265  82.927  19.075  0.00  0.00     0.103 A 
ATOM     21  C   UNK d   1      19.589  82.410  20.160  0.00  0.00     0.101 A 
ATOM     22  C   UNK d   1      19.132  81.103  20.150  0.00  0.00     0.042 A 
ATOM     23  C   UNK d   1      19.347  80.304  19.059  0.00  0.00     0.032 A 
BRANCH  20  24
ATOM     24  O   UNK d   1      20.719  84.244  19.097  0.00  0.00    -0.353 OA
ATOM     25  C   UNK d   1      20.288  85.111  18.039  0.00  0.00     0.210 C 
ENDBRANCH  20  24
BRANCH  21  26
ATOM     26  O   UNK d   1      19.372  83.224  21.269  0.00  0.00    -0.353 OA
ATOM     27  C   UNK d   1      18.315  84.163  21.239  0.00  0.00     0.210 C 
ENDBRANCH  21  26
ENDBRANCH  16  18
ENDBRANCH  13  14
ENDBRANCH   8  13
BRANCH   1  28
ATOM     28  C   UNK d   1      19.943  77.721   9.729  0.00  0.00     0.046 A 
ATOM     29  C   UNK d   1      18.892  78.320   9.065  0.00  0.00     0.031 A 
ATOM     30  C   UNK d   1      18.279  77.709   7.976  0.00  0.00     0.021 A 
ATOM     31  C   UNK d   1      18.701  76.475   7.520  0.00  0.00     0.011 A 
ATOM     32 Br   UNK d   1      17.862  75.627   6.022  0.00  0.00    -0.051 Br
ATOM     33  C   UNK d   1      19.752  75.882   8.191  0.00  0.00     0.021 A 
ATOM     34  C   UNK d   1      20.359  76.491   9.270  0.00  0.00     0.031 A 
ENDBRANCH   1  28
TORSDOF 6
ENDMDL
