MODEL 1
REMARK VINA RESULT:   -10.250      0.000      0.000
REMARK INTER + INTRA:         -12.458
REMARK INTER:                 -12.048
REMARK INTRA:                  -0.410
REMARK UNBOUND:                -0.410
REMARK  3 active torsions:
REMARK  status: ('A' for Active; 'I' for Inactive)
REMARK    1  A    between atoms: C_5  and  C_8 
REMARK       I    between atoms: C_8  and  N_10 
REMARK    2  A    between atoms: N_10  and  C_11 
REMARK    3  A    between atoms: C_11  and  C_12 
REMARK       I    between atoms: C_12  and  N_14 
ROOT
ATOM      1  C   UNK d   1      21.259  80.237  17.225  0.00  0.00     0.171 C 
ATOM      2  O   UNK d   1      21.337  80.955  16.128  0.00  0.00    -0.175 OA
ATOM      3  N   UNK d   1      20.630  80.882  18.281  0.00  0.00    -0.361 N 
ATOM      4  C   UNK d   1      20.396  80.299  19.561  0.00  0.00     0.127 C 
ATOM      5  C   UNK d   1      19.395  81.200  20.319  0.00  0.00     0.057 C 
ATOM      6  C   UNK d   1      20.130  82.491  20.625  0.00  0.00     0.073 C 
ATOM      7  N   UNK d   1      21.246  82.210  21.430  0.00  0.00    -0.407 N 
ATOM      8  C   UNK d   1      21.122  82.118  22.822  0.00  0.00     0.121 C 
ATOM      9  C   UNK d   1      20.179  83.045  23.491  0.00  0.00     0.080 C 
ATOM     10  C   UNK d   1      19.207  83.674  22.571  0.00  0.00     0.062 A 
ATOM     11  N   UNK d   1      18.235  84.557  22.868  0.00  0.00    -0.246 NA
ATOM     12  C   UNK d   1      17.592  84.863  21.736  0.00  0.00     0.207 A 
ATOM     13  N   UNK d   1      18.163  84.169  20.726  0.00  0.00    -0.350 N 
ATOM     14  C   UNK d   1      19.167  83.425  21.227  0.00  0.00     0.063 A 
ATOM     15  C   UNK d   1      20.654  83.051  19.291  0.00  0.00     0.057 C 
ATOM     16  C   UNK d   1      20.153  82.264  18.112  0.00  0.00     0.127 C 
ATOM     17  H   UNK d   1      22.109  81.905  20.995  0.00  0.00     0.154 HD
ATOM     18  H   UNK d   1      17.869  84.207  19.733  0.00  0.00     0.166 HD
ENDROOT
BRANCH   1  19
ATOM     19  C   UNK d   1      21.849  78.905  17.108  0.00  0.00     0.210 C 
BRANCH  19  20
ATOM     20  N   UNK d   1      21.544  78.161  15.998  0.00  0.00    -0.349 N 
ATOM     21  C   UNK d   1      21.243  77.426  14.902  0.00  0.00     0.252 C 
ATOM     22  O   UNK d   1      20.682  76.300  14.868  0.00  0.00    -0.268 OA
ATOM     23  H   UNK d   1      21.074  77.166  16.824  0.00  0.00     0.163 HD
BRANCH  21  24
ATOM     24  C   UNK d   1      21.607  77.989  13.560  0.00  0.00     0.032 A 
ATOM     25  C   UNK d   1      20.730  77.843  12.526  0.00  0.00     0.018 A 
ATOM     26  C   UNK d   1      21.055  78.363  11.269  0.00  0.00     0.025 A 
ATOM     27  C   UNK d   1      22.252  79.005  11.115  0.00  0.00     0.034 A 
ATOM     28 Cl   UNK d   1      22.660  79.653   9.532  0.00  0.00    -0.084 Cl
ATOM     29  C   UNK d   1      23.130  79.150  12.149  0.00  0.00     0.025 A 
ATOM     30  C   UNK d   1      22.793  78.624  13.412  0.00  0.00     0.018 A 
ENDBRANCH  21  24
ENDBRANCH  19  20
ENDBRANCH   1  19
TORSDOF 3
ENDMDL
