/Users/jonathanwahrer/Desktop/Msc/3_Semester/Drug_Design_Praktikum/waehrer_HTS_screening/HTS_experiment/out/docking_results/vina_output/6e43/1516_docked.pdbqt
 OpenBabel03212220383D

 30 33  0  0  1  0  0  0  0  0999 V2000
   21.2590   80.2370   17.2250 C   0  0  0  0  0  0  0  0  0  0  0  0
   21.3370   80.9550   16.1280 O   0  0  0  0  0  0  0  0  0  0  0  0
   20.6300   80.8820   18.2810 N   0  0  0  0  0  0  0  0  0  0  0  0
   20.3960   80.2990   19.5610 C   0  0  0  0  0  2  0  0  0  0  0  0
   19.3950   81.2000   20.3190 C   0  0  0  0  0  2  0  0  0  0  0  0
   20.1300   82.4910   20.6250 C   0  0  2  0  0  0  0  0  0  0  0  0
   21.2460   82.2100   21.4300 N   0  0  0  0  0  0  0  0  0  0  0  0
   21.1220   82.1180   22.8220 C   0  0  0  0  0  2  0  0  0  0  0  0
   20.1790   83.0450   23.4910 C   0  0  0  0  0  2  0  0  0  0  0  0
   19.2070   83.6740   22.5710 C   0  0  0  0  0  0  0  0  0  0  0  0
   18.2350   84.5570   22.8680 N   0  0  0  0  0  0  0  0  0  0  0  0
   17.5920   84.8630   21.7360 C   0  0  0  0  0  3  0  0  0  0  0  0
   18.1630   84.1690   20.7260 N   0  0  0  0  0  0  0  0  0  0  0  0
   19.1670   83.4250   21.2270 C   0  0  0  0  0  0  0  0  0  0  0  0
   20.6540   83.0510   19.2910 C   0  0  0  0  0  2  0  0  0  0  0  0
   20.1530   82.2640   18.1120 C   0  0  0  0  0  2  0  0  0  0  0  0
   22.1090   81.9050   20.9950 H   0  0  0  0  0  0  0  0  0  0  0  0
   17.8690   84.2070   19.7330 H   0  0  0  0  0  0  0  0  0  0  0  0
   21.8490   78.9050   17.1080 C   0  0  0  0  0  2  0  0  0  0  0  0
   21.5440   78.1610   15.9980 N   0  0  0  0  0  0  0  0  0  0  0  0
   21.2430   77.4260   14.9020 C   0  0  0  0  0  0  0  0  0  0  0  0
   20.6820   76.3000   14.8680 O   0  0  0  0  0  0  0  0  0  0  0  0
   21.0740   77.1660   16.8240 H   0  0  0  0  0  0  0  0  0  0  0  0
   21.6070   77.9890   13.5600 C   0  0  0  0  0  0  0  0  0  0  0  0
   20.7300   77.8430   12.5260 C   0  0  0  0  0  3  0  0  0  0  0  0
   21.0550   78.3630   11.2690 C   0  0  0  0  0  3  0  0  0  0  0  0
   22.2520   79.0050   11.1150 C   0  0  0  0  0  0  0  0  0  0  0  0
   22.6600   79.6530    9.5320 Cl  0  0  0  0  0  0  0  0  0  0  0  0
   23.1300   79.1500   12.1490 C   0  0  0  0  0  3  0  0  0  0  0  0
   22.7930   78.6240   13.4120 C   0  0  0  0  0  3  0  0  0  0  0  0
  1  3  1  0  0  0  0
  2  1  2  0  0  0  0
  3  4  1  0  0  0  0
  4  5  1  0  0  0  0
  5  6  1  0  0  0  0
  6 15  1  6  0  0  0
  6 14  1  0  0  0  0
  6  7  1  0  0  0  0
  7  8  1  0  0  0  0
  8  9  1  0  0  0  0
 10 11  1  0  0  0  0
 10  9  1  0  0  0  0
 12 11  2  0  0  0  0
 13 14  1  0  0  0  0
 13 12  1  0  0  0  0
 14 10  2  0  0  0  0
 16  3  1  0  0  0  0
 16 15  1  0  0  0  0
 17  7  1  0  0  0  0
 18 13  1  0  0  0  0
 19  1  1  0  0  0  0
 20 23  1  0  0  0  0
 20 19  1  0  0  0  0
 21 20  1  0  0  0  0
 22 21  2  0  0  0  0
 24 21  1  0  0  0  0
 25 24  2  0  0  0  0
 26 25  1  0  0  0  0
 27 26  2  0  0  0  0
 27 29  1  0  0  0  0
 28 27  1  0  0  0  0
 29 30  2  0  0  0  0
 30 24  1  0  0  0  0
M  END
>  <Pose>
1

>  <Score>
-10.250

$$$$
