MODEL 1
REMARK VINA RESULT:    -9.033      0.000      0.000
REMARK INTER + INTRA:         -10.658
REMARK INTER:                 -10.354
REMARK INTRA:                  -0.304
REMARK UNBOUND:                -0.304
REMARK  3 active torsions:
REMARK  status: ('A' for Active; 'I' for Inactive)
REMARK    1  A    between atoms: N_12  and  C_15 
REMARK    2  A    between atoms: C_15  and  C_16 
REMARK    3  A    between atoms: C_16  and  O_21 
ROOT
ATOM      1 Cl   UNK d   1      25.060  77.169  16.641  0.00  0.00    -0.082 Cl
ATOM      2  C   UNK d   1      23.935  78.487  16.389  0.00  0.00     0.061 A 
ATOM      3  C   UNK d   1      22.772  78.531  17.119  0.00  0.00     0.065 A 
ATOM      4  N   UNK d   1      22.222  77.752  18.065  0.00  0.00    -0.357 N 
ATOM      5  C   UNK d   1      21.036  78.238  18.478  0.00  0.00     0.020 A 
ATOM      6  C   UNK d   1      20.835  79.389  17.746  0.00  0.00    -0.006 A 
ATOM      7  C   UNK d   1      21.902  79.586  16.897  0.00  0.00     0.002 A 
ATOM      8  C   UNK d   1      22.228  80.547  15.962  0.00  0.00     0.014 A 
ATOM      9  C   UNK d   1      23.383  80.526  15.220  0.00  0.00     0.003 A 
ATOM     10  C   UNK d   1      24.254  79.464  15.446  0.00  0.00     0.026 A 
ATOM     11  C   UNK d   1      19.574  80.118  18.029  0.00  0.00     0.158 C 
ATOM     12  N   UNK d   1      19.551  80.270  19.467  0.00  0.00    -0.405 N 
ATOM     13  C   UNK d   1      19.402  79.067  20.188  0.00  0.00     0.123 C 
ATOM     14  C   UNK d   1      19.970  77.883  19.439  0.00  0.00     0.077 C 
ATOM     15  H   UNK d   1      22.631  76.861  18.465  0.00  0.00     0.166 HD
ENDROOT
BRANCH  12  16
ATOM     16  C   UNK d   1      18.905  81.424  19.930  0.00  0.00     0.156 C 
BRANCH  16  17
ATOM     17  C   UNK d   1      19.853  82.527  20.290  0.00  0.00     0.101 A 
ATOM     18  C   UNK d   1      20.198  83.413  19.144  0.00  0.00     0.308 A 
ATOM     19  N   UNK d   1      19.894  84.768  19.454  0.00  0.00     0.086 N 
ATOM     20  C   UNK d   1      19.295  84.830  20.748  0.00  0.00     0.272 A 
ATOM     21  H   UNK d   1      20.707  85.420  19.355  0.00  0.00     0.315 HD
ATOM     22  C   UNK d   1      19.174  83.440  21.274  0.00  0.00     0.071 A 
BRANCH  17  23
ATOM     23  O   UNK d   1      20.993  82.022  20.929  0.00  0.00    -0.386 OA
ATOM     24  H   UNK d   1      21.699  82.710  20.807  0.00  0.00     0.210 HD
ENDBRANCH  17  23
ENDBRANCH  16  17
ENDBRANCH  12  16
TORSDOF 3
ENDMDL
