MODEL 1
REMARK VINA RESULT:   -10.018      0.000      0.000
REMARK INTER + INTRA:         -12.256
REMARK INTER:                 -11.775
REMARK INTRA:                  -0.481
REMARK UNBOUND:                -0.481
REMARK  3 active torsions:
REMARK  status: ('A' for Active; 'I' for Inactive)
REMARK    1  A    between atoms: C_4  and  N_8 
REMARK    2  A    between atoms: C_11  and  C_13 
REMARK       I    between atoms: C_13  and  N_15 
REMARK       I    between atoms: N_18  and  C_21 
REMARK    3  A    between atoms: C_21  and  C_23 
ROOT
ATOM      1  C   UNK d   1      19.555  77.562  16.832  0.00  0.00     0.275 C 
ATOM      2  O   UNK d   1      18.432  76.987  16.613  0.00  0.00    -0.266 OA
ATOM      3  N   UNK d   1      20.659  77.294  16.022  0.00  0.00    -0.344 N 
ATOM      4  C   UNK d   1      20.537  76.360  14.937  0.00  0.00     0.146 C 
ATOM      5  C   UNK d   1      20.691  77.110  13.644  0.00  0.00     0.145 C 
ATOM      6  N   UNK d   1      21.802  78.013  13.744  0.00  0.00    -0.349 N 
ATOM      7  C   UNK d   1      22.730  77.756  14.862  0.00  0.00     0.145 C 
ATOM      8  C   UNK d   1      21.969  77.887  16.174  0.00  0.00     0.146 C 
ATOM      9  C   UNK d   1      22.099  79.099  12.921  0.00  0.00     0.224 C 
ATOM     10  O   UNK d   1      23.195  79.728  13.219  0.00  0.00    -0.273 OA
ENDROOT
BRANCH   1  11
ATOM     11  C   UNK d   1      19.567  78.500  17.979  0.00  0.00     0.166 A 
ATOM     12  N   UNK d   1      19.485  78.198  19.283  0.00  0.00    -0.125 NA
ATOM     13  N   UNK d   1      19.529  79.307  19.987  0.00  0.00    -0.060 NA
ATOM     14  N   UNK d   1      19.638  80.369  19.182  0.00  0.00    -0.224 N 
ATOM     15  C   UNK d   1      19.662  79.871  17.935  0.00  0.00     0.159 A 
BRANCH  14  16
ATOM     16  C   UNK d   1      19.713  81.724  19.593  0.00  0.00     0.060 A 
ATOM     17  C   UNK d   1      19.333  82.091  20.861  0.00  0.00     0.050 A 
ATOM     18  C   UNK d   1      19.415  83.436  21.249  0.00  0.00     0.013 A 
ATOM     19 Br   UNK d   1      18.892  83.964  23.004  0.00  0.00    -0.051 Br
ATOM     20  C   UNK d   1      19.870  84.391  20.378  0.00  0.00     0.019 A 
ATOM     21  C   UNK d   1      20.252  84.033  19.108  0.00  0.00     0.004 A 
ATOM     22  C   UNK d   1      20.167  82.687  18.731  0.00  0.00     0.032 A 
ENDBRANCH  14  16
ENDBRANCH   1  11
BRANCH   9  23
ATOM     23  C   UNK d   1      21.379  79.644  11.776  0.00  0.00     0.078 A 
ATOM     24  C   UNK d   1      21.973  80.521  10.767  0.00  0.00     0.015 A 
ATOM     25  C   UNK d   1      21.489  79.123  10.391  0.00  0.00     0.015 A 
ENDBRANCH   9  23
TORSDOF 3
ENDMDL
