/Users/jonathanwahrer/Desktop/Msc/3_Semester/Drug_Design_Praktikum/waehrer_HTS_screening/HTS_experiment/out/docking_results/vina_output/6e43/1525_docked.pdbqt
 OpenBabel03212220383D

 26 29  0  0  1  0  0  0  0  0999 V2000
   19.6610   81.2910   19.2710 N   0  0  0  0  0  0  0  0  0  0  0  0
   20.2140   81.7220   18.0340 C   0  0  0  0  0  0  0  0  0  0  0  0
   20.4720   82.9220   17.7730 O   0  0  0  0  0  0  0  0  0  0  0  0
   20.3930   80.5310   17.2130 C   0  0  2  0  0  3  0  0  0  0  0  0
   19.2890   79.6130   17.6950 C   0  0  0  0  0  2  0  0  0  0  0  0
   19.0140   80.0260   19.0850 C   0  0  0  0  0  0  0  0  0  0  0  0
   18.3460   79.4050   19.9530 O   0  0  0  0  0  0  0  0  0  0  0  0
   21.6640   79.9270   17.2450 N   0  0  2  0  0  0  0  0  0  0  0  0
   22.6000   80.3000   16.2640 C   0  0  0  0  0  2  0  0  0  0  0  0
   22.5650   79.2620   15.1330 C   0  0  0  0  0  2  0  0  0  0  0  0
   21.9090   78.0510   15.5990 N   0  0  0  0  0  0  0  0  0  0  0  0
   22.0520   77.5750   16.9610 C   0  0  0  0  0  2  0  0  0  0  0  0
   21.8710   78.7250   17.9230 C   0  0  0  0  0  2  0  0  0  0  0  0
   21.0690   77.2840   14.7250 C   0  0  0  0  0  0  0  0  0  0  0  0
   20.9110   77.6320   13.4300 N   0  0  0  0  0  0  0  0  0  0  0  0
   20.1350   76.8980   12.6100 C   0  0  0  0  0  3  0  0  0  0  0  0
   19.4730   75.7610   13.0610 C   0  0  0  0  0  3  0  0  0  0  0  0
   19.6410   75.4100   14.3880 C   0  0  0  0  0  3  0  0  0  0  0  0
   20.4280   76.1830   15.1560 N   0  0  0  0  0  0  0  0  0  0  0  0
   19.7590   82.0250   20.4930 C   0  0  0  0  0  0  0  0  0  0  0  0
   18.8190   82.9490   20.8970 C   0  0  0  0  0  3  0  0  0  0  0  0
   18.9580   83.6380   22.1000 C   0  0  0  0  0  0  0  0  0  0  0  0
   17.6680   84.9160   22.6670 Br  0  0  0  0  0  0  0  0  0  0  0  0
   20.0430   83.4090   22.9180 C   0  0  0  0  0  3  0  0  0  0  0  0
   20.9910   82.4920   22.5340 C   0  0  0  0  0  3  0  0  0  0  0  0
   20.8360   81.8250   21.3490 C   0  0  0  0  0  3  0  0  0  0  0  0
  1 20  1  0  0  0  0
  2  1  1  0  0  0  0
  3  2  2  0  0  0  0
  4  8  1  0  0  0  0
  4  5  1  1  0  0  0
  4  2  1  0  0  0  0
  5  6  1  0  0  0  0
  6  1  1  0  0  0  0
  6  7  2  0  0  0  0
  8  9  1  6  0  0  0
  8 13  1  0  0  0  0
 10 11  1  0  0  0  0
 10  9  1  0  0  0  0
 11 12  1  0  0  0  0
 12 13  1  0  0  0  0
 14 19  1  0  0  0  0
 14 11  1  0  0  0  0
 15 14  2  0  0  0  0
 16 17  2  0  0  0  0
 16 15  1  0  0  0  0
 17 18  1  0  0  0  0
 18 19  2  0  0  0  0
 20 21  2  0  0  0  0
 20 26  1  0  0  0  0
 21 22  1  0  0  0  0
 22 23  1  0  0  0  0
 22 24  2  0  0  0  0
 25 24  1  0  0  0  0
 26 25  2  0  0  0  0
M  END
>  <Pose>
1

>  <Score>
-10.236

$$$$
