MODEL 1
REMARK VINA RESULT:   -10.236      0.000      0.000
REMARK INTER + INTRA:         -12.790
REMARK INTER:                 -12.031
REMARK INTRA:                  -0.759
REMARK UNBOUND:                -0.759
REMARK  3 active torsions:
REMARK  status: ('A' for Active; 'I' for Inactive)
REMARK    1  A    between atoms: C_4  and  N_8 
REMARK    2  A    between atoms: C_11  and  N_15 
REMARK    3  A    between atoms: N_18  and  C_21 
ROOT
ATOM      1  N   UNK d   1      19.661  81.291  19.271  0.00  0.00    -0.251 N 
ATOM      2  C   UNK d   1      20.214  81.722  18.034  0.00  0.00     0.254 C 
ATOM      3  O   UNK d   1      20.472  82.922  17.773  0.00  0.00    -0.270 OA
ATOM      4  C   UNK d   1      20.393  80.531  17.213  0.00  0.00     0.181 C 
ATOM      5  C   UNK d   1      19.289  79.613  17.695  0.00  0.00     0.138 C 
ATOM      6  C   UNK d   1      19.014  80.026  19.085  0.00  0.00     0.233 C 
ATOM      7  O   UNK d   1      18.346  79.405  19.953  0.00  0.00    -0.273 OA
ENDROOT
BRANCH   4   8
ATOM      8  N   UNK d   1      21.664  79.927  17.245  0.00  0.00    -0.397 N 
ATOM      9  C   UNK d   1      22.600  80.300  16.264  0.00  0.00     0.138 C 
ATOM     10  C   UNK d   1      22.565  79.262  15.133  0.00  0.00     0.161 C 
ATOM     11  N   UNK d   1      21.909  78.051  15.599  0.00  0.00    -0.211 N 
ATOM     12  C   UNK d   1      22.052  77.575  16.961  0.00  0.00     0.161 C 
ATOM     13  C   UNK d   1      21.871  78.725  17.923  0.00  0.00     0.138 C 
BRANCH  11  14
ATOM     14  C   UNK d   1      21.069  77.284  14.725  0.00  0.00     0.724 A 
ATOM     15  N   UNK d   1      20.911  77.632  13.430  0.00  0.00    -0.075 NA
ATOM     16  C   UNK d   1      20.135  76.898  12.610  0.00  0.00     0.138 A 
ATOM     17  C   UNK d   1      19.473  75.761  13.061  0.00  0.00     0.040 A 
ATOM     18  C   UNK d   1      19.641  75.410  14.388  0.00  0.00     0.138 A 
ATOM     19  N   UNK d   1      20.428  76.183  15.156  0.00  0.00    -0.075 NA
ENDBRANCH  11  14
ENDBRANCH   4   8
BRANCH   1  20
ATOM     20  C   UNK d   1      19.759  82.025  20.493  0.00  0.00     0.046 A 
ATOM     21  C   UNK d   1      18.819  82.949  20.897  0.00  0.00     0.049 A 
ATOM     22  C   UNK d   1      18.958  83.638  22.100  0.00  0.00     0.013 A 
ATOM     23 Br   UNK d   1      17.668  84.916  22.667  0.00  0.00    -0.051 Br
ATOM     24  C   UNK d   1      20.043  83.409  22.918  0.00  0.00     0.019 A 
ATOM     25  C   UNK d   1      20.991  82.492  22.534  0.00  0.00     0.004 A 
ATOM     26  C   UNK d   1      20.836  81.825  21.349  0.00  0.00     0.030 A 
ENDBRANCH   1  20
TORSDOF 3
ENDMDL
