MODEL 1
REMARK VINA RESULT:   -10.660      0.000      0.000
REMARK INTER + INTRA:         -13.854
REMARK INTER:                 -13.153
REMARK INTRA:                  -0.702
REMARK UNBOUND:                -0.702
REMARK  4 active torsions:
REMARK  status: ('A' for Active; 'I' for Inactive)
REMARK    1  A    between atoms: C_6  and  C_8 
REMARK    2  A    between atoms: N_11  and  C_13 
REMARK    3  A    between atoms: C_14  and  C_16 
REMARK    4  A    between atoms: C_18  and  N_22 
ROOT
ATOM      1  C   UNK d   1      21.967  78.205  14.392  0.00  0.00     0.061 A 
ATOM      2  N   UNK d   1      23.002  78.700  15.118  0.00  0.00    -0.335 N 
ATOM      3  C   UNK d   1      22.805  78.431  16.413  0.00  0.00     0.086 A 
ATOM      4  N   UNK d   1      21.631  77.746  16.573  0.00  0.00    -0.338 N 
ATOM      5  C   UNK d   1      21.132  77.618  15.333  0.00  0.00     0.123 A 
ATOM      6  C   UNK d   1      23.909  78.965  17.241  0.00  0.00     0.078 C 
ATOM      7  C   UNK d   1      25.014  79.088  16.229  0.00  0.00     0.028 C 
ATOM      8  C   UNK d   1      24.266  79.420  14.958  0.00  0.00     0.131 C 
ENDROOT
BRANCH   4   9
ATOM      9  C   UNK d   1      21.047  77.317  17.811  0.00  0.00     0.198 C 
ATOM     10  C   UNK d   1      20.470  78.235  18.754  0.00  0.00     0.113 C 
ATOM     11  O   UNK d   1      19.973  77.633  19.831  0.00  0.00    -0.194 OA
BRANCH  10  12
ATOM     12  C   UNK d   1      20.310  79.667  18.793  0.00  0.00     0.000 A 
ATOM     13  C   UNK d   1      20.388  80.347  20.029  0.00  0.00     0.050 A 
ATOM     14  C   UNK d   1      20.251  81.704  20.166  0.00  0.00     0.103 A 
ATOM     15  C   UNK d   1      20.024  82.422  19.009  0.00  0.00     0.036 A 
ATOM     16  C   UNK d   1      19.944  81.782  17.792  0.00  0.00     0.003 A 
ATOM     17  C   UNK d   1      20.084  80.400  17.659  0.00  0.00     0.014 A 
BRANCH  14  18
ATOM     18  N   UNK d   1      20.332  82.366  21.414  0.00  0.00    -0.116 N 
ATOM     19  O   UNK d   1      21.366  82.271  22.083  0.00  0.00    -0.532 OA
ATOM     20  O   UNK d   1      19.298  83.110  21.903  0.00  0.00    -0.532 OA
ENDBRANCH  14  18
ENDBRANCH  10  12
ENDBRANCH   4   9
BRANCH   1  21
ATOM     21  C   UNK d   1      21.719  78.241  12.951  0.00  0.00    -0.006 A 
ATOM     22  C   UNK d   1      20.491  77.827  12.484  0.00  0.00     0.015 A 
ATOM     23  C   UNK d   1      20.183  77.851  11.122  0.00  0.00     0.026 A 
ATOM     24  C   UNK d   1      21.129  78.299  10.230  0.00  0.00     0.055 A 
ATOM     25  C   UNK d   1      22.347  78.711  10.686  0.00  0.00     0.056 A 
ATOM     26 Cl   UNK d   1      20.719  78.322   8.514  0.00  0.00    -0.083 Cl
ATOM     27 Cl   UNK d   1      23.527  79.276   9.523  0.00  0.00    -0.083 Cl
ATOM     28  C   UNK d   1      22.639  78.681  12.046  0.00  0.00     0.039 A 
ENDBRANCH   1  21
TORSDOF 4
ENDMDL
