MODEL 1
REMARK VINA RESULT:   -10.419      0.000      0.000
REMARK INTER + INTRA:         -14.230
REMARK INTER:                 -13.465
REMARK INTRA:                  -0.766
REMARK UNBOUND:                -0.766
REMARK  5 active torsions:
REMARK  status: ('A' for Active; 'I' for Inactive)
REMARK    1  A    between atoms: C_6  and  C_8 
REMARK    2  A    between atoms: N_11  and  C_13 
REMARK    3  A    between atoms: C_13  and  C_14 
REMARK    4  A    between atoms: C_14  and  C_16 
REMARK    5  A    between atoms: C_18  and  N_22 
ROOT
ATOM      1  C   UNK d   1      22.277  78.869  14.613  0.00  0.00     0.061 A 
ATOM      2  N   UNK d   1      23.486  78.942  15.192  0.00  0.00    -0.335 N 
ATOM      3  C   UNK d   1      23.347  78.896  16.533  0.00  0.00     0.086 A 
ATOM      4  N   UNK d   1      22.036  78.791  16.812  0.00  0.00    -0.338 N 
ATOM      5  C   UNK d   1      21.331  78.770  15.645  0.00  0.00     0.123 A 
ATOM      6  C   UNK d   1      24.675  78.989  17.184  0.00  0.00     0.078 C 
ATOM      7  C   UNK d   1      25.526  78.354  16.114  0.00  0.00     0.028 C 
ATOM      8  C   UNK d   1      24.917  79.042  14.880  0.00  0.00     0.131 C 
ENDROOT
BRANCH   4   9
ATOM      9  C   UNK d   1      21.458  78.753  18.104  0.00  0.00     0.198 C 
BRANCH   9  10
ATOM     10  C   UNK d   1      20.392  79.618  18.521  0.00  0.00     0.113 C 
ATOM     11  O   UNK d   1      19.214  79.041  18.390  0.00  0.00    -0.194 OA
BRANCH  10  12
ATOM     12  C   UNK d   1      20.365  80.965  19.040  0.00  0.00     0.000 A 
ATOM     13  C   UNK d   1      20.376  81.296  20.368  0.00  0.00     0.050 A 
ATOM     14  C   UNK d   1      20.350  82.626  20.798  0.00  0.00     0.103 A 
ATOM     15  C   UNK d   1      20.312  83.636  19.891  0.00  0.00     0.036 A 
ATOM     16  C   UNK d   1      20.301  83.331  18.548  0.00  0.00     0.003 A 
ATOM     17  C   UNK d   1      20.326  82.033  18.115  0.00  0.00     0.014 A 
BRANCH  14  18
ATOM     18  N   UNK d   1      20.364  82.905  22.199  0.00  0.00    -0.116 N 
ATOM     19  O   UNK d   1      21.291  82.466  22.901  0.00  0.00    -0.532 OA
ATOM     20  O   UNK d   1      19.389  83.639  22.795  0.00  0.00    -0.532 OA
ENDBRANCH  14  18
ENDBRANCH  10  12
ENDBRANCH   9  10
ENDBRANCH   4   9
BRANCH   1  21
ATOM     21  C   UNK d   1      21.894  78.877  13.201  0.00  0.00    -0.006 A 
ATOM     22  C   UNK d   1      20.962  77.954  12.716  0.00  0.00     0.015 A 
ATOM     23  C   UNK d   1      20.554  77.930  11.409  0.00  0.00     0.026 A 
ATOM     24  C   UNK d   1      21.057  78.831  10.502  0.00  0.00     0.055 A 
ATOM     25  C   UNK d   1      21.971  79.750  10.942  0.00  0.00     0.056 A 
ATOM     26 Cl   UNK d   1      20.529  78.791   8.834  0.00  0.00    -0.083 Cl
ATOM     27 Cl   UNK d   1      22.648  80.920   9.854  0.00  0.00    -0.083 Cl
ATOM     28  C   UNK d   1      22.377  79.759  12.291  0.00  0.00     0.039 A 
ENDBRANCH   1  21
TORSDOF 5
ENDMDL
