MODEL 1
REMARK VINA RESULT:   -10.997      0.000      0.000
REMARK INTER + INTRA:         -12.767
REMARK INTER:                 -12.926
REMARK INTRA:                   0.159
REMARK UNBOUND:                 0.159
REMARK  3 active torsions:
REMARK  status: ('A' for Active; 'I' for Inactive)
REMARK    1  A    between atoms: S_1  and  N_4 
REMARK    2  A    between atoms: S_1  and  C_19 
REMARK    3  A    between atoms: C_7  and  C_10 
REMARK       I    between atoms: C_10  and  N_12 
ROOT
ATOM      1  S   UNK d   1      21.666  78.777  17.019  0.00  0.00     0.262 S 
ATOM      2  O   UNK d   1      22.038  77.600  17.925  0.00  0.00    -0.200 OA
ATOM      3  O   UNK d   1      20.731  78.139  15.988  0.00  0.00    -0.200 OA
ENDROOT
BRANCH   1   4
ATOM      4  N   UNK d   1      23.039  79.312  16.270  0.00  0.00    -0.307 N 
ATOM      5  C   UNK d   1      23.127  80.488  15.534  0.00  0.00     0.136 C 
ATOM      6  C   UNK d   1      22.881  80.380  14.063  0.00  0.00     0.034 C 
ATOM      7  C   UNK d   1      23.136  78.941  13.621  0.00  0.00     0.081 C 
ATOM      8  C   UNK d   1      24.406  78.547  14.393  0.00  0.00     0.034 C 
ATOM      9  C   UNK d   1      23.933  78.257  15.808  0.00  0.00     0.136 C 
BRANCH   7  10
ATOM     10  C   UNK d   1      23.318  78.830  12.184  0.00  0.00     0.224 C 
ATOM     11  O   UNK d   1      24.480  78.740  11.709  0.00  0.00    -0.273 OA
ATOM     12  N   UNK d   1      22.229  78.816  11.306  0.00  0.00    -0.348 N 
ATOM     13  C   UNK d   1      22.375  78.665   9.854  0.00  0.00     0.156 C 
ATOM     14  C   UNK d   1      20.884  78.974  11.784  0.00  0.00     0.156 C 
ATOM     15  C   UNK d   1      21.003  78.909   9.260  0.00  0.00     0.291 C 
ATOM     16  N   UNK d   1      20.063  77.912   9.735  0.00  0.00     0.087 N 
ATOM     17  C   UNK d   1      19.947  77.942  11.182  0.00  0.00     0.291 C 
ATOM     18  C   UNK d   1      18.768  78.080   9.113  0.00  0.00     0.310 C 
ENDBRANCH   7  10
ENDBRANCH   1   4
BRANCH   1  19
ATOM     19  C   UNK d   1      20.777  79.879  18.029  0.00  0.00     0.104 A 
ATOM     20  C   UNK d   1      20.784  81.250  17.720  0.00  0.00     0.066 A 
ATOM     21  C   UNK d   1      20.150  82.185  18.496  0.00  0.00     0.097 A 
ATOM     22  C   UNK d   1      19.481  81.790  19.614  0.00  0.00     0.070 A 
ATOM     23  O   UNK d   1      20.180  83.543  18.156  0.00  0.00    -0.340 OA
ATOM     24  C   UNK d   1      19.439  80.465  19.966  0.00  0.00     0.058 A 
ATOM     25  N   UNK d   1      18.827  82.786  20.419  0.00  0.00    -0.323 N 
ATOM     26  C   UNK d   1      20.092  79.533  19.157  0.00  0.00     0.059 A 
ATOM     27 Cl   UNK d   1      19.939  77.844  19.611  0.00  0.00    -0.083 Cl
ATOM     28  C   UNK d   1      18.891  84.148  20.034  0.00  0.00     0.246 C 
ATOM     29  H   UNK d   1      18.313  82.493  21.274  0.00  0.00     0.169 HD
ATOM     30  O   UNK d   1      18.063  84.987  20.447  0.00  0.00    -0.271 OA
ATOM     31  C   UNK d   1      19.988  84.549  19.114  0.00  0.00     0.278 C 
ENDBRANCH   1  19
TORSDOF 3
ENDMDL
