MODEL 1
REMARK VINA RESULT:    -7.832      0.000      0.000
REMARK INTER + INTRA:         -10.919
REMARK INTER:                 -10.579
REMARK INTRA:                  -0.341
REMARK UNBOUND:                -0.341
REMARK  6 active torsions:
REMARK  status: ('A' for Active; 'I' for Inactive)
REMARK    1  A    between atoms: C_5  and  C_8 
REMARK    2  A    between atoms: N_9  and  C_26 
REMARK    3  A    between atoms: C_15  and  C_17 
REMARK    4  A    between atoms: C_20  and  O_23 
REMARK    5  A    between atoms: C_26  and  C_27 
REMARK    6  A    between atoms: C_27  and  N_28 
ROOT
ATOM      1  C   UNK d   1      20.516  79.532   9.827  0.00  0.00     0.161 C 
ATOM      2  N   UNK d   1      20.349  78.140   9.391  0.00  0.00    -0.331 N 
ATOM      3  C   UNK d   1      19.958  77.434  10.560  0.00  0.00     0.295 C 
ATOM      4  O   UNK d   1      19.274  76.399  10.611  0.00  0.00    -0.264 OA
ATOM      5  C   UNK d   1      20.521  78.170  11.688  0.00  0.00     0.250 C 
ATOM      6  O   UNK d   1      20.451  77.945  12.933  0.00  0.00    -0.282 OA
ATOM      7  C   UNK d   1      21.243  79.313  11.111  0.00  0.00     0.062 C 
ATOM      8  C   UNK d   1      22.255  79.962  11.654  0.00  0.00     0.130 C 
ATOM      9  O   UNK d   1      22.787  81.057  10.968  0.00  0.00    -0.190 OA
ENDROOT
BRANCH   1  10
ATOM     10  C   UNK d   1      19.147  80.046  10.075  0.00  0.00    -0.030 A 
ATOM     11  C   UNK d   1      18.886  80.951  11.081  0.00  0.00     0.011 A 
ATOM     12  C   UNK d   1      17.623  81.444  11.332  0.00  0.00     0.024 A 
ATOM     13  C   UNK d   1      16.546  81.040  10.566  0.00  0.00     0.034 A 
ATOM     14 Cl   UNK d   1      14.924  81.658  10.871  0.00  0.00    -0.084 Cl
ATOM     15  C   UNK d   1      16.783  80.138   9.558  0.00  0.00     0.024 A 
ATOM     16  C   UNK d   1      18.044  79.648   9.309  0.00  0.00     0.011 A 
ENDBRANCH   1  10
BRANCH   8  17
ATOM     17  C   UNK d   1      22.843  79.586  12.931  0.00  0.00     0.002 A 
ATOM     18  C   UNK d   1      22.360  80.065  14.137  0.00  0.00     0.024 A 
ATOM     19  C   UNK d   1      22.938  79.727  15.343  0.00  0.00    -0.028 A 
ATOM     20  C   UNK d   1      24.039  78.884  15.390  0.00  0.00     0.074 A 
ATOM     21  C   UNK d   1      22.386  80.263  16.607  0.00  0.00     0.051 C 
ATOM     22  C   UNK d   1      24.530  78.401  14.199  0.00  0.00     0.038 A 
ATOM     23  C   UNK d   1      23.936  78.751  12.982  0.00  0.00     0.017 A 
BRANCH  20  24
ATOM     24  O   UNK d   1      24.633  78.532  16.599  0.00  0.00    -0.355 OA
ATOM     25  C   UNK d   1      25.828  79.156  16.977  0.00  0.00     0.210 C 
ENDBRANCH  20  24
ENDBRANCH   8  17
BRANCH   2  26
ATOM     26  C   UNK d   1      20.543  77.608   8.042  0.00  0.00     0.155 C 
BRANCH  26  27
ATOM     27  C   UNK d   1      19.209  77.722   7.339  0.00  0.00     0.255 C 
BRANCH  27  28
ATOM     28  N   UNK d   1      18.317  76.644   7.670  0.00  0.00    -0.066 N 
ATOM     29  C   UNK d   1      18.904  75.381   7.362  0.00  0.00     0.261 C 
ATOM     30  C   UNK d   1      18.530  74.786   6.046  0.00  0.00     0.195 C 
ATOM     31  O   UNK d   1      17.263  75.073   5.614  0.00  0.00    -0.388 OA
ATOM     32  C   UNK d   1      16.979  76.432   5.611  0.00  0.00     0.195 C 
ATOM     33  C   UNK d   1      17.049  76.893   7.043  0.00  0.00     0.261 C 
ATOM     34  H   UNK d   1      18.197  76.689   8.722  0.00  0.00     0.280 HD
ENDBRANCH  27  28
ENDBRANCH  26  27
ENDBRANCH   2  26
TORSDOF 6
ENDMDL
