MODEL 1
REMARK VINA RESULT:    -8.854      0.000      0.000
REMARK INTER + INTRA:          -9.183
REMARK INTER:                  -9.371
REMARK INTRA:                   0.189
REMARK UNBOUND:                 0.189
REMARK  1 active torsions:
REMARK  status: ('A' for Active; 'I' for Inactive)
REMARK       I    between atoms: N_10  and  C_13 
REMARK    1  A    between atoms: C_13  and  C_15 
ROOT
ATOM      1 Cl   UNK d   1      18.369  84.277  22.205  0.00  0.00    -0.083 Cl
ATOM      2  C   UNK d   1      19.139  83.611  20.772  0.00  0.00     0.050 A 
ATOM      3  C   UNK d   1      19.411  82.267  20.644  0.00  0.00     0.125 A 
ATOM      4  N   UNK d   1      20.010  81.752  19.530  0.00  0.00    -0.271 N 
ATOM      5  C   UNK d   1      20.364  82.538  18.498  0.00  0.00     0.137 A 
ATOM      6  N   UNK d   1      20.959  82.028  17.390  0.00  0.00    -0.234 NA
ATOM      7  C   UNK d   1      21.223  80.710  17.272  0.00  0.00     0.051 A 
ATOM      8  C   UNK d   1      20.877  79.883  18.301  0.00  0.00     0.053 A 
ATOM      9  C   UNK d   1      21.145  78.411  18.221  0.00  0.00     0.172 C 
ATOM     10  N   UNK d   1      21.130  78.102  16.781  0.00  0.00    -0.342 N 
ATOM     11  C   UNK d   1      22.145  78.783  16.029  0.00  0.00     0.132 C 
ATOM     12  C   UNK d   1      21.877  80.278  16.008  0.00  0.00     0.080 C 
ATOM     13  C   UNK d   1      20.165  77.213  16.319  0.00  0.00     0.274 C 
ATOM     14  O   UNK d   1      19.347  76.704  17.162  0.00  0.00    -0.266 OA
ATOM     15  C   UNK d   1      20.269  80.437  19.420  0.00  0.00     0.263 A 
ATOM     16  O   UNK d   1      19.949  79.689  20.365  0.00  0.00    -0.267 OA
ATOM     17  C   UNK d   1      20.094  83.892  18.618  0.00  0.00     0.053 A 
ATOM     18  C   UNK d   1      19.491  84.441  19.730  0.00  0.00     0.029 A 
ENDROOT
BRANCH  13  19
ATOM     19  C   UNK d   1      19.985  76.788  14.926  0.00  0.00     0.141 A 
ATOM     20  N   UNK d   1      20.532  77.447  13.900  0.00  0.00    -0.253 NA
ATOM     21  C   UNK d   1      20.363  77.053  12.634  0.00  0.00     0.136 A 
ATOM     22  C   UNK d   1      19.614  75.941  12.313  0.00  0.00     0.135 A 
ATOM     23  N   UNK d   1      19.072  75.290  13.357  0.00  0.00    -0.269 NA
ATOM     24  C   UNK d   1      19.225  75.662  14.628  0.00  0.00     0.153 A 
ENDBRANCH  13  19
TORSDOF 1
ENDMDL
