MODEL 1
REMARK VINA RESULT:    -9.593      0.000      0.000
REMARK INTER + INTRA:         -11.855
REMARK INTER:                 -10.995
REMARK INTRA:                  -0.860
REMARK UNBOUND:                -0.860
REMARK  3 active torsions:
REMARK  status: ('A' for Active; 'I' for Inactive)
REMARK    1  A    between atoms: C_3  and  O_25 
REMARK    2  A    between atoms: C_4  and  C_9 
REMARK    3  A    between atoms: C_11  and  C_22 
ROOT
ATOM      1  C   UNK d   1      19.713  76.655   7.896  0.00  0.00     0.272 C 
ATOM      2  N   UNK d   1      20.416  77.865   8.102  0.00  0.00    -0.047 N 
ATOM      3  C   UNK d   1      20.963  78.082   9.409  0.00  0.00     0.291 C 
ATOM      4  C   UNK d   1      19.843  77.932  10.452  0.00  0.00     0.086 C 
ATOM      5  C   UNK d   1      19.449  76.514  10.344  0.00  0.00    -0.018 A 
ATOM      6  C   UNK d   1      19.103  75.580  11.307  0.00  0.00    -0.001 A 
ATOM      7  C   UNK d   1      18.837  74.407  10.635  0.00  0.00     0.043 A 
ATOM      8  N   UNK d   1      19.008  74.597   9.317  0.00  0.00    -0.356 N 
ATOM      9  C   UNK d   1      19.389  75.903   9.130  0.00  0.00     0.052 A 
ATOM     10  C   UNK d   1      18.465  73.305  11.383  0.00  0.00     0.030 A 
ATOM     11  C   UNK d   1      18.377  73.427  12.748  0.00  0.00     0.002 A 
ATOM     12  C   UNK d   1      18.644  74.600  13.417  0.00  0.00     0.001 A 
ATOM     13  C   UNK d   1      19.020  75.719  12.675  0.00  0.00     0.014 A 
ATOM     14  H   UNK d   1      21.237  77.880   7.417  0.00  0.00     0.279 HD
ATOM     15  H   UNK d   1      19.868  78.729   7.864  0.00  0.00     0.279 HD
ATOM     16  H   UNK d   1      18.887  73.911   8.528  0.00  0.00     0.166 HD
ENDROOT
BRANCH   1  17
ATOM     17  C   UNK d   1      18.400  76.956   7.218  0.00  0.00     0.014 A 
ATOM     18  C   UNK d   1      17.798  76.054   6.358  0.00  0.00     0.091 A 
ATOM     19  C   UNK d   1      16.576  76.355   5.748  0.00  0.00     0.046 A 
ATOM     20 Br   UNK d   1      15.760  75.098   4.559  0.00  0.00    -0.048 Br
ATOM     21  C   UNK d   1      15.945  77.546   5.983  0.00  0.00     0.041 A 
ATOM     22  C   UNK d   1      16.540  78.445   6.837  0.00  0.00     0.013 A 
ATOM     23  C   UNK d   1      17.753  78.154   7.448  0.00  0.00     0.031 A 
ATOM     24 Br   UNK d   1      15.685  80.133   7.192  0.00  0.00    -0.051 Br
BRANCH  18  25
ATOM     25  O   UNK d   1      18.343  74.835   6.052  0.00  0.00    -0.359 OA
ATOM     26  H   UNK d   1      17.907  73.958   6.132  0.00  0.00     0.217 HD
ENDBRANCH  18  25
ENDBRANCH   1  17
BRANCH   3  27
ATOM     27  C   UNK d   1      21.570  79.427   9.481  0.00  0.00     0.205 C 
ATOM     28  O   UNK d   1      20.838  80.412   9.760  0.00  0.00    -0.646 OA
ATOM     29  O   UNK d   1      22.925  79.579   9.240  0.00  0.00    -0.646 OA
ENDBRANCH   3  27
TORSDOF 3
ENDMDL
