/Users/jonathanwahrer/Desktop/Msc/3_Semester/Drug_Design_Praktikum/waehrer_HTS_screening/HTS_experiment/out/docking_results/vina_output/6e43/1553_docked.pdbqt
 OpenBabel03212220393D

 29 32  0  0  1  0  0  0  0  0999 V2000
   19.7130   76.6550    7.8960 C   0  0  1  0  0  3  0  0  0  0  0  0
   20.4160   77.8650    8.1020 N   0  0  0  0  0  4  0  0  0  0  0  0
   20.9630   78.0820    9.4090 C   0  0  2  0  0  3  0  0  0  0  0  0
   19.8430   77.9320   10.4520 C   0  0  0  0  0  2  0  0  0  0  0  0
   19.4490   76.5140   10.3440 C   0  0  0  0  0  0  0  0  0  0  0  0
   19.1030   75.5800   11.3070 C   0  0  0  0  0  0  0  0  0  0  0  0
   18.8370   74.4070   10.6350 C   0  0  0  0  0  0  0  0  0  0  0  0
   19.0080   74.5970    9.3170 N   0  0  0  0  0  0  0  0  0  0  0  0
   19.3890   75.9030    9.1300 C   0  0  0  0  0  0  0  0  0  0  0  0
   18.4650   73.3050   11.3830 C   0  0  0  0  0  3  0  0  0  0  0  0
   18.3770   73.4270   12.7480 C   0  0  0  0  0  3  0  0  0  0  0  0
   18.6440   74.6000   13.4170 C   0  0  0  0  0  3  0  0  0  0  0  0
   19.0200   75.7190   12.6750 C   0  0  0  0  0  3  0  0  0  0  0  0
   21.2370   77.8800    7.4170 H   0  0  0  0  0  0  0  0  0  0  0  0
   19.8680   78.7290    7.8640 H   0  0  0  0  0  0  0  0  0  0  0  0
   18.8870   73.9110    8.5280 H   0  0  0  0  0  0  0  0  0  0  0  0
   18.4000   76.9560    7.2180 C   0  0  0  0  0  0  0  0  0  0  0  0
   17.7980   76.0540    6.3580 C   0  0  0  0  0  0  0  0  0  0  0  0
   16.5760   76.3550    5.7480 C   0  0  0  0  0  0  0  0  0  0  0  0
   15.7600   75.0980    4.5590 Br  0  0  0  0  0  0  0  0  0  0  0  0
   15.9450   77.5460    5.9830 C   0  0  0  0  0  3  0  0  0  0  0  0
   16.5400   78.4450    6.8370 C   0  0  0  0  0  0  0  0  0  0  0  0
   17.7530   78.1540    7.4480 C   0  0  0  0  0  3  0  0  0  0  0  0
   15.6850   80.1330    7.1920 Br  0  0  0  0  0  0  0  0  0  0  0  0
   18.3430   74.8350    6.0520 O   0  0  0  0  0  0  0  0  0  0  0  0
   17.9070   73.9580    6.1320 H   0  0  0  0  0  0  0  0  0  0  0  0
   21.5700   79.4270    9.4810 C   0  0  0  0  0  0  0  0  0  0  0  0
   20.8380   80.4120    9.7600 O   0  0  0  0  0  1  0  0  0  0  0  0
   22.9250   79.5790    9.2400 O   0  0  0  0  0  0  0  0  0  0  0  0
  1 17  1  1  0  0  0
  1  2  1  0  0  0  0
  1  9  1  0  0  0  0
  2  3  1  0  0  0  0
  3 27  1  6  0  0  0
  3  4  1  0  0  0  0
  5  4  1  0  0  0  0
  5  6  1  0  0  0  0
  6 13  1  0  0  0  0
  7  6  2  0  0  0  0
  7 10  1  0  0  0  0
  8  7  1  0  0  0  0
  9  8  1  0  0  0  0
  9  5  2  0  0  0  0
 10 11  2  0  0  0  0
 11 12  1  0  0  0  0
 13 12  2  0  0  0  0
 14  2  1  0  0  0  0
 15  2  1  0  0  0  0
 16  8  1  0  0  0  0
 17 23  1  0  0  0  0
 18 17  2  0  0  0  0
 19 21  2  0  0  0  0
 19 18  1  0  0  0  0
 20 19  1  0  0  0  0
 21 22  1  0  0  0  0
 22 24  1  0  0  0  0
 22 23  2  0  0  0  0
 25 26  1  0  0  0  0
 25 18  1  0  0  0  0
 27 28  1  0  0  0  0
 29 27  2  0  0  0  0
M  END
>  <Pose>
1

>  <Score>
-9.593

$$$$
