/Users/jonathanwahrer/Desktop/Msc/3_Semester/Drug_Design_Praktikum/waehrer_HTS_screening/HTS_experiment/out/docking_results/vina_output/6e43/1571_docked.pdbqt
 OpenBabel03212220403D

 28 31  0  0  1  0  0  0  0  0999 V2000
   21.3010   79.2510   12.0900 O   0  0  0  0  0  0  0  0  0  0  0  0
   20.4480   78.9840   11.0130 C   0  0  0  0  0  2  0  0  0  0  0  0
   19.9340   77.5930   11.0170 C   0  0  0  0  0  0  0  0  0  0  0  0
   19.6590   76.9130   12.1470 N   0  0  0  0  0  0  0  0  0  0  0  0
   19.1970   75.6610   12.1220 C   0  0  0  0  0  0  0  0  0  0  0  0
   18.9660   74.9770   10.9720 N   0  0  0  0  0  0  0  0  0  0  0  0
   18.9370   75.0250   13.3350 C   0  0  0  0  0  3  0  0  0  0  0  0
   18.5000   73.7210   11.0010 C   0  0  0  0  0  3  0  0  0  0  0  0
   19.2330   75.6360    9.8150 C   0  0  0  0  0  0  0  0  0  0  0  0
   18.2330   73.0610   12.1770 C   0  0  0  0  0  0  0  0  0  0  0  0
   17.5630   71.2540   12.1710 Br  0  0  0  0  0  0  0  0  0  0  0  0
   18.4580   73.7320   13.3510 C   0  0  0  0  0  3  0  0  0  0  0  0
   19.7120   76.9300    9.8280 C   0  0  0  0  0  3  0  0  0  0  0  0
   19.0160   74.9930    8.7500 O   0  0  0  0  0  0  0  0  0  0  0  0
   22.6560   79.0140   12.1150 C   0  0  0  0  0  0  0  0  0  0  0  0
   23.2180   78.9040   10.9880 O   0  0  0  0  0  0  0  0  0  0  0  0
   23.4300   78.8930   13.3800 C   0  0  0  0  0  2  0  0  0  0  0  0
   22.5560   78.9620   14.5520 N   0  0  0  0  0  0  0  0  0  0  0  0
   21.7220   77.9300   15.0710 C   0  0  0  0  0  0  0  0  0  0  0  0
   21.7260   76.7240   14.7190 O   0  0  0  0  0  0  0  0  0  0  0  0
   20.8470   78.5310   16.1030 C   0  0  2  0  0  3  0  0  0  0  0  0
   21.7540   79.6160   16.6340 C   0  0  1  0  0  3  0  0  0  0  0  0
   20.3450   77.5860   17.1170 C   0  0  0  0  0  2  0  0  0  0  0  0
   22.8400   79.0830   17.5470 C   0  0  0  0  0  2  0  0  0  0  0  0
   22.3810   80.0980   15.3810 C   0  0  0  0  0  0  0  0  0  0  0  0
   22.6720   77.6230   17.8740 C   0  0  0  0  0  2  0  0  0  0  0  0
   21.2540   77.3130   18.2630 C   0  0  0  0  0  2  0  0  0  0  0  0
   22.7080   81.2890   15.0840 O   0  0  0  0  0  0  0  0  0  0  0  0
  1 15  1  0  0  0  0
  2  3  1  0  0  0  0
  2  1  1  0  0  0  0
  3  4  1  0  0  0  0
  5  4  2  0  0  0  0
  5  7  1  0  0  0  0
  6  8  1  0  0  0  0
  6  5  1  0  0  0  0
  7 12  2  0  0  0  0
  8 10  2  0  0  0  0
  9 13  1  0  0  0  0
  9  6  1  0  0  0  0
 10 12  1  0  0  0  0
 11 10  1  0  0  0  0
 13  3  2  0  0  0  0
 14  9  2  0  0  0  0
 15 17  1  0  0  0  0
 16 15  2  0  0  0  0
 17 18  1  0  0  0  0
 18 19  1  0  0  0  0
 18 25  1  0  0  0  0
 19 21  1  0  0  0  0
 20 19  2  0  0  0  0
 21 22  1  0  0  0  0
 21 23  1  1  0  0  0
 22 24  1  1  0  0  0
 23 27  1  0  0  0  0
 24 26  1  0  0  0  0
 25 22  1  0  0  0  0
 26 27  1  0  0  0  0
 28 25  2  0  0  0  0
M  END
>  <Pose>
1

>  <Score>
-10.217

$$$$
