MODEL 1
REMARK VINA RESULT:   -10.217      0.000      0.000
REMARK INTER + INTRA:         -14.237
REMARK INTER:                 -13.204
REMARK INTRA:                  -1.033
REMARK UNBOUND:                -1.033
REMARK  5 active torsions:
REMARK  status: ('A' for Active; 'I' for Inactive)
REMARK    1  A    between atoms: C_7  and  C_11 
REMARK    2  A    between atoms: C_11  and  O_12 
REMARK    3  A    between atoms: O_12  and  C_13 
REMARK    4  A    between atoms: C_13  and  C_15 
REMARK    5  A    between atoms: C_15  and  N_16 
ROOT
ATOM      1  O   UNK d   1      21.301  79.251  12.090  0.00  0.00    -0.314 OA
ENDROOT
BRANCH   1   2
ATOM      2  C   UNK d   1      20.448  78.984  11.013  0.00  0.00     0.238 C 
BRANCH   2   3
ATOM      3  C   UNK d   1      19.934  77.593  11.017  0.00  0.00     0.066 A 
ATOM      4  N   UNK d   1      19.659  76.913  12.147  0.00  0.00    -0.233 NA
ATOM      5  C   UNK d   1      19.197  75.661  12.122  0.00  0.00     0.137 A 
ATOM      6  N   UNK d   1      18.966  74.977  10.972  0.00  0.00    -0.272 N 
ATOM      7  C   UNK d   1      18.937  75.025  13.335  0.00  0.00     0.052 A 
ATOM      8  C   UNK d   1      18.500  73.721  11.001  0.00  0.00     0.121 A 
ATOM      9  C   UNK d   1      19.233  75.636   9.815  0.00  0.00     0.255 A 
ATOM     10  C   UNK d   1      18.233  73.061  12.177  0.00  0.00     0.027 A 
ATOM     11 Br   UNK d   1      17.563  71.254  12.171  0.00  0.00    -0.050 Br
ATOM     12  C   UNK d   1      18.458  73.732  13.351  0.00  0.00     0.024 A 
ATOM     13  C   UNK d   1      19.712  76.930   9.828  0.00  0.00     0.104 A 
ATOM     14  O   UNK d   1      19.016  74.993   8.750  0.00  0.00    -0.268 OA
ENDBRANCH   2   3
ENDBRANCH   1   2
BRANCH   1  15
ATOM     15  C   UNK d   1      22.656  79.014  12.115  0.00  0.00     0.277 C 
ATOM     16  O   UNK d   1      23.218  78.904  10.988  0.00  0.00    -0.263 OA
BRANCH  15  17
ATOM     17  C   UNK d   1      23.430  78.893  13.380  0.00  0.00     0.245 C 
BRANCH  17  18
ATOM     18  N   UNK d   1      22.556  78.962  14.552  0.00  0.00    -0.278 N 
ATOM     19  C   UNK d   1      21.722  77.930  15.071  0.00  0.00     0.232 C 
ATOM     20  O   UNK d   1      21.726  76.724  14.719  0.00  0.00    -0.273 OA
ATOM     21  C   UNK d   1      20.847  78.531  16.103  0.00  0.00     0.091 C 
ATOM     22  C   UNK d   1      21.754  79.616  16.634  0.00  0.00     0.091 C 
ATOM     23  C   UNK d   1      20.345  77.586  17.117  0.00  0.00     0.015 C 
ATOM     24  C   UNK d   1      22.840  79.083  17.547  0.00  0.00     0.015 C 
ATOM     25  C   UNK d   1      22.381  80.098  15.381  0.00  0.00     0.232 C 
ATOM     26  C   UNK d   1      22.672  77.623  17.874  0.00  0.00     0.001 C 
ATOM     27  C   UNK d   1      21.254  77.313  18.263  0.00  0.00     0.001 C 
ATOM     28  O   UNK d   1      22.708  81.289  15.084  0.00  0.00    -0.273 OA
ENDBRANCH  17  18
ENDBRANCH  15  17
ENDBRANCH   1  15
TORSDOF 5
ENDMDL
