MODEL 1
REMARK VINA RESULT:    -9.944      0.000      0.000
REMARK INTER + INTRA:         -12.882
REMARK INTER:                 -12.269
REMARK INTRA:                  -0.613
REMARK UNBOUND:                -0.613
REMARK  4 active torsions:
REMARK  status: ('A' for Active; 'I' for Inactive)
REMARK    1  A    between atoms: C_3  and  N_8 
REMARK       I    between atoms: N_11  and  C_14 
REMARK    2  A    between atoms: C_14  and  C_16 
REMARK    3  A    between atoms: C_16  and  N_17 
REMARK    4  A    between atoms: C_19  and  C_23 
REMARK       I    between atoms: C_23  and  N_25 
ROOT
ATOM      1  N   UNK d   1      21.248  78.762   9.810  0.00  0.00    -0.376 N 
ATOM      2  C   UNK d   1      20.734  79.943  10.470  0.00  0.00     0.143 C 
ATOM      3  C   UNK d   1      21.901  80.674  11.129  0.00  0.00     0.145 C 
ATOM      4  N   UNK d   1      22.798  79.704  11.736  0.00  0.00    -0.348 N 
ATOM      5  C   UNK d   1      23.369  78.676  10.897  0.00  0.00     0.145 C 
ATOM      6  C   UNK d   1      22.696  78.748   9.547  0.00  0.00     0.143 C 
ATOM      7  C   UNK d   1      23.121  79.747  13.120  0.00  0.00     0.239 C 
ATOM      8  O   UNK d   1      22.605  80.668  13.828  0.00  0.00    -0.271 OA
ENDROOT
BRANCH   7   9
ATOM      9  C   UNK d   1      24.016  78.794  13.786  0.00  0.00     0.254 C 
BRANCH   9  10
ATOM     10  N   UNK d   1      23.641  78.513  15.171  0.00  0.00    -0.265 N 
ATOM     11  N   UNK d   1      22.446  78.306  15.688  0.00  0.00    -0.167 NA
ATOM     12  C   UNK d   1      22.481  78.075  17.002  0.00  0.00     0.146 A 
ATOM     13  C   UNK d   1      23.814  78.137  17.369  0.00  0.00     0.065 A 
ATOM     14  C   UNK d   1      24.511  78.410  16.213  0.00  0.00     0.029 A 
ATOM     15  C   UNK d   1      25.978  78.566  16.130  0.00  0.00     0.070 C 
BRANCH  12  16
ATOM     16  C   UNK d   1      21.331  77.805  17.884  0.00  0.00     0.274 C 
ATOM     17  O   UNK d   1      20.838  76.661  17.937  0.00  0.00    -0.266 OA
ATOM     18  N   UNK d   1      20.807  78.860  18.663  0.00  0.00    -0.343 N 
ATOM     19  C   UNK d   1      21.324  80.199  18.653  0.00  0.00     0.152 C 
ATOM     20  C   UNK d   1      19.664  78.604  19.545  0.00  0.00     0.152 C 
ATOM     21  C   UNK d   1      20.372  81.035  19.517  0.00  0.00     0.187 C 
ATOM     22  O   UNK d   1      19.067  80.891  19.102  0.00  0.00    -0.388 OA
ATOM     23  C   UNK d   1      18.585  79.607  19.196  0.00  0.00     0.187 C 
ENDBRANCH  12  16
ENDBRANCH   9  10
ENDBRANCH   7   9
BRANCH   1  24
ATOM     24  C   UNK d   1      20.497  77.655   9.411  0.00  0.00     0.052 A 
ATOM     25  C   UNK d   1      19.865  76.785  10.273  0.00  0.00     0.060 A 
ATOM     26 Cl   UNK d   1      19.997  77.056  11.974  0.00  0.00    -0.082 Cl
ATOM     27  C   UNK d   1      19.128  75.701   9.837  0.00  0.00     0.026 A 
ATOM     28  C   UNK d   1      19.006  75.459   8.505  0.00  0.00     0.002 A 
ATOM     29  C   UNK d   1      19.617  76.297   7.610  0.00  0.00     0.002 A 
ATOM     30  C   UNK d   1      20.352  77.379   8.053  0.00  0.00     0.031 A 
ENDBRANCH   1  24
TORSDOF 4
ENDMDL
