/Users/jonathanwahrer/Desktop/Msc/3_Semester/Drug_Design_Praktikum/waehrer_HTS_screening/HTS_experiment/out/docking_results/vina_output/6e43/1576_docked.pdbqt
 OpenBabel03212220403D

 30 33  0  0  0  0  0  0  0  0999 V2000
   21.2480   78.7620    9.8100 N   0  0  0  0  0  0  0  0  0  0  0  0
   20.7340   79.9430   10.4700 C   0  0  0  0  0  2  0  0  0  0  0  0
   21.9010   80.6740   11.1290 C   0  0  0  0  0  2  0  0  0  0  0  0
   22.7980   79.7040   11.7360 N   0  0  0  0  0  0  0  0  0  0  0  0
   23.3690   78.6760   10.8970 C   0  0  0  0  0  2  0  0  0  0  0  0
   22.6960   78.7480    9.5470 C   0  0  0  0  0  2  0  0  0  0  0  0
   23.1210   79.7470   13.1200 C   0  0  0  0  0  0  0  0  0  0  0  0
   22.6050   80.6680   13.8280 O   0  0  0  0  0  0  0  0  0  0  0  0
   24.0160   78.7940   13.7860 C   0  0  0  0  0  2  0  0  0  0  0  0
   23.6410   78.5130   15.1710 N   0  0  0  0  0  0  0  0  0  0  0  0
   22.4460   78.3060   15.6880 N   0  0  0  0  0  0  0  0  0  0  0  0
   22.4810   78.0750   17.0020 C   0  0  0  0  0  0  0  0  0  0  0  0
   23.8140   78.1370   17.3690 C   0  0  0  0  0  3  0  0  0  0  0  0
   24.5110   78.4100   16.2130 C   0  0  0  0  0  0  0  0  0  0  0  0
   25.9780   78.5660   16.1300 C   0  0  0  0  0  1  0  0  0  0  0  0
   21.3310   77.8050   17.8840 C   0  0  0  0  0  0  0  0  0  0  0  0
   20.8380   76.6610   17.9370 O   0  0  0  0  0  0  0  0  0  0  0  0
   20.8070   78.8600   18.6630 N   0  0  0  0  0  0  0  0  0  0  0  0
   21.3240   80.1990   18.6530 C   0  0  0  0  0  2  0  0  0  0  0  0
   19.6640   78.6040   19.5450 C   0  0  0  0  0  2  0  0  0  0  0  0
   20.3720   81.0350   19.5170 C   0  0  0  0  0  2  0  0  0  0  0  0
   19.0670   80.8910   19.1020 O   0  0  0  0  0  0  0  0  0  0  0  0
   18.5850   79.6070   19.1960 C   0  0  0  0  0  2  0  0  0  0  0  0
   20.4970   77.6550    9.4110 C   0  0  0  0  0  0  0  0  0  0  0  0
   19.8650   76.7850   10.2730 C   0  0  0  0  0  0  0  0  0  0  0  0
   19.9970   77.0560   11.9740 Cl  0  0  0  0  0  0  0  0  0  0  0  0
   19.1280   75.7010    9.8370 C   0  0  0  0  0  3  0  0  0  0  0  0
   19.0060   75.4590    8.5050 C   0  0  0  0  0  3  0  0  0  0  0  0
   19.6170   76.2970    7.6100 C   0  0  0  0  0  3  0  0  0  0  0  0
   20.3520   77.3790    8.0530 C   0  0  0  0  0  3  0  0  0  0  0  0
  1  2  1  0  0  0  0
  2  3  1  0  0  0  0
  3  4  1  0  0  0  0
  4  7  1  0  0  0  0
  5  4  1  0  0  0  0
  6  1  1  0  0  0  0
  6  5  1  0  0  0  0
  7  9  1  0  0  0  0
  7  8  2  0  0  0  0
  9 10  1  0  0  0  0
 10 11  1  0  0  0  0
 10 14  1  0  0  0  0
 11 12  2  0  0  0  0
 12 13  1  0  0  0  0
 12 16  1  0  0  0  0
 14 13  2  0  0  0  0
 15 14  1  0  0  0  0
 16 17  2  0  0  0  0
 16 18  1  0  0  0  0
 18 20  1  0  0  0  0
 19 18  1  0  0  0  0
 19 21  1  0  0  0  0
 22 23  1  0  0  0  0
 22 21  1  0  0  0  0
 23 20  1  0  0  0  0
 24  1  1  0  0  0  0
 24 25  1  0  0  0  0
 25 26  1  0  0  0  0
 27 25  2  0  0  0  0
 28 27  1  0  0  0  0
 29 30  1  0  0  0  0
 29 28  2  0  0  0  0
 30 24  2  0  0  0  0
M  END
>  <Pose>
1

>  <Score>
-9.944

$$$$
