/Users/jonathanwahrer/Desktop/Msc/3_Semester/Drug_Design_Praktikum/waehrer_HTS_screening/HTS_experiment/out/docking_results/vina_output/6e43/1581_docked.pdbqt
 OpenBabel03212220403D

 27 30  0  0  1  0  0  0  0  0999 V2000
   21.2050   77.4920   16.5060 N   0  0  0  0  0  0  0  0  0  0  0  0
   22.2850   77.5440   17.3990 C   0  0  0  0  0  2  0  0  0  0  0  0
   22.4980   78.8490   18.0910 C   0  0  0  0  0  2  0  0  0  0  0  0
   21.2580   79.5980   18.2430 N   0  0  0  0  0  0  0  0  0  0  0  0
   21.1160   80.7630   18.8720 N   0  0  0  0  0  0  0  0  0  0  0  0
   19.8380   81.1460   18.8070 C   0  0  0  0  0  0  0  0  0  0  0  0
   19.1640   80.1750   18.1090 C   0  0  0  0  0  3  0  0  0  0  0  0
   20.0810   79.1830   17.7490 C   0  0  0  0  0  0  0  0  0  0  0  0
   19.9410   77.9110   16.9970 C   0  0  0  0  0  2  0  0  0  0  0  0
   21.4560   77.6710   15.1370 C   0  0  0  0  0  2  0  0  0  0  0  0
   20.7080   76.8050   14.2150 C   0  0  0  0  0  0  0  0  0  0  0  0
   20.3810   75.5260   14.4750 N   0  0  0  0  0  0  0  0  0  0  0  0
   19.6960   74.7620   13.6040 C   0  0  0  0  0  0  0  0  0  0  0  0
   19.2850   75.2180   12.4100 N   0  0  0  0  0  0  0  0  0  0  0  0
   19.4200   73.4480   13.9960 C   0  0  0  0  0  3  0  0  0  0  0  0
   18.5930   74.4410   11.5390 C   0  0  0  0  0  3  0  0  0  0  0  0
   19.5840   76.4940   12.0950 C   0  0  0  0  0  0  0  0  0  0  0  0
   18.3200   73.1470   11.9190 C   0  0  0  0  0  0  0  0  0  0  0  0
   17.4240   72.1370   10.7940 Cl  0  0  0  0  0  0  0  0  0  0  0  0
   18.7230   72.6370   13.1360 C   0  0  0  0  0  3  0  0  0  0  0  0
   20.2850   77.2760   12.9840 C   0  0  0  0  0  3  0  0  0  0  0  0
   19.2150   76.9690   10.9760 O   0  0  0  0  0  0  0  0  0  0  0  0
   19.2600   82.3970   19.3890 C   0  0  1  0  0  3  0  0  0  0  0  0
   18.8130   82.0980   20.6870 O   0  0  0  0  0  0  0  0  0  0  0  0
   18.7100   82.9350   21.2250 H   0  0  0  0  0  0  0  0  0  0  0  0
   20.3560   83.4460   19.5610 C   0  0  0  0  0  2  0  0  0  0  0  0
   20.0360   84.6250   18.6540 C   0  0  0  0  0  1  0  0  0  0  0  0
  1  9  1  0  0  0  0
  1  2  1  0  0  0  0
  2  3  1  0  0  0  0
  3  4  1  0  0  0  0
  4  5  1  0  0  0  0
  6  5  2  0  0  0  0
  6 23  1  0  0  0  0
  7  6  1  0  0  0  0
  8  7  2  0  0  0  0
  8  4  1  0  0  0  0
  9  8  1  0  0  0  0
 10  1  1  0  0  0  0
 11 12  1  0  0  0  0
 11 10  1  0  0  0  0
 13 15  1  0  0  0  0
 13 12  2  0  0  0  0
 14 13  1  0  0  0  0
 16 18  2  0  0  0  0
 16 14  1  0  0  0  0
 17 14  1  0  0  0  0
 17 21  1  0  0  0  0
 18 20  1  0  0  0  0
 19 18  1  0  0  0  0
 20 15  2  0  0  0  0
 21 11  2  0  0  0  0
 22 17  2  0  0  0  0
 23 26  1  1  0  0  0
 23 24  1  0  0  0  0
 24 25  1  0  0  0  0
 27 26  1  0  0  0  0
M  END
>  <Pose>
1

>  <Score>
-9.168

$$$$
