MODEL 1
REMARK VINA RESULT:    -9.168      0.000      0.000
REMARK INTER + INTRA:         -12.068
REMARK INTER:                 -11.580
REMARK INTRA:                  -0.488
REMARK UNBOUND:                -0.488
REMARK  5 active torsions:
REMARK  status: ('A' for Active; 'I' for Inactive)
REMARK    1  A    between atoms: C_7  and  C_11 
REMARK    2  A    between atoms: C_11  and  N_12 
REMARK    3  A    between atoms: C_17  and  C_21 
REMARK    4  A    between atoms: C_21  and  O_22 
REMARK    5  A    between atoms: C_21  and  C_23 
ROOT
ATOM      1  N   UNK d   1      21.205  77.492  16.506  0.00  0.00    -0.400 N 
ATOM      2  C   UNK d   1      22.285  77.544  17.399  0.00  0.00     0.139 C 
ATOM      3  C   UNK d   1      22.498  78.849  18.091  0.00  0.00     0.170 C 
ATOM      4  N   UNK d   1      21.258  79.598  18.243  0.00  0.00    -0.270 N 
ATOM      5  N   UNK d   1      21.116  80.763  18.872  0.00  0.00    -0.174 NA
ATOM      6  C   UNK d   1      19.838  81.146  18.807  0.00  0.00     0.085 A 
ATOM      7  C   UNK d   1      19.164  80.175  18.109  0.00  0.00     0.060 A 
ATOM      8  C   UNK d   1      20.081  79.183  17.749  0.00  0.00     0.050 A 
ATOM      9  C   UNK d   1      19.941  77.911  16.997  0.00  0.00     0.176 C 
ENDROOT
BRANCH   1  10
ATOM     10  C   UNK d   1      21.456  77.671  15.137  0.00  0.00     0.177 C 
BRANCH  10  11
ATOM     11  C   UNK d   1      20.708  76.805  14.215  0.00  0.00     0.059 A 
ATOM     12  N   UNK d   1      20.381  75.526  14.475  0.00  0.00    -0.233 NA
ATOM     13  C   UNK d   1      19.696  74.762  13.604  0.00  0.00     0.137 A 
ATOM     14  N   UNK d   1      19.285  75.218  12.410  0.00  0.00    -0.272 N 
ATOM     15  C   UNK d   1      19.420  73.448  13.996  0.00  0.00     0.053 A 
ATOM     16  C   UNK d   1      18.593  74.441  11.539  0.00  0.00     0.125 A 
ATOM     17  C   UNK d   1      19.584  76.494  12.095  0.00  0.00     0.255 A 
ATOM     18  C   UNK d   1      18.320  73.147  11.919  0.00  0.00     0.050 A 
ATOM     19 Cl   UNK d   1      17.424  72.137  10.794  0.00  0.00    -0.083 Cl
ATOM     20  C   UNK d   1      18.723  72.637  13.136  0.00  0.00     0.029 A 
ATOM     21  C   UNK d   1      20.285  77.276  12.984  0.00  0.00     0.103 A 
ATOM     22  O   UNK d   1      19.215  76.969  10.976  0.00  0.00    -0.268 OA
ENDBRANCH  10  11
ENDBRANCH   1  10
BRANCH   6  23
ATOM     23  C   UNK d   1      19.260  82.397  19.389  0.00  0.00     0.171 C 
BRANCH  23  24
ATOM     24  O   UNK d   1      18.813  82.098  20.687  0.00  0.00    -0.389 OA
ATOM     25  H   UNK d   1      18.710  82.935  21.225  0.00  0.00     0.210 HD
ENDBRANCH  23  24
BRANCH  23  26
ATOM     26  C   UNK d   1      20.356  83.446  19.561  0.00  0.00     0.034 C 
ATOM     27  C   UNK d   1      20.036  84.625  18.654  0.00  0.00     0.008 C 
ENDBRANCH  23  26
ENDBRANCH   6  23
TORSDOF 5
ENDMDL
