/Users/jonathanwahrer/Desktop/Msc/3_Semester/Drug_Design_Praktikum/waehrer_HTS_screening/HTS_experiment/out/docking_results/vina_output/6e43/1586_docked.pdbqt
 OpenBabel03212220403D

 29 32  0  0  1  0  0  0  0  0999 V2000
   20.1050   79.5460   19.5820 C   0  0  0  0  0  0  0  0  0  0  0  0
   19.2080   78.7940   20.2000 O   0  0  0  0  0  0  0  0  0  0  0  0
   20.9450   78.8710   18.6800 N   0  0  0  0  0  0  0  0  0  0  0  0
   21.9900   79.4790   17.9350 C   0  0  0  0  0  2  0  0  0  0  0  0
   22.8130   78.3790   17.2440 C   0  0  1  0  0  3  0  0  0  0  0  0
   21.8780   77.6610   16.4170 N   0  0  0  0  0  0  0  0  0  0  0  0
   20.7860   77.0180   17.0660 C   0  0  0  0  0  2  0  0  0  0  0  0
   20.6820   77.4420   18.5170 C   0  0  0  0  0  2  0  0  0  0  0  0
   22.0430   77.6020   15.0230 C   0  0  0  0  0  0  0  0  0  0  0  0
   21.4800   76.6920   14.3880 O   0  0  0  0  0  0  0  0  0  0  0  0
   22.8800   78.6230   14.3590 C   0  0  1  0  0  3  0  0  0  0  0  0
   24.0880   78.7300   15.1230 N   0  0  0  0  0  0  0  0  0  0  0  0
   23.9690   78.9090   16.5230 C   0  0  0  0  0  0  0  0  0  0  0  0
   24.8540   79.5280   17.1930 O   0  0  0  0  0  0  0  0  0  0  0  0
   25.0410   78.6830   14.6840 H   0  0  0  0  0  0  0  0  0  0  0  0
   20.0290   80.9250   19.9750 C   0  0  0  0  0  0  0  0  0  0  0  0
   20.6780   81.5340   21.0210 C   0  0  0  0  0  3  0  0  0  0  0  0
   20.5250   82.8790   21.3620 C   0  0  0  0  0  3  0  0  0  0  0  0
   19.6910   83.6640   20.6340 C   0  0  0  0  0  0  0  0  0  0  0  0
   19.4690   85.3740   21.0340 Cl  0  0  0  0  0  0  0  0  0  0  0  0
   19.0150   83.1180   19.5740 C   0  0  0  0  0  3  0  0  0  0  0  0
   19.1810   81.7860   19.2560 C   0  0  0  0  0  3  0  0  0  0  0  0
   23.0690   78.4000   12.9080 C   0  0  0  0  0  2  0  0  0  0  0  0
   22.0600   79.1520   12.1440 C   0  0  0  0  0  0  0  0  0  0  0  0
   20.8290   78.7760   11.7920 N   0  0  0  0  0  0  0  0  0  0  0  0
   20.2340   79.7840   11.0890 C   0  0  0  0  0  3  0  0  0  0  0  0
   21.0920   80.8030   10.9950 N   0  0  0  0  0  0  0  0  0  0  0  0
   22.2110   80.4410   11.6300 C   0  0  0  0  0  3  0  0  0  0  0  0
   20.9280   81.6970   10.5250 H   0  0  0  0  0  0  0  0  0  0  0  0
  1 16  1  0  0  0  0
  1  2  2  0  0  0  0
  3  1  1  0  0  0  0
  4  3  1  0  0  0  0
  5  4  1  6  0  0  0
  6  7  1  0  0  0  0
  6  5  1  0  0  0  0
  7  8  1  0  0  0  0
  8  3  1  0  0  0  0
  9  6  1  0  0  0  0
 10  9  2  0  0  0  0
 11 23  1  6  0  0  0
 11  9  1  0  0  0  0
 11 12  1  0  0  0  0
 12 13  1  0  0  0  0
 13 14  2  0  0  0  0
 13  5  1  0  0  0  0
 15 12  1  0  0  0  0
 16 17  1  0  0  0  0
 17 18  2  0  0  0  0
 19 20  1  0  0  0  0
 19 18  1  0  0  0  0
 21 19  2  0  0  0  0
 22 21  1  0  0  0  0
 22 16  2  0  0  0  0
 24 23  1  0  0  0  0
 25 24  1  0  0  0  0
 26 25  2  0  0  0  0
 27 26  1  0  0  0  0
 27 28  1  0  0  0  0
 28 24  2  0  0  0  0
 29 27  1  0  0  0  0
M  END
>  <Pose>
1

>  <Score>
-10.417

$$$$
