MODEL 1
REMARK VINA RESULT:    -9.650      0.000      0.000
REMARK INTER + INTRA:         -11.619
REMARK INTER:                 -11.342
REMARK INTRA:                  -0.277
REMARK UNBOUND:                -0.277
REMARK  3 active torsions:
REMARK  status: ('A' for Active; 'I' for Inactive)
REMARK    1  A    between atoms: C_3  and  N_15 
REMARK    2  A    between atoms: N_6  and  C_9 
REMARK    3  A    between atoms: N_18  and  C_21 
ROOT
ATOM      1 Cl   UNK d   1      21.456  80.711  16.207  0.00  0.00    -0.076 Cl
ATOM      2  C   UNK d   1      20.610  80.424  17.711  0.00  0.00     0.131 A 
ATOM      3  C   UNK d   1      20.235  79.157  18.059  0.00  0.00     0.077 A 
ATOM      4  C   UNK d   1      19.552  79.050  19.274  0.00  0.00     0.170 A 
ATOM      5  N   UNK d   1      19.301  80.137  20.020  0.00  0.00    -0.174 NA
ATOM      6  N   UNK d   1      19.653  81.363  19.704  0.00  0.00    -0.197 N 
ATOM      7  C   UNK d   1      20.310  81.513  18.546  0.00  0.00     0.292 A 
ATOM      8  O   UNK d   1      20.689  82.647  18.157  0.00  0.00    -0.264 OA
ENDROOT
BRANCH   3   9
ATOM      9  N   UNK d   1      20.523  78.014  17.277  0.00  0.00    -0.375 N 
ATOM     10  C   UNK d   1      21.879  77.559  17.016  0.00  0.00     0.143 C 
ATOM     11  C   UNK d   1      22.213  77.621  15.548  0.00  0.00     0.146 C 
ATOM     12  N   UNK d   1      21.044  77.168  14.835  0.00  0.00    -0.341 N 
ATOM     13  C   UNK d   1      20.109  76.328  15.537  0.00  0.00     0.146 C 
ATOM     14  C   UNK d   1      19.486  77.208  16.642  0.00  0.00     0.143 C 
BRANCH  12  15
ATOM     15  C   UNK d   1      20.818  77.535  13.486  0.00  0.00     0.270 A 
ATOM     16  N   UNK d   1      19.878  77.029  12.638  0.00  0.00    -0.103 NA
ATOM     17  N   UNK d   1      19.982  77.626  11.467  0.00  0.00    -0.126 NA
ATOM     18  C   UNK d   1      20.973  78.506  11.547  0.00  0.00     0.167 A 
ATOM     19  O   UNK d   1      21.456  78.433  12.760  0.00  0.00    -0.260 OA
ATOM     20  C   UNK d   1      21.493  79.435  10.493  0.00  0.00     0.102 C 
ENDBRANCH  12  15
ENDBRANCH   3   9
BRANCH   6  21
ATOM     21  C   UNK d   1      19.346  82.463  20.555  0.00  0.00     0.062 A 
ATOM     22  C   UNK d   1      18.412  83.424  20.224  0.00  0.00     0.032 A 
ATOM     23  C   UNK d   1      18.122  84.484  21.055  0.00  0.00     0.002 A 
ATOM     24  C   UNK d   1      18.770  84.624  22.267  0.00  0.00     0.000 A 
ATOM     25  C   UNK d   1      19.704  83.668  22.603  0.00  0.00     0.002 A 
ATOM     26  C   UNK d   1      19.991  82.606  21.766  0.00  0.00     0.032 A 
ENDBRANCH   6  21
TORSDOF 3
ENDMDL
