/Users/jonathanwahrer/Desktop/Msc/3_Semester/Drug_Design_Praktikum/waehrer_HTS_screening/HTS_experiment/out/docking_results/vina_output/6e43/1591_docked.pdbqt
 OpenBabel03212220403D

 26 29  0  0  0  0  0  0  0  0999 V2000
   21.4560   80.7110   16.2070 Cl  0  0  0  0  0  0  0  0  0  0  0  0
   20.6100   80.4240   17.7110 C   0  0  0  0  0  0  0  0  0  0  0  0
   20.2350   79.1570   18.0590 C   0  0  0  0  0  0  0  0  0  0  0  0
   19.5520   79.0500   19.2740 C   0  0  0  0  0  3  0  0  0  0  0  0
   19.3010   80.1370   20.0200 N   0  0  0  0  0  0  0  0  0  0  0  0
   19.6530   81.3630   19.7040 N   0  0  0  0  0  0  0  0  0  0  0  0
   20.3100   81.5130   18.5460 C   0  0  0  0  0  0  0  0  0  0  0  0
   20.6890   82.6470   18.1570 O   0  0  0  0  0  0  0  0  0  0  0  0
   20.5230   78.0140   17.2770 N   0  0  0  0  0  0  0  0  0  0  0  0
   21.8790   77.5590   17.0160 C   0  0  0  0  0  2  0  0  0  0  0  0
   22.2130   77.6210   15.5480 C   0  0  0  0  0  2  0  0  0  0  0  0
   21.0440   77.1680   14.8350 N   0  0  0  0  0  0  0  0  0  0  0  0
   20.1090   76.3280   15.5370 C   0  0  0  0  0  2  0  0  0  0  0  0
   19.4860   77.2080   16.6420 C   0  0  0  0  0  2  0  0  0  0  0  0
   20.8180   77.5350   13.4860 C   0  0  0  0  0  0  0  0  0  0  0  0
   19.8780   77.0290   12.6380 N   0  0  0  0  0  0  0  0  0  0  0  0
   19.9820   77.6260   11.4670 N   0  0  0  0  0  0  0  0  0  0  0  0
   20.9730   78.5060   11.5470 C   0  0  0  0  0  0  0  0  0  0  0  0
   21.4560   78.4330   12.7600 O   0  0  0  0  0  0  0  0  0  0  0  0
   21.4930   79.4350   10.4930 C   0  0  0  0  0  1  0  0  0  0  0  0
   19.3460   82.4630   20.5550 C   0  0  0  0  0  0  0  0  0  0  0  0
   18.4120   83.4240   20.2240 C   0  0  0  0  0  3  0  0  0  0  0  0
   18.1220   84.4840   21.0550 C   0  0  0  0  0  3  0  0  0  0  0  0
   18.7700   84.6240   22.2670 C   0  0  0  0  0  3  0  0  0  0  0  0
   19.7040   83.6680   22.6030 C   0  0  0  0  0  3  0  0  0  0  0  0
   19.9910   82.6060   21.7660 C   0  0  0  0  0  3  0  0  0  0  0  0
  1  2  1  0  0  0  0
  2  3  2  0  0  0  0
  2  7  1  0  0  0  0
  3  4  1  0  0  0  0
  4  5  2  0  0  0  0
  6  5  1  0  0  0  0
  6 21  1  0  0  0  0
  7  6  1  0  0  0  0
  8  7  2  0  0  0  0
  9  3  1  0  0  0  0
 10  9  1  0  0  0  0
 11 10  1  0  0  0  0
 12 13  1  0  0  0  0
 12 11  1  0  0  0  0
 13 14  1  0  0  0  0
 14  9  1  0  0  0  0
 15 12  1  0  0  0  0
 16 15  2  0  0  0  0
 17 18  2  0  0  0  0
 17 16  1  0  0  0  0
 18 19  1  0  0  0  0
 19 15  1  0  0  0  0
 20 18  1  0  0  0  0
 21 26  1  0  0  0  0
 22 21  2  0  0  0  0
 22 23  1  0  0  0  0
 23 24  2  0  0  0  0
 24 25  1  0  0  0  0
 26 25  2  0  0  0  0
M  END
>  <Pose>
1

>  <Score>
-9.650

$$$$
