MODEL 1
REMARK VINA RESULT:    -8.581      0.000      0.000
REMARK INTER + INTRA:         -10.534
REMARK INTER:                 -10.336
REMARK INTRA:                  -0.197
REMARK UNBOUND:                -0.197
REMARK  4 active torsions:
REMARK  status: ('A' for Active; 'I' for Inactive)
REMARK    1  A    between atoms: C_7  and  C_9 
REMARK       I    between atoms: C_9  and  N_11 
REMARK    2  A    between atoms: N_17  and  C_20 
REMARK    3  A    between atoms: C_20  and  C_21 
REMARK    4  A    between atoms: C_21  and  O_22 
ROOT
ATOM      1  C   UNK d   1      21.585  80.161  17.261  0.00  0.00     0.274 C 
ATOM      2  O   UNK d   1      22.392  80.578  16.350  0.00  0.00    -0.266 OA
ATOM      3  N   UNK d   1      21.383  78.796  17.328  0.00  0.00    -0.341 N 
ATOM      4  C   UNK d   1      20.519  78.156  18.290  0.00  0.00     0.131 C 
ATOM      5  C   UNK d   1      19.297  77.570  17.615  0.00  0.00     0.066 C 
ATOM      6  C   UNK d   1      19.687  77.011  16.277  0.00  0.00     0.039 A 
ATOM      7  C   UNK d   1      20.927  77.133  15.711  0.00  0.00     0.056 A 
ATOM      8  N   UNK d   1      20.844  76.490  14.517  0.00  0.00    -0.297 N 
ATOM      9  N   UNK d   1      19.642  75.996  14.333  0.00  0.00    -0.255 N 
ATOM     10  C   UNK d   1      18.875  76.285  15.392  0.00  0.00     0.270 A 
ATOM     11  O   UNK d   1      17.655  75.981  15.590  0.00  0.00    -0.266 OA
ATOM     12  C   UNK d   1      22.042  77.853  16.391  0.00  0.00     0.185 C 
ATOM     13  H   UNK d   1      21.663  76.427  13.865  0.00  0.00     0.187 HD
ENDROOT
BRANCH   1  14
ATOM     14  C   UNK d   1      20.978  81.169  18.113  0.00  0.00     0.142 A 
ATOM     15  N   UNK d   1      20.633  82.420  17.810  0.00  0.00    -0.224 NA
ATOM     16  C   UNK d   1      20.101  83.008  18.893  0.00  0.00     0.134 A 
ATOM     17  N   UNK d   1      20.103  82.130  19.902  0.00  0.00    -0.313 N 
ATOM     18  C   UNK d   1      19.603  84.315  19.030  0.00  0.00     0.052 A 
ATOM     19  C   UNK d   1      19.607  82.501  21.116  0.00  0.00     0.122 A 
ATOM     20  C   UNK d   1      20.636  80.983  19.461  0.00  0.00     0.135 A 
ATOM     21  C   UNK d   1      19.114  83.776  21.278  0.00  0.00     0.050 A 
ATOM     22 Cl   UNK d   1      18.466  84.299  22.821  0.00  0.00    -0.083 Cl
ATOM     23  C   UNK d   1      19.107  84.692  20.240  0.00  0.00     0.029 A 
ENDBRANCH   1  14
BRANCH   9  24
ATOM     24  C   UNK d   1      19.148  75.236  13.176  0.00  0.00     0.178 C 
BRANCH  24  25
ATOM     25  C   UNK d   1      19.263  73.749  13.422  0.00  0.00     0.186 C 
BRANCH  25  26
ATOM     26  O   UNK d   1      20.389  73.424  14.169  0.00  0.00    -0.399 OA
ATOM     27  H   UNK d   1      20.707  74.197  14.725  0.00  0.00     0.209 HD
ENDBRANCH  25  26
ENDBRANCH  24  25
ENDBRANCH   9  24
TORSDOF 4
ENDMDL
