/Users/jonathanwahrer/Desktop/Msc/3_Semester/Drug_Design_Praktikum/waehrer_HTS_screening/HTS_experiment/out/docking_results/vina_output/6e43/1609_docked.pdbqt
 OpenBabel03212220413D

 26 29  0  0  1  0  0  0  0  0999 V2000
   19.5110   79.0250   18.8010 N   0  0  0  0  0  0  0  0  0  0  0  0
   19.7690   78.9900   17.3860 C   0  0  2  0  0  3  0  0  0  0  0  0
   19.6190   77.5120   17.0890 C   0  0  2  0  0  3  0  0  0  0  0  0
   20.3180   76.9500   18.1920 O   0  0  0  0  0  0  0  0  0  0  0  0
   19.9110   77.7470   19.2820 C   0  0  0  0  0  0  0  0  0  0  0  0
   19.9210   77.3370   20.4850 O   0  0  0  0  0  0  0  0  0  0  0  0
   20.3520   77.4430   15.7990 C   0  0  0  0  0  2  0  0  0  0  0  0
   21.6180   78.1230   16.1580 N   0  0  0  0  0  0  0  0  0  0  0  0
   21.2730   79.1430   17.0980 C   0  0  0  0  0  2  0  0  0  0  0  0
   22.8310   77.7170   15.5940 C   0  0  0  0  0  0  0  0  0  0  0  0
   22.8520   76.7290   14.7510 O   0  0  0  0  0  0  0  0  0  0  0  0
   18.9750   80.0670   19.6470 C   0  0  0  0  0  2  0  0  0  0  0  0
   20.0280   80.8560   20.3750 C   0  0  0  0  0  2  0  0  0  0  0  0
   19.7480   82.3110   20.3610 C   0  0  0  0  0  0  0  0  0  0  0  0
   20.0920   83.0930   19.2580 C   0  0  0  0  0  3  0  0  0  0  0  0
   19.8370   84.4430   19.2310 C   0  0  0  0  0  0  0  0  0  0  0  0
   20.2920   85.3920   17.8130 Cl  0  0  0  0  0  0  0  0  0  0  0  0
   19.2300   85.0930   20.2850 C   0  0  0  0  0  3  0  0  0  0  0  0
   18.8880   84.3240   21.3770 C   0  0  0  0  0  3  0  0  0  0  0  0
   19.1410   82.9650   21.4140 C   0  0  0  0  0  3  0  0  0  0  0  0
   24.1360   78.2970   15.8520 C   0  0  0  0  0  0  0  0  0  0  0  0
   25.3420   77.6750   15.7540 N   0  0  0  0  0  0  0  0  0  0  0  0
   26.2960   78.5480   16.0670 C   0  0  0  0  0  3  0  0  0  0  0  0
   25.5290   76.3000   15.3720 C   0  0  0  0  0  1  0  0  0  0  0  0
   25.7310   79.7190   16.3660 N   0  0  0  0  0  0  0  0  0  0  0  0
   24.3930   79.5800   16.2370 C   0  0  0  0  0  3  0  0  0  0  0  0
  1  5  1  0  0  0  0
  1 12  1  0  0  0  0
  2  9  1  1  0  0  0
  2  1  1  0  0  0  0
  3  7  1  6  0  0  0
  3  2  1  0  0  0  0
  3  4  1  0  0  0  0
  4  5  1  0  0  0  0
  5  6  2  0  0  0  0
  7  8  1  0  0  0  0
  8  9  1  0  0  0  0
 10 21  1  0  0  0  0
 10  8  1  0  0  0  0
 11 10  2  0  0  0  0
 12 13  1  0  0  0  0
 14 13  1  0  0  0  0
 14 20  1  0  0  0  0
 15 14  2  0  0  0  0
 16 15  1  0  0  0  0
 16 18  2  0  0  0  0
 17 16  1  0  0  0  0
 18 19  1  0  0  0  0
 19 20  2  0  0  0  0
 21 26  2  0  0  0  0
 22 21  1  0  0  0  0
 22 23  1  0  0  0  0
 23 25  2  0  0  0  0
 24 22  1  0  0  0  0
 26 25  1  0  0  0  0
M  END
>  <Pose>
1

>  <Score>
-10.463

$$$$
