MODEL 1
REMARK VINA RESULT:    -9.889      0.000      0.000
REMARK INTER + INTRA:         -12.555
REMARK INTER:                 -12.201
REMARK INTRA:                  -0.354
REMARK UNBOUND:                -0.354
REMARK  4 active torsions:
REMARK  status: ('A' for Active; 'I' for Inactive)
REMARK    1  A    between atoms: C_4  and  C_8 
REMARK    2  A    between atoms: C_8  and  N_9 
REMARK    3  A    between atoms: C_13  and  N_14 
REMARK       I    between atoms: N_17  and  C_20 
REMARK    4  A    between atoms: C_20  and  C_22 
ROOT
ATOM      1  N   UNK d   1      21.471  78.445  14.101  0.00  0.00    -0.168 N 
ATOM      2  C   UNK d   1      21.327  78.375  12.761  0.00  0.00     0.167 A 
ATOM      3  C   UNK d   1      20.436  77.360  12.506  0.00  0.00     0.185 A 
ATOM      4  N   UNK d   1      20.074  76.854  13.669  0.00  0.00    -0.044 NA
ATOM      5  C   UNK d   1      20.703  77.513  14.674  0.00  0.00     0.707 A 
ATOM      6  N   UNK d   1      20.125  77.097  11.206  0.00  0.00    -0.286 N 
ATOM      7  C   UNK d   1      20.662  77.796  10.199  0.00  0.00     0.330 A 
ATOM      8  O   UNK d   1      20.341  77.515   9.010  0.00  0.00    -0.246 OA
ATOM      9  N   UNK d   1      21.532  78.793  10.403  0.00  0.00    -0.273 N 
ATOM     10  C   UNK d   1      21.861  79.077  11.686  0.00  0.00     0.280 A 
ATOM     11  O   UNK d   1      22.672  80.008  11.883  0.00  0.00    -0.265 OA
ATOM     12  C   UNK d   1      19.176  76.025  10.913  0.00  0.00     0.163 C 
ATOM     13  H   UNK d   1      21.927  79.314   9.588  0.00  0.00     0.173 HD
ENDROOT
BRANCH   5  14
ATOM     14  N   UNK d   1      20.483  77.261  16.070  0.00  0.00    -0.212 N 
ATOM     15  C   UNK d   1      21.667  77.025  16.921  0.00  0.00     0.161 C 
ATOM     16  C   UNK d   1      21.724  77.978  18.070  0.00  0.00     0.146 C 
ATOM     17  N   UNK d   1      20.414  78.497  18.387  0.00  0.00    -0.349 N 
ATOM     18  C   UNK d   1      19.281  77.621  18.169  0.00  0.00     0.146 C 
ATOM     19  C   UNK d   1      20.254  79.813  18.899  0.00  0.00     0.219 C 
ATOM     20  C   UNK d   1      19.214  77.230  16.704  0.00  0.00     0.161 C 
ATOM     21  O   UNK d   1      21.252  80.539  19.097  0.00  0.00    -0.273 OA
BRANCH  19  22
ATOM     22  C   UNK d   1      18.913  80.360  19.210  0.00  0.00     0.098 C 
ATOM     23  C   UNK d   1      19.124  81.665  19.974  0.00  0.00     0.014 C 
ENDBRANCH  19  22
ENDBRANCH   5  14
BRANCH   1  24
ATOM     24  C   UNK d   1      22.288  79.425  14.742  0.00  0.00     0.186 C 
BRANCH  24  25
ATOM     25  C   UNK d   1      23.612  78.957  15.217  0.00  0.00    -0.038 A 
ATOM     26  C   UNK d   1      24.101  77.721  14.903  0.00  0.00     0.032 A 
ATOM     27  C   UNK d   1      25.331  77.339  15.424  0.00  0.00     0.034 A 
ATOM     28 Cl   UNK d   1      25.937  75.740  14.996  0.00  0.00    -0.084 Cl
ATOM     29  C   UNK d   1      26.086  78.147  16.245  0.00  0.00     0.024 A 
ATOM     30  C   UNK d   1      25.575  79.395  16.555  0.00  0.00     0.002 A 
ATOM     31  C   UNK d   1      24.370  79.797  16.056  0.00  0.00     0.009 A 
ENDBRANCH  24  25
ENDBRANCH   1  24
TORSDOF 4
ENDMDL
