/Users/jonathanwahrer/Desktop/Msc/3_Semester/Drug_Design_Praktikum/waehrer_HTS_screening/HTS_experiment/out/docking_results/vina_output/6e43/1612_docked.pdbqt
 OpenBabel03212220413D

 31 34  0  0  0  0  0  0  0  0999 V2000
   21.4710   78.4450   14.1010 N   0  0  0  0  0  0  0  0  0  0  0  0
   21.3270   78.3750   12.7610 C   0  0  0  0  0  0  0  0  0  0  0  0
   20.4360   77.3600   12.5060 C   0  0  0  0  0  0  0  0  0  0  0  0
   20.0740   76.8540   13.6690 N   0  0  0  0  0  0  0  0  0  0  0  0
   20.7030   77.5130   14.6740 C   0  0  0  0  0  0  0  0  0  0  0  0
   20.1250   77.0970   11.2060 N   0  0  0  0  0  0  0  0  0  0  0  0
   20.6620   77.7960   10.1990 C   0  0  0  0  0  0  0  0  0  0  0  0
   20.3410   77.5150    9.0100 O   0  0  0  0  0  0  0  0  0  0  0  0
   21.5320   78.7930   10.4030 N   0  0  0  0  0  0  0  0  0  0  0  0
   21.8610   79.0770   11.6860 C   0  0  0  0  0  0  0  0  0  0  0  0
   22.6720   80.0080   11.8830 O   0  0  0  0  0  0  0  0  0  0  0  0
   19.1760   76.0250   10.9130 C   0  0  0  0  0  1  0  0  0  0  0  0
   21.9270   79.3140    9.5880 H   0  0  0  0  0  0  0  0  0  0  0  0
   20.4830   77.2610   16.0700 N   0  0  0  0  0  0  0  0  0  0  0  0
   21.6670   77.0250   16.9210 C   0  0  0  0  0  2  0  0  0  0  0  0
   21.7240   77.9780   18.0700 C   0  0  0  0  0  2  0  0  0  0  0  0
   20.4140   78.4970   18.3870 N   0  0  0  0  0  0  0  0  0  0  0  0
   19.2810   77.6210   18.1690 C   0  0  0  0  0  2  0  0  0  0  0  0
   20.2540   79.8130   18.8990 C   0  0  0  0  0  0  0  0  0  0  0  0
   19.2140   77.2300   16.7040 C   0  0  0  0  0  2  0  0  0  0  0  0
   21.2520   80.5390   19.0970 O   0  0  0  0  0  0  0  0  0  0  0  0
   18.9130   80.3600   19.2100 C   0  0  0  0  0  2  0  0  0  0  0  0
   19.1240   81.6650   19.9740 C   0  0  0  0  0  1  0  0  0  0  0  0
   22.2880   79.4250   14.7420 C   0  0  0  0  0  2  0  0  0  0  0  0
   23.6120   78.9570   15.2170 C   0  0  0  0  0  0  0  0  0  0  0  0
   24.1010   77.7210   14.9030 C   0  0  0  0  0  3  0  0  0  0  0  0
   25.3310   77.3390   15.4240 C   0  0  0  0  0  0  0  0  0  0  0  0
   25.9370   75.7400   14.9960 Cl  0  0  0  0  0  0  0  0  0  0  0  0
   26.0860   78.1470   16.2450 C   0  0  0  0  0  3  0  0  0  0  0  0
   25.5750   79.3950   16.5550 C   0  0  0  0  0  3  0  0  0  0  0  0
   24.3700   79.7970   16.0560 C   0  0  0  0  0  3  0  0  0  0  0  0
  1  5  1  0  0  0  0
  1 24  1  0  0  0  0
  2  1  1  0  0  0  0
  3  2  2  0  0  0  0
  3  4  1  0  0  0  0
  4  5  2  0  0  0  0
  5 14  1  0  0  0  0
  6  3  1  0  0  0  0
  7  9  1  0  0  0  0
  7  6  1  0  0  0  0
  8  7  2  0  0  0  0
  9 10  1  0  0  0  0
 10 11  2  0  0  0  0
 10  2  1  0  0  0  0
 12  6  1  0  0  0  0
 13  9  1  0  0  0  0
 14 20  1  0  0  0  0
 14 15  1  0  0  0  0
 15 16  1  0  0  0  0
 16 17  1  0  0  0  0
 17 19  1  0  0  0  0
 18 17  1  0  0  0  0
 19 21  2  0  0  0  0
 19 22  1  0  0  0  0
 20 18  1  0  0  0  0
 22 23  1  0  0  0  0
 24 25  1  0  0  0  0
 25 31  1  0  0  0  0
 26 25  2  0  0  0  0
 26 27  1  0  0  0  0
 27 29  2  0  0  0  0
 28 27  1  0  0  0  0
 29 30  1  0  0  0  0
 31 30  2  0  0  0  0
M  END
>  <Pose>
1

>  <Score>
-9.889

$$$$
