MODEL 1
REMARK VINA RESULT:    -9.772      0.000      0.000
REMARK INTER + INTRA:         -10.701
REMARK INTER:                 -10.915
REMARK INTRA:                   0.214
REMARK UNBOUND:                 0.214
REMARK  2 active torsions:
REMARK  status: ('A' for Active; 'I' for Inactive)
REMARK    1  A    between atoms: C_3  and  C_13 
REMARK    2  A    between atoms: C_5  and  N_8 
REMARK       I    between atoms: C_13  and  N_15 
ROOT
ATOM      1  C   UNK d   1      21.637  77.617  15.547  0.00  0.00     0.255 C 
ATOM      2  O   UNK d   1      22.821  78.021  15.417  0.00  0.00    -0.267 OA
ATOM      3  N   UNK d   1      20.994  77.545  16.813  0.00  0.00    -0.348 N 
ATOM      4  C   UNK d   1      21.729  77.954  17.990  0.00  0.00     0.129 C 
ATOM      5  C   UNK d   1      20.705  78.411  19.012  0.00  0.00     0.061 C 
ATOM      6  C   UNK d   1      19.526  79.102  18.362  0.00  0.00     0.119 C 
ATOM      7  N   UNK d   1      18.737  79.685  19.423  0.00  0.00    -0.324 N 
ATOM      8  C   UNK d   1      19.262  80.972  19.714  0.00  0.00     0.325 C 
ATOM      9  O   UNK d   1      19.104  81.662  20.770  0.00  0.00    -0.247 OA
ATOM     10  N   UNK d   1      20.023  81.353  18.564  0.00  0.00    -0.272 N 
ATOM     11  C   UNK d   1      19.950  80.303  17.599  0.00  0.00     0.256 C 
ATOM     12  O   UNK d   1      20.202  80.417  16.368  0.00  0.00    -0.270 OA
ATOM     13  C   UNK d   1      20.768  82.598  18.360  0.00  0.00     0.164 C 
ATOM     14  C   UNK d   1      18.730  78.173  17.495  0.00  0.00     0.061 C 
ATOM     15  C   UNK d   1      19.637  77.086  17.005  0.00  0.00     0.129 C 
ATOM     16  H   UNK d   1      17.929  79.222  19.879  0.00  0.00     0.165 HD
ENDROOT
BRANCH   1  17
ATOM     17  C   UNK d   1      20.953  77.219  14.313  0.00  0.00     0.056 A 
ATOM     18  C   UNK d   1      20.985  78.034  13.203  0.00  0.00     0.050 A 
ATOM     19 Cl   UNK d   1      21.866  79.565  13.299  0.00  0.00    -0.083 Cl
ATOM     20  C   UNK d   1      20.350  77.686  12.028  0.00  0.00     0.027 A 
ATOM     21  C   UNK d   1      19.679  76.486  12.007  0.00  0.00     0.033 A 
ATOM     22  C   UNK d   1      19.621  75.635  13.099  0.00  0.00     0.059 A 
ATOM     23  C   UNK d   1      20.270  76.024  14.251  0.00  0.00     0.050 A 
BRANCH  22  24
ATOM     24  N   UNK d   1      18.907  74.402  13.010  0.00  0.00    -0.245 N 
ATOM     25  N   UNK d   1      17.717  74.181  12.509  0.00  0.00    -0.180 NA
ATOM     26  C   UNK d   1      17.410  72.856  12.624  0.00  0.00     0.140 A 
ATOM     27  C   UNK d   1      18.473  72.224  13.230  0.00  0.00     0.040 A 
ATOM     28  C   UNK d   1      19.406  73.238  13.461  0.00  0.00     0.120 A 
ENDBRANCH  22  24
ENDBRANCH   1  17
TORSDOF 2
ENDMDL
