MODEL 1
REMARK VINA RESULT:    -9.578      0.000      0.000
REMARK INTER + INTRA:         -11.444
REMARK INTER:                 -11.258
REMARK INTRA:                  -0.185
REMARK UNBOUND:                -0.185
REMARK  3 active torsions:
REMARK  status: ('A' for Active; 'I' for Inactive)
REMARK    1  A    between atoms: C_4  and  C_8 
REMARK    2  A    between atoms: N_9  and  C_23 
REMARK    3  A    between atoms: C_15  and  C_17 
ROOT
ATOM      1  C   UNK d   1      20.780  79.696  17.075  0.00  0.00     0.185 C 
ATOM      2  N   UNK d   1      20.314  78.360  17.313  0.00  0.00    -0.128 N 
ATOM      3  C   UNK d   1      20.324  78.065  18.706  0.00  0.00     0.314 C 
ATOM      4  O   UNK d   1      20.248  76.926  19.252  0.00  0.00    -0.263 OA
ATOM      5  C   UNK d   1      20.443  79.347  19.433  0.00  0.00     0.251 C 
ATOM      6  O   UNK d   1      20.487  79.467  20.678  0.00  0.00    -0.282 OA
ATOM      7  C   UNK d   1      20.497  80.366  18.392  0.00  0.00     0.063 C 
ATOM      8  C   UNK d   1      20.354  81.654  18.619  0.00  0.00     0.130 C 
ATOM      9  O   UNK d   1      20.484  82.517  17.512  0.00  0.00    -0.190 OA
ENDROOT
BRANCH   1  10
ATOM     10  C   UNK d   1      22.218  79.774  16.715  0.00  0.00    -0.028 A 
ATOM     11  C   UNK d   1      23.197  79.161  17.485  0.00  0.00     0.033 A 
ATOM     12  C   UNK d   1      24.539  79.208  17.187  0.00  0.00     0.034 A 
ATOM     13 Cl   UNK d   1      25.745  78.420  18.180  0.00  0.00    -0.084 Cl
ATOM     14  C   UNK d   1      24.923  79.904  16.062  0.00  0.00     0.024 A 
ATOM     15  C   UNK d   1      23.986  80.530  15.265  0.00  0.00     0.002 A 
ATOM     16  C   UNK d   1      22.650  80.466  15.588  0.00  0.00     0.010 A 
ENDBRANCH   1  10
BRANCH   8  17
ATOM     17  C   UNK d   1      20.069  82.234  19.924  0.00  0.00     0.001 A 
ATOM     18  C   UNK d   1      21.076  82.272  20.899  0.00  0.00     0.014 A 
ATOM     19  C   UNK d   1      20.843  82.841  22.132  0.00  0.00     0.001 A 
ATOM     20  C   UNK d   1      19.627  83.396  22.470  0.00  0.00     0.000 A 
ATOM     21  C   UNK d   1      18.625  83.370  21.526  0.00  0.00     0.001 A 
ATOM     22  C   UNK d   1      18.862  82.793  20.278  0.00  0.00     0.014 A 
ENDBRANCH   8  17
BRANCH   2  23
ATOM     23  C   UNK d   1      19.901  77.448  16.317  0.00  0.00     0.710 A 
ATOM     24  N   UNK d   1      20.813  77.174  15.347  0.00  0.00    -0.200 N 
ATOM     25  C   UNK d   1      20.546  76.330  14.352  0.00  0.00     0.107 A 
ATOM     26  H   UNK d   1      21.767  77.629  15.361  0.00  0.00     0.183 HD
ATOM     27  C   UNK d   1      19.308  75.729  14.326  0.00  0.00     0.037 A 
ATOM     28  C   UNK d   1      18.400  76.021  15.321  0.00  0.00     0.138 A 
ATOM     29  N   UNK d   1      18.677  76.876  16.321  0.00  0.00    -0.077 NA
ENDBRANCH   2  23
TORSDOF 3
ENDMDL
