/Users/jonathanwahrer/Desktop/Msc/3_Semester/Drug_Design_Praktikum/waehrer_HTS_screening/HTS_experiment/out/docking_results/vina_output/6e43/1631_docked.pdbqt
 OpenBabel03212220423D

 29 32  0  0  1  0  0  0  0  0999 V2000
   20.7800   79.6960   17.0750 C   0  0  1  0  0  3  0  0  0  0  0  0
   20.3140   78.3600   17.3130 N   0  0  0  0  0  0  0  0  0  0  0  0
   20.3240   78.0650   18.7060 C   0  0  0  0  0  0  0  0  0  0  0  0
   20.2480   76.9260   19.2520 O   0  0  0  0  0  0  0  0  0  0  0  0
   20.4430   79.3470   19.4330 C   0  0  0  0  0  0  0  0  0  0  0  0
   20.4870   79.4670   20.6780 O   0  0  0  0  0  0  0  0  0  0  0  0
   20.4970   80.3660   18.3920 C   0  0  0  0  0  0  0  0  0  0  0  0
   20.3540   81.6540   18.6190 C   0  0  0  0  0  0  0  0  0  0  0  0
   20.4840   82.5170   17.5120 O   0  0  0  0  0  1  0  0  0  0  0  0
   22.2180   79.7740   16.7150 C   0  0  0  0  0  0  0  0  0  0  0  0
   23.1970   79.1610   17.4850 C   0  0  0  0  0  3  0  0  0  0  0  0
   24.5390   79.2080   17.1870 C   0  0  0  0  0  0  0  0  0  0  0  0
   25.7450   78.4200   18.1800 Cl  0  0  0  0  0  0  0  0  0  0  0  0
   24.9230   79.9040   16.0620 C   0  0  0  0  0  3  0  0  0  0  0  0
   23.9860   80.5300   15.2650 C   0  0  0  0  0  3  0  0  0  0  0  0
   22.6500   80.4660   15.5880 C   0  0  0  0  0  3  0  0  0  0  0  0
   20.0690   82.2340   19.9240 C   0  0  0  0  0  0  0  0  0  0  0  0
   21.0760   82.2720   20.8990 C   0  0  0  0  0  3  0  0  0  0  0  0
   20.8430   82.8410   22.1320 C   0  0  0  0  0  3  0  0  0  0  0  0
   19.6270   83.3960   22.4700 C   0  0  0  0  0  3  0  0  0  0  0  0
   18.6250   83.3700   21.5260 C   0  0  0  0  0  3  0  0  0  0  0  0
   18.8620   82.7930   20.2780 C   0  0  0  0  0  3  0  0  0  0  0  0
   19.9010   77.4480   16.3170 C   0  0  1  0  0  3  0  0  0  0  0  0
   20.8130   77.1740   15.3470 N   0  0  0  0  0  0  0  0  0  0  0  0
   20.5460   76.3300   14.3520 C   0  0  0  0  0  3  0  0  0  0  0  0
   21.7670   77.6290   15.3610 H   0  0  0  0  0  0  0  0  0  0  0  0
   19.3080   75.7290   14.3260 C   0  0  0  0  0  3  0  0  0  0  0  0
   18.4000   76.0210   15.3210 C   0  0  0  0  0  3  0  0  0  0  0  0
   18.6770   76.8760   16.3210 N   0  0  0  0  0  0  0  0  0  0  0  0
  1 10  1  1  0  0  0
  1  2  1  0  0  0  0
  1  7  1  0  0  0  0
  2  3  1  0  0  0  0
  3  4  2  0  0  0  0
  3  5  1  0  0  0  0
  5  6  2  0  0  0  0
  7  8  2  0  0  0  0
  7  5  1  0  0  0  0
  8 17  1  0  0  0  0
  9  8  1  0  0  0  0
 10 11  1  0  0  0  0
 12 11  2  0  0  0  0
 12 13  1  0  0  0  0
 14 12  1  0  0  0  0
 15 16  1  0  0  0  0
 15 14  2  0  0  0  0
 16 10  2  0  0  0  0
 17 22  2  0  0  0  0
 17 18  1  0  0  0  0
 18 19  2  0  0  0  0
 19 20  1  0  0  0  0
 21 20  2  0  0  0  0
 22 21  1  0  0  0  0
 23 29  1  0  0  0  0
 23  2  1  1  0  0  0
 24 26  1  0  0  0  0
 24 23  1  0  0  0  0
 25 24  1  0  0  0  0
 27 25  2  0  0  0  0
 27 28  1  0  0  0  0
 28 29  2  0  0  0  0
M  END
>  <Pose>
1

>  <Score>
-9.578

$$$$
