MODEL 1
REMARK VINA RESULT:    -9.110      0.000      0.000
REMARK INTER + INTRA:         -11.155
REMARK INTER:                 -10.974
REMARK INTRA:                  -0.181
REMARK UNBOUND:                -0.181
REMARK  4 active torsions:
REMARK  status: ('A' for Active; 'I' for Inactive)
REMARK    1  A    between atoms: S_1  and  C_5 
REMARK    2  A    between atoms: C_9  and  O_11 
REMARK    3  A    between atoms: N_13  and  C_16 
REMARK    4  A    between atoms: C_16  and  C_17 
ROOT
ATOM      1  C   UNK d   1      21.883  78.589  13.398  0.00  0.00     0.249 A 
ATOM      2  N   UNK d   1      22.533  79.171  14.412  0.00  0.00    -0.223 NA
ATOM      3  C   UNK d   1      22.456  78.775  15.679  0.00  0.00     0.051 A 
ATOM      4  C   UNK d   1      21.625  77.678  15.957  0.00  0.00     0.048 A 
ATOM      5  C   UNK d   1      20.971  77.095  14.930  0.00  0.00     0.175 A 
ATOM      6  N   UNK d   1      21.106  77.552  13.654  0.00  0.00    -0.194 NA
ATOM      7  C   UNK d   1      21.463  77.370  17.380  0.00  0.00     0.318 C 
ATOM      8  N   UNK d   1      21.124  78.611  18.006  0.00  0.00     0.097 N 
ATOM      9  C   UNK d   1      22.484  79.298  18.142  0.00  0.00     0.279 C 
ATOM     10  C   UNK d   1      23.157  79.421  16.821  0.00  0.00     0.090 C 
ENDROOT
BRANCH   8  11
ATOM     11  C   UNK d   1      20.406  79.631  17.159  0.00  0.00     0.319 C 
BRANCH  11  12
ATOM     12  C   UNK d   1      19.994  80.609  18.261  0.00  0.00     0.068 A 
ATOM     13  C   UNK d   1      20.369  81.893  18.352  0.00  0.00     0.061 A 
ATOM     14  C   UNK d   1      19.958  82.767  19.395  0.00  0.00     0.020 A 
ATOM     15 Cl   UNK d   1      21.367  82.545  17.097  0.00  0.00    -0.083 Cl
ATOM     16  C   UNK d   1      19.109  82.182  20.338  0.00  0.00     0.091 A 
ATOM     17  C   UNK d   1      20.313  84.066  19.529  0.00  0.00     0.016 A 
ATOM     18  C   UNK d   1      18.681  82.974  21.363  0.00  0.00     0.038 A 
ATOM     19  O   UNK d   1      18.733  80.952  20.252  0.00  0.00    -0.274 OA
ATOM     20  C   UNK d   1      19.042  84.330  21.525  0.00  0.00     0.003 A 
ATOM     21  C   UNK d   1      19.893  84.875  20.547  0.00  0.00     0.001 A 
ATOM     22  C   UNK d   1      19.139  80.147  19.259  0.00  0.00     0.298 A 
ATOM     23  O   UNK d   1      18.763  78.914  19.194  0.00  0.00    -0.259 OA
ENDBRANCH  11  12
ENDBRANCH   8  11
BRANCH   5  24
ATOM     24  O   UNK d   1      20.160  76.002  15.199  0.00  0.00    -0.344 OA
ATOM     25  H   UNK d   1      20.091  75.179  14.593  0.00  0.00     0.219 HD
ENDBRANCH   5  24
BRANCH   1  26
ATOM     26  S   UNK d   1      22.021  79.311  11.785  0.00  0.00     0.207 S 
ATOM     27  O   UNK d   1      22.838  78.518  10.893  0.00  0.00    -0.220 OA
ATOM     28  O   UNK d   1      22.579  80.689  11.982  0.00  0.00    -0.220 OA
ATOM     29  C   UNK d   1      20.319  79.502  11.199  0.00  0.00     0.170 C 
ENDBRANCH   1  26
TORSDOF 4
ENDMDL
