MODEL 1
REMARK VINA RESULT:    -9.465      0.000      0.000
REMARK INTER + INTRA:          -9.465
REMARK INTER:                  -9.465
REMARK INTRA:                   0.000
REMARK UNBOUND:                 0.000
REMARK  0 active torsions:
REMARK  status: ('A' for Active; 'I' for Inactive)
ROOT
ATOM      1 Cl   UNK d   1      26.508  79.417  16.613  0.00  0.00    -0.084 Cl
ATOM      2  C   UNK d   1      24.893  78.792  16.267  0.00  0.00     0.034 A 
ATOM      3  C   UNK d   1      23.846  78.977  17.136  0.00  0.00     0.034 A 
ATOM      4  C   UNK d   1      22.571  78.470  16.839  0.00  0.00    -0.006 A 
ATOM      5  C   UNK d   1      22.330  77.781  15.684  0.00  0.00     0.044 A 
ATOM      6  C   UNK d   1      23.398  77.588  14.788  0.00  0.00     0.032 A 
ATOM      7  C   UNK d   1      24.632  78.096  15.111  0.00  0.00     0.026 A 
ATOM      8  N   UNK d   1      20.980  77.360  15.583  0.00  0.00    -0.321 N 
ATOM      9  C   UNK d   1      20.329  77.816  16.756  0.00  0.00     0.242 A 
ATOM     10  O   UNK d   1      19.104  77.617  17.004  0.00  0.00    -0.271 OA
ATOM     11  C   UNK d   1      21.302  78.539  17.604  0.00  0.00     0.111 A 
ATOM     12  C   UNK d   1      21.398  77.775  18.907  0.00  0.00     0.132 C 
ATOM     13  C   UNK d   1      20.093  78.031  19.606  0.00  0.00     0.225 C 
ATOM     14  O   UNK d   1      19.353  77.121  20.023  0.00  0.00    -0.273 OA
ATOM     15  N   UNK d   1      19.728  79.405  19.777  0.00  0.00    -0.311 N 
ATOM     16  C   UNK d   1      20.174  80.370  18.832  0.00  0.00     0.133 A 
ATOM     17  N   UNK d   1      20.002  81.716  18.731  0.00  0.00    -0.262 N 
ATOM     18  N   UNK d   1      20.637  82.130  17.662  0.00  0.00    -0.185 NA
ATOM     19  C   UNK d   1      21.236  81.109  17.030  0.00  0.00     0.151 A 
ATOM     20  C   UNK d   1      20.945  79.959  17.775  0.00  0.00     0.030 A 
ATOM     21  C   UNK d   1      20.393  76.602  14.473  0.00  0.00     0.159 C 
ATOM     22  H   UNK d   1      19.140  79.711  20.583  0.00  0.00     0.170 HD
ATOM     23  H   UNK d   1      19.447  82.272  19.422  0.00  0.00     0.191 HD
ENDROOT
TORSDOF 0
ENDMDL
