/Users/jonathanwahrer/Desktop/Msc/3_Semester/Drug_Design_Praktikum/waehrer_HTS_screening/HTS_experiment/out/docking_results/vina_output/6e43/1651_docked.pdbqt
 OpenBabel03212220423D

 23 26  0  0  1  0  0  0  0  0999 V2000
   26.5080   79.4170   16.6130 Cl  0  0  0  0  0  0  0  0  0  0  0  0
   24.8930   78.7920   16.2670 C   0  0  0  0  0  0  0  0  0  0  0  0
   23.8460   78.9770   17.1360 C   0  0  0  0  0  3  0  0  0  0  0  0
   22.5710   78.4700   16.8390 C   0  0  0  0  0  0  0  0  0  0  0  0
   22.3300   77.7810   15.6840 C   0  0  0  0  0  0  0  0  0  0  0  0
   23.3980   77.5880   14.7880 C   0  0  0  0  0  3  0  0  0  0  0  0
   24.6320   78.0960   15.1110 C   0  0  0  0  0  3  0  0  0  0  0  0
   20.9800   77.3600   15.5830 N   0  0  0  0  0  0  0  0  0  0  0  0
   20.3290   77.8160   16.7560 C   0  0  0  0  0  0  0  0  0  0  0  0
   19.1040   77.6170   17.0040 O   0  0  0  0  0  0  0  0  0  0  0  0
   21.3020   78.5390   17.6040 C   0  0  1  0  0  0  0  0  0  0  0  0
   21.3980   77.7750   18.9070 C   0  0  0  0  0  2  0  0  0  0  0  0
   20.0930   78.0310   19.6060 C   0  0  0  0  0  0  0  0  0  0  0  0
   19.3530   77.1210   20.0230 O   0  0  0  0  0  0  0  0  0  0  0  0
   19.7280   79.4050   19.7770 N   0  0  0  0  0  0  0  0  0  0  0  0
   20.1740   80.3700   18.8320 C   0  0  0  0  0  0  0  0  0  0  0  0
   20.0020   81.7160   18.7310 N   0  0  0  0  0  0  0  0  0  0  0  0
   20.6370   82.1300   17.6620 N   0  0  0  0  0  0  0  0  0  0  0  0
   21.2360   81.1090   17.0300 C   0  0  0  0  0  3  0  0  0  0  0  0
   20.9450   79.9590   17.7750 C   0  0  0  0  0  0  0  0  0  0  0  0
   20.3930   76.6020   14.4730 C   0  0  0  0  0  1  0  0  0  0  0  0
   19.1400   79.7110   20.5830 H   0  0  0  0  0  0  0  0  0  0  0  0
   19.4470   82.2720   19.4220 H   0  0  0  0  0  0  0  0  0  0  0  0
  2  1  1  0  0  0  0
  2  3  1  0  0  0  0
  4  3  2  0  0  0  0
  4 11  1  0  0  0  0
  5  4  1  0  0  0  0
  6  7  1  0  0  0  0
  6  5  2  0  0  0  0
  7  2  2  0  0  0  0
  8  5  1  0  0  0  0
  8  9  1  0  0  0  0
  9 10  2  0  0  0  0
  9 11  1  0  0  0  0
 11 20  1  0  0  0  0
 11 12  1  1  0  0  0
 12 13  1  0  0  0  0
 13 15  1  0  0  0  0
 13 14  2  0  0  0  0
 15 22  1  0  0  0  0
 16 15  1  0  0  0  0
 17 16  1  0  0  0  0
 17 23  1  0  0  0  0
 18 17  1  0  0  0  0
 19 18  2  0  0  0  0
 19 20  1  0  0  0  0
 20 16  2  0  0  0  0
 21  8  1  0  0  0  0
M  END
>  <Pose>
1

>  <Score>
-9.465

$$$$
