MODEL 1
REMARK VINA RESULT:    -6.143      0.000      0.000
REMARK INTER + INTRA:          -7.050
REMARK INTER:                  -6.861
REMARK INTRA:                  -0.189
REMARK UNBOUND:                -0.189
REMARK  2 active torsions:
REMARK  status: ('A' for Active; 'I' for Inactive)
REMARK    1  A    between atoms: N_15  and  C_20 
REMARK       I    between atoms: C_21  and  N_23 
REMARK    2  A    between atoms: N_26  and  C_29 
ROOT
ATOM      1 Cl   UNK d   1      22.187  79.155   9.510  0.00  0.00    -0.084 Cl
ATOM      2  C   UNK d   1      22.151  78.929  11.263  0.00  0.00     0.035 A 
ATOM      3  C   UNK d   1      23.318  78.682  11.955  0.00  0.00     0.043 A 
ATOM      4  C   UNK d   1      23.287  78.512  13.301  0.00  0.00     0.060 A 
ATOM      5  C   UNK d   1      22.072  78.583  13.997  0.00  0.00     0.045 A 
ATOM      6  C   UNK d   1      20.922  78.830  13.287  0.00  0.00     0.032 A 
ATOM      7  C   UNK d   1      20.936  79.008  11.910  0.00  0.00     0.026 A 
ATOM      8  N   UNK d   1      22.032  78.407  15.409  0.00  0.00    -0.363 N 
ATOM      9  C   UNK d   1      23.218  78.721  16.192  0.00  0.00     0.108 C 
ATOM     10  N   UNK d   1      24.327  78.082  15.524  0.00  0.00    -0.330 N 
ATOM     11  C   UNK d   1      24.465  78.246  14.122  0.00  0.00     0.255 C 
ATOM     12  O   UNK d   1      25.571  78.175  13.527  0.00  0.00    -0.268 OA
ATOM     13  C   UNK d   1      23.044  78.155  17.562  0.00  0.00     0.074 C 
ATOM     14  C   UNK d   1      22.317  79.083  18.507  0.00  0.00     0.130 C 
ATOM     15  N   UNK d   1      21.117  79.632  17.913  0.00  0.00    -0.344 N 
ATOM     16  C   UNK d   1      21.132  80.458  16.722  0.00  0.00     0.220 C 
ATOM     17  O   UNK d   1      20.005  80.737  16.253  0.00  0.00    -0.273 OA
ATOM     18  C   UNK d   1      22.268  81.020  15.974  0.00  0.00     0.107 C 
ATOM     19  C   UNK d   1      23.512  80.207  16.173  0.00  0.00     0.063 C 
ATOM     20  H   UNK d   1      21.141  78.056  15.817  0.00  0.00     0.162 HD
ATOM     21  H   UNK d   1      25.035  77.505  16.020  0.00  0.00     0.165 HD
ENDROOT
BRANCH  15  22
ATOM     22  C   UNK d   1      19.849  79.368  18.460  0.00  0.00     0.212 C 
ATOM     23  C   UNK d   1      19.108  80.359  19.207  0.00  0.00     0.171 C 
ATOM     24  O   UNK d   1      17.923  79.882  19.592  0.00  0.00    -0.175 OA
ATOM     25  N   UNK d   1      19.427  81.649  19.565  0.00  0.00    -0.359 N 
ATOM     26  C   UNK d   1      18.437  82.434  20.347  0.00  0.00     0.144 C 
ATOM     27  C   UNK d   1      20.624  82.343  19.292  0.00  0.00     0.144 C 
ATOM     28  C   UNK d   1      19.277  83.095  21.452  0.00  0.00     0.137 C 
ATOM     29  N   UNK d   1      20.498  82.394  21.668  0.00  0.00    -0.406 N 
ATOM     30  C   UNK d   1      21.453  82.459  20.603  0.00  0.00     0.137 C 
BRANCH  29  31
ATOM     31  C   UNK d   1      21.054  82.490  22.975  0.00  0.00     0.071 C 
ATOM     32  C   UNK d   1      20.179  83.243  23.956  0.00  0.00     0.031 C 
ATOM     33  C   UNK d   1      21.428  81.160  23.569  0.00  0.00     0.031 C 
ENDBRANCH  29  31
ENDBRANCH  15  22
TORSDOF 2
ENDMDL
