MODEL 1
REMARK VINA RESULT:    -9.812      0.000      0.000
REMARK INTER + INTRA:         -13.204
REMARK INTER:                 -12.679
REMARK INTRA:                  -0.525
REMARK UNBOUND:                -0.525
REMARK  5 active torsions:
REMARK  status: ('A' for Active; 'I' for Inactive)
REMARK    1  A    between atoms: C_5  and  N_8 
REMARK    2  A    between atoms: N_15  and  C_18 
REMARK    3  A    between atoms: C_18  and  C_19 
REMARK       I    between atoms: C_19  and  N_21 
REMARK       I    between atoms: N_24  and  C_27 
REMARK    4  A    between atoms: C_27  and  O_29 
REMARK    5  A    between atoms: O_29  and  C_30 
ROOT
ATOM      1  N   UNK d   1      19.430  76.393  11.169  0.00  0.00    -0.215 N 
ATOM      2  N   UNK d   1      19.300  76.960  10.000  0.00  0.00    -0.177 NA
ATOM      3  C   UNK d   1      20.010  78.088   9.893  0.00  0.00     0.160 A 
ATOM      4  C   UNK d   1      20.658  78.268  11.107  0.00  0.00     0.099 A 
ATOM      5  C   UNK d   1      20.267  77.181  11.882  0.00  0.00     0.169 A 
ATOM      6  N   UNK d   1      20.763  77.128  13.121  0.00  0.00    -0.223 NA
ATOM      7  C   UNK d   1      21.600  78.079  13.591  0.00  0.00     0.215 A 
ATOM      8  N   UNK d   1      21.995  79.138  12.868  0.00  0.00    -0.299 N 
ATOM      9  C   UNK d   1      21.510  79.227  11.603  0.00  0.00     0.264 A 
ATOM     10  O   UNK d   1      21.851  80.203  10.888  0.00  0.00    -0.267 OA
ENDROOT
BRANCH   8  11
ATOM     11  C   UNK d   1      22.914  80.165  13.369  0.00  0.00     0.236 C 
BRANCH  11  12
ATOM     12  C   UNK d   1      23.643  79.718  14.569  0.00  0.00     0.238 C 
ATOM     13  O   UNK d   1      24.758  79.133  14.330  0.00  0.00    -0.272 OA
ATOM     14  N   UNK d   1      23.248  79.868  15.896  0.00  0.00    -0.348 N 
ATOM     15  C   UNK d   1      24.053  79.312  16.995  0.00  0.00     0.145 C 
ATOM     16  C   UNK d   1      22.060  80.591  16.292  0.00  0.00     0.145 C 
ATOM     17  C   UNK d   1      23.151  78.235  17.613  0.00  0.00     0.148 C 
ATOM     18  N   UNK d   1      21.859  78.784  17.928  0.00  0.00    -0.325 N 
ATOM     19  C   UNK d   1      21.658  80.201  17.691  0.00  0.00     0.148 C 
ATOM     20  C   UNK d   1      20.815  77.973  18.424  0.00  0.00     0.362 C 
ATOM     21  O   UNK d   1      21.053  76.715  18.553  0.00  0.00    -0.238 OA
BRANCH  20  22
ATOM     22  O   UNK d   1      19.558  78.397  18.790  0.00  0.00    -0.304 OA
BRANCH  22  23
ATOM     23  C   UNK d   1      19.331  79.015  20.072  0.00  0.00     0.176 C 
ATOM     24  C   UNK d   1      18.964  80.460  19.785  0.00  0.00     0.034 C 
ENDBRANCH  22  23
ENDBRANCH  20  22
ENDBRANCH  11  12
ENDBRANCH   8  11
BRANCH   1  25
ATOM     25  C   UNK d   1      18.834  75.183  11.610  0.00  0.00     0.060 A 
ATOM     26  C   UNK d   1      18.492  74.898  12.906  0.00  0.00     0.033 A 
ATOM     27  C   UNK d   1      17.945  73.672  13.231  0.00  0.00     0.026 A 
ATOM     28  C   UNK d   1      17.714  72.682  12.303  0.00  0.00     0.034 A 
ATOM     29 Cl   UNK d   1      17.033  71.133  12.686  0.00  0.00    -0.084 Cl
ATOM     30  C   UNK d   1      18.051  72.951  10.989  0.00  0.00     0.026 A 
ATOM     31  C   UNK d   1      18.595  74.180  10.686  0.00  0.00     0.033 A 
ENDBRANCH   1  25
TORSDOF 5
ENDMDL
