MODEL 1
REMARK VINA RESULT:   -10.182      0.000      0.000
REMARK INTER + INTRA:         -13.705
REMARK INTER:                 -13.158
REMARK INTRA:                  -0.547
REMARK UNBOUND:                -0.547
REMARK  5 active torsions:
REMARK  status: ('A' for Active; 'I' for Inactive)
REMARK    1  A    between atoms: S_1  and  N_4 
REMARK    2  A    between atoms: S_1  and  C_24 
REMARK    3  A    between atoms: N_7  and  C_10 
REMARK    4  A    between atoms: C_10  and  C_11 
REMARK    5  A    between atoms: C_11  and  N_12 
ROOT
ATOM      1  N   UNK d   1      21.867  78.311  17.231  0.00  0.00    -0.303 N 
ATOM      2  C   UNK d   1      21.847  77.423  16.098  0.00  0.00     0.165 C 
ATOM      3  C   UNK d   1      22.638  77.981  14.938  0.00  0.00     0.293 C 
ATOM      4  N   UNK d   1      22.150  79.342  14.599  0.00  0.00     0.093 N 
ATOM      5  C   UNK d   1      22.427  80.202  15.741  0.00  0.00     0.293 C 
ATOM      6  C   UNK d   1      22.734  79.427  17.011  0.00  0.00     0.165 C 
ENDROOT
BRANCH   4   7
ATOM      7  C   UNK d   1      22.983  79.737  13.483  0.00  0.00     0.293 C 
BRANCH   7   8
ATOM      8  C   UNK d   1      23.092  78.814  12.345  0.00  0.00     0.165 C 
BRANCH   8   9
ATOM      9  N   UNK d   1      22.035  78.735  11.395  0.00  0.00    -0.286 N 
ATOM     10  C   UNK d   1      20.679  78.331  11.545  0.00  0.00     0.232 C 
ATOM     11  O   UNK d   1      20.252  77.563  12.419  0.00  0.00    -0.272 OA
ATOM     12  C   UNK d   1      19.867  78.979  10.486  0.00  0.00     0.100 C 
ATOM     13  C   UNK d   1      20.924  79.104   9.364  0.00  0.00     0.100 C 
ATOM     14  C   UNK d   1      18.939  77.993   9.873  0.00  0.00     0.022 C 
ATOM     15  C   UNK d   1      20.678  77.958   8.457  0.00  0.00     0.022 C 
ATOM     16  C   UNK d   1      22.222  79.144  10.022  0.00  0.00     0.232 C 
ATOM     17  C   UNK d   1      19.967  76.957   9.383  0.00  0.00     0.018 C 
ATOM     18  C   UNK d   1      19.465  78.325   7.628  0.00  0.00    -0.025 C 
ATOM     19  C   UNK d   1      18.525  78.558   8.544  0.00  0.00    -0.025 C 
ATOM     20  O   UNK d   1      23.296  79.480   9.463  0.00  0.00    -0.272 OA
ENDBRANCH   8   9
ENDBRANCH   7   8
ENDBRANCH   4   7
BRANCH   1  21
ATOM     21  S   UNK d   1      20.397  78.598  17.991  0.00  0.00     0.260 S 
ATOM     22  O   UNK d   1      19.286  78.216  17.021  0.00  0.00    -0.200 OA
ATOM     23  O   UNK d   1      20.256  77.581  19.124  0.00  0.00    -0.200 OA
BRANCH  21  24
ATOM     24  C   UNK d   1      20.148  80.155  18.670  0.00  0.00     0.079 A 
ATOM     25  C   UNK d   1      19.978  80.314  20.024  0.00  0.00     0.026 A 
ATOM     26  C   UNK d   1      19.790  81.585  20.536  0.00  0.00     0.020 A 
ATOM     27  C   UNK d   1      19.764  82.712  19.736  0.00  0.00     0.011 A 
ATOM     28  C   UNK d   1      19.935  82.548  18.377  0.00  0.00     0.020 A 
ATOM     29 Br   UNK d   1      19.502  84.465  20.440  0.00  0.00    -0.051 Br
ATOM     30  C   UNK d   1      20.124  81.270  17.863  0.00  0.00     0.026 A 
ENDBRANCH  21  24
ENDBRANCH   1  21
TORSDOF 5
ENDMDL
