/Users/jonathanwahrer/Desktop/Msc/3_Semester/Drug_Design_Praktikum/waehrer_HTS_screening/HTS_experiment/out/docking_results/vina_output/6e43/1673_docked.pdbqt
 OpenBabel03212220433D

 35 38  0  0  1  0  0  0  0  0999 V2000
   20.9380   79.0730   18.5800 C   0  0  2  0  0  3  0  0  0  0  0  0
   21.3070   78.0750   17.5160 C   0  0  1  0  0  3  0  0  0  0  0  0
   20.1260   77.7110   16.8690 N   0  0  0  0  0  0  0  0  0  0  0  0
   19.1740   77.6230   18.0030 C   0  0  0  0  0  0  0  0  0  0  0  0
   18.1960   76.8350   18.1140 O   0  0  0  0  0  0  0  0  0  0  0  0
   19.5820   78.6280   18.9710 C   0  0  0  0  0  0  0  0  0  0  0  0
   18.8920   79.0260   19.9520 O   0  0  0  0  0  0  0  0  0  0  0  0
   22.6020   78.2500   16.9090 C   0  0  0  0  0  0  0  0  0  0  0  0
   22.8330   78.7140   15.6520 C   0  0  0  0  0  3  0  0  0  0  0  0
   24.1220   78.8650   15.1670 C   0  0  0  0  0  0  0  0  0  0  0  0
   25.2070   78.5300   15.9910 C   0  0  0  0  0  0  0  0  0  0  0  0
   24.9730   78.0640   17.2540 C   0  0  0  0  0  3  0  0  0  0  0  0
   23.7080   77.9180   17.7290 C   0  0  0  0  0  3  0  0  0  0  0  0
   26.5110   78.6610   15.5570 O   0  0  0  0  0  1  0  0  0  0  0  0
   20.9320   80.4680   18.1410 C   0  0  0  0  0  0  0  0  0  0  0  0
   21.2950   80.7540   16.9480 O   0  0  0  0  0  0  0  0  0  0  0  0
   20.5390   81.6150   18.9480 C   0  0  0  0  0  0  0  0  0  0  0  0
   20.5830   81.5890   20.3230 C   0  0  0  0  0  3  0  0  0  0  0  0
   20.1600   82.7170   21.0180 C   0  0  0  0  0  3  0  0  0  0  0  0
   19.7020   83.8570   20.4090 C   0  0  0  0  0  0  0  0  0  0  0  0
   19.1330   85.3830   21.4390 Br  0  0  0  0  0  0  0  0  0  0  0  0
   19.6570   83.8880   19.0310 C   0  0  0  0  0  3  0  0  0  0  0  0
   20.0750   82.7730   18.3430 C   0  0  0  0  0  3  0  0  0  0  0  0
   19.6200   77.3070   15.5940 C   0  0  0  0  0  2  0  0  0  0  0  0
   19.6770   75.8620   15.2680 C   0  0  0  0  0  2  0  0  0  0  0  0
   20.4820   75.3550   14.2400 N   0  0  0  0  0  4  0  0  0  0  0  0
   20.3100   73.9100   14.0390 C   0  0  0  0  0  2  0  0  0  0  0  0
   18.9310   73.5490   13.5990 C   0  0  0  0  0  2  0  0  0  0  0  0
   18.2190   74.6910   13.3120 O   0  0  0  0  0  0  0  0  0  0  0  0
   18.9470   75.4200   12.3580 C   0  0  0  0  0  2  0  0  0  0  0  0
   20.1750   76.0520   12.9780 C   0  0  0  0  0  2  0  0  0  0  0  0
   21.4740   75.5050   14.4050 H   0  0  0  0  0  0  0  0  0  0  0  0
   24.3850   79.3280   13.9180 O   0  0  0  0  0  0  0  0  0  0  0  0
   23.6370   79.0070   12.7900 C   0  0  0  0  0  2  0  0  0  0  0  0
   22.6470   80.0850   12.3860 C   0  0  0  0  0  1  0  0  0  0  0  0
  1 15  1  6  0  0  0
  1  6  1  0  0  0  0
  2  8  1  6  0  0  0
  2  1  1  0  0  0  0
  3  2  1  0  0  0  0
  3  4  1  0  0  0  0
  4  5  2  0  0  0  0
  4  6  1  0  0  0  0
  6  7  2  0  0  0  0
  8 13  1  0  0  0  0
  9  8  2  0  0  0  0
 10  9  1  0  0  0  0
 10 11  2  0  0  0  0
 11 12  1  0  0  0  0
 12 13  2  0  0  0  0
 14 11  1  0  0  0  0
 15 17  1  0  0  0  0
 16 15  2  0  0  0  0
 17 18  1  0  0  0  0
 18 19  2  0  0  0  0
 20 19  1  0  0  0  0
 20 21  1  0  0  0  0
 22 20  2  0  0  0  0
 23 17  2  0  0  0  0
 23 22  1  0  0  0  0
 24  3  1  0  0  0  0
 25 24  1  0  0  0  0
 26 32  1  0  0  0  0
 26 25  1  0  0  0  0
 27 26  1  0  0  0  0
 28 27  1  0  0  0  0
 29 28  1  0  0  0  0
 30 31  1  0  0  0  0
 30 29  1  0  0  0  0
 31 26  1  0  0  0  0
 33 10  1  0  0  0  0
 34 33  1  0  0  0  0
 35 34  1  0  0  0  0
M  END
>  <Pose>
1

>  <Score>
-8.137

$$$$
