MODEL 1
REMARK VINA RESULT:    -9.691      0.000      0.000
REMARK INTER + INTRA:         -11.497
REMARK INTER:                 -11.390
REMARK INTRA:                  -0.106
REMARK UNBOUND:                -0.106
REMARK  3 active torsions:
REMARK  status: ('A' for Active; 'I' for Inactive)
REMARK    1  A    between atoms: C_9  and  C_11 
REMARK       I    between atoms: C_11  and  N_13 
REMARK    2  A    between atoms: N_13  and  C_14 
REMARK    3  A    between atoms: C_14  and  C_15 
ROOT
ATOM      1  C   UNK d   1      20.476  81.266  17.714  0.00  0.00     0.254 C 
ATOM      2  O   UNK d   1      19.456  81.286  16.998  0.00  0.00    -0.268 OA
ATOM      3  N   UNK d   1      20.807  82.422  18.464  0.00  0.00    -0.350 N 
ATOM      4  H   UNK d   1      21.650  82.419  19.062  0.00  0.00     0.163 HD
ENDROOT
BRANCH   1   5
ATOM      5  C   UNK d   1      21.283  80.051  17.746  0.00  0.00     0.063 A 
ATOM      6  C   UNK d   1      20.742  78.918  18.328  0.00  0.00     0.098 A 
ATOM      7  C   UNK d   1      21.483  77.763  18.372  0.00  0.00     0.111 A 
ATOM      8  N   UNK d   1      19.544  78.664  18.919  0.00  0.00    -0.257 N 
ATOM      9  C   UNK d   1      22.749  77.752  17.834  0.00  0.00     0.055 A 
ATOM     10  N   UNK d   1      20.711  76.836  18.988  0.00  0.00    -0.130 NA
ATOM     11  C   UNK d   1      23.294  78.877  17.254  0.00  0.00     0.014 A 
ATOM     12 Br   UNK d   1      25.057  78.833  16.515  0.00  0.00    -0.051 Br
ATOM     13  C   UNK d   1      22.561  80.034  17.207  0.00  0.00     0.038 A 
ATOM     14  N   UNK d   1      19.566  77.416  19.297  0.00  0.00    -0.067 NA
ATOM     15  H   UNK d   1      18.813  79.400  19.003  0.00  0.00     0.191 HD
ENDBRANCH   1   5
BRANCH   3  16
ATOM     16  C   UNK d   1      19.990  83.609  18.413  0.00  0.00     0.203 C 
BRANCH  16  17
ATOM     17  C   UNK d   1      19.602  83.995  19.814  0.00  0.00     0.148 A 
ATOM     18  N   UNK d   1      19.785  83.275  20.932  0.00  0.00    -0.319 N 
ATOM     19  C   UNK d   1      19.313  83.937  22.010  0.00  0.00     0.130 A 
ATOM     20  C   UNK d   1      20.370  81.976  21.181  0.00  0.00     0.132 C 
ATOM     21  N   UNK d   1      18.827  85.095  21.546  0.00  0.00    -0.135 NA
ATOM     22  C   UNK d   1      19.453  83.249  23.322  0.00  0.00     0.081 C 
ATOM     23  N   UNK d   1      19.001  85.132  20.216  0.00  0.00    -0.133 NA
ATOM     24  C   UNK d   1      20.946  82.903  23.423  0.00  0.00     0.009 C 
ATOM     25  C   UNK d   1      21.437  82.129  22.243  0.00  0.00     0.021 C 
ENDBRANCH  16  17
ENDBRANCH   3  16
TORSDOF 3
ENDMDL
