/Users/jonathanwahrer/Desktop/Msc/3_Semester/Drug_Design_Praktikum/waehrer_HTS_screening/HTS_experiment/out/docking_results/vina_output/6e43/1687_docked.pdbqt
 OpenBabel03212220443D

 27 30  0  0  0  0  0  0  0  0999 V2000
   20.0490   76.8100   15.6570 N   0  0  0  0  0  0  0  0  0  0  0  0
   21.1980   77.2800   15.1210 C   0  0  0  0  0  2  0  0  0  0  0  0
   22.1010   78.0170   15.8550 C   0  0  0  0  0  0  0  0  0  0  0  0
   21.8230   78.3070   17.2560 C   0  0  0  0  0  0  0  0  0  0  0  0
   22.8610   79.0280   17.7040 N   0  0  0  0  0  2  0  0  0  0  0  0
   23.7560   79.2150   16.7210 N   0  0  0  0  0  0  0  0  0  0  0  0
   23.3180   78.6150   15.6040 C   0  0  0  0  0  0  0  0  0  0  0  0
   23.9380   78.6160   14.5170 O   0  0  0  0  0  0  0  0  0  0  0  0
   20.6370   77.8110   17.7720 C   0  0  0  0  0  0  0  0  0  0  0  0
   19.8180   77.0910   16.9480 C   0  0  0  0  0  3  0  0  0  0  0  0
   24.6460   79.7570   16.8670 H   0  0  0  0  0  0  0  0  0  0  0  0
   19.1140   76.0330   14.8510 C   0  0  0  0  0  2  0  0  0  0  0  0
   19.9000   74.9570   14.1350 C   0  0  0  0  0  2  0  0  0  0  0  0
   19.2130   74.4880   12.9500 N   0  0  0  0  0  0  0  0  0  0  0  0
   19.0840   75.1700   11.7920 C   0  0  0  0  0  3  0  0  0  0  0  0
   18.3890   74.4400   10.9020 N   0  0  0  0  0  0  0  0  0  0  0  0
   18.0470   73.2530   11.4740 C   0  0  0  0  0  0  0  0  0  0  0  0
   17.3460   72.1530   11.0210 C   0  0  0  0  0  3  0  0  0  0  0  0
   18.5770   73.3210   12.7470 C   0  0  0  0  0  0  0  0  0  0  0  0
   17.1600   71.0730   11.8580 C   0  0  0  0  0  0  0  0  0  0  0  0
   16.2760   69.6360   11.3490 Cl  0  0  0  0  0  0  0  0  0  0  0  0
   17.6950   71.1530   13.1300 C   0  0  0  0  0  3  0  0  0  0  0  0
   18.3960   72.2490   13.5890 C   0  0  0  0  0  3  0  0  0  0  0  0
   20.3250   78.0810   19.1710 C   0  0  0  0  0  0  0  0  0  0  0  0
   20.3570   77.1350   19.9970 O   0  0  0  0  0  0  0  0  0  0  0  0
   19.9970   79.3370   19.6070 O   0  0  0  0  0  0  0  0  0  0  0  0
   18.8690   80.0310   19.0960 C   0  0  0  0  0  1  0  0  0  0  0  0
  1 10  1  0  0  0  0
  2  1  1  0  0  0  0
  2  3  1  0  0  0  0
  3  4  2  0  0  0  0
  4  5  1  0  0  0  0
  4  9  1  0  0  0  0
  6 11  1  0  0  0  0
  6  5  1  0  0  0  0
  7  3  1  0  0  0  0
  7  6  1  0  0  0  0
  8  7  2  0  0  0  0
  9 24  1  0  0  0  0
 10  9  2  0  0  0  0
 12  1  1  0  0  0  0
 13 12  1  0  0  0  0
 14 13  1  0  0  0  0
 15 14  1  0  0  0  0
 16 17  1  0  0  0  0
 16 15  2  0  0  0  0
 17 19  1  0  0  0  0
 18 17  2  0  0  0  0
 18 20  1  0  0  0  0
 19 14  1  0  0  0  0
 19 23  2  0  0  0  0
 20 22  2  0  0  0  0
 21 20  1  0  0  0  0
 22 23  1  0  0  0  0
 24 26  1  0  0  0  0
 24 25  2  0  0  0  0
 27 26  1  0  0  0  0
M  END
>  <Pose>
1

>  <Score>
-9.242

$$$$
