MODEL 1
REMARK VINA RESULT:   -11.253      0.000      0.000
REMARK INTER + INTRA:         -14.729
REMARK INTER:                 -14.213
REMARK INTRA:                  -0.516
REMARK UNBOUND:                -0.516
REMARK  5 active torsions:
REMARK  status: ('A' for Active; 'I' for Inactive)
REMARK    1  A    between atoms: C_6  and  C_11 
REMARK    2  A    between atoms: C_11  and  C_12 
REMARK    3  A    between atoms: C_12  and  C_13 
REMARK       I    between atoms: C_13  and  N_15 
REMARK    4  A    between atoms: C_17  and  O_30 
REMARK    5  A    between atoms: C_18  and  N_21 
ROOT
ATOM      1  C   UNK d   1      21.171  77.489  13.967  0.00  0.00     0.220 C 
ATOM      2  O   UNK d   1      20.851  78.039  12.881  0.00  0.00    -0.273 OA
ATOM      3  N   UNK d   1      21.883  78.210  14.971  0.00  0.00    -0.349 N 
ATOM      4  C   UNK d   1      22.284  77.644  16.240  0.00  0.00     0.165 C 
ATOM      5  C   UNK d   1      22.161  78.695  17.357  0.00  0.00     0.091 C 
ATOM      6  C   UNK d   1      21.115  79.659  16.914  0.00  0.00     0.131 C 
ATOM      7  C   UNK d   1      21.661  80.504  15.787  0.00  0.00     0.049 C 
ATOM      8  C   UNK d   1      22.233  79.592  14.722  0.00  0.00     0.128 C 
ATOM      9  C   UNK d   1      23.525  79.276  17.558  0.00  0.00     0.050 C 
ENDROOT
BRANCH   1  10
ATOM     10  C   UNK d   1      20.820  76.083  14.229  0.00  0.00     0.110 C 
BRANCH  10  11
ATOM     11  C   UNK d   1      19.326  75.939  14.276  0.00  0.00     0.087 C 
BRANCH  11  12
ATOM     12  C   UNK d   1      18.952  74.622  13.707  0.00  0.00     0.105 A 
ATOM     13  N   UNK d   1      17.729  74.319  13.192  0.00  0.00    -0.343 N 
ATOM     14  C   UNK d   1      17.698  73.049  12.769  0.00  0.00     0.064 A 
ATOM     15  H   UNK d   1      16.935  75.015  13.148  0.00  0.00     0.167 HD
ATOM     16  C   UNK d   1      16.727  72.271  12.184  0.00  0.00     0.055 A 
ATOM     17  C   UNK d   1      18.943  72.529  13.022  0.00  0.00     0.085 A 
ATOM     18  C   UNK d   1      16.957  70.952  11.834  0.00  0.00     0.036 A 
ATOM     19 Cl   UNK d   1      15.730  69.953  11.091  0.00  0.00    -0.084 Cl
ATOM     20  C   UNK d   1      18.214  70.434  12.093  0.00  0.00     0.026 A 
ATOM     21  C   UNK d   1      19.197  71.218  12.683  0.00  0.00     0.036 A 
ATOM     22  N   UNK d   1      19.658  73.508  13.585  0.00  0.00    -0.233 NA
ENDBRANCH  11  12
ENDBRANCH  10  11
ENDBRANCH   1  10
BRANCH   5  23
ATOM     23  O   UNK d   1      21.777  77.974  18.497  0.00  0.00    -0.386 OA
ATOM     24  H   UNK d   1      21.570  77.023  18.226  0.00  0.00     0.210 HD
ENDBRANCH   5  23
BRANCH   6  25
ATOM     25  N   UNK d   1      20.489  80.418  17.939  0.00  0.00    -0.301 N 
ATOM     26  C   UNK d   1      20.830  81.678  18.245  0.00  0.00     0.108 A 
ATOM     27  C   UNK d   1      20.196  82.390  19.256  0.00  0.00     0.022 A 
ATOM     28  C   UNK d   1      19.185  81.785  19.966  0.00  0.00     0.256 A 
ATOM     29  C   UNK d   1      20.621  83.802  19.552  0.00  0.00     0.056 C 
ATOM     30  O   UNK d   1      18.602  82.433  20.890  0.00  0.00    -0.267 OA
ATOM     31  N   UNK d   1      18.847  80.525  19.658  0.00  0.00    -0.275 N 
ATOM     32  C   UNK d   1      19.491  79.879  18.671  0.00  0.00     0.329 A 
ATOM     33  H   UNK d   1      18.083  80.057  20.188  0.00  0.00     0.173 HD
ATOM     34  O   UNK d   1      19.165  78.675  18.380  0.00  0.00    -0.246 OA
ENDBRANCH   6  25
TORSDOF 5
ENDMDL
