MODEL 1
REMARK VINA RESULT:   -10.050      0.000      0.000
REMARK INTER + INTRA:         -10.050
REMARK INTER:                 -10.050
REMARK INTRA:                   0.000
REMARK UNBOUND:                 0.000
REMARK  0 active torsions:
REMARK  status: ('A' for Active; 'I' for Inactive)
ROOT
ATOM      1  F   UNK d   1      25.235  77.225  14.410  0.00  0.00    -0.202 F 
ATOM      2  C   UNK d   1      24.608  77.792  15.494  0.00  0.00     0.165 A 
ATOM      3  C   UNK d   1      23.222  77.641  15.621  0.00  0.00     0.086 A 
ATOM      4  C   UNK d   1      22.582  78.195  16.688  0.00  0.00     0.030 A 
ATOM      5  C   UNK d   1      23.305  78.912  17.651  0.00  0.00     0.016 A 
ATOM      6  C   UNK d   1      24.658  79.045  17.502  0.00  0.00     0.028 A 
ATOM      7  C   UNK d   1      25.324  78.494  16.433  0.00  0.00     0.074 A 
ATOM      8 Cl   UNK d   1      27.074  78.668  16.246  0.00  0.00    -0.081 Cl
ATOM      9  C   UNK d   1      21.131  77.888  16.583  0.00  0.00     0.222 A 
ATOM     10  N   UNK d   1      20.391  79.110  16.538  0.00  0.00    -0.336 N 
ATOM     11  C   UNK d   1      19.981  79.758  17.722  0.00  0.00     0.141 A 
ATOM     12  N   UNK d   1      19.581  81.056  17.732  0.00  0.00    -0.243 NA
ATOM     13  C   UNK d   1      19.184  81.716  18.824  0.00  0.00     0.119 A 
ATOM     14  C   UNK d   1      19.168  81.054  20.047  0.00  0.00     0.020 A 
ATOM     15  C   UNK d   1      19.557  79.746  20.124  0.00  0.00     0.022 A 
ATOM     16  C   UNK d   1      19.954  79.128  18.958  0.00  0.00     0.077 A 
ATOM     17  C   UNK d   1      20.388  77.728  18.933  0.00  0.00     0.258 C 
ATOM     18  O   UNK d   1      20.380  77.107  20.051  0.00  0.00    -0.267 OA
ATOM     19  N   UNK d   1      20.795  77.089  17.748  0.00  0.00    -0.318 N 
ATOM     20  C   UNK d   1      21.010  77.105  15.348  0.00  0.00     0.277 A 
ATOM     21  O   UNK d   1      19.935  76.614  14.842  0.00  0.00    -0.268 OA
ATOM     22  N   UNK d   1      22.284  76.961  14.776  0.00  0.00    -0.320 N 
ATOM     23  H   UNK d   1      20.133  79.557  15.624  0.00  0.00     0.164 HD
ATOM     24  H   UNK d   1      20.841  76.044  17.755  0.00  0.00     0.166 HD
ATOM     25  H   UNK d   1      22.566  76.460  13.892  0.00  0.00     0.169 HD
ENDROOT
TORSDOF 0
ENDMDL
