/Users/jonathanwahrer/Desktop/Msc/3_Semester/Drug_Design_Praktikum/waehrer_HTS_screening/HTS_experiment/out/docking_results/vina_output/6e43/1706_docked.pdbqt
 OpenBabel03212220453D

 25 28  0  0  1  0  0  0  0  0999 V2000
   25.2350   77.2250   14.4100 F   0  0  0  0  0  0  0  0  0  0  0  0
   24.6080   77.7920   15.4940 C   0  0  0  0  0  0  0  0  0  0  0  0
   23.2220   77.6410   15.6210 C   0  0  0  0  0  0  0  0  0  0  0  0
   22.5820   78.1950   16.6880 C   0  0  0  0  0  0  0  0  0  0  0  0
   23.3050   78.9120   17.6510 C   0  0  0  0  0  3  0  0  0  0  0  0
   24.6580   79.0450   17.5020 C   0  0  0  0  0  3  0  0  0  0  0  0
   25.3240   78.4940   16.4330 C   0  0  0  0  0  0  0  0  0  0  0  0
   27.0740   78.6680   16.2460 Cl  0  0  0  0  0  0  0  0  0  0  0  0
   21.1310   77.8880   16.5830 C   0  0  2  0  0  0  0  0  0  0  0  0
   20.3910   79.1100   16.5380 N   0  0  0  0  0  0  0  0  0  0  0  0
   19.9810   79.7580   17.7220 C   0  0  0  0  0  0  0  0  0  0  0  0
   19.5810   81.0560   17.7320 N   0  0  0  0  0  0  0  0  0  0  0  0
   19.1840   81.7160   18.8240 C   0  0  0  0  0  3  0  0  0  0  0  0
   19.1680   81.0540   20.0470 C   0  0  0  0  0  3  0  0  0  0  0  0
   19.5570   79.7460   20.1240 C   0  0  0  0  0  3  0  0  0  0  0  0
   19.9540   79.1280   18.9580 C   0  0  0  0  0  0  0  0  0  0  0  0
   20.3880   77.7280   18.9330 C   0  0  0  0  0  0  0  0  0  0  0  0
   20.3800   77.1070   20.0510 O   0  0  0  0  0  0  0  0  0  0  0  0
   20.7950   77.0890   17.7480 N   0  0  0  0  0  0  0  0  0  0  0  0
   21.0100   77.1050   15.3480 C   0  0  0  0  0  0  0  0  0  0  0  0
   19.9350   76.6140   14.8420 O   0  0  0  0  0  0  0  0  0  0  0  0
   22.2840   76.9610   14.7760 N   0  0  0  0  0  0  0  0  0  0  0  0
   20.1330   79.5570   15.6240 H   0  0  0  0  0  0  0  0  0  0  0  0
   20.8410   76.0440   17.7550 H   0  0  0  0  0  0  0  0  0  0  0  0
   22.5660   76.4600   13.8920 H   0  0  0  0  0  0  0  0  0  0  0  0
  1  2  1  0  0  0  0
  2  3  2  0  0  0  0
  2  7  1  0  0  0  0
  3  4  1  0  0  0  0
  4  5  2  0  0  0  0
  6  5  1  0  0  0  0
  7  6  2  0  0  0  0
  8  7  1  0  0  0  0
  9 20  1  6  0  0  0
  9  4  1  0  0  0  0
  9 19  1  0  0  0  0
 10  9  1  0  0  0  0
 10 11  1  0  0  0  0
 11 12  2  0  0  0  0
 11 16  1  0  0  0  0
 12 13  1  0  0  0  0
 13 14  2  0  0  0  0
 14 15  1  0  0  0  0
 16 15  2  0  0  0  0
 17 16  1  0  0  0  0
 17 18  2  0  0  0  0
 19 24  1  0  0  0  0
 19 17  1  0  0  0  0
 21 20  2  0  0  0  0
 22 20  1  0  0  0  0
 22  3  1  0  0  0  0
 23 10  1  0  0  0  0
 25 22  1  0  0  0  0
M  END
>  <Pose>
1

>  <Score>
-10.050

$$$$
