MODEL 1
REMARK VINA RESULT:   -10.792      0.000      0.000
REMARK INTER + INTRA:         -13.621
REMARK INTER:                 -13.316
REMARK INTRA:                  -0.305
REMARK UNBOUND:                -0.305
REMARK  4 active torsions:
REMARK  status: ('A' for Active; 'I' for Inactive)
REMARK    1  A    between atoms: S_1  and  N_4 
REMARK    2  A    between atoms: S_1  and  C_24 
REMARK       I    between atoms: N_7  and  C_10 
REMARK    3  A    between atoms: C_10  and  C_12 
REMARK    4  A    between atoms: C_12  and  N_13 
ROOT
ATOM      1  N   UNK d   1      22.787  77.714  14.017  0.00  0.00    -0.304 N 
ATOM      2  C   UNK d   1      23.760  77.845  15.044  0.00  0.00     0.155 C 
ATOM      3  C   UNK d   1      23.224  77.538  16.419  0.00  0.00     0.146 C 
ATOM      4  N   UNK d   1      21.838  77.901  16.565  0.00  0.00    -0.348 N 
ATOM      5  C   UNK d   1      20.887  77.466  15.571  0.00  0.00     0.146 C 
ATOM      6  C   UNK d   1      21.637  76.967  14.376  0.00  0.00     0.155 C 
ATOM      7  C   UNK d   1      21.369  78.674  17.655  0.00  0.00     0.238 C 
ATOM      8  O   UNK d   1      22.184  79.053  18.518  0.00  0.00    -0.272 OA
ENDROOT
BRANCH   7   9
ATOM      9  C   UNK d   1      19.943  79.042  17.799  0.00  0.00     0.238 C 
BRANCH   9  10
ATOM     10  N   UNK d   1      19.797  80.316  18.439  0.00  0.00    -0.271 N 
ATOM     11  C   UNK d   1      19.082  80.665  19.617  0.00  0.00     0.262 A 
ATOM     12  O   UNK d   1      18.433  79.852  20.311  0.00  0.00    -0.267 OA
ATOM     13  C   UNK d   1      19.245  82.090  19.848  0.00  0.00     0.048 A 
ATOM     14  C   UNK d   1      20.034  82.618  18.854  0.00  0.00     0.048 A 
ATOM     15  C   UNK d   1      18.771  82.923  20.830  0.00  0.00     0.018 A 
ATOM     16  C   UNK d   1      20.330  83.975  18.866  0.00  0.00     0.018 A 
ATOM     17  C   UNK d   1      20.393  81.526  17.958  0.00  0.00     0.262 A 
ATOM     18  C   UNK d   1      19.855  84.803  19.846  0.00  0.00     0.001 A 
ATOM     19  C   UNK d   1      19.054  84.281  20.861  0.00  0.00     0.001 A 
ATOM     20  O   UNK d   1      21.116  81.696  16.942  0.00  0.00    -0.267 OA
ENDBRANCH   9  10
ENDBRANCH   7   9
BRANCH   1  21
ATOM     21  S   UNK d   1      22.570  79.037  13.007  0.00  0.00     0.260 S 
ATOM     22  O   UNK d   1      21.909  80.153  13.804  0.00  0.00    -0.200 OA
ATOM     23  O   UNK d   1      23.934  79.580  12.627  0.00  0.00    -0.200 OA
BRANCH  21  24
ATOM     24  C   UNK d   1      21.705  78.734  11.549  0.00  0.00     0.079 A 
ATOM     25  C   UNK d   1      20.378  78.341  11.604  0.00  0.00     0.026 A 
ATOM     26  C   UNK d   1      19.638  78.086  10.467  0.00  0.00     0.020 A 
ATOM     27  C   UNK d   1      20.263  78.235   9.242  0.00  0.00     0.011 A 
ATOM     28  C   UNK d   1      21.585  78.627   9.202  0.00  0.00     0.020 A 
ATOM     29 Br   UNK d   1      19.289  77.896   7.615  0.00  0.00    -0.051 Br
ATOM     30  C   UNK d   1      22.336  78.885  10.330  0.00  0.00     0.026 A 
ENDBRANCH  21  24
ENDBRANCH   1  21
TORSDOF 4
ENDMDL
