/Users/jonathanwahrer/Desktop/Msc/3_Semester/Drug_Design_Praktikum/waehrer_HTS_screening/HTS_experiment/out/docking_results/vina_output/6e43/1718_docked.pdbqt
 OpenBabel03212220453D

 34 38  0  0  1  0  0  0  0  0999 V2000
   18.6370   74.3230   13.6780 Cl  0  0  0  0  0  0  0  0  0  0  0  0
   19.5530   75.7980   13.4640 C   0  0  0  0  0  0  0  0  0  0  0  0
   20.1490   76.3470   14.6000 C   0  0  0  0  0  0  0  0  0  0  0  0
   20.8780   77.5090   14.4730 C   0  0  0  0  0  0  0  0  0  0  0  0
   20.9840   78.0810   13.2040 C   0  0  0  0  0  3  0  0  0  0  0  0
   20.3910   77.5320   12.0880 C   0  0  0  0  0  3  0  0  0  0  0  0
   19.6610   76.3680   12.2160 C   0  0  0  0  0  3  0  0  0  0  0  0
   21.4190   77.9260   15.7660 C   0  0  1  0  0  0  0  0  0  0  0  0
   22.8640   78.0630   15.7570 N   0  0  0  0  0  0  0  0  0  0  0  0
   23.1700   78.9480   16.8730 C   0  0  2  0  0  3  0  0  0  0  0  0
   22.0180   79.9090   16.9770 C   0  0  1  0  0  3  0  0  0  0  0  0
   20.8790   79.2600   16.2310 C   0  0  2  0  0  3  0  0  0  0  0  0
   19.7870   79.0930   17.2230 C   0  0  0  0  0  0  0  0  0  0  0  0
   18.7340   78.4530   16.9460 O   0  0  0  0  0  0  0  0  0  0  0  0
   20.1420   79.7420   18.4320 N   0  0  0  0  0  0  0  0  0  0  0  0
   21.5470   79.9410   18.4040 C   0  0  0  0  0  0  0  0  0  0  0  0
   22.3350   80.1210   19.3760 O   0  0  0  0  0  0  0  0  0  0  0  0
   20.9580   76.8980   16.7120 C   0  0  0  0  0  0  0  0  0  0  0  0
   21.1930   76.8360   17.9740 O   0  0  0  0  0  0  0  0  0  0  0  0
   20.1930   75.9650   15.9690 N   0  0  0  0  0  0  0  0  0  0  0  0
   23.2140   78.4520   14.8530 H   0  0  0  0  0  0  0  0  0  0  0  0
   19.7180   75.1080   16.3620 H   0  0  0  0  0  0  0  0  0  0  0  0
   24.4720   79.6430   16.6010 C   0  0  0  0  0  2  0  0  0  0  0  0
   25.5630   78.6520   16.8670 C   0  0  0  0  0  0  0  0  0  0  0  0
   25.2100   77.5390   17.3350 O   0  0  0  0  0  0  0  0  0  0  0  0
   26.9290   78.9330   16.6130 N   0  0  0  0  0  0  0  0  0  0  0  0
   27.2490   78.9460   15.6240 H   0  0  0  0  0  0  0  0  0  0  0  0
   27.6320   79.1280   17.3520 H   0  0  0  0  0  0  0  0  0  0  0  0
   19.2580   80.1240   19.4730 C   0  0  0  0  0  2  0  0  0  0  0  0
   19.2820   81.5380   19.8980 C   0  0  2  0  0  3  0  0  0  0  0  0
   19.6880   82.4420   18.9290 O   0  0  0  0  0  0  0  0  0  0  0  0
   19.4950   83.6530   19.5950 C   0  0  0  0  0  2  0  0  0  0  0  0
   20.0840   83.4270   20.9930 C   0  0  0  0  0  2  0  0  0  0  0  0
   20.1350   81.8920   21.0600 C   0  0  0  0  0  2  0  0  0  0  0  0
  2  1  1  0  0  0  0
  2  3  1  0  0  0  0
  3 20  1  0  0  0  0
  4  3  2  0  0  0  0
  5  4  1  0  0  0  0
  6  7  1  0  0  0  0
  6  5  2  0  0  0  0
  7  2  2  0  0  0  0
  8  4  1  6  0  0  0
  8 12  1  0  0  0  0
  8 18  1  0  0  0  0
  9  8  1  0  0  0  0
  9 10  1  0  0  0  0
 10 23  1  6  0  0  0
 10 11  1  0  0  0  0
 11 16  1  1  0  0  0
 12 11  1  0  0  0  0
 12 13  1  1  0  0  0
 13 15  1  0  0  0  0
 14 13  2  0  0  0  0
 15 29  1  0  0  0  0
 16 15  1  0  0  0  0
 16 17  2  0  0  0  0
 18 19  2  0  0  0  0
 20 22  1  0  0  0  0
 20 18  1  0  0  0  0
 21  9  1  0  0  0  0
 23 24  1  0  0  0  0
 24 25  2  0  0  0  0
 26 24  1  0  0  0  0
 26 28  1  0  0  0  0
 27 26  1  0  0  0  0
 30 29  1  6  0  0  0
 30 34  1  0  0  0  0
 31 32  1  0  0  0  0
 31 30  1  0  0  0  0
 32 33  1  0  0  0  0
 33 34  1  0  0  0  0
M  END
>  <Pose>
1

>  <Score>
-8.505

$$$$
