MODEL 1
REMARK VINA RESULT:    -9.539      0.000      0.000
REMARK INTER + INTRA:         -12.629
REMARK INTER:                 -11.770
REMARK INTRA:                  -0.859
REMARK UNBOUND:                -0.859
REMARK  4 active torsions:
REMARK  status: ('A' for Active; 'I' for Inactive)
REMARK    1  A    between atoms: C_9  and  N_11 
REMARK    2  A    between atoms: N_11  and  C_12 
REMARK    3  A    between atoms: C_12  and  C_13 
REMARK       I    between atoms: C_13  and  N_15 
REMARK    4  A    between atoms: N_18  and  C_21 
ROOT
ATOM      1  C   UNK d   1      23.028  78.410  17.604  0.00  0.00     0.208 C 
ENDROOT
BRANCH   1   2
ATOM      2  N   UNK d   1      23.294  77.596  16.478  0.00  0.00    -0.365 N 
ATOM      3  H   UNK d   1      24.093  76.957  16.464  0.00  0.00     0.161 HD
BRANCH   2   4
ATOM      4  C   UNK d   1      22.427  77.679  15.322  0.00  0.00     0.158 A 
ATOM      5  C   UNK d   1      22.608  78.757  14.490  0.00  0.00     0.128 A 
ATOM      6  C   UNK d   1      21.792  78.875  13.368  0.00  0.00     0.184 A 
ATOM      7  N   UNK d   1      23.419  79.825  14.446  0.00  0.00    -0.345 N 
ATOM      8  N   UNK d   1      20.883  77.911  13.190  0.00  0.00    -0.196 NA
ATOM      9  N   UNK d   1      22.147  79.992  12.712  0.00  0.00    -0.222 NA
ATOM     10  C   UNK d   1      20.701  76.867  13.987  0.00  0.00     0.227 A 
ATOM     11 Cl   UNK d   1      19.479  75.666  13.658  0.00  0.00    -0.041 Cl
ATOM     12  N   UNK d   1      21.492  76.751  15.077  0.00  0.00    -0.198 NA
ATOM     13  C   UNK d   1      23.155  80.590  13.370  0.00  0.00     0.210 A 
ATOM     14  H   UNK d   1      24.152  79.992  15.186  0.00  0.00     0.167 HD
ENDBRANCH   2   4
ENDBRANCH   1   2
BRANCH   1  15
ATOM     15  C   UNK d   1      21.664  78.386  18.108  0.00  0.00     0.171 C 
ATOM     16  O   UNK d   1      21.432  77.324  18.910  0.00  0.00    -0.175 OA
ATOM     17  N   UNK d   1      20.601  79.225  17.918  0.00  0.00    -0.358 N 
ATOM     18  C   UNK d   1      20.505  80.350  17.052  0.00  0.00     0.144 C 
ATOM     19  C   UNK d   1      19.375  78.931  18.754  0.00  0.00     0.144 C 
ATOM     20  C   UNK d   1      20.316  81.650  17.830  0.00  0.00     0.144 C 
ATOM     21  N   UNK d   1      19.589  81.286  19.013  0.00  0.00    -0.363 N 
ATOM     22  C   UNK d   1      18.606  80.248  18.900  0.00  0.00     0.144 C 
BRANCH  21  23
ATOM     23  C   UNK d   1      19.804  81.905  20.257  0.00  0.00     0.125 A 
ATOM     24  N   UNK d   1      18.914  82.798  20.780  0.00  0.00    -0.244 NA
ATOM     25  C   UNK d   1      19.056  83.414  21.939  0.00  0.00     0.119 A 
ATOM     26  C   UNK d   1      20.146  83.201  22.736  0.00  0.00     0.019 A 
ATOM     27  C   UNK d   1      21.092  82.303  22.263  0.00  0.00     0.005 A 
ATOM     28  C   UNK d   1      20.921  81.667  21.043  0.00  0.00     0.050 A 
ENDBRANCH  21  23
ENDBRANCH   1  15
TORSDOF 4
ENDMDL
