MODEL 1
REMARK VINA RESULT:    -9.308      0.000      0.000
REMARK INTER + INTRA:         -13.099
REMARK INTER:                 -12.301
REMARK INTRA:                  -0.798
REMARK UNBOUND:                -0.798
REMARK  6 active torsions:
REMARK  status: ('A' for Active; 'I' for Inactive)
REMARK    1  A    between atoms: C_3  and  O_10 
REMARK    2  A    between atoms: O_10  and  C_11 
REMARK    3  A    between atoms: C_11  and  C_12 
REMARK    4  A    between atoms: C_12  and  O_13 
REMARK    5  A    between atoms: C_12  and  C_14 
REMARK    6  A    between atoms: C_14  and  N_15 
ROOT
ATOM      1  N   UNK d   1      21.349  79.301  17.397  0.00  0.00    -0.068 N 
ATOM      2  C   UNK d   1      20.673  78.583  18.425  0.00  0.00     0.241 C 
ATOM      3  C   UNK d   1      19.772  79.404  19.292  0.00  0.00     0.031 C 
ATOM      4  C   UNK d   1      20.480  80.298  20.247  0.00  0.00     0.138 C 
ATOM      5  N   UNK d   1      20.324  81.703  19.992  0.00  0.00    -0.317 N 
ATOM      6  C   UNK d   1      19.999  82.232  18.797  0.00  0.00     0.020 A 
ATOM      7  C   UNK d   1      19.851  83.567  18.554  0.00  0.00     0.026 A 
ATOM      8  C   UNK d   1      20.043  84.454  19.594  0.00  0.00     0.007 A 
ATOM      9  C   UNK d   1      20.374  83.922  20.818  0.00  0.00     0.074 A 
ATOM     10  C   UNK d   1      20.515  82.571  21.027  0.00  0.00     0.247 A 
ATOM     11  O   UNK d   1      20.820  82.121  22.162  0.00  0.00    -0.268 OA
ATOM     12  C   UNK d   1      19.805  81.208  17.702  0.00  0.00     0.062 C 
ATOM     13  C   UNK d   1      21.145  80.697  17.345  0.00  0.00     0.245 C 
ATOM     14  C   UNK d   1      18.882  80.186  18.318  0.00  0.00     0.020 C 
ATOM     15  H   UNK d   1      21.030  78.895  16.465  0.00  0.00     0.280 HD
ENDROOT
BRANCH   1  16
ATOM     16  C   UNK d   1      22.756  78.961  17.489  0.00  0.00     0.268 C 
BRANCH  16  17
ATOM     17  C   UNK d   1      23.071  77.565  17.056  0.00  0.00     0.168 C 
BRANCH  17  18
ATOM     18  C   UNK d   1      23.168  77.592  15.531  0.00  0.00     0.209 C 
BRANCH  18  19
ATOM     19  O   UNK d   1      21.935  78.052  15.060  0.00  0.00    -0.346 OA
BRANCH  19  20
ATOM     20  C   UNK d   1      21.583  78.330  13.782  0.00  0.00     0.103 A 
ATOM     21  C   UNK d   1      20.730  77.495  13.097  0.00  0.00     0.046 A 
ATOM     22 Br   UNK d   1      20.062  75.951  13.991  0.00  0.00    -0.048 Br
ATOM     23  C   UNK d   1      20.346  77.746  11.781  0.00  0.00     0.028 A 
ATOM     24  C   UNK d   1      20.825  78.851  11.141  0.00  0.00    -0.059 A 
ATOM     25  C   UNK d   1      21.684  79.709  11.800  0.00  0.00     0.028 A 
ATOM     26  C   UNK d   1      20.409  79.115   9.728  0.00  0.00     0.048 C 
ATOM     27  C   UNK d   1      22.058  79.442  13.121  0.00  0.00     0.046 A 
ATOM     28 Br   UNK d   1      23.240  80.617  14.039  0.00  0.00    -0.048 Br
ENDBRANCH  19  20
ENDBRANCH  18  19
ENDBRANCH  17  18
BRANCH  17  29
ATOM     29  O   UNK d   1      24.270  77.150  17.633  0.00  0.00    -0.392 OA
ATOM     30  H   UNK d   1      24.981  77.349  16.959  0.00  0.00     0.210 HD
ENDBRANCH  17  29
ENDBRANCH  16  17
ENDBRANCH   1  16
TORSDOF 6
ENDMDL
