/Users/jonathanwahrer/Desktop/Msc/3_Semester/Drug_Design_Praktikum/waehrer_HTS_screening/HTS_experiment/out/docking_results/vina_output/6e43/1741_docked.pdbqt
 OpenBabel03212220463D

 28 31  0  0  0  0  0  0  0  0999 V2000
   21.0880   77.6190   17.6630 C   0  0  0  0  0  0  0  0  0  0  0  0
   22.0230   77.1490   18.3410 O   0  0  0  0  0  0  0  0  0  0  0  0
   19.9980   78.2370   18.2910 N   0  0  0  0  0  0  0  0  0  0  0  0
   19.8820   78.3780   19.7260 C   0  0  0  0  0  2  0  0  0  0  0  0
   19.6060   79.8460   20.0040 C   0  0  0  0  0  2  0  0  0  0  0  0
   19.7110   80.6250   18.8410 N   0  0  0  0  0  0  0  0  0  0  0  0
   18.9340   80.3160   17.7130 C   0  0  0  0  0  2  0  0  0  0  0  0
   18.8730   78.8030   17.5300 C   0  0  0  0  0  2  0  0  0  0  0  0
   21.1580   77.5070   16.1660 C   0  0  0  0  0  2  0  0  0  0  0  0
   21.8070   78.6560   15.5710 N   0  0  0  0  0  0  0  0  0  0  0  0
   21.8890   78.9100   14.2340 C   0  0  0  0  0  0  0  0  0  0  0  0
   22.5760   80.0810   14.0110 C   0  0  0  0  0  0  0  0  0  0  0  0
   21.4040   78.1940   13.1640 C   0  0  0  0  0  3  0  0  0  0  0  0
   22.8000   80.5710   12.7290 C   0  0  0  0  0  3  0  0  0  0  0  0
   22.9340   80.5730   15.2470 C   0  0  0  0  0  3  0  0  0  0  0  0
   22.3110   79.8480   11.6380 C   0  0  0  0  0  0  0  0  0  0  0  0
   22.6020   80.4970    9.8570 Br  0  0  0  0  0  0  0  0  0  0  0  0
   21.6250   78.6770   11.8790 C   0  0  0  0  0  3  0  0  0  0  0  0
   22.4440   79.6710   16.1690 C   0  0  0  0  0  3  0  0  0  0  0  0
   20.7140   81.6030   18.7470 C   0  0  0  0  0  2  0  0  0  0  0  0
   20.2350   82.9970   18.9390 C   0  0  0  0  0  0  0  0  0  0  0  0
   19.9650   83.6460   17.8970 O   0  0  0  0  0  0  0  0  0  0  0  0
   20.0750   83.6030   20.1940 N   0  0  0  0  0  0  0  0  0  0  0  0
   19.6100   84.9720   20.2920 C   0  0  0  0  0  2  0  0  0  0  0  0
   20.3500   82.9420   21.4540 C   0  0  0  0  0  2  0  0  0  0  0  0
   18.4100   84.9700   21.2160 C   0  0  0  0  0  2  0  0  0  0  0  0
   18.9080   84.6030   22.4750 O   0  0  0  0  0  0  0  0  0  0  0  0
   19.3420   83.3000   22.4900 C   0  0  0  0  0  2  0  0  0  0  0  0
  1  3  1  0  0  0  0
  1  2  2  0  0  0  0
  3  4  1  0  0  0  0
  4  5  1  0  0  0  0
  6  5  1  0  0  0  0
  7  6  1  0  0  0  0
  8  7  1  0  0  0  0
  8  3  1  0  0  0  0
  9  1  1  0  0  0  0
 10  9  1  0  0  0  0
 10 19  1  0  0  0  0
 11 10  1  0  0  0  0
 12 11  1  0  0  0  0
 12 15  1  0  0  0  0
 13 11  2  0  0  0  0
 14 12  2  0  0  0  0
 15 19  2  0  0  0  0
 16 18  2  0  0  0  0
 16 14  1  0  0  0  0
 17 16  1  0  0  0  0
 18 13  1  0  0  0  0
 20  6  1  0  0  0  0
 20 21  1  0  0  0  0
 21 23  1  0  0  0  0
 22 21  2  0  0  0  0
 23 24  1  0  0  0  0
 23 25  1  0  0  0  0
 24 26  1  0  0  0  0
 25 28  1  0  0  0  0
 26 27  1  0  0  0  0
 27 28  1  0  0  0  0
M  END
>  <Pose>
1

>  <Score>
-9.602

$$$$
