MODEL 1
REMARK VINA RESULT:    -9.961      0.000      0.000
REMARK INTER + INTRA:         -13.038
REMARK INTER:                 -12.581
REMARK INTRA:                  -0.457
REMARK UNBOUND:                -0.457
REMARK  5 active torsions:
REMARK  status: ('A' for Active; 'I' for Inactive)
REMARK    1  A    between atoms: C_4  and  N_8 
REMARK    2  A    between atoms: C_14  and  C_17 
REMARK    3  A    between atoms: C_19  and  C_22 
REMARK    4  A    between atoms: C_24  and  O_29 
REMARK    5  A    between atoms: C_25  and  O_28 
ROOT
ATOM      1  N   UNK d   1      23.003  78.660  14.300  0.00  0.00    -0.233 N 
ATOM      2  C   UNK d   1      23.570  77.555  14.985  0.00  0.00     0.336 C 
ATOM      3  O   UNK d   1      23.492  76.405  14.534  0.00  0.00    -0.246 OA
ATOM      4  N   UNK d   1      24.250  77.759  16.232  0.00  0.00    -0.277 N 
ATOM      5  C   UNK d   1      24.371  79.062  16.798  0.00  0.00     0.244 C 
ATOM      6  O   UNK d   1      25.271  79.356  17.604  0.00  0.00    -0.272 OA
ATOM      7  C   UNK d   1      23.366  80.109  16.397  0.00  0.00     0.221 C 
ATOM      8  C   UNK d   1      23.162  79.944  14.942  0.00  0.00     0.251 C 
ATOM      9  O   UNK d   1      23.117  80.962  14.162  0.00  0.00    -0.271 OA
ATOM     10  H   UNK d   1      24.653  76.944  16.713  0.00  0.00     0.173 HD
ENDROOT
BRANCH   7  11
ATOM     11  C   UNK d   1      22.115  79.918  17.190  0.00  0.00     0.041 C 
ATOM     12  C   UNK d   1      21.952  79.318  18.352  0.00  0.00     0.026 C 
ATOM     13  C   UNK d   1      20.513  79.391  18.727  0.00  0.00     0.134 C 
ATOM     14  N   UNK d   1      19.891  79.552  17.388  0.00  0.00    -0.228 NA
ATOM     15  N   UNK d   1      20.829  80.372  16.748  0.00  0.00    -0.323 N 
ATOM     16  H   UNK d   1      19.791  78.624  16.933  0.00  0.00     0.147 HD
ATOM     17  H   UNK d   1      20.661  81.136  16.101  0.00  0.00     0.180 HD
BRANCH  13  18
ATOM     18  C   UNK d   1      20.262  80.673  19.440  0.00  0.00    -0.032 A 
ATOM     19  C   UNK d   1      20.979  81.021  20.605  0.00  0.00     0.048 A 
ATOM     20  C   UNK d   1      20.809  82.195  21.270  0.00  0.00     0.101 A 
ATOM     21  C   UNK d   1      19.891  83.116  20.800  0.00  0.00     0.099 A 
ATOM     22  C   UNK d   1      19.173  82.809  19.667  0.00  0.00     0.040 A 
ATOM     23  C   UNK d   1      19.356  81.616  19.004  0.00  0.00     0.012 A 
BRANCH  20  24
ATOM     24  O   UNK d   1      21.545  82.489  22.426  0.00  0.00    -0.353 OA
ATOM     25  C   UNK d   1      21.010  82.164  23.691  0.00  0.00     0.210 C 
ENDBRANCH  20  24
BRANCH  21  26
ATOM     26  O   UNK d   1      19.705  84.322  21.467  0.00  0.00    -0.358 OA
ATOM     27  H   UNK d   1      20.491  84.746  21.941  0.00  0.00     0.217 HD
ENDBRANCH  21  26
ENDBRANCH  13  18
ENDBRANCH   7  11
BRANCH   1  28
ATOM     28  C   UNK d   1      22.340  78.579  13.046  0.00  0.00     0.048 A 
ATOM     29  C   UNK d   1      23.079  78.889  11.898  0.00  0.00     0.054 A 
ATOM     30  C   UNK d   1      22.525  78.854  10.638  0.00  0.00     0.036 A 
ATOM     31 Cl   UNK d   1      23.522  79.261   9.268  0.00  0.00    -0.084 Cl
ATOM     32  C   UNK d   1      21.212  78.512  10.448  0.00  0.00     0.024 A 
ATOM     33  C   UNK d   1      20.466  78.199  11.587  0.00  0.00     0.004 A 
ATOM     34  C   UNK d   1      21.028  78.237  12.845  0.00  0.00     0.030 A 
ENDBRANCH   1  28
TORSDOF 5
ENDMDL
