MODEL 1
REMARK VINA RESULT:    -9.381      0.000      0.000
REMARK INTER + INTRA:         -10.843
REMARK INTER:                 -11.026
REMARK INTRA:                   0.183
REMARK UNBOUND:                 0.183
REMARK  3 active torsions:
REMARK  status: ('A' for Active; 'I' for Inactive)
REMARK    1  A    between atoms: S_1  and  N_4 
REMARK    2  A    between atoms: S_1  and  N_22 
REMARK       I    between atoms: N_7  and  C_10 
REMARK    3  A    between atoms: C_10  and  C_12 
ROOT
ATOM      1  N   UNK d   1      20.913  79.447  18.651  0.00  0.00    -0.295 N 
ATOM      2  C   UNK d   1      22.100  79.553  17.861  0.00  0.00     0.156 C 
ATOM      3  C   UNK d   1      21.906  79.044  16.445  0.00  0.00     0.147 C 
ATOM      4  N   UNK d   1      21.261  77.759  16.494  0.00  0.00    -0.344 N 
ATOM      5  C   UNK d   1      21.047  77.153  17.793  0.00  0.00     0.147 C 
ATOM      6  C   UNK d   1      20.303  78.160  18.643  0.00  0.00     0.156 C 
ATOM      7  C   UNK d   1      20.829  77.066  15.328  0.00  0.00     0.274 C 
ATOM      8  O   UNK d   1      20.268  75.948  15.398  0.00  0.00    -0.266 OA
ENDROOT
BRANCH   7   9
ATOM      9  C   UNK d   1      21.030  77.646  13.998  0.00  0.00     0.142 A 
ATOM     10  N   UNK d   1      20.257  77.432  12.898  0.00  0.00    -0.224 NA
ATOM     11  C   UNK d   1      20.756  78.135  11.870  0.00  0.00     0.134 A 
ATOM     12  N   UNK d   1      21.831  78.782  12.321  0.00  0.00    -0.313 N 
ATOM     13  C   UNK d   1      20.373  78.281  10.546  0.00  0.00     0.052 A 
ATOM     14  C   UNK d   1      22.020  78.501  13.617  0.00  0.00     0.135 A 
ATOM     15  C   UNK d   1      22.520  79.567  11.469  0.00  0.00     0.122 A 
ATOM     16  C   UNK d   1      22.187  79.747  10.155  0.00  0.00     0.050 A 
ATOM     17  C   UNK d   1      21.069  79.080   9.667  0.00  0.00     0.029 A 
ATOM     18 Cl   UNK d   1      23.111  80.781   9.071  0.00  0.00    -0.083 Cl
ENDBRANCH   7   9
BRANCH   1  19
ATOM     19  S   UNK d   1      19.842  80.750  18.541  0.00  0.00     0.301 S 
ATOM     20  O   UNK d   1      20.260  81.663  17.435  0.00  0.00    -0.188 OA
ATOM     21  O   UNK d   1      18.472  80.219  18.227  0.00  0.00    -0.188 OA
BRANCH  19  22
ATOM     22  N   UNK d   1      19.716  81.671  19.986  0.00  0.00    -0.189 NA
ATOM     23  C   UNK d   1      19.208  83.008  19.745  0.00  0.00     0.135 C 
ATOM     24  C   UNK d   1      19.670  83.875  20.893  0.00  0.00     0.183 C 
ATOM     25  O   UNK d   1      19.729  83.161  22.085  0.00  0.00    -0.389 OA
ATOM     26  C   UNK d   1      20.730  82.191  22.082  0.00  0.00     0.183 C 
ATOM     27  C   UNK d   1      21.004  81.832  20.635  0.00  0.00     0.135 C 
ENDBRANCH  19  22
ENDBRANCH   1  19
TORSDOF 3
ENDMDL
