/Users/jonathanwahrer/Desktop/Msc/3_Semester/Drug_Design_Praktikum/waehrer_HTS_screening/HTS_experiment/out/docking_results/vina_output/6e43/1764_docked.pdbqt
 OpenBabel03212220473D

 34 37  0  0  1  0  0  0  0  0999 V2000
   21.8100   78.8030   13.2480 N   0  0  0  0  0  0  0  0  0  0  0  0
   22.7950   78.0240   13.8230 C   0  0  1  0  0  3  0  0  0  0  0  0
   23.9630   78.9790   14.1040 C   0  0  0  0  0  2  0  0  0  0  0  0
   23.2320   80.2410   14.5060 C   0  0  0  0  0  2  0  0  0  0  0  0
   21.9230   80.1660   13.7580 C   0  0  0  0  0  2  0  0  0  0  0  0
   21.2990   78.7100   11.6710 S   0  0  0  0  0  0  0  0  0  0  0  0
   22.4510   78.8050   10.6720 O   0  0  0  0  0  0  0  0  0  0  0  0
   20.4570   79.9500   11.3630 O   0  0  0  0  0  0  0  0  0  0  0  0
   20.3240   77.3230   11.2840 C   0  0  0  0  0  0  0  0  0  0  0  0
   19.8890   76.4910   12.3290 C   0  0  0  0  0  3  0  0  0  0  0  0
   19.1710   75.3450   12.1380 C   0  0  0  0  0  0  0  0  0  0  0  0
   18.8660   75.0010   10.8340 C   0  0  0  0  0  0  0  0  0  0  0  0
   18.7440   74.5280   13.1730 O   0  0  0  0  0  0  0  0  0  0  0  0
   19.2560   75.7620    9.7730 C   0  0  0  0  0  3  0  0  0  0  0  0
   18.1080   73.8010   10.6200 N   0  0  0  0  0  0  0  0  0  0  0  0
   19.9840   76.9190   10.0240 C   0  0  0  0  0  0  0  0  0  0  0  0
   20.3560   77.8960    8.6210 Cl  0  0  0  0  0  0  0  0  0  0  0  0
   17.7000   73.0180   11.7390 C   0  0  0  0  0  0  0  0  0  0  0  0
   17.8690   73.5270    9.6350 H   0  0  0  0  0  0  0  0  0  0  0  0
   17.4580   71.8060   11.5980 O   0  0  0  0  0  0  0  0  0  0  0  0
   17.5830   73.7100   13.0470 C   0  0  0  0  0  2  0  0  0  0  0  0
   22.2800   77.4990   15.1520 C   0  0  0  0  0  0  0  0  0  0  0  0
   23.1390   77.3030   16.0220 O   0  0  0  0  0  0  0  0  0  0  0  0
   20.9030   77.2720   15.3210 N   0  0  0  0  0  0  0  0  0  0  0  0
   20.2090   77.4350   14.5640 H   0  0  0  0  0  0  0  0  0  0  0  0
   20.3960   76.7850   16.5810 C   0  0  0  0  0  2  0  0  0  0  0  0
   19.2910   77.5690   17.1780 C   0  0  0  0  0  2  0  0  0  0  0  0
   19.6140   78.8730   17.6360 N   0  0  0  0  0  0  0  0  0  0  0  0
   20.8990   79.0190   18.2380 C   0  0  0  0  0  2  0  0  0  0  0  0
   21.4700   80.3510   17.7960 C   0  0  0  0  0  2  0  0  0  0  0  0
   20.4490   81.4360   18.0710 C   0  0  0  0  0  2  0  0  0  0  0  0
   19.9190   81.2450   19.4660 C   0  0  0  0  0  2  0  0  0  0  0  0
   18.8810   80.1930   19.5950 C   0  0  0  0  0  2  0  0  0  0  0  0
   18.5310   79.4650   18.3520 C   0  0  0  0  0  2  0  0  0  0  0  0
  1  5  1  0  0  0  0
  1  2  1  0  0  0  0
  2  3  1  0  0  0  0
  2 22  1  1  0  0  0
  3  4  1  0  0  0  0
  5  4  1  0  0  0  0
  6  1  1  0  0  0  0
  7  6  2  0  0  0  0
  8  6  2  0  0  0  0
  9  6  1  0  0  0  0
  9 10  1  0  0  0  0
 11 10  2  0  0  0  0
 11 13  1  0  0  0  0
 12 11  1  0  0  0  0
 14 16  1  0  0  0  0
 14 12  2  0  0  0  0
 15 12  1  0  0  0  0
 15 18  1  0  0  0  0
 16  9  2  0  0  0  0
 17 16  1  0  0  0  0
 18 21  1  0  0  0  0
 19 15  1  0  0  0  0
 20 18  2  0  0  0  0
 21 13  1  0  0  0  0
 22 24  1  0  0  0  0
 22 23  2  0  0  0  0
 24 26  1  0  0  0  0
 25 24  1  0  0  0  0
 26 27  1  0  0  0  0
 27 28  1  0  0  0  0
 28 29  1  0  0  0  0
 28 34  1  0  0  0  0
 30 31  1  0  0  0  0
 30 29  1  0  0  0  0
 31 32  1  0  0  0  0
 32 33  1  0  0  0  0
 34 33  1  0  0  0  0
M  END
>  <Pose>
1

>  <Score>
-10.075

$$$$
