MODEL 1
REMARK VINA RESULT:   -10.075      0.000      0.000
REMARK INTER + INTRA:         -14.733
REMARK INTER:                 -13.609
REMARK INTRA:                  -1.124
REMARK UNBOUND:                -1.124
REMARK  6 active torsions:
REMARK  status: ('A' for Active; 'I' for Inactive)
REMARK    1  A    between atoms: S_1  and  N_4 
REMARK    2  A    between atoms: S_1  and  C_21 
REMARK    3  A    between atoms: C_5  and  C_9 
REMARK       I    between atoms: C_9  and  N_11 
REMARK    4  A    between atoms: N_11  and  C_12 
REMARK    5  A    between atoms: C_12  and  C_13 
REMARK    6  A    between atoms: C_13  and  N_14 
ROOT
ATOM      1  N   UNK d   1      21.810  78.803  13.248  0.00  0.00    -0.293 N 
ATOM      2  C   UNK d   1      22.795  78.024  13.823  0.00  0.00     0.188 C 
ATOM      3  C   UNK d   1      23.963  78.979  14.104  0.00  0.00     0.037 C 
ATOM      4  C   UNK d   1      23.232  80.241  14.506  0.00  0.00     0.023 C 
ATOM      5  C   UNK d   1      21.923  80.166  13.758  0.00  0.00     0.136 C 
ENDROOT
BRANCH   1   6
ATOM      6  S   UNK d   1      21.299  78.710  11.671  0.00  0.00     0.263 S 
ATOM      7  O   UNK d   1      22.451  78.805  10.672  0.00  0.00    -0.200 OA
ATOM      8  O   UNK d   1      20.457  79.950  11.363  0.00  0.00    -0.200 OA
BRANCH   6   9
ATOM      9  C   UNK d   1      20.324  77.323  11.284  0.00  0.00     0.104 A 
ATOM     10  C   UNK d   1      19.889  76.491  12.329  0.00  0.00     0.066 A 
ATOM     11  C   UNK d   1      19.171  75.345  12.138  0.00  0.00     0.097 A 
ATOM     12  C   UNK d   1      18.866  75.001  10.834  0.00  0.00     0.070 A 
ATOM     13  O   UNK d   1      18.744  74.528  13.173  0.00  0.00    -0.340 OA
ATOM     14  C   UNK d   1      19.256  75.762   9.773  0.00  0.00     0.058 A 
ATOM     15  N   UNK d   1      18.108  73.801  10.620  0.00  0.00    -0.323 N 
ATOM     16  C   UNK d   1      19.984  76.919  10.024  0.00  0.00     0.059 A 
ATOM     17 Cl   UNK d   1      20.356  77.896   8.621  0.00  0.00    -0.083 Cl
ATOM     18  C   UNK d   1      17.700  73.018  11.739  0.00  0.00     0.246 C 
ATOM     19  H   UNK d   1      17.869  73.527   9.635  0.00  0.00     0.169 HD
ATOM     20  O   UNK d   1      17.458  71.806  11.598  0.00  0.00    -0.271 OA
ATOM     21  C   UNK d   1      17.583  73.710  13.047  0.00  0.00     0.278 C 
ENDBRANCH   6   9
ENDBRANCH   1   6
BRANCH   2  22
ATOM     22  C   UNK d   1      22.280  77.499  15.152  0.00  0.00     0.241 C 
ATOM     23  O   UNK d   1      23.139  77.303  16.022  0.00  0.00    -0.271 OA
ATOM     24  N   UNK d   1      20.903  77.272  15.321  0.00  0.00    -0.358 N 
ATOM     25  H   UNK d   1      20.209  77.435  14.564  0.00  0.00     0.162 HD
BRANCH  24  26
ATOM     26  C   UNK d   1      20.396  76.785  16.581  0.00  0.00     0.152 C 
BRANCH  26  27
ATOM     27  C   UNK d   1      19.291  77.569  17.178  0.00  0.00     0.292 C 
BRANCH  27  28
ATOM     28  N   UNK d   1      19.614  78.873  17.636  0.00  0.00     0.090 N 
ATOM     29  C   UNK d   1      20.899  79.019  18.238  0.00  0.00     0.272 C 
ATOM     30  C   UNK d   1      21.470  80.351  17.796  0.00  0.00     0.030 C 
ATOM     31  C   UNK d   1      20.449  81.436  18.071  0.00  0.00     0.002 C 
ATOM     32  C   UNK d   1      19.919  81.245  19.466  0.00  0.00     0.002 C 
ATOM     33  C   UNK d   1      18.881  80.193  19.595  0.00  0.00     0.030 C 
ATOM     34  C   UNK d   1      18.531  79.465  18.352  0.00  0.00     0.272 C 
ENDBRANCH  27  28
ENDBRANCH  26  27
ENDBRANCH  24  26
ENDBRANCH   2  22
TORSDOF 6
ENDMDL
