/Users/jonathanwahrer/Desktop/Msc/3_Semester/Drug_Design_Praktikum/waehrer_HTS_screening/HTS_experiment/out/docking_results/vina_output/6e43/1781_docked.pdbqt
 OpenBabel03212220473D

 24 27  0  0  0  0  0  0  0  0999 V2000
   23.3040   79.6100   13.6620 C   0  0  0  0  0  0  0  0  0  0  0  0
   23.3390   80.9190   13.6920 O   0  0  0  0  0  0  0  0  0  0  0  0
   23.9810   78.9870   14.6990 N   0  0  0  0  0  0  0  0  0  0  0  0
   24.2170   77.6090   14.9770 C   0  0  0  0  0  2  0  0  0  0  0  0
   23.1860   77.2390   16.0620 C   0  0  0  0  0  2  0  0  0  0  0  0
   23.1330   78.3690   17.0090 N   0  0  0  0  0  0  0  0  0  0  0  0
   24.2910   79.2100   17.1130 C   0  0  0  0  0  2  0  0  0  0  0  0
   24.5350   79.8780   15.7730 C   0  0  0  0  0  2  0  0  0  0  0  0
   22.5650   79.0790   12.5520 C   0  0  0  0  0  0  0  0  0  0  0  0
   23.1690   79.0040   11.2910 C   0  0  0  0  0  3  0  0  0  0  0  0
   22.5210   78.5480   10.1660 C   0  0  0  0  0  3  0  0  0  0  0  0
   21.2140   78.1320   10.2280 C   0  0  0  0  0  0  0  0  0  0  0  0
   20.3780   77.5430    8.7850 Cl  0  0  0  0  0  0  0  0  0  0  0  0
   20.5820   78.1870   11.4420 C   0  0  0  0  0  3  0  0  0  0  0  0
   21.2560   78.6560   12.5840 C   0  0  0  0  0  3  0  0  0  0  0  0
   21.9530   78.5820   17.7790 C   0  0  0  0  0  0  0  0  0  0  0  0
   21.5410   79.8290   18.0970 N   0  0  0  0  0  0  0  0  0  0  0  0
   20.4550   80.0640   18.8110 N   0  0  0  0  0  0  0  0  0  0  0  0
   19.6740   79.0790   19.2770 C   0  0  0  0  0  0  0  0  0  0  0  0
   19.8670   81.2170   19.2390 C   0  0  0  0  0  3  0  0  0  0  0  0
   18.6310   79.5950   19.9730 N   0  0  0  0  0  0  0  0  0  0  0  0
   20.0290   77.7720   18.9920 C   0  0  0  0  0  3  0  0  0  0  0  0
   18.7620   80.9090   19.9420 N   0  0  0  0  0  0  0  0  0  0  0  0
   21.1650   77.5540   18.2480 C   0  0  0  0  0  3  0  0  0  0  0  0
  1  2  2  0  0  0  0
  1  3  1  0  0  0  0
  3  4  1  0  0  0  0
  3  8  1  0  0  0  0
  4  5  1  0  0  0  0
  5  6  1  0  0  0  0
  6  7  1  0  0  0  0
  6 16  1  0  0  0  0
  8  7  1  0  0  0  0
  9 15  1  0  0  0  0
  9  1  1  0  0  0  0
 10  9  2  0  0  0  0
 11 12  2  0  0  0  0
 11 10  1  0  0  0  0
 12 14  1  0  0  0  0
 13 12  1  0  0  0  0
 14 15  2  0  0  0  0
 16 17  2  0  0  0  0
 16 24  1  0  0  0  0
 17 18  1  0  0  0  0
 18 20  1  0  0  0  0
 18 19  1  0  0  0  0
 19 21  2  0  0  0  0
 20 23  2  0  0  0  0
 22 19  1  0  0  0  0
 23 21  1  0  0  0  0
 24 22  2  0  0  0  0
M  END
>  <Pose>
1

>  <Score>
-9.884

$$$$
