MODEL 1
REMARK VINA RESULT:    -9.884      0.000      0.000
REMARK INTER + INTRA:         -11.615
REMARK INTER:                 -11.039
REMARK INTRA:                  -0.576
REMARK UNBOUND:                -0.576
REMARK  2 active torsions:
REMARK  status: ('A' for Active; 'I' for Inactive)
REMARK    1  A    between atoms: C_5  and  C_8 
REMARK       I    between atoms: C_8  and  N_10 
REMARK    2  A    between atoms: N_13  and  C_16 
ROOT
ATOM      1  C   UNK d   1      23.304  79.610  13.662  0.00  0.00     0.187 C 
ATOM      2  O   UNK d   1      23.339  80.919  13.692  0.00  0.00    -0.171 OA
ATOM      3  N   UNK d   1      23.981  78.987  14.699  0.00  0.00    -0.356 N 
ATOM      4  C   UNK d   1      24.217  77.609  14.977  0.00  0.00     0.145 C 
ATOM      5  C   UNK d   1      23.186  77.239  16.062  0.00  0.00     0.144 C 
ATOM      6  N   UNK d   1      23.133  78.369  17.009  0.00  0.00    -0.361 N 
ATOM      7  C   UNK d   1      24.291  79.210  17.113  0.00  0.00     0.144 C 
ATOM      8  C   UNK d   1      24.535  79.878  15.773  0.00  0.00     0.145 C 
ENDROOT
BRANCH   1   9
ATOM      9  C   UNK d   1      22.565  79.079  12.552  0.00  0.00     0.018 A 
ATOM     10  C   UNK d   1      23.169  79.004  11.291  0.00  0.00     0.017 A 
ATOM     11  C   UNK d   1      22.521  78.548  10.166  0.00  0.00     0.025 A 
ATOM     12  C   UNK d   1      21.214  78.132  10.228  0.00  0.00     0.034 A 
ATOM     13 Cl   UNK d   1      20.378  77.543   8.785  0.00  0.00    -0.084 Cl
ATOM     14  C   UNK d   1      20.582  78.187  11.442  0.00  0.00     0.025 A 
ATOM     15  C   UNK d   1      21.256  78.656  12.584  0.00  0.00     0.017 A 
ENDBRANCH   1   9
BRANCH   6  16
ATOM     16  C   UNK d   1      21.953  78.582  17.779  0.00  0.00     0.146 A 
ATOM     17  N   UNK d   1      21.541  79.829  18.097  0.00  0.00    -0.147 NA
ATOM     18  N   UNK d   1      20.455  80.064  18.811  0.00  0.00    -0.204 N 
ATOM     19  C   UNK d   1      19.674  79.079  19.277  0.00  0.00     0.174 A 
ATOM     20  C   UNK d   1      19.867  81.217  19.239  0.00  0.00     0.261 A 
ATOM     21  N   UNK d   1      18.631  79.595  19.973  0.00  0.00    -0.129 NA
ATOM     22  C   UNK d   1      20.029  77.772  18.992  0.00  0.00     0.058 A 
ATOM     23  N   UNK d   1      18.762  80.909  19.942  0.00  0.00    -0.141 NA
ATOM     24  C   UNK d   1      21.165  77.554  18.248  0.00  0.00     0.056 A 
ENDBRANCH   6  16
TORSDOF 2
ENDMDL
