/Users/jonathanwahrer/Desktop/Msc/3_Semester/Drug_Design_Praktikum/waehrer_HTS_screening/HTS_experiment/out/docking_results/vina_output/6e43/1788_docked.pdbqt
 OpenBabel03212220483D

 30 33  0  0  0  0  0  0  0  0999 V2000
   20.8170   80.2920   18.1090 N   0  0  0  0  0  0  0  0  0  0  0  0
   22.0690   80.0930   17.8970 N   0  0  0  0  0  0  0  0  0  0  0  0
   22.2840   78.9330   17.1700 C   0  0  0  0  0  0  0  0  0  0  0  0
   21.0900   78.4200   16.9430 N   0  0  0  0  0  0  0  0  0  0  0  0
   20.1810   79.2720   17.5280 C   0  0  0  0  0  0  0  0  0  0  0  0
   18.9460   79.0810   17.4970 O   0  0  0  0  0  0  0  0  0  0  0  0
   20.7350   77.1800   16.3260 C   0  0  0  0  0  2  0  0  0  0  0  0
   20.8900   77.1370   14.8590 C   0  0  0  0  0  0  0  0  0  0  0  0
   20.5480   75.9920   14.3430 O   0  0  0  0  0  0  0  0  0  0  0  0
   21.3260   78.0850   13.9610 N   0  0  0  0  0  0  0  0  0  0  0  0
   21.7960   79.4030   14.2960 C   0  0  0  0  0  2  0  0  0  0  0  0
   21.3170   77.7690   12.5220 C   0  0  0  0  0  2  0  0  0  0  0  0
   22.2600   80.1890   13.0570 C   0  0  0  0  0  2  0  0  0  0  0  0
   21.1840   80.1870   12.0610 N   0  0  0  0  0  0  0  0  0  0  0  0
   20.6000   78.8830   11.8560 C   0  0  0  0  0  0  0  0  0  0  0  0
   20.8740   81.0240   11.5590 H   0  0  0  0  0  0  0  0  0  0  0  0
   19.5660   78.7560   11.1620 O   0  0  0  0  0  0  0  0  0  0  0  0
   23.6450   78.5120   16.8450 C   0  0  0  0  0  0  0  0  0  0  0  0
   24.6800   79.4390   17.0220 C   0  0  0  0  0  3  0  0  0  0  0  0
   25.9870   79.1960   16.7000 C   0  0  0  0  0  3  0  0  0  0  0  0
   26.3650   77.9730   16.1620 C   0  0  0  0  0  3  0  0  0  0  0  0
   25.3630   77.0610   15.9830 C   0  0  0  0  0  3  0  0  0  0  0  0
   24.0290   77.3150   16.3130 C   0  0  0  0  0  3  0  0  0  0  0  0
   20.2590   81.3890   18.8250 C   0  0  0  0  0  0  0  0  0  0  0  0
   20.3150   82.6630   18.2930 C   0  0  0  0  0  3  0  0  0  0  0  0
   19.7790   83.7420   18.9740 C   0  0  0  0  0  3  0  0  0  0  0  0
   19.1670   83.6080   20.2060 C   0  0  0  0  0  0  0  0  0  0  0  0
   18.4870   84.9680   21.0800 Cl  0  0  0  0  0  0  0  0  0  0  0  0
   19.1130   82.3290   20.7380 C   0  0  0  0  0  3  0  0  0  0  0  0
   19.6510   81.2430   20.0540 C   0  0  0  0  0  3  0  0  0  0  0  0
  1 24  1  0  0  0  0
  2  1  1  0  0  0  0
  3  2  2  0  0  0  0
  4  3  1  0  0  0  0
  4  5  1  0  0  0  0
  5  1  1  0  0  0  0
  6  5  2  0  0  0  0
  7  4  1  0  0  0  0
  8  7  1  0  0  0  0
  9  8  2  0  0  0  0
 10 11  1  0  0  0  0
 10  8  1  0  0  0  0
 12 10  1  0  0  0  0
 13 11  1  0  0  0  0
 14 13  1  0  0  0  0
 15 14  1  0  0  0  0
 15 12  1  0  0  0  0
 16 14  1  0  0  0  0
 17 15  2  0  0  0  0
 18 19  1  0  0  0  0
 18  3  1  0  0  0  0
 20 19  2  0  0  0  0
 21 20  1  0  0  0  0
 22 21  2  0  0  0  0
 22 23  1  0  0  0  0
 23 18  2  0  0  0  0
 24 30  1  0  0  0  0
 25 24  2  0  0  0  0
 25 26  1  0  0  0  0
 26 27  2  0  0  0  0
 27 29  1  0  0  0  0
 27 28  1  0  0  0  0
 30 29  2  0  0  0  0
M  END
>  <Pose>
1

>  <Score>
-10.899

$$$$
