MODEL 1
REMARK VINA RESULT:    -9.644      0.000      0.000
REMARK INTER + INTRA:         -12.020
REMARK INTER:                 -11.899
REMARK INTRA:                  -0.121
REMARK UNBOUND:                -0.121
REMARK  4 active torsions:
REMARK  status: ('A' for Active; 'I' for Inactive)
REMARK    1  A    between atoms: C_5  and  N_8 
REMARK    2  A    between atoms: N_15  and  C_18 
REMARK    3  A    between atoms: C_20  and  O_26 
REMARK    4  A    between atoms: C_21  and  O_24 
ROOT
ATOM      1  N   UNK d   1      21.122  77.660  15.200  0.00  0.00    -0.234 N 
ATOM      2  N   UNK d   1      20.780  76.427  15.485  0.00  0.00    -0.234 N 
ATOM      3  N   UNK d   1      20.322  76.436  16.733  0.00  0.00    -0.278 N 
ATOM      4  C   UNK d   1      20.369  77.678  17.252  0.00  0.00     0.152 A 
ATOM      5  C   UNK d   1      20.875  78.435  16.272  0.00  0.00     0.160 A 
ATOM      6  C   UNK d   1      20.926  79.716  16.804  0.00  0.00     0.286 A 
ATOM      7  O   UNK d   1      21.348  80.714  16.178  0.00  0.00    -0.265 OA
ATOM      8  N   UNK d   1      20.468  79.753  18.064  0.00  0.00    -0.241 N 
ATOM      9  C   UNK d   1      20.121  78.483  18.345  0.00  0.00     0.286 A 
ATOM     10  O   UNK d   1      19.638  78.086  19.447  0.00  0.00    -0.265 OA
ATOM     11  H   UNK d   1      20.852  75.579  14.848  0.00  0.00     0.209 HD
ATOM     12  H   UNK d   1      19.977  75.574  17.220  0.00  0.00     0.189 HD
ENDROOT
BRANCH   8  13
ATOM     13  C   UNK d   1      20.355  80.865  18.948  0.00  0.00     0.049 A 
ATOM     14  C   UNK d   1      20.008  82.131  18.521  0.00  0.00     0.069 A 
ATOM     15  C   UNK d   1      19.900  83.202  19.384  0.00  0.00     0.103 A 
ATOM     16  C   UNK d   1      20.140  83.052  20.734  0.00  0.00     0.101 A 
ATOM     17  C   UNK d   1      20.488  81.793  21.175  0.00  0.00     0.042 A 
ATOM     18  C   UNK d   1      20.593  80.725  20.302  0.00  0.00     0.033 A 
BRANCH  15  19
ATOM     19  O   UNK d   1      19.550  84.479  18.954  0.00  0.00    -0.353 OA
ATOM     20  C   UNK d   1      20.411  85.109  18.023  0.00  0.00     0.210 C 
ENDBRANCH  15  19
BRANCH  16  21
ATOM     21  O   UNK d   1      20.029  84.140  21.597  0.00  0.00    -0.353 OA
ATOM     22  C   UNK d   1      18.959  84.328  22.471  0.00  0.00     0.210 C 
ENDBRANCH  16  21
ENDBRANCH   8  13
BRANCH   1  23
ATOM     23  C   UNK d   1      21.659  78.098  13.970  0.00  0.00     0.058 A 
ATOM     24  C   UNK d   1      22.958  78.590  13.909  0.00  0.00     0.033 A 
ATOM     25  C   UNK d   1      23.416  78.999  12.673  0.00  0.00     0.026 A 
ATOM     26  C   UNK d   1      22.679  78.950  11.524  0.00  0.00     0.034 A 
ATOM     27 Cl   UNK d   1      23.309  79.486   9.965  0.00  0.00    -0.084 Cl
ATOM     28  C   UNK d   1      21.397  78.462  11.595  0.00  0.00     0.026 A 
ATOM     29  C   UNK d   1      20.897  78.044  12.795  0.00  0.00     0.033 A 
ENDBRANCH   1  23
TORSDOF 4
ENDMDL
