/Users/jonathanwahrer/Desktop/Msc/3_Semester/Drug_Design_Praktikum/waehrer_HTS_screening/HTS_experiment/out/docking_results/vina_output/6e43/1790_docked.pdbqt
 OpenBabel03212220483D

 29 32  0  0  0  0  0  0  0  0999 V2000
   20.9600   77.7580   15.7770 N   0  0  0  0  0  0  0  0  0  0  0  0
   20.5200   76.5640   16.1200 N   0  0  0  0  0  0  0  0  0  0  0  0
   20.0510   76.6870   17.3550 N   0  0  0  0  0  0  0  0  0  0  0  0
   20.1870   77.9450   17.8090 C   0  0  0  0  0  0  0  0  0  0  0  0
   20.7650   78.6160   16.7980 C   0  0  0  0  0  0  0  0  0  0  0  0
   20.9020   79.9080   17.2680 C   0  0  0  0  0  0  0  0  0  0  0  0
   21.4180   80.8310   16.5700 O   0  0  0  0  0  0  0  0  0  0  0  0
   20.4300   80.0410   18.5180 N   0  0  0  0  0  0  0  0  0  0  0  0
   19.9840   78.8200   18.8570 C   0  0  0  0  0  0  0  0  0  0  0  0
   19.4610   78.5390   19.9760 O   0  0  0  0  0  0  0  0  0  0  0  0
   20.5450   75.7050   15.5200 H   0  0  0  0  0  0  0  0  0  0  0  0
   19.6320   75.9090   17.9080 H   0  0  0  0  0  0  0  0  0  0  0  0
   20.4280   81.2480   19.2770 C   0  0  0  0  0  0  0  0  0  0  0  0
   19.9760   82.4440   18.7570 C   0  0  0  0  0  3  0  0  0  0  0  0
   19.9640   83.6240   19.4720 C   0  0  0  0  0  0  0  0  0  0  0  0
   20.4270   83.6080   20.7700 C   0  0  0  0  0  3  0  0  0  0  0  0
   20.8900   82.4400   21.3420 C   0  0  0  0  0  0  0  0  0  0  0  0
   20.8840   81.2750   20.5810 C   0  0  0  0  0  3  0  0  0  0  0  0
   19.4920   84.8190   18.8940 O   0  0  0  0  0  0  0  0  0  0  0  0
   20.1740   85.3570   17.7840 C   0  0  0  0  0  1  0  0  0  0  0  0
   21.3490   82.4630   22.6530 O   0  0  0  0  0  0  0  0  0  0  0  0
   20.4940   82.7160   23.7340 C   0  0  0  0  0  1  0  0  0  0  0  0
   21.5490   78.0980   14.5340 C   0  0  0  0  0  0  0  0  0  0  0  0
   22.8580   78.5450   14.4300 C   0  0  0  0  0  3  0  0  0  0  0  0
   23.3960   78.8650   13.2110 C   0  0  0  0  0  3  0  0  0  0  0  0
   22.6690   78.7600   12.0430 C   0  0  0  0  0  0  0  0  0  0  0  0
   23.4140   79.1880   10.4980 Cl  0  0  0  0  0  0  0  0  0  0  0  0
   21.3730   78.3210   12.1230 C   0  0  0  0  0  3  0  0  0  0  0  0
   20.8350   77.9990   13.3510 C   0  0  0  0  0  3  0  0  0  0  0  0
  1  2  1  0  0  0  0
  1  5  1  0  0  0  0
  2  3  1  0  0  0  0
  3  4  1  0  0  0  0
  3 12  1  0  0  0  0
  4  9  1  0  0  0  0
  5  6  1  0  0  0  0
  5  4  2  0  0  0  0
  6  8  1  0  0  0  0
  7  6  2  0  0  0  0
  8  9  1  0  0  0  0
  8 13  1  0  0  0  0
  9 10  2  0  0  0  0
 11  2  1  0  0  0  0
 13 18  1  0  0  0  0
 14 13  2  0  0  0  0
 14 15  1  0  0  0  0
 15 16  2  0  0  0  0
 16 17  1  0  0  0  0
 17 21  1  0  0  0  0
 18 17  2  0  0  0  0
 19 15  1  0  0  0  0
 20 19  1  0  0  0  0
 21 22  1  0  0  0  0
 23  1  1  0  0  0  0
 24 23  1  0  0  0  0
 25 24  2  0  0  0  0
 26 28  2  0  0  0  0
 26 25  1  0  0  0  0
 27 26  1  0  0  0  0
 28 29  1  0  0  0  0
 29 23  2  0  0  0  0
M  END
>  <Pose>
1

>  <Score>
-10.037

$$$$
