/Users/jonathanwahrer/Desktop/Msc/3_Semester/Drug_Design_Praktikum/waehrer_HTS_screening/HTS_experiment/out/docking_results/vina_output/6e43/1801_docked.pdbqt
 OpenBabel03212220483D

 26 29  0  0  0  0  0  0  0  0999 V2000
   22.4340   81.1580    9.8340 Cl  0  0  0  0  0  0  0  0  0  0  0  0
   21.6250   79.7470   10.5140 C   0  0  0  0  0  0  0  0  0  0  0  0
   21.8270   79.3940   11.8370 C   0  0  0  0  0  3  0  0  0  0  0  0
   21.2050   78.3030   12.3770 C   0  0  0  0  0  0  0  0  0  0  0  0
   20.3790   77.5830   11.5480 C   0  0  0  0  0  0  0  0  0  0  0  0
   20.1600   77.9100   10.2350 C   0  0  0  0  0  3  0  0  0  0  0  0
   20.7970   79.0180    9.7010 C   0  0  0  0  0  3  0  0  0  0  0  0
   19.6900   76.3970   12.0970 C   0  0  0  0  0  0  0  0  0  0  0  0
   18.8750   75.5420   11.5870 N   0  0  0  0  0  0  0  0  0  0  0  0
   18.4690   74.5470   12.5370 C   0  0  0  0  0  3  0  0  0  0  0  0
   19.1820   74.9100   13.7980 C   0  0  0  0  0  3  0  0  0  0  0  0
   19.9400   76.0900   13.4580 N   0  0  0  0  0  0  0  0  0  0  0  0
   20.8140   76.8780   14.2790 C   0  0  0  0  0  0  0  0  0  0  0  0
   21.1910   76.7780   15.5620 N   0  0  0  0  0  0  0  0  0  0  0  0
   22.0250   77.7560   15.8680 N   0  0  0  0  0  0  0  0  0  0  0  0
   22.1660   78.4770   14.7420 C   0  0  0  0  0  0  0  0  0  0  0  0
   22.8910   79.4960   14.6490 O   0  0  0  0  0  0  0  0  0  0  0  0
   21.4200   77.9480   13.7350 N   0  0  0  0  0  0  0  0  0  0  0  0
   22.6730   78.0220   17.1480 C   0  0  0  0  0  2  0  0  0  0  0  0
   21.6340   78.3430   18.1540 C   0  0  0  0  0  0  0  0  0  0  0  0
   21.1720   77.4100   18.8700 O   0  0  0  0  0  0  0  0  0  0  0  0
   21.1330   79.6570   18.3480 N   0  0  0  0  0  0  0  0  0  0  0  0
   21.5240   80.4130   17.7500 H   0  0  0  0  0  0  0  0  0  0  0  0
   20.1170   79.9220   19.3420 C   0  0  0  0  0  3  0  0  0  0  0  0
   20.3260   81.3030   19.9690 C   0  0  0  0  0  1  0  0  0  0  0  0
   18.7900   80.0010   18.5990 C   0  0  0  0  0  1  0  0  0  0  0  0
  1  2  1  0  0  0  0
  2  3  1  0  0  0  0
  3  4  2  0  0  0  0
  4 18  1  0  0  0  0
  5  8  1  0  0  0  0
  5  4  1  0  0  0  0
  6  5  2  0  0  0  0
  7  6  1  0  0  0  0
  7  2  2  0  0  0  0
  8 12  1  0  0  0  0
  9  8  2  0  0  0  0
  9 10  1  0  0  0  0
 10 11  2  0  0  0  0
 12 11  1  0  0  0  0
 12 13  1  0  0  0  0
 13 14  2  0  0  0  0
 14 15  1  0  0  0  0
 15 19  1  0  0  0  0
 16 15  1  0  0  0  0
 17 16  2  0  0  0  0
 18 13  1  0  0  0  0
 18 16  1  0  0  0  0
 19 20  1  0  0  0  0
 20 22  1  0  0  0  0
 20 21  2  0  0  0  0
 22 24  1  0  0  0  0
 23 22  1  0  0  0  0
 24 25  1  0  0  0  0
 26 24  1  0  0  0  0
M  END
>  <Pose>
1

>  <Score>
-9.221

$$$$
