/Users/jonathanwahrer/Desktop/Msc/3_Semester/Drug_Design_Praktikum/waehrer_HTS_screening/HTS_experiment/out/docking_results/vina_output/6e43/1802_docked.pdbqt
 OpenBabel03212220483D

 27 30  0  0  0  0  0  0  0  0999 V2000
   22.4810   81.3100   10.3570 Cl  0  0  0  0  0  0  0  0  0  0  0  0
   21.6280   79.8240   10.7810 C   0  0  0  0  0  0  0  0  0  0  0  0
   21.6920   79.3800   12.1040 C   0  0  0  0  0  3  0  0  0  0  0  0
   21.0410   78.2310   12.5060 C   0  0  0  0  0  0  0  0  0  0  0  0
   20.3320   77.5500   11.5370 C   0  0  0  0  0  0  0  0  0  0  0  0
   20.2440   77.9450   10.2430 C   0  0  0  0  0  3  0  0  0  0  0  0
   20.9090   79.1150    9.8450 C   0  0  0  0  0  3  0  0  0  0  0  0
   19.6360   76.3180   11.9890 C   0  0  0  0  0  0  0  0  0  0  0  0
   18.8990   75.4630   11.3450 N   0  0  0  0  0  0  0  0  0  0  0  0
   18.4420   74.4190   12.2320 C   0  0  0  0  0  3  0  0  0  0  0  0
   18.9940   74.7340   13.6000 C   0  0  0  0  0  3  0  0  0  0  0  0
   19.7510   75.9480   13.3380 N   0  0  0  0  0  0  0  0  0  0  0  0
   20.5060   76.7080   14.2800 C   0  0  0  0  0  0  0  0  0  0  0  0
   20.7350   76.5380   15.5990 N   0  0  0  0  0  0  0  0  0  0  0  0
   21.5020   77.5330   16.0380 N   0  0  0  0  0  0  0  0  0  0  0  0
   21.7290   78.2990   14.9740 C   0  0  0  0  0  0  0  0  0  0  0  0
   22.4210   79.3560   14.9770 O   0  0  0  0  0  0  0  0  0  0  0  0
   21.1210   77.8090   13.8580 N   0  0  0  0  0  0  0  0  0  0  0  0
   21.9710   77.7310   17.4130 C   0  0  0  0  0  2  0  0  0  0  0  0
   20.6860   78.2350   18.1410 C   0  0  0  0  0  0  0  0  0  0  0  0
   20.2970   77.3070   18.9340 O   0  0  0  0  0  0  0  0  0  0  0  0
   20.1810   79.4480   17.8800 N   0  0  0  0  0  0  0  0  0  0  0  0
   19.2450   79.2680   18.8470 H   0  0  0  0  0  0  0  0  0  0  0  0
   19.6610   80.6950   17.6130 C   0  0  0  0  0  2  0  0  0  0  0  0
   20.1780   81.7670   18.5790 C   0  0  0  0  0  2  0  0  0  0  0  0
   20.2900   82.9900   17.9620 O   0  0  0  0  0  0  0  0  0  0  0  0
   20.2930   84.0710   18.7950 C   0  0  0  0  0  1  0  0  0  0  0  0
  1  2  1  0  0  0  0
  2  3  1  0  0  0  0
  3  4  2  0  0  0  0
  4 18  1  0  0  0  0
  5  8  1  0  0  0  0
  5  4  1  0  0  0  0
  6  5  2  0  0  0  0
  7  6  1  0  0  0  0
  7  2  2  0  0  0  0
  8 12  1  0  0  0  0
  9  8  2  0  0  0  0
  9 10  1  0  0  0  0
 10 11  2  0  0  0  0
 12 11  1  0  0  0  0
 12 13  1  0  0  0  0
 13 14  2  0  0  0  0
 14 15  1  0  0  0  0
 15 19  1  0  0  0  0
 16 17  2  0  0  0  0
 16 15  1  0  0  0  0
 18 13  1  0  0  0  0
 18 16  1  0  0  0  0
 19 20  1  0  0  0  0
 20 21  2  0  0  0  0
 22 20  1  0  0  0  0
 22 23  1  0  0  0  0
 24 22  1  0  0  0  0
 24 25  1  0  0  0  0
 26 25  1  0  0  0  0
 26 27  1  0  0  0  0
M  END
>  <Pose>
1

>  <Score>
-8.641

$$$$
