MODEL 1
REMARK VINA RESULT:   -10.217      0.000      0.000
REMARK INTER + INTRA:         -11.879
REMARK INTER:                 -11.411
REMARK INTRA:                  -0.468
REMARK UNBOUND:                -0.468
REMARK  2 active torsions:
REMARK  status: ('A' for Active; 'I' for Inactive)
REMARK    1  A    between atoms: N_15  and  C_19 
REMARK    2  A    between atoms: C_19  and  C_20 
REMARK       I    between atoms: C_20  and  N_22 
ROOT
ATOM      1 Cl   UNK d   1      22.510  81.298  10.265  0.00  0.00    -0.084 Cl
ATOM      2  C   UNK d   1      21.690  79.859  10.833  0.00  0.00     0.036 A 
ATOM      3  C   UNK d   1      21.776  79.411  12.141  0.00  0.00     0.055 A 
ATOM      4  C   UNK d   1      21.127  78.279  12.576  0.00  0.00     0.077 A 
ATOM      5  C   UNK d   1      20.377  77.602  11.644  0.00  0.00     0.038 A 
ATOM      6  C   UNK d   1      20.257  78.002  10.334  0.00  0.00     0.019 A 
ATOM      7  C   UNK d   1      20.929  79.155   9.924  0.00  0.00     0.025 A 
ATOM      8  C   UNK d   1      19.667  76.382  12.074  0.00  0.00     0.153 A 
ATOM      9  N   UNK d   1      18.911  75.567  11.433  0.00  0.00    -0.270 NA
ATOM     10  C   UNK d   1      18.429  74.502  12.272  0.00  0.00     0.172 A 
ATOM     11  C   UNK d   1      19.030  74.785  13.612  0.00  0.00     0.171 A 
ATOM     12  N   UNK d   1      19.801  75.985  13.423  0.00  0.00    -0.160 N 
ATOM     13  C   UNK d   1      20.602  76.737  14.358  0.00  0.00     0.736 A 
ATOM     14  N   UNK d   1      20.874  76.557  15.665  0.00  0.00     0.025 NA
ATOM     15  N   UNK d   1      21.670  77.526  16.084  0.00  0.00    -0.194 N 
ATOM     16  C   UNK d   1      21.883  78.306  15.011  0.00  0.00     0.365 A 
ATOM     17  O   UNK d   1      22.609  79.340  15.051  0.00  0.00    -0.244 OA
ATOM     18  N   UNK d   1      21.233  77.840  13.923  0.00  0.00    -0.090 N 
ENDROOT
BRANCH  15  19
ATOM     19  C   UNK d   1      22.213  77.720  17.436  0.00  0.00     0.259 C 
BRANCH  19  20
ATOM     20  C   UNK d   1      21.072  77.902  18.371  0.00  0.00     0.239 C 
ATOM     21  O   UNK d   1      20.576  76.858  18.864  0.00  0.00    -0.271 OA
ATOM     22  N   UNK d   1      20.560  79.187  18.695  0.00  0.00    -0.351 N 
ATOM     23  C   UNK d   1      19.450  79.427  19.597  0.00  0.00     0.126 C 
ATOM     24  C   UNK d   1      21.036  80.459  18.203  0.00  0.00     0.126 C 
ATOM     25  C   UNK d   1      19.128  80.893  19.493  0.00  0.00     0.021 C 
ATOM     26  C   UNK d   1      19.726  81.252  18.148  0.00  0.00     0.021 C 
ENDBRANCH  19  20
ENDBRANCH  15  19
TORSDOF 2
ENDMDL
