/Users/jonathanwahrer/Desktop/Msc/3_Semester/Drug_Design_Praktikum/waehrer_HTS_screening/HTS_experiment/out/docking_results/vina_output/6e43/1804_docked.pdbqt
 OpenBabel03212220483D

 26 30  0  0  0  0  0  0  0  0999 V2000
   22.5100   81.2980   10.2650 Cl  0  0  0  0  0  0  0  0  0  0  0  0
   21.6900   79.8590   10.8330 C   0  0  0  0  0  0  0  0  0  0  0  0
   21.7760   79.4110   12.1410 C   0  0  0  0  0  3  0  0  0  0  0  0
   21.1270   78.2790   12.5760 C   0  0  0  0  0  0  0  0  0  0  0  0
   20.3770   77.6020   11.6440 C   0  0  0  0  0  0  0  0  0  0  0  0
   20.2570   78.0020   10.3340 C   0  0  0  0  0  3  0  0  0  0  0  0
   20.9290   79.1550    9.9240 C   0  0  0  0  0  3  0  0  0  0  0  0
   19.6670   76.3820   12.0740 C   0  0  0  0  0  0  0  0  0  0  0  0
   18.9110   75.5670   11.4330 N   0  0  0  0  0  0  0  0  0  0  0  0
   18.4290   74.5020   12.2720 C   0  0  0  0  0  3  0  0  0  0  0  0
   19.0300   74.7850   13.6120 C   0  0  0  0  0  3  0  0  0  0  0  0
   19.8010   75.9850   13.4230 N   0  0  0  0  0  0  0  0  0  0  0  0
   20.6020   76.7370   14.3580 C   0  0  0  0  0  0  0  0  0  0  0  0
   20.8740   76.5570   15.6650 N   0  0  0  0  0  0  0  0  0  0  0  0
   21.6700   77.5260   16.0840 N   0  0  0  0  0  0  0  0  0  0  0  0
   21.8830   78.3060   15.0110 C   0  0  0  0  0  0  0  0  0  0  0  0
   22.6090   79.3400   15.0510 O   0  0  0  0  0  0  0  0  0  0  0  0
   21.2330   77.8400   13.9230 N   0  0  0  0  0  0  0  0  0  0  0  0
   22.2130   77.7200   17.4360 C   0  0  0  0  0  2  0  0  0  0  0  0
   21.0720   77.9020   18.3710 C   0  0  0  0  0  0  0  0  0  0  0  0
   20.5760   76.8580   18.8640 O   0  0  0  0  0  0  0  0  0  0  0  0
   20.5600   79.1870   18.6950 N   0  0  0  0  0  0  0  0  0  0  0  0
   19.4500   79.4270   19.5970 C   0  0  0  0  0  2  0  0  0  0  0  0
   21.0360   80.4590   18.2030 C   0  0  0  0  0  2  0  0  0  0  0  0
   19.1280   80.8930   19.4930 C   0  0  0  0  0  2  0  0  0  0  0  0
   19.7260   81.2520   18.1480 C   0  0  0  0  0  2  0  0  0  0  0  0
  1  2  1  0  0  0  0
  2  3  1  0  0  0  0
  3  4  2  0  0  0  0
  4 18  1  0  0  0  0
  5  8  1  0  0  0  0
  5  4  1  0  0  0  0
  6  5  2  0  0  0  0
  7  6  1  0  0  0  0
  7  2  2  0  0  0  0
  8 12  1  0  0  0  0
  9  8  2  0  0  0  0
  9 10  1  0  0  0  0
 10 11  2  0  0  0  0
 12 11  1  0  0  0  0
 12 13  1  0  0  0  0
 13 14  2  0  0  0  0
 14 15  1  0  0  0  0
 15 19  1  0  0  0  0
 16 17  2  0  0  0  0
 16 15  1  0  0  0  0
 18 13  1  0  0  0  0
 18 16  1  0  0  0  0
 19 20  1  0  0  0  0
 20 22  1  0  0  0  0
 20 21  2  0  0  0  0
 22 23  1  0  0  0  0
 24 22  1  0  0  0  0
 25 23  1  0  0  0  0
 26 24  1  0  0  0  0
 26 25  1  0  0  0  0
M  END
>  <Pose>
1

>  <Score>
-10.217

$$$$
