MODEL 1
REMARK VINA RESULT:   -10.033      0.000      0.000
REMARK INTER + INTRA:         -11.913
REMARK INTER:                 -11.793
REMARK INTRA:                  -0.120
REMARK UNBOUND:                -0.120
REMARK  3 active torsions:
REMARK  status: ('A' for Active; 'I' for Inactive)
REMARK    1  A    between atoms: C_10  and  N_11 
REMARK    2  A    between atoms: N_14  and  C_17 
REMARK    3  A    between atoms: C_22  and  C_23 
REMARK       I    between atoms: C_23  and  N_25 
ROOT
ATOM      1  N   UNK d   1      22.933  79.240  15.238  0.00  0.00    -0.384 N 
ATOM      2  C   UNK d   1      24.120  78.551  14.774  0.00  0.00     0.142 C 
ATOM      3  C   UNK d   1      24.119  78.631  13.238  0.00  0.00     0.144 C 
ATOM      4  N   UNK d   1      22.909  79.181  12.732  0.00  0.00    -0.362 N 
ATOM      5  C   UNK d   1      22.650  80.558  13.150  0.00  0.00     0.144 C 
ATOM      6  C   UNK d   1      22.639  80.537  14.660  0.00  0.00     0.142 C 
ENDROOT
BRANCH   1   7
ATOM      7  C   UNK d   1      22.071  78.721  16.242  0.00  0.00     0.134 C 
ATOM      8  C   UNK d   1      21.386  79.409  17.125  0.00  0.00     0.124 A 
ATOM      9  N   UNK d   1      21.420  80.821  17.192  0.00  0.00    -0.340 N 
ATOM     10  N   UNK d   1      20.555  78.710  18.079  0.00  0.00    -0.308 N 
ATOM     11  C   UNK d   1      20.648  81.539  18.181  0.00  0.00     0.049 A 
ATOM     12  H   UNK d   1      22.002  81.359  16.527  0.00  0.00     0.167 HD
ATOM     13  C   UNK d   1      19.854  80.896  19.096  0.00  0.00     0.060 A 
ATOM     14  C   UNK d   1      20.710  82.909  18.212  0.00  0.00     0.032 A 
ATOM     15  C   UNK d   1      19.130  81.614  20.028  0.00  0.00     0.043 A 
ATOM     16  C   UNK d   1      19.811  79.442  19.037  0.00  0.00     0.259 A 
ATOM     17  C   UNK d   1      19.193  82.973  20.056  0.00  0.00     0.035 A 
ATOM     18 Cl   UNK d   1      18.293  83.942  21.221  0.00  0.00    -0.084 Cl
ATOM     19  C   UNK d   1      19.987  83.631  19.144  0.00  0.00     0.026 A 
ATOM     20  O   UNK d   1      19.069  78.846  19.891  0.00  0.00    -0.267 OA
ATOM     21  H   UNK d   1      20.506  77.673  18.060  0.00  0.00     0.170 HD
ENDBRANCH   1   7
BRANCH   4  22
ATOM     22  C   UNK d   1      21.929  78.579  11.905  0.00  0.00     0.141 A 
ATOM     23  N   UNK d   1      20.895  77.891  12.516  0.00  0.00    -0.242 NA
ATOM     24  C   UNK d   1      19.921  77.270  11.853  0.00  0.00     0.119 A 
ATOM     25  C   UNK d   1      19.940  77.314  10.487  0.00  0.00     0.020 A 
ATOM     26  C   UNK d   1      20.945  77.984   9.849  0.00  0.00     0.022 A 
ATOM     27  C   UNK d   1      21.978  78.644  10.544  0.00  0.00     0.077 A 
BRANCH  27  28
ATOM     28  C   UNK d   1      22.998  79.363   9.844  0.00  0.00     0.253 C 
ATOM     29  O   UNK d   1      24.099  78.920   9.525  0.00  0.00    -0.268 OA
ATOM     30  N   UNK d   1      22.742  80.712   9.473  0.00  0.00    -0.366 N 
ATOM     31  H   UNK d   1      22.028  80.939   8.744  0.00  0.00     0.159 HD
ATOM     32  H   UNK d   1      23.235  81.531   9.893  0.00  0.00     0.159 HD
ENDBRANCH  27  28
ENDBRANCH   4  22
TORSDOF 3
ENDMDL
