MODEL 1
REMARK VINA RESULT:    -9.723      0.000      0.000
REMARK INTER + INTRA:         -11.632
REMARK INTER:                 -10.859
REMARK INTRA:                  -0.773
REMARK UNBOUND:                -0.773
REMARK  2 active torsions:
REMARK  status: ('A' for Active; 'I' for Inactive)
REMARK    1  A    between atoms: C_5  and  N_8 
REMARK    2  A    between atoms: C_12  and  C_20 
ROOT
ATOM      1  N   UNK d   1      20.746  79.385  17.019  0.00  0.00    -0.252 N 
ATOM      2  C   UNK d   1      20.758  80.799  17.134  0.00  0.00     0.239 C 
ATOM      3  O   UNK d   1      21.606  81.543  16.586  0.00  0.00    -0.272 OA
ATOM      4  C   UNK d   1      19.620  81.227  17.992  0.00  0.00     0.138 C 
ATOM      5  C   UNK d   1      20.024  81.396  19.424  0.00  0.00     0.142 C 
ATOM      6  O   UNK d   1      18.819  81.043  20.072  0.00  0.00    -0.360 OA
ATOM      7  C   UNK d   1      18.728  79.726  19.557  0.00  0.00     0.160 C 
ATOM      8  C   UNK d   1      18.725  79.991  18.091  0.00  0.00     0.128 C 
ATOM      9  C   UNK d   1      19.446  78.909  17.369  0.00  0.00     0.239 C 
ATOM     10  O   UNK d   1      18.980  77.793  17.124  0.00  0.00    -0.272 OA
ATOM     11  C   UNK d   1      20.072  79.222  19.942  0.00  0.00     0.005 C 
ATOM     12  C   UNK d   1      20.886  80.262  19.794  0.00  0.00     0.015 C 
ENDROOT
BRANCH   1  13
ATOM     13  C   UNK d   1      21.893  78.629  16.611  0.00  0.00     0.045 A 
ATOM     14  C   UNK d   1      22.887  78.287  17.502  0.00  0.00     0.031 A 
ATOM     15  C   UNK d   1      23.995  77.563  17.123  0.00  0.00     0.021 A 
ATOM     16  C   UNK d   1      24.102  77.177  15.809  0.00  0.00     0.011 A 
ATOM     17 Br   UNK d   1      25.615  76.179  15.248  0.00  0.00    -0.051 Br
ATOM     18  C   UNK d   1      23.126  77.506  14.903  0.00  0.00     0.021 A 
ATOM     19  C   UNK d   1      22.000  78.240  15.283  0.00  0.00     0.031 A 
ENDBRANCH   1  13
BRANCH   5  20
ATOM     20  C   UNK d   1      20.504  82.732  19.796  0.00  0.00     0.298 C 
ATOM     21  O   UNK d   1      20.420  83.003  21.134  0.00  0.00    -0.356 OA
ATOM     22  C   UNK d   1      19.448  83.952  21.332  0.00  0.00     0.197 C 
ATOM     23  C   UNK d   1      18.904  84.288  19.983  0.00  0.00     0.197 C 
ATOM     24  O   UNK d   1      19.833  83.730  19.112  0.00  0.00    -0.356 OA
ENDBRANCH   5  20
TORSDOF 2
ENDMDL
