/Users/jonathanwahrer/Desktop/Msc/3_Semester/Drug_Design_Praktikum/waehrer_HTS_screening/HTS_experiment/out/docking_results/vina_output/6e43/1808_docked.pdbqt
 OpenBabel03142213553D

 24 28  0  0  1  0  0  0  0  0999 V2000
   20.7460   79.3850   17.0190 N   0  0  0  0  0  0  0  0  0  0  0  0
   20.7580   80.7990   17.1340 C   0  0  0  0  0  0  0  0  0  0  0  0
   21.6060   81.5430   16.5860 O   0  0  0  0  0  0  0  0  0  0  0  0
   19.6200   81.2270   17.9920 C   0  0  2  0  0  3  0  0  0  0  0  0
   20.0240   81.3960   19.4240 C   0  0  1  0  0  0  0  0  0  0  0  0
   18.8190   81.0430   20.0720 O   0  0  0  0  0  0  0  0  0  0  0  0
   18.7280   79.7260   19.5570 C   0  0  1  0  0  3  0  0  0  0  0  0
   18.7250   79.9910   18.0910 C   0  0  2  0  0  3  0  0  0  0  0  0
   19.4460   78.9090   17.3690 C   0  0  0  0  0  0  0  0  0  0  0  0
   18.9800   77.7930   17.1240 O   0  0  0  0  0  0  0  0  0  0  0  0
   20.0720   79.2220   19.9420 C   0  0  0  0  0  2  0  0  0  0  0  0
   20.8860   80.2620   19.7940 C   0  0  0  0  0  2  0  0  0  0  0  0
   21.8930   78.6290   16.6110 C   0  0  0  0  0  0  0  0  0  0  0  0
   22.8870   78.2870   17.5020 C   0  0  0  0  0  3  0  0  0  0  0  0
   23.9950   77.5630   17.1230 C   0  0  0  0  0  3  0  0  0  0  0  0
   24.1020   77.1770   15.8090 C   0  0  0  0  0  0  0  0  0  0  0  0
   25.6150   76.1790   15.2480 Br  0  0  0  0  0  0  0  0  0  0  0  0
   23.1260   77.5060   14.9030 C   0  0  0  0  0  3  0  0  0  0  0  0
   22.0000   78.2400   15.2830 C   0  0  0  0  0  3  0  0  0  0  0  0
   20.5040   82.7320   19.7960 C   0  0  0  0  0  3  0  0  0  0  0  0
   20.4200   83.0030   21.1340 O   0  0  0  0  0  0  0  0  0  0  0  0
   19.4480   83.9520   21.3320 C   0  0  0  0  0  2  0  0  0  0  0  0
   18.9040   84.2880   19.9830 C   0  0  0  0  0  2  0  0  0  0  0  0
   19.8330   83.7300   19.1120 O   0  0  0  0  0  0  0  0  0  0  0  0
  1  2  1  0  0  0  0
  1  9  1  0  0  0  0
  3  2  2  0  0  0  0
  4  2  1  6  0  0  0
  4  8  1  0  0  0  0
  4  5  1  0  0  0  0
  5 12  1  0  0  0  0
  5 20  1  1  0  0  0
  5  6  1  0  0  0  0
  7 11  1  6  0  0  0
  7  6  1  0  0  0  0
  8  9  1  6  0  0  0
  8  7  1  0  0  0  0
 10  9  2  0  0  0  0
 12 11  1  0  0  0  0
 13  1  1  0  0  0  0
 13 14  1  0  0  0  0
 15 14  2  0  0  0  0
 16 15  1  0  0  0  0
 17 16  1  0  0  0  0
 18 19  1  0  0  0  0
 18 16  2  0  0  0  0
 19 13  2  0  0  0  0
 20 21  1  0  0  0  0
 21 22  1  0  0  0  0
 23 22  1  0  0  0  0
 24 20  1  0  0  0  0
 24 23  1  0  0  0  0
M  END
>  <Pose>
1

>  <Score>
-9.723

$$$$
