MODEL 1
REMARK VINA RESULT:   -10.491      0.000      0.000
REMARK INTER + INTRA:         -13.687
REMARK INTER:                 -13.558
REMARK INTRA:                  -0.129
REMARK UNBOUND:                -0.129
REMARK  5 active torsions:
REMARK  status: ('A' for Active; 'I' for Inactive)
REMARK    1  A    between atoms: S_1  and  N_4 
REMARK    2  A    between atoms: S_1  and  C_26 
REMARK       I    between atoms: N_7  and  C_10 
REMARK    3  A    between atoms: C_10  and  C_12 
REMARK    4  A    between atoms: N_14  and  C_18 
REMARK    5  A    between atoms: C_18  and  C_19 
ROOT
ATOM      1  N   UNK d   1      22.431  78.566  14.282  0.00  0.00    -0.203 NA
ATOM      2  C   UNK d   1      23.406  77.964  15.156  0.00  0.00     0.127 C 
ATOM      3  C   UNK d   1      22.689  77.517  16.409  0.00  0.00     0.141 C 
ATOM      4  N   UNK d   1      21.266  77.581  16.193  0.00  0.00    -0.349 N 
ATOM      5  C   UNK d   1      20.661  77.143  14.941  0.00  0.00     0.141 C 
ATOM      6  C   UNK d   1      21.582  77.508  13.774  0.00  0.00     0.127 C 
ATOM      7  C   UNK d   1      20.428  78.086  17.204  0.00  0.00     0.226 C 
ATOM      8  O   UNK d   1      19.163  78.098  17.011  0.00  0.00    -0.273 OA
ENDROOT
BRANCH   7   9
ATOM      9  C   UNK d   1      21.002  78.603  18.476  0.00  0.00     0.105 C 
ATOM     10  C   UNK d   1      21.319  80.070  18.416  0.00  0.00     0.140 C 
ATOM     11  N   UNK d   1      20.254  80.730  19.163  0.00  0.00    -0.347 N 
ATOM     12  C   UNK d   1      19.304  79.771  19.589  0.00  0.00     0.221 C 
ATOM     13  O   UNK d   1      18.111  80.031  19.879  0.00  0.00    -0.273 OA
ATOM     14  C   UNK d   1      20.021  78.478  19.608  0.00  0.00     0.118 C 
BRANCH  11  15
ATOM     15  C   UNK d   1      20.188  82.151  19.417  0.00  0.00     0.166 C 
BRANCH  15  16
ATOM     16  C   UNK d   1      20.264  82.457  20.865  0.00  0.00    -0.018 A 
ATOM     17  C   UNK d   1      19.353  83.346  21.417  0.00  0.00     0.042 A 
ATOM     18  C   UNK d   1      19.363  83.681  22.761  0.00  0.00     0.024 A 
ATOM     19 Cl   UNK d   1      18.158  84.057  20.367  0.00  0.00    -0.084 Cl
ATOM     20  C   UNK d   1      20.329  83.092  23.551  0.00  0.00     0.002 A 
ATOM     21  C   UNK d   1      21.253  82.201  23.032  0.00  0.00     0.001 A 
ATOM     22  C   UNK d   1      21.220  81.882  21.676  0.00  0.00     0.010 A 
ENDBRANCH  15  16
ENDBRANCH  11  15
ENDBRANCH   7   9
BRANCH   1  23
ATOM     23  S   UNK d   1      23.187  79.452  13.018  0.00  0.00     0.248 S 
ATOM     24  O   UNK d   1      24.671  79.220  12.989  0.00  0.00    -0.206 OA
ATOM     25  O   UNK d   1      23.005  80.919  13.346  0.00  0.00    -0.206 OA
BRANCH  23  26
ATOM     26  C   UNK d   1      22.451  79.128  11.478  0.00  0.00     0.132 A 
ATOM     27  C   UNK d   1      21.156  79.300  11.044  0.00  0.00     0.083 A 
ATOM     28  N   UNK d   1      21.097  78.879   9.743  0.00  0.00    -0.132 NA
ATOM     29  C   UNK d   1      20.052  79.849  11.854  0.00  0.00     0.074 C 
ATOM     30  O   UNK d   1      22.266  78.482   9.410  0.00  0.00    -0.216 OA
ATOM     31  C   UNK d   1      23.126  78.600  10.394  0.00  0.00     0.100 A 
ATOM     32  C   UNK d   1      24.551  78.217  10.285  0.00  0.00     0.081 C 
ENDBRANCH  23  26
ENDBRANCH   1  23
TORSDOF 5
ENDMDL
