MODEL 1
REMARK VINA RESULT:   -10.318      0.000      0.000
REMARK INTER + INTRA:         -11.845
REMARK INTER:                 -12.730
REMARK INTRA:                   0.886
REMARK UNBOUND:                 0.886
REMARK  4 active torsions:
REMARK  status: ('A' for Active; 'I' for Inactive)
REMARK    1  A    between atoms: C_7  and  O_8 
REMARK    2  A    between atoms: C_13  and  C_16 
REMARK    3  A    between atoms: C_16  and  C_17 
REMARK       I    between atoms: C_17  and  N_19 
REMARK       I    between atoms: N_22  and  C_25 
REMARK    4  A    between atoms: C_25  and  C_27 
ROOT
ATOM      1  C   UNK d   1      18.980  77.436   9.845  0.00  0.00     0.224 C 
ATOM      2  O   UNK d   1      18.601  78.580  10.274  0.00  0.00    -0.273 OA
ATOM      3  N   UNK d   1      18.843  77.180   8.492  0.00  0.00    -0.349 N 
ATOM      4  C   UNK d   1      18.303  78.124   7.564  0.00  0.00     0.145 C 
ATOM      5  C   UNK d   1      17.069  77.492   6.916  0.00  0.00     0.145 C 
ATOM      6  N   UNK d   1      17.428  76.244   6.331  0.00  0.00    -0.355 N 
ATOM      7  C   UNK d   1      18.835  75.820   6.490  0.00  0.00     0.145 C 
ATOM      8  C   UNK d   1      19.253  75.909   7.941  0.00  0.00     0.145 C 
ATOM      9  C   UNK d   1      16.558  75.386   5.626  0.00  0.00     0.204 C 
ATOM     10  O   UNK d   1      17.154  74.287   5.174  0.00  0.00    -0.170 OA
ENDROOT
BRANCH   1  11
ATOM     11  C   UNK d   1      19.535  76.482  10.844  0.00  0.00     0.148 C 
BRANCH  11  12
ATOM     12  C   UNK d   1      20.406  77.171  11.823  0.00  0.00     0.033 A 
ATOM     13  C   UNK d   1      21.346  78.103  11.387  0.00  0.00     0.295 A 
ATOM     14  O   UNK d   1      22.141  78.744  12.208  0.00  0.00    -0.274 OA
ATOM     15  O   UNK d   1      21.397  78.309  10.128  0.00  0.00    -0.259 OA
ATOM     16  C   UNK d   1      22.120  78.561  13.506  0.00  0.00     0.093 A 
ATOM     17  C   UNK d   1      21.228  77.662  14.043  0.00  0.00     0.006 A 
ATOM     18  C   UNK d   1      22.984  79.260  14.359  0.00  0.00     0.076 A 
ATOM     19  C   UNK d   1      21.216  77.481  15.405  0.00  0.00     0.041 A 
ATOM     20  C   UNK d   1      20.369  76.968  13.184  0.00  0.00    -0.036 A 
ATOM     21  C   UNK d   1      22.076  78.177  16.248  0.00  0.00     0.068 A 
ATOM     22 Cl   UNK d   1      22.066  77.948  17.982  0.00  0.00    -0.081 Cl
ATOM     23  C   UNK d   1      22.973  79.079  15.723  0.00  0.00     0.092 A 
ATOM     24  C   UNK d   1      19.424  76.019  13.764  0.00  0.00     0.050 C 
BRANCH  23  25
ATOM     25  O   UNK d   1      23.845  79.786  16.571  0.00  0.00    -0.354 OA
ATOM     26  C   UNK d   1      25.189  79.407  16.739  0.00  0.00     0.210 C 
ENDBRANCH  23  25
ENDBRANCH  11  12
ENDBRANCH   1  11
BRANCH   9  27
ATOM     27  C   UNK d   1      15.165  75.483   5.312  0.00  0.00     0.095 A 
ATOM     28  C   UNK d   1      14.682  74.914   4.106  0.00  0.00     0.108 A 
ATOM     29  C   UNK d   1      13.358  74.990   3.767  0.00  0.00     0.253 A 
ATOM     30  O   UNK d   1      12.955  74.477   2.690  0.00  0.00    -0.268 OA
ATOM     31  N   UNK d   1      12.448  75.598   4.539  0.00  0.00    -0.271 N 
ATOM     32  C   UNK d   1      12.901  76.133   5.674  0.00  0.00     0.329 A 
ATOM     33  C   UNK d   1      11.055  75.670   4.163  0.00  0.00     0.164 C 
ATOM     34  O   UNK d   1      12.074  76.724   6.444  0.00  0.00    -0.246 OA
ATOM     35  N   UNK d   1      14.227  76.074   6.045  0.00  0.00    -0.304 N 
ATOM     36  H   UNK d   1      14.477  76.519   6.950  0.00  0.00     0.171 HD
ENDBRANCH   9  27
TORSDOF 4
ENDMDL
