MODEL 1
REMARK VINA RESULT:    -9.720      0.000      0.000
REMARK INTER + INTRA:         -10.603
REMARK INTER:                 -10.289
REMARK INTRA:                  -0.315
REMARK UNBOUND:                -0.315
REMARK  1 active torsions:
REMARK  status: ('A' for Active; 'I' for Inactive)
REMARK    1  A    between atoms: C_8  and  N_10 
ROOT
ATOM      1 Cl   UNK d   1      17.728  72.711  10.415  0.00  0.00    -0.076 Cl
ATOM      2  C   UNK d   1      18.517  73.447  11.806  0.00  0.00     0.127 A 
ATOM      3  C   UNK d   1      18.825  72.647  12.883  0.00  0.00     0.050 A 
ATOM      4  N   UNK d   1      19.427  73.218  13.938  0.00  0.00    -0.190 N 
ATOM      5  C   UNK d   1      19.738  74.540  13.979  0.00  0.00     0.747 A 
ATOM      6  N   UNK d   1      19.443  75.330  12.933  0.00  0.00    -0.005 N 
ATOM      7  N   UNK d   1      19.841  76.569  13.208  0.00  0.00     0.046 NA
ATOM      8  C   UNK d   1      20.403  76.614  14.433  0.00  0.00     0.772 A 
ATOM      9  N   UNK d   1      20.325  75.339  14.888  0.00  0.00     0.133 NA
ATOM     10  C   UNK d   1      18.835  74.786  11.851  0.00  0.00     0.308 A 
ATOM     11  O   UNK d   1      18.555  75.533  10.859  0.00  0.00    -0.264 OA
ATOM     12  C   UNK d   1      18.487  71.183  12.854  0.00  0.00     0.071 C 
ATOM     13  H   UNK d   1      19.663  72.614  14.761  0.00  0.00     0.184 HD
ENDROOT
BRANCH   8  14
ATOM     14  N   UNK d   1      20.954  77.746  15.102  0.00  0.00    -0.076 N 
ATOM     15  C   UNK d   1      20.600  78.199  16.401  0.00  0.00     0.251 C 
ATOM     16  O   UNK d   1      20.032  77.557  17.322  0.00  0.00    -0.272 OA
ATOM     17  C   UNK d   1      21.017  79.635  16.551  0.00  0.00     0.096 C 
ATOM     18  C   UNK d   1      21.905  79.917  15.393  0.00  0.00     0.096 C 
ATOM     19  C   UNK d   1      21.769  79.790  17.856  0.00  0.00     0.042 C 
ATOM     20  C   UNK d   1      23.342  80.237  15.765  0.00  0.00     0.042 C 
ATOM     21  C   UNK d   1      21.946  78.649  14.639  0.00  0.00     0.251 C 
ATOM     22  C   UNK d   1      23.785  79.162  16.710  0.00  0.00    -0.030 C 
ATOM     23  C   UNK d   1      22.989  78.955  17.742  0.00  0.00    -0.030 C 
ATOM     24  O   UNK d   1      22.758  78.383  13.694  0.00  0.00    -0.272 OA
ENDBRANCH   8  14
TORSDOF 1
ENDMDL
