/Users/jonathanwahrer/Desktop/Msc/3_Semester/Drug_Design_Praktikum/waehrer_HTS_screening/HTS_experiment/out/docking_results/vina_output/6e43/1825_docked.pdbqt
 OpenBabel03212220493D

 29 32  0  0  1  0  0  0  0  0999 V2000
   20.2360   77.9040   18.0920 N   0  0  0  0  0  0  0  0  0  0  0  0
   21.4440   78.2840   17.5800 C   0  0  1  0  0  3  0  0  0  0  0  0
   21.5290   77.8760   16.3030 N   0  0  0  0  0  0  0  0  0  0  0  0
   20.4100   77.2350   15.9430 C   0  0  0  0  0  0  0  0  0  0  0  0
   19.6120   77.2700   17.0970 C   0  0  0  0  0  3  0  0  0  0  0  0
   22.8290   78.2790   15.7690 C   0  0  0  0  0  2  0  0  0  0  0  0
   23.6710   78.6160   16.9850 C   0  0  0  0  0  2  0  0  0  0  0  0
   22.6650   79.0160   18.0050 C   0  0  0  0  0  2  0  0  0  0  0  0
   19.7910   78.1560   19.4710 C   0  0  0  0  0  2  0  0  0  0  0  0
   19.3410   79.5990   19.5690 C   0  0  0  0  0  0  0  0  0  0  0  0
   20.1820   80.5940   20.0400 N   0  0  0  0  0  0  0  0  0  0  0  0
   21.1630   80.2890   20.3220 H   0  0  0  0  0  0  0  0  0  0  0  0
   18.1790   79.8080   19.2030 O   0  0  0  0  0  0  0  0  0  0  0  0
   19.8600   81.9580   20.1820 C   0  0  0  0  0  0  0  0  0  0  0  0
   20.1350   82.8230   19.1010 C   0  0  0  0  0  0  0  0  0  0  0  0
   19.8520   84.1680   19.1730 C   0  0  0  0  0  0  0  0  0  0  0  0
   20.7400   82.2830   17.8710 C   0  0  0  0  0  1  0  0  0  0  0  0
   20.1820   85.2530   17.8390 Cl  0  0  0  0  0  0  0  0  0  0  0  0
   19.2910   84.7290   20.2970 C   0  0  0  0  0  3  0  0  0  0  0  0
   19.0140   83.9130   21.3630 C   0  0  0  0  0  3  0  0  0  0  0  0
   19.3050   82.5370   21.2860 C   0  0  0  0  0  3  0  0  0  0  0  0
   19.9980   76.6030   14.7000 C   0  0  0  0  0  0  0  0  0  0  0  0
   19.2280   75.4740   14.6640 C   0  0  0  0  0  3  0  0  0  0  0  0
   18.8130   74.8730   13.4900 C   0  0  0  0  0  3  0  0  0  0  0  0
   19.1700   75.4020   12.2590 C   0  0  0  0  0  0  0  0  0  0  0  0
   19.9440   76.5370   12.2930 C   0  0  0  0  0  3  0  0  0  0  0  0
   20.3580   77.1370   13.4660 C   0  0  0  0  0  3  0  0  0  0  0  0
   18.7740   74.8280   11.0630 O   0  0  0  0  0  0  0  0  0  0  0  0
   19.1600   75.3390    9.8010 C   0  0  0  0  0  1  0  0  0  0  0  0
  1  9  1  0  0  0  0
  2  8  1  6  0  0  0
  2  1  1  0  0  0  0
  3  2  1  0  0  0  0
  4  3  1  0  0  0  0
  4  5  2  0  0  0  0
  5  1  1  0  0  0  0
  6  3  1  0  0  0  0
  6  7  1  0  0  0  0
  7  8  1  0  0  0  0
  9 10  1  0  0  0  0
 10 11  1  0  0  0  0
 11 14  1  0  0  0  0
 11 12  1  0  0  0  0
 13 10  2  0  0  0  0
 14 21  1  0  0  0  0
 15 16  1  0  0  0  0
 15 14  2  0  0  0  0
 16 19  2  0  0  0  0
 17 15  1  0  0  0  0
 18 16  1  0  0  0  0
 19 20  1  0  0  0  0
 21 20  2  0  0  0  0
 22  4  1  0  0  0  0
 23 22  1  0  0  0  0
 24 23  2  0  0  0  0
 25 26  2  0  0  0  0
 25 24  1  0  0  0  0
 26 27  1  0  0  0  0
 27 22  2  0  0  0  0
 28 25  1  0  0  0  0
 29 28  1  0  0  0  0
M  END
>  <Pose>
1

>  <Score>
-10.381

$$$$
