/Users/jonathanwahrer/Desktop/Msc/3_Semester/Drug_Design_Praktikum/waehrer_HTS_screening/HTS_experiment/out/docking_results/vina_output/6e43/1837_docked.pdbqt
 OpenBabel03212220503D

 29 32  0  0  0  0  0  0  0  0999 V2000
   21.6050   77.9910   14.9570 N   0  0  0  0  0  0  0  0  0  0  0  0
   21.7800   79.4120   15.3220 C   0  0  0  0  0  2  0  0  0  0  0  0
   21.9140   80.0880   13.9410 C   0  0  0  0  0  2  0  0  0  0  0  0
   22.6600   79.0910   13.1580 N   0  0  0  0  0  0  0  0  0  0  0  0
   23.6940   78.4130   13.8730 C   0  0  0  0  0  2  0  0  0  0  0  0
   22.9820   77.4550   14.8420 C   0  0  0  0  0  2  0  0  0  0  0  0
   20.9140   77.2740   16.0130 C   0  0  0  0  0  2  0  0  0  0  0  0
   19.9610   76.3210   15.3290 C   0  0  0  0  0  0  0  0  0  0  0  0
   20.4080   75.3360   14.4440 N   0  0  0  0  0  0  0  0  0  0  0  0
   21.4580   75.3220   14.2500 H   0  0  0  0  0  0  0  0  0  0  0  0
   18.7320   76.4340   15.5720 O   0  0  0  0  0  0  0  0  0  0  0  0
   19.6450   74.3770   13.7450 C   0  0  0  0  0  0  0  0  0  0  0  0
   20.0420   73.0320   13.7300 C   0  0  0  0  0  3  0  0  0  0  0  0
   19.3330   72.0580   13.0760 C   0  0  0  0  0  3  0  0  0  0  0  0
   18.1710   72.3820   12.3890 C   0  0  0  0  0  0  0  0  0  0  0  0
   17.2400   71.1640   11.5440 Cl  0  0  0  0  0  0  0  0  0  0  0  0
   17.7690   73.6950   12.3950 C   0  0  0  0  0  3  0  0  0  0  0  0
   18.4980   74.6710   13.0630 C   0  0  0  0  0  3  0  0  0  0  0  0
   22.2990   78.8790   11.8190 C   0  0  0  0  0  0  0  0  0  0  0  0
   23.0960   79.3420   10.8070 N   0  0  0  0  0  0  0  0  0  0  0  0
   22.8150   79.1910    9.5140 C   0  0  0  0  0  3  0  0  0  0  0  0
   21.6950   78.5550    9.1530 N   0  0  0  0  0  0  0  0  0  0  0  0
   20.8420   78.0600   10.0440 C   0  0  0  0  0  0  0  0  0  0  0  0
   19.6720   77.3970    9.9560 N   0  0  0  0  0  0  0  0  0  0  0  0
   21.1490   78.2260   11.3990 C   0  0  0  0  0  0  0  0  0  0  0  0
   19.2810   77.1650   11.1840 N   0  0  0  0  0  0  0  0  0  0  0  0
   20.1540   77.6540   12.0510 N   0  0  0  0  0  0  0  0  0  0  0  0
   18.9460   76.9970    8.7660 C   0  0  0  0  0  2  0  0  0  0  0  0
   19.5320   75.7410    8.1590 C   0  0  0  0  0  1  0  0  0  0  0  0
  1  2  1  0  0  0  0
  1  7  1  0  0  0  0
  3  2  1  0  0  0  0
  4  5  1  0  0  0  0
  4  3  1  0  0  0  0
  5  6  1  0  0  0  0
  6  1  1  0  0  0  0
  8 11  2  0  0  0  0
  8  7  1  0  0  0  0
  9  8  1  0  0  0  0
 10  9  1  0  0  0  0
 12  9  1  0  0  0  0
 13 12  1  0  0  0  0
 14 13  2  0  0  0  0
 15 17  2  0  0  0  0
 15 14  1  0  0  0  0
 16 15  1  0  0  0  0
 17 18  1  0  0  0  0
 18 12  2  0  0  0  0
 19  4  1  0  0  0  0
 20 19  2  0  0  0  0
 21 20  1  0  0  0  0
 22 21  2  0  0  0  0
 22 23  1  0  0  0  0
 23 25  2  0  0  0  0
 24 23  1  0  0  0  0
 24 26  1  0  0  0  0
 25 19  1  0  0  0  0
 25 27  1  0  0  0  0
 26 27  2  0  0  0  0
 28 24  1  0  0  0  0
 29 28  1  0  0  0  0
M  END
>  <Pose>
1

>  <Score>
-9.318

$$$$
