/Users/jonathanwahrer/Desktop/Msc/3_Semester/Drug_Design_Praktikum/waehrer_HTS_screening/HTS_experiment/out/docking_results/vina_output/6e43/1850_docked.pdbqt
 OpenBabel03212220503D

 24 27  0  0  0  0  0  0  0  0999 V2000
   25.8310   79.0490   16.9900 Cl  0  0  0  0  0  0  0  0  0  0  0  0
   24.3130   79.5600   16.2640 C   0  0  0  0  0  0  0  0  0  0  0  0
   23.1170   79.0180   16.6890 C   0  0  0  0  0  0  0  0  0  0  0  0
   21.9360   79.4140   16.1260 C   0  0  0  0  0  0  0  0  0  0  0  0
   21.9730   80.3620   15.1280 C   0  0  0  0  0  3  0  0  0  0  0  0
   23.1560   80.9150   14.6880 C   0  0  0  0  0  3  0  0  0  0  0  0
   24.3420   80.5080   15.2640 C   0  0  0  0  0  3  0  0  0  0  0  0
   20.6130   78.8800   16.5280 C   0  0  0  0  0  2  0  0  0  0  0  0
   20.8200   78.0660   17.7000 N   0  0  0  0  0  0  0  0  0  0  0  0
   21.9280   77.1400   17.6610 C   0  0  0  0  0  2  0  0  0  0  0  0
   23.1930   77.9990   17.7750 C   0  0  0  0  0  2  0  0  0  0  0  0
   19.9950   78.1490   18.8460 C   0  0  0  0  0  0  0  0  0  0  0  0
   20.2310   77.4090   19.8370 O   0  0  0  0  0  0  0  0  0  0  0  0
   18.8430   79.0740   18.9540 C   0  0  0  0  0  2  0  0  0  0  0  0
   18.9950   79.9860   19.9980 O   0  0  0  0  0  0  0  0  0  0  0  0
   19.2580   81.3380   19.8190 C   0  0  0  0  0  0  0  0  0  0  0  0
   18.7580   82.2270   20.6990 N   0  0  0  0  0  0  0  0  0  0  0  0
   18.9740   83.5350   20.5830 N   0  0  0  0  0  0  0  0  0  0  0  0
   19.7020   84.0550   19.5870 C   0  0  0  0  0  0  0  0  0  0  0  0
   18.5650   84.5630   21.3490 C   0  0  0  0  0  3  0  0  0  0  0  0
   19.7480   85.3940   19.7260 N   0  0  0  0  0  0  0  0  0  0  0  0
   20.2340   83.1670   18.6590 C   0  0  0  0  0  3  0  0  0  0  0  0
   19.0540   85.6870   20.7990 N   0  0  0  0  0  0  0  0  0  0  0  0
   20.0130   81.8160   18.7770 C   0  0  0  0  0  3  0  0  0  0  0  0
  2  3  1  0  0  0  0
  2  1  1  0  0  0  0
  3 11  1  0  0  0  0
  4  8  1  0  0  0  0
  4  3  2  0  0  0  0
  5  4  1  0  0  0  0
  6  5  2  0  0  0  0
  6  7  1  0  0  0  0
  7  2  2  0  0  0  0
  8  9  1  0  0  0  0
  9 12  1  0  0  0  0
 10  9  1  0  0  0  0
 10 11  1  0  0  0  0
 12 14  1  0  0  0  0
 12 13  2  0  0  0  0
 14 15  1  0  0  0  0
 16 15  1  0  0  0  0
 16 17  2  0  0  0  0
 18 17  1  0  0  0  0
 18 20  1  0  0  0  0
 19 21  2  0  0  0  0
 19 18  1  0  0  0  0
 21 23  1  0  0  0  0
 22 24  2  0  0  0  0
 22 19  1  0  0  0  0
 23 20  2  0  0  0  0
 24 16  1  0  0  0  0
M  END
>  <Pose>
1

>  <Score>
-9.494

$$$$
