MODEL 1
REMARK VINA RESULT:    -9.902      0.000      0.000
REMARK INTER + INTRA:         -12.787
REMARK INTER:                 -12.218
REMARK INTRA:                  -0.569
REMARK UNBOUND:                -0.569
REMARK  4 active torsions:
REMARK  status: ('A' for Active; 'I' for Inactive)
REMARK    1  A    between atoms: S_1  and  N_4 
REMARK    2  A    between atoms: S_1  and  C_17 
REMARK    3  A    between atoms: C_6  and  O_9 
REMARK    4  A    between atoms: O_9  and  C_10 
ROOT
ATOM      1  N   UNK d   1      20.413  77.991  15.949  0.00  0.00    -0.204 NA
ATOM      2  C   UNK d   1      19.725  76.778  15.638  0.00  0.00     0.140 C 
ATOM      3  C   UNK d   1      20.308  76.241  14.342  0.00  0.00     0.147 C 
ATOM      4  C   UNK d   1      21.714  76.802  14.380  0.00  0.00     0.049 C 
ATOM      5  C   UNK d   1      21.455  78.184  14.991  0.00  0.00     0.110 C 
ENDROOT
BRANCH   1   6
ATOM      6  S   UNK d   1      20.974  78.035  17.576  0.00  0.00     0.243 S 
ATOM      7  O   UNK d   1      22.465  78.032  17.605  0.00  0.00    -0.206 OA
ATOM      8  O   UNK d   1      20.473  76.792  18.263  0.00  0.00    -0.206 OA
BRANCH   6   9
ATOM      9  C   UNK d   1      20.369  79.434  18.432  0.00  0.00     0.077 A 
ATOM     10  C   UNK d   1      20.586  80.705  17.937  0.00  0.00     0.064 A 
ATOM     11  C   UNK d   1      20.129  81.845  18.576  0.00  0.00     0.103 A 
ATOM     12  C   UNK d   1      19.422  81.732  19.760  0.00  0.00     0.102 A 
ATOM     13  O   UNK d   1      20.338  83.115  18.093  0.00  0.00    -0.346 OA
ATOM     14  C   UNK d   1      19.210  80.467  20.245  0.00  0.00     0.041 A 
ATOM     15  O   UNK d   1      18.982  82.898  20.365  0.00  0.00    -0.346 OA
ATOM     16  C   UNK d   1      19.664  79.330  19.612  0.00  0.00     0.028 A 
ATOM     17  C   UNK d   1      19.600  84.159  20.175  0.00  0.00     0.202 C 
ATOM     18  C   UNK d   1      20.244  84.304  18.821  0.00  0.00     0.202 C 
ENDBRANCH   6   9
ENDBRANCH   1   6
BRANCH   3  19
ATOM     19  O   UNK d   1      20.389  74.830  14.460  0.00  0.00    -0.312 OA
BRANCH  19  20
ATOM     20  C   UNK d   1      19.572  73.983  13.728  0.00  0.00     0.268 A 
ATOM     21  N   UNK d   1      20.021  72.703  13.582  0.00  0.00    -0.218 NA
ATOM     22  C   UNK d   1      19.251  71.858  12.878  0.00  0.00     0.146 A 
ATOM     23  C   UNK d   1      18.051  72.242  12.314  0.00  0.00     0.069 A 
ATOM     24  C   UNK d   1      17.647  73.551  12.495  0.00  0.00     0.146 A 
ATOM     25 Cl   UNK d   1      17.056  71.130  11.397  0.00  0.00    -0.081 Cl
ATOM     26  N   UNK d   1      18.422  74.400  13.204  0.00  0.00    -0.218 NA
ENDBRANCH  19  20
ENDBRANCH   3  19
TORSDOF 4
ENDMDL
