/Users/jonathanwahrer/Desktop/Msc/3_Semester/Drug_Design_Praktikum/waehrer_HTS_screening/HTS_experiment/out/docking_results/vina_output/6e43/1852_docked.pdbqt
 OpenBabel03212220503D

 26 29  0  0  1  0  0  0  0  0999 V2000
   20.4130   77.9910   15.9490 N   0  0  0  0  0  0  0  0  0  0  0  0
   19.7250   76.7780   15.6380 C   0  0  0  0  0  2  0  0  0  0  0  0
   20.3080   76.2410   14.3420 C   0  0  1  0  0  3  0  0  0  0  0  0
   21.7140   76.8020   14.3800 C   0  0  0  0  0  2  0  0  0  0  0  0
   21.4550   78.1840   14.9910 C   0  0  0  0  0  2  0  0  0  0  0  0
   20.9740   78.0350   17.5760 S   0  0  0  0  0  0  0  0  0  0  0  0
   22.4650   78.0320   17.6050 O   0  0  0  0  0  0  0  0  0  0  0  0
   20.4730   76.7920   18.2630 O   0  0  0  0  0  0  0  0  0  0  0  0
   20.3690   79.4340   18.4320 C   0  0  0  0  0  0  0  0  0  0  0  0
   20.5860   80.7050   17.9370 C   0  0  0  0  0  3  0  0  0  0  0  0
   20.1290   81.8450   18.5760 C   0  0  0  0  0  0  0  0  0  0  0  0
   19.4220   81.7320   19.7600 C   0  0  0  0  0  0  0  0  0  0  0  0
   20.3380   83.1150   18.0930 O   0  0  0  0  0  0  0  0  0  0  0  0
   19.2100   80.4670   20.2450 C   0  0  0  0  0  3  0  0  0  0  0  0
   18.9820   82.8980   20.3650 O   0  0  0  0  0  0  0  0  0  0  0  0
   19.6640   79.3300   19.6120 C   0  0  0  0  0  3  0  0  0  0  0  0
   19.6000   84.1590   20.1750 C   0  0  0  0  0  2  0  0  0  0  0  0
   20.2440   84.3040   18.8210 C   0  0  0  0  0  2  0  0  0  0  0  0
   20.3890   74.8300   14.4600 O   0  0  0  0  0  0  0  0  0  0  0  0
   19.5720   73.9830   13.7280 C   0  0  0  0  0  0  0  0  0  0  0  0
   20.0210   72.7030   13.5820 N   0  0  0  0  0  0  0  0  0  0  0  0
   19.2510   71.8580   12.8780 C   0  0  0  0  0  3  0  0  0  0  0  0
   18.0510   72.2420   12.3140 C   0  0  0  0  0  0  0  0  0  0  0  0
   17.6470   73.5510   12.4950 C   0  0  0  0  0  2  0  0  0  0  0  0
   17.0560   71.1300   11.3970 Cl  0  0  0  0  0  0  0  0  0  0  0  0
   18.4220   74.4000   13.2040 N   0  0  0  0  0  0  0  0  0  0  0  0
  1  6  1  0  0  0  0
  2  1  1  0  0  0  0
  3  4  1  0  0  0  0
  3 19  1  1  0  0  0
  3  2  1  0  0  0  0
  4  5  1  0  0  0  0
  5  1  1  0  0  0  0
  6  7  2  0  0  0  0
  6  8  2  0  0  0  0
  6  9  1  0  0  0  0
  9 16  1  0  0  0  0
 10  9  2  0  0  0  0
 10 11  1  0  0  0  0
 11 12  2  0  0  0  0
 12 14  1  0  0  0  0
 12 15  1  0  0  0  0
 13 11  1  0  0  0  0
 13 18  1  0  0  0  0
 16 14  2  0  0  0  0
 17 15  1  0  0  0  0
 18 17  1  0  0  0  0
 20 19  1  0  0  0  0
 21 20  2  0  0  0  0
 22 21  1  0  0  0  0
 23 24  1  0  0  0  0
 23 22  2  0  0  0  0
 24 26  1  0  0  0  0
 25 23  1  0  0  0  0
 26 20  2  0  0  0  0
M  END
>  <Pose>
1

>  <Score>
-9.902

$$$$
