/Users/jonathanwahrer/Desktop/Msc/3_Semester/Drug_Design_Praktikum/waehrer_HTS_screening/HTS_experiment/out/docking_results/vina_output/6e43/1856_docked.pdbqt
 OpenBabel03212220513D

 31 34  0  0  0  0  0  0  0  0999 V2000
   20.3610   76.3460   14.3700 C   0  0  0  0  0  0  0  0  0  0  0  0
   20.3910   77.1710   13.3120 N   0  0  0  0  0  4  0  0  0  0  0  0
   19.8290   76.8820   12.1080 C   0  0  0  0  0  0  0  0  0  0  0  0
   19.2170   75.6700   12.0370 N   0  0  0  0  0  0  0  0  0  0  0  0
   19.1560   74.8030   13.0600 C   0  0  0  0  0  0  0  0  0  0  0  0
   19.7280   75.1590   14.2030 N   0  0  0  0  0  2  0  0  0  0  0  0
   20.9630   76.6950   15.6070 N   0  0  0  0  0  0  0  0  0  0  0  0
   21.8980   76.3260   15.8740 H   0  0  0  0  0  0  0  0  0  0  0  0
   20.3230   77.5450   16.5090 N   0  0  0  0  0  0  0  0  0  0  0  0
   21.0680   78.4040   17.1710 C   0  0  0  0  0  3  0  0  0  0  0  0
   20.4420   79.3100   18.1210 C   0  0  0  0  0  0  0  0  0  0  0  0
   20.6220   80.6940   17.9760 C   0  0  0  0  0  3  0  0  0  0  0  0
   20.0430   81.5580   18.8570 C   0  0  0  0  0  0  0  0  0  0  0  0
   20.2860   83.4400   18.6640 Br  0  0  0  0  0  0  0  0  0  0  0  0
   19.2730   81.0970   19.9010 C   0  0  0  0  0  3  0  0  0  0  0  0
   19.0820   79.7490   20.0640 C   0  0  0  0  0  3  0  0  0  0  0  0
   19.6760   78.8530   19.1600 C   0  0  0  0  0  0  0  0  0  0  0  0
   19.4650   77.5020   19.3520 O   0  0  0  0  0  0  0  0  0  0  0  0
   18.8510   77.1150   20.0380 H   0  0  0  0  0  0  0  0  0  0  0  0
   19.8780   77.7710   11.0180 N   0  0  0  0  0  0  0  0  0  0  0  0
   20.5280   79.0410   11.1430 C   0  0  0  0  0  2  0  0  0  0  0  0
   21.5370   79.1400   10.0110 C   0  0  0  0  0  2  0  0  0  0  0  0
   20.8200   79.0060    8.8130 O   0  0  0  0  0  0  0  0  0  0  0  0
   20.3370   77.7030    8.6850 C   0  0  0  0  0  2  0  0  0  0  0  0
   19.2810   77.4310    9.7620 C   0  0  0  0  0  2  0  0  0  0  0  0
   18.5010   73.5580   12.9150 N   0  0  0  0  0  0  0  0  0  0  0  0
   19.2060   72.3160   12.6660 C   0  0  0  0  0  2  0  0  0  0  0  0
   18.4340   71.1610   13.2670 C   0  0  0  0  0  2  0  0  0  0  0  0
   17.1450   71.0650   12.8150 O   0  0  0  0  0  0  0  0  0  0  0  0
   16.6890   72.2100   12.1750 C   0  0  0  0  0  2  0  0  0  0  0  0
   17.0430   73.4380   13.0080 C   0  0  0  0  0  2  0  0  0  0  0  0
  1  7  1  0  0  0  0
  2  1  2  0  0  0  0
  3  2  2  0  0  0  0
  4  3  1  0  0  0  0
  4  5  2  0  0  0  0
  5  6  1  0  0  0  0
  6  1  1  0  0  0  0
  7  8  1  0  0  0  0
  7  9  1  0  0  0  0
  9 10  2  0  0  0  0
 10 11  1  0  0  0  0
 11 17  1  0  0  0  0
 12 11  2  0  0  0  0
 12 13  1  0  0  0  0
 13 15  2  0  0  0  0
 14 13  1  0  0  0  0
 15 16  1  0  0  0  0
 17 18  1  0  0  0  0
 17 16  2  0  0  0  0
 18 19  1  0  0  0  0
 20 21  1  0  0  0  0
 20  3  1  0  0  0  0
 22 21  1  0  0  0  0
 23 22  1  0  0  0  0
 24 23  1  0  0  0  0
 24 25  1  0  0  0  0
 25 20  1  0  0  0  0
 26 31  1  0  0  0  0
 26  5  1  0  0  0  0
 27 26  1  0  0  0  0
 27 28  1  0  0  0  0
 29 28  1  0  0  0  0
 30 29  1  0  0  0  0
 30 31  1  0  0  0  0
M  END
>  <Pose>
1

>  <Score>
-10.170

$$$$
