/Users/jonathanwahrer/Desktop/Msc/3_Semester/Drug_Design_Praktikum/waehrer_HTS_screening/HTS_experiment/out/docking_results/vina_output/6e43/1863_docked.pdbqt
 OpenBabel03212220513D

 33 36  0  0  0  0  0  0  0  0999 V2000
   19.9530   76.6740   13.6550 N   0  0  0  0  0  0  0  0  0  0  0  0
   20.2280   77.0670   12.3810 C   0  0  0  0  0  0  0  0  0  0  0  0
   21.2850   77.9360   12.4340 C   0  0  0  0  0  0  0  0  0  0  0  0
   21.6120   78.0410   13.7220 N   0  0  0  0  0  0  0  0  0  0  0  0
   20.8020   77.2710   14.4960 C   0  0  0  0  0  0  0  0  0  0  0  0
   21.7300   78.4750   11.2860 N   0  0  0  0  0  0  0  0  0  0  0  0
   21.1560   78.1780   10.0890 C   0  0  0  0  0  0  0  0  0  0  0  0
   21.5690   78.6820    8.9970 O   0  0  0  0  0  0  0  0  0  0  0  0
   20.1170   77.3290   10.0050 N   0  0  0  0  0  0  0  0  0  0  0  0
   19.6610   76.7820   11.1410 C   0  0  0  0  0  0  0  0  0  0  0  0
   18.6920   75.9990   11.0290 O   0  0  0  0  0  0  0  0  0  0  0  0
   22.8350   79.3970   11.2900 C   0  0  0  0  0  1  0  0  0  0  0  0
   19.6710   77.0990    9.0670 H   0  0  0  0  0  0  0  0  0  0  0  0
   20.8750   77.2020   15.9350 N   0  0  0  0  0  0  0  0  0  0  0  0
   22.1590   77.5420   16.5040 C   0  0  0  0  0  2  0  0  0  0  0  0
   22.1740   77.5420   18.0110 C   0  0  0  0  0  2  0  0  0  0  0  0
   21.0300   78.2500   18.4580 N   0  0  0  0  0  0  0  0  0  0  0  0
   19.8160   77.5930   18.1050 C   0  0  0  0  0  2  0  0  0  0  0  0
   19.8170   76.8340   16.8110 C   0  0  0  0  0  2  0  0  0  0  0  0
   21.0930   79.6230   18.0670 C   0  0  0  0  0  2  0  0  0  0  0  0
   19.8210   80.3750   18.2780 C   0  0  0  0  0  0  0  0  0  0  0  0
   19.0080   80.6390   17.3790 O   0  0  0  0  0  0  0  0  0  0  0  0
   19.5820   80.7930   19.6300 N   0  0  0  0  0  0  0  0  0  0  0  0
   20.0120   81.6610   20.0210 H   0  0  0  0  0  0  0  0  0  0  0  0
   18.9760   80.2230   20.2160 H   0  0  0  0  0  0  0  0  0  0  0  0
   18.9260   75.7430   13.9810 C   0  0  0  0  0  2  0  0  0  0  0  0
   19.2080   74.3250   13.6360 C   0  0  0  0  0  0  0  0  0  0  0  0
   18.2980   73.6560   12.8030 C   0  0  0  0  0  3  0  0  0  0  0  0
   18.4530   72.3520   12.4250 C   0  0  0  0  0  0  0  0  0  0  0  0
   17.3210   71.5060   11.3730 Cl  0  0  0  0  0  0  0  0  0  0  0  0
   19.5460   71.6450   12.8770 C   0  0  0  0  0  3  0  0  0  0  0  0
   20.4470   72.2950   13.6970 C   0  0  0  0  0  3  0  0  0  0  0  0
   20.2860   73.6190   14.0770 C   0  0  0  0  0  3  0  0  0  0  0  0
  1 26  1  0  0  0  0
  1  5  1  0  0  0  0
  2  3  2  0  0  0  0
  2  1  1  0  0  0  0
  3  4  1  0  0  0  0
  4  5  2  0  0  0  0
  5 14  1  0  0  0  0
  6 12  1  0  0  0  0
  6  3  1  0  0  0  0
  7  6  1  0  0  0  0
  8  7  2  0  0  0  0
  9  7  1  0  0  0  0
  9 10  1  0  0  0  0
 10  2  1  0  0  0  0
 11 10  2  0  0  0  0
 13  9  1  0  0  0  0
 14 15  1  0  0  0  0
 14 19  1  0  0  0  0
 15 16  1  0  0  0  0
 16 17  1  0  0  0  0
 18 17  1  0  0  0  0
 19 18  1  0  0  0  0
 20 21  1  0  0  0  0
 20 17  1  0  0  0  0
 21 23  1  0  0  0  0
 22 21  2  0  0  0  0
 23 24  1  0  0  0  0
 23 25  1  0  0  0  0
 27 26  1  0  0  0  0
 27 33  1  0  0  0  0
 28 27  2  0  0  0  0
 29 28  1  0  0  0  0
 29 31  2  0  0  0  0
 30 29  1  0  0  0  0
 31 32  1  0  0  0  0
 32 33  2  0  0  0  0
M  END
>  <Pose>
1

>  <Score>
-9.016

$$$$
