MODEL 1
REMARK VINA RESULT:    -9.016      0.000      0.000
REMARK INTER + INTRA:         -11.863
REMARK INTER:                 -11.652
REMARK INTRA:                  -0.211
REMARK UNBOUND:                -0.211
REMARK  5 active torsions:
REMARK  status: ('A' for Active; 'I' for Inactive)
REMARK    1  A    between atoms: C_4  and  C_8 
REMARK    2  A    between atoms: C_8  and  N_9 
REMARK    3  A    between atoms: C_13  and  N_14 
REMARK    4  A    between atoms: N_17  and  C_20 
REMARK    5  A    between atoms: C_20  and  C_21 
REMARK       I    between atoms: C_21  and  N_23 
ROOT
ATOM      1  N   UNK d   1      19.953  76.674  13.655  0.00  0.00    -0.168 N 
ATOM      2  C   UNK d   1      20.228  77.067  12.381  0.00  0.00     0.167 A 
ATOM      3  C   UNK d   1      21.285  77.936  12.434  0.00  0.00     0.185 A 
ATOM      4  N   UNK d   1      21.612  78.041  13.722  0.00  0.00    -0.044 NA
ATOM      5  C   UNK d   1      20.802  77.271  14.496  0.00  0.00     0.707 A 
ATOM      6  N   UNK d   1      21.730  78.475  11.286  0.00  0.00    -0.286 N 
ATOM      7  C   UNK d   1      21.156  78.178  10.089  0.00  0.00     0.330 A 
ATOM      8  O   UNK d   1      21.569  78.682   8.997  0.00  0.00    -0.246 OA
ATOM      9  N   UNK d   1      20.117  77.329  10.005  0.00  0.00    -0.273 N 
ATOM     10  C   UNK d   1      19.661  76.782  11.141  0.00  0.00     0.280 A 
ATOM     11  O   UNK d   1      18.692  75.999  11.029  0.00  0.00    -0.265 OA
ATOM     12  C   UNK d   1      22.835  79.397  11.290  0.00  0.00     0.163 C 
ATOM     13  H   UNK d   1      19.671  77.099   9.067  0.00  0.00     0.173 HD
ENDROOT
BRANCH   5  14
ATOM     14  N   UNK d   1      20.875  77.202  15.935  0.00  0.00    -0.212 N 
ATOM     15  C   UNK d   1      22.159  77.542  16.504  0.00  0.00     0.171 C 
ATOM     16  C   UNK d   1      22.174  77.542  18.011  0.00  0.00     0.293 C 
ATOM     17  N   UNK d   1      21.030  78.250  18.458  0.00  0.00     0.100 N 
ATOM     18  C   UNK d   1      19.816  77.593  18.105  0.00  0.00     0.293 C 
ATOM     19  C   UNK d   1      19.817  76.834  16.811  0.00  0.00     0.171 C 
BRANCH  17  20
ATOM     20  C   UNK d   1      21.093  79.623  18.067  0.00  0.00     0.374 C 
BRANCH  20  21
ATOM     21  C   UNK d   1      19.821  80.375  18.278  0.00  0.00     0.243 C 
ATOM     22  O   UNK d   1      19.008  80.639  17.379  0.00  0.00    -0.272 OA
ATOM     23  N   UNK d   1      19.582  80.793  19.630  0.00  0.00    -0.369 N 
ATOM     24  H   UNK d   1      20.012  81.661  20.021  0.00  0.00     0.159 HD
ATOM     25  H   UNK d   1      18.976  80.223  20.216  0.00  0.00     0.159 HD
ENDBRANCH  20  21
ENDBRANCH  17  20
ENDBRANCH   5  14
BRANCH   1  26
ATOM     26  C   UNK d   1      18.926  75.743  13.981  0.00  0.00     0.186 C 
BRANCH  26  27
ATOM     27  C   UNK d   1      19.208  74.325  13.636  0.00  0.00    -0.038 A 
ATOM     28  C   UNK d   1      18.298  73.656  12.803  0.00  0.00     0.032 A 
ATOM     29  C   UNK d   1      18.453  72.352  12.425  0.00  0.00     0.034 A 
ATOM     30 Cl   UNK d   1      17.321  71.506  11.373  0.00  0.00    -0.084 Cl
ATOM     31  C   UNK d   1      19.546  71.645  12.877  0.00  0.00     0.024 A 
ATOM     32  C   UNK d   1      20.447  72.295  13.697  0.00  0.00     0.002 A 
ATOM     33  C   UNK d   1      20.286  73.619  14.077  0.00  0.00     0.009 A 
ENDBRANCH  26  27
ENDBRANCH   1  26
TORSDOF 5
ENDMDL
