MODEL 1
REMARK VINA RESULT:   -10.690      0.000      0.000
REMARK INTER + INTRA:         -13.096
REMARK INTER:                 -12.564
REMARK INTRA:                  -0.532
REMARK UNBOUND:                -0.532
REMARK  3 active torsions:
REMARK  status: ('A' for Active; 'I' for Inactive)
REMARK    1  A    between atoms: C_4  and  C_8 
REMARK    2  A    between atoms: C_8  and  N_9 
REMARK       I    between atoms: N_16  and  C_19 
REMARK    3  A    between atoms: C_19  and  C_21 
ROOT
ATOM      1  N   UNK d   1      21.393  78.355  16.506  0.00  0.00    -0.264 N 
ATOM      2  C   UNK d   1      20.581  77.184  16.337  0.00  0.00     0.326 C 
ATOM      3  O   UNK d   1      20.478  76.522  15.251  0.00  0.00    -0.247 OA
ATOM      4  N   UNK d   1      19.923  76.892  17.567  0.00  0.00    -0.324 N 
ATOM      5  C   UNK d   1      19.927  78.130  18.314  0.00  0.00     0.119 C 
ATOM      6  C   UNK d   1      18.806  78.986  17.754  0.00  0.00     0.061 C 
ATOM      7  C   UNK d   1      19.092  80.410  18.217  0.00  0.00     0.129 C 
ATOM      8  N   UNK d   1      19.386  80.422  19.637  0.00  0.00    -0.346 N 
ATOM      9  C   UNK d   1      19.242  79.213  20.405  0.00  0.00     0.129 C 
ATOM     10  C   UNK d   1      19.795  77.980  19.768  0.00  0.00     0.061 C 
ATOM     11  C   UNK d   1      19.807  81.625  20.261  0.00  0.00     0.273 C 
ATOM     12  O   UNK d   1      20.068  81.627  21.506  0.00  0.00    -0.266 OA
ATOM     13  C   UNK d   1      21.199  78.747  17.863  0.00  0.00     0.256 C 
ATOM     14  O   UNK d   1      22.006  79.484  18.491  0.00  0.00    -0.270 OA
ATOM     15  H   UNK d   1      19.523  75.983  17.867  0.00  0.00     0.165 HD
ENDROOT
BRANCH   1  16
ATOM     16  C   UNK d   1      22.231  79.010  15.529  0.00  0.00     0.175 C 
BRANCH  16  17
ATOM     17  C   UNK d   1      23.663  78.680  15.689  0.00  0.00    -0.038 A 
ATOM     18  C   UNK d   1      24.162  77.451  15.321  0.00  0.00     0.032 A 
ATOM     19  C   UNK d   1      25.490  77.106  15.455  0.00  0.00     0.034 A 
ATOM     20 Cl   UNK d   1      26.119  75.539  14.984  0.00  0.00    -0.084 Cl
ATOM     21  C   UNK d   1      26.334  78.060  15.988  0.00  0.00     0.024 A 
ATOM     22  C   UNK d   1      25.848  79.296  16.362  0.00  0.00     0.002 A 
ATOM     23  C   UNK d   1      24.511  79.625  16.219  0.00  0.00     0.009 A 
ENDBRANCH  16  17
ENDBRANCH   1  16
BRANCH  11  24
ATOM     24  C   UNK d   1      19.963  82.884  19.552  0.00  0.00     0.141 A 
ATOM     25  N   UNK d   1      20.796  83.030  18.503  0.00  0.00    -0.253 NA
ATOM     26  C   UNK d   1      20.891  84.224  17.894  0.00  0.00     0.136 A 
ATOM     27  C   UNK d   1      20.163  85.322  18.301  0.00  0.00     0.135 A 
ATOM     28  N   UNK d   1      19.333  85.181  19.345  0.00  0.00    -0.269 NA
ATOM     29  C   UNK d   1      19.233  83.974  19.965  0.00  0.00     0.153 A 
ENDBRANCH  11  24
TORSDOF 3
ENDMDL
