/Users/jonathanwahrer/Desktop/Msc/3_Semester/Drug_Design_Praktikum/waehrer_HTS_screening/HTS_experiment/out/docking_results/vina_output/6e43/1865_docked.pdbqt
 OpenBabel03212220513D

 29 32  0  0  1  0  0  0  0  0999 V2000
   21.3930   78.3550   16.5060 N   0  0  0  0  0  0  0  0  0  0  0  0
   20.5810   77.1840   16.3370 C   0  0  0  0  0  0  0  0  0  0  0  0
   20.4780   76.5220   15.2510 O   0  0  0  0  0  0  0  0  0  0  0  0
   19.9230   76.8920   17.5670 N   0  0  0  0  0  0  0  0  0  0  0  0
   19.9270   78.1300   18.3140 C   0  0  1  0  0  0  0  0  0  0  0  0
   18.8060   78.9860   17.7540 C   0  0  0  0  0  2  0  0  0  0  0  0
   19.0920   80.4100   18.2170 C   0  0  0  0  0  2  0  0  0  0  0  0
   19.3860   80.4220   19.6370 N   0  0  0  0  0  0  0  0  0  0  0  0
   19.2420   79.2130   20.4050 C   0  0  0  0  0  2  0  0  0  0  0  0
   19.7950   77.9800   19.7680 C   0  0  0  0  0  2  0  0  0  0  0  0
   19.8070   81.6250   20.2610 C   0  0  0  0  0  0  0  0  0  0  0  0
   20.0680   81.6270   21.5060 O   0  0  0  0  0  0  0  0  0  0  0  0
   21.1990   78.7470   17.8630 C   0  0  0  0  0  0  0  0  0  0  0  0
   22.0060   79.4840   18.4910 O   0  0  0  0  0  0  0  0  0  0  0  0
   19.5230   75.9830   17.8670 H   0  0  0  0  0  0  0  0  0  0  0  0
   22.2310   79.0100   15.5290 C   0  0  0  0  0  2  0  0  0  0  0  0
   23.6630   78.6800   15.6890 C   0  0  0  0  0  0  0  0  0  0  0  0
   24.1620   77.4510   15.3210 C   0  0  0  0  0  3  0  0  0  0  0  0
   25.4900   77.1060   15.4550 C   0  0  0  0  0  0  0  0  0  0  0  0
   26.1190   75.5390   14.9840 Cl  0  0  0  0  0  0  0  0  0  0  0  0
   26.3340   78.0600   15.9880 C   0  0  0  0  0  3  0  0  0  0  0  0
   25.8480   79.2960   16.3620 C   0  0  0  0  0  3  0  0  0  0  0  0
   24.5110   79.6250   16.2190 C   0  0  0  0  0  3  0  0  0  0  0  0
   19.9630   82.8840   19.5520 C   0  0  0  0  0  0  0  0  0  0  0  0
   20.7960   83.0300   18.5030 N   0  0  0  0  0  0  0  0  0  0  0  0
   20.8910   84.2240   17.8940 C   0  0  0  0  0  3  0  0  0  0  0  0
   20.1630   85.3220   18.3010 C   0  0  0  0  0  3  0  0  0  0  0  0
   19.3330   85.1810   19.3450 N   0  0  0  0  0  0  0  0  0  0  0  0
   19.2330   83.9740   19.9650 C   0  0  0  0  0  3  0  0  0  0  0  0
  1 13  1  0  0  0  0
  2  1  1  0  0  0  0
  2  4  1  0  0  0  0
  3  2  2  0  0  0  0
  4 15  1  0  0  0  0
  4  5  1  0  0  0  0
  5  6  1  6  0  0  0
  5 10  1  0  0  0  0
  6  7  1  0  0  0  0
  7  8  1  0  0  0  0
  8 11  1  0  0  0  0
  8  9  1  0  0  0  0
 10  9  1  0  0  0  0
 11 12  2  0  0  0  0
 13  5  1  0  0  0  0
 13 14  2  0  0  0  0
 16 17  1  0  0  0  0
 16  1  1  0  0  0  0
 17 23  1  0  0  0  0
 18 19  1  0  0  0  0
 18 17  2  0  0  0  0
 19 21  2  0  0  0  0
 20 19  1  0  0  0  0
 21 22  1  0  0  0  0
 23 22  2  0  0  0  0
 24 29  1  0  0  0  0
 24 11  1  0  0  0  0
 25 24  2  0  0  0  0
 26 27  2  0  0  0  0
 26 25  1  0  0  0  0
 27 28  1  0  0  0  0
 28 29  2  0  0  0  0
M  END
>  <Pose>
1

>  <Score>
-10.690

$$$$
