MODEL 1
REMARK VINA RESULT:    -8.347      0.000      0.000
REMARK INTER + INTRA:          -9.011
REMARK INTER:                 -10.055
REMARK INTRA:                   1.044
REMARK UNBOUND:                 1.044
REMARK  4 active torsions:
REMARK  status: ('A' for Active; 'I' for Inactive)
REMARK    1  A    between atoms: C_5  and  C_8 
REMARK    2  A    between atoms: C_8  and  O_26 
REMARK    3  A    between atoms: N_9  and  C_18 
REMARK    4  A    between atoms: C_21  and  O_24 
ROOT
ATOM      1  C   UNK d   1      22.400  77.453  14.856  0.00  0.00     0.287 C 
ATOM      2  N   UNK d   1      21.150  76.926  15.243  0.00  0.00     0.042 N 
ATOM      3  C   UNK d   1      20.543  77.749  16.202  0.00  0.00     0.210 C 
ATOM      4  C   UNK d   1      19.504  77.800  16.998  0.00  0.00     0.030 C 
ATOM      5  C   UNK d   1      19.267  78.947  17.883  0.00  0.00     0.032 C 
ATOM      6  C   UNK d   1      19.968  80.205  17.661  0.00  0.00     0.024 C 
ATOM      7  C   UNK d   1      21.016  80.180  16.576  0.00  0.00     0.125 C 
ATOM      8  N   UNK d   1      21.475  78.859  16.332  0.00  0.00    -0.351 N 
ATOM      9  C   UNK d   1      22.764  78.203  16.148  0.00  0.00     0.151 C 
ATOM     10  C   UNK d   1      23.848  79.191  16.032  0.00  0.00     0.038 C 
ATOM     11  H   UNK d   1      21.466  76.078  15.901  0.00  0.00     0.299 HD
ENDROOT
BRANCH   1  12
ATOM     12  C   UNK d   1      22.455  78.377  13.725  0.00  0.00     0.008 A 
ATOM     13  C   UNK d   1      21.389  79.197  13.463  0.00  0.00     0.014 A 
ATOM     14  C   UNK d   1      21.385  80.082  12.387  0.00  0.00     0.024 A 
ATOM     15  C   UNK d   1      22.500  80.122  11.562  0.00  0.00     0.034 A 
ATOM     16 Cl   UNK d   1      22.591  81.198  10.181  0.00  0.00    -0.084 Cl
ATOM     17  C   UNK d   1      23.567  79.289  11.839  0.00  0.00     0.024 A 
ATOM     18  C   UNK d   1      23.570  78.413  12.906  0.00  0.00     0.014 A 
ENDBRANCH   1  12
BRANCH   1  19
ATOM     19  O   UNK d   1      23.325  76.440  14.750  0.00  0.00    -0.359 OA
ATOM     20  H   UNK d   1      23.009  75.587  14.399  0.00  0.00     0.213 HD
ENDBRANCH   1  19
BRANCH   2  21
ATOM     21  C   UNK d   1      20.414  76.225  14.294  0.00  0.00     0.146 A 
ATOM     22  C   UNK d   1      20.074  74.917  14.598  0.00  0.00     0.041 A 
ATOM     23  C   UNK d   1      19.359  74.113  13.743  0.00  0.00     0.039 A 
ATOM     24  C   UNK d   1      18.923  74.569  12.494  0.00  0.00     0.068 A 
ATOM     25  C   UNK d   1      19.275  75.867  12.219  0.00  0.00     0.039 A 
ATOM     26  C   UNK d   1      19.989  76.664  13.079  0.00  0.00     0.041 A 
BRANCH  24  27
ATOM     27  O   UNK d   1      18.202  73.753  11.644  0.00  0.00    -0.356 OA
ATOM     28  C   UNK d   1      17.854  72.455  12.057  0.00  0.00     0.210 C 
ENDBRANCH  24  27
ENDBRANCH   2  21
TORSDOF 4
ENDMDL
