MODEL 1
REMARK VINA RESULT:    -9.914      0.000      0.000
REMARK INTER + INTRA:         -12.497
REMARK INTER:                 -12.232
REMARK INTRA:                  -0.265
REMARK UNBOUND:                -0.265
REMARK  4 active torsions:
REMARK  status: ('A' for Active; 'I' for Inactive)
REMARK    1  A    between atoms: C_5  and  N_8 
REMARK    2  A    between atoms: N_15  and  C_16 
REMARK    3  A    between atoms: C_16  and  C_17 
REMARK    4  A    between atoms: C_19  and  O_23 
ROOT
ATOM      1  N   UNK d   1      20.726  79.873  17.521  0.00  0.00    -0.241 N 
ATOM      2  C   UNK d   1      21.520  79.962  16.427  0.00  0.00     0.286 A 
ATOM      3  O   UNK d   1      22.156  80.999  16.104  0.00  0.00    -0.265 OA
ATOM      4  C   UNK d   1      21.532  78.769  15.724  0.00  0.00     0.154 A 
ATOM      5  C   UNK d   1      20.740  77.945  16.392  0.00  0.00     0.152 A 
ATOM      6  N   UNK d   1      20.754  76.784  15.704  0.00  0.00    -0.279 N 
ATOM      7  N   UNK d   1      21.550  76.924  14.635  0.00  0.00    -0.239 N 
ATOM      8  N   UNK d   1      22.037  78.154  14.640  0.00  0.00    -0.266 N 
ATOM      9  C   UNK d   1      20.247  78.617  17.490  0.00  0.00     0.286 A 
ATOM     10  O   UNK d   1      19.466  78.105  18.323  0.00  0.00    -0.265 OA
ATOM     11  H   UNK d   1      20.231  75.928  15.966  0.00  0.00     0.189 HD
ATOM     12  H   UNK d   1      21.776  76.218  13.903  0.00  0.00     0.208 HD
ENDROOT
BRANCH   8  13
ATOM     13  C   UNK d   1      22.943  78.734  13.670  0.00  0.00     0.189 C 
BRANCH  13  14
ATOM     14  C   UNK d   1      22.347  78.847  12.316  0.00  0.00    -0.036 A 
ATOM     15  C   UNK d   1      21.004  79.028  12.074  0.00  0.00     0.045 A 
ATOM     16  C   UNK d   1      20.454  79.135  10.812  0.00  0.00     0.068 A 
ATOM     17  C   UNK d   1      21.285  79.056   9.721  0.00  0.00     0.037 A 
ATOM     18  C   UNK d   1      22.634  78.876   9.915  0.00  0.00     0.003 A 
ATOM     19  C   UNK d   1      23.159  78.772  11.193  0.00  0.00     0.009 A 
BRANCH  16  20
ATOM     20  O   UNK d   1      19.072  79.317  10.679  0.00  0.00    -0.356 OA
ATOM     21  C   UNK d   1      18.499  80.608  10.636  0.00  0.00     0.210 C 
ENDBRANCH  16  20
ENDBRANCH  13  14
ENDBRANCH   8  13
BRANCH   1  22
ATOM     22  C   UNK d   1      20.472  80.886  18.469  0.00  0.00     0.046 A 
ATOM     23  C   UNK d   1      20.626  80.667  19.822  0.00  0.00     0.032 A 
ATOM     24  C   UNK d   1      20.382  81.643  20.771  0.00  0.00     0.026 A 
ATOM     25  C   UNK d   1      19.968  82.885  20.339  0.00  0.00     0.034 A 
ATOM     26 Cl   UNK d   1      19.637  84.184  21.492  0.00  0.00    -0.084 Cl
ATOM     27  C   UNK d   1      19.799  83.154  18.996  0.00  0.00     0.026 A 
ATOM     28  C   UNK d   1      20.056  82.142  18.076  0.00  0.00     0.032 A 
ENDBRANCH   1  22
TORSDOF 4
ENDMDL
