MODEL 1
REMARK VINA RESULT:   -11.305      0.000      0.000
REMARK INTER + INTRA:         -12.743
REMARK INTER:                 -13.288
REMARK INTRA:                   0.545
REMARK UNBOUND:                 0.545
REMARK  3 active torsions:
REMARK  status: ('A' for Active; 'I' for Inactive)
REMARK    1  A    between atoms: C_5  and  N_8 
REMARK    2  A    between atoms: N_15  and  C_16 
REMARK    3  A    between atoms: C_16  and  C_17 
ROOT
ATOM      1  N   UNK d   1      20.069  80.620  18.627  0.00  0.00    -0.241 N 
ATOM      2  C   UNK d   1      20.805  80.332  17.530  0.00  0.00     0.286 A 
ATOM      3  O   UNK d   1      21.422  81.186  16.858  0.00  0.00    -0.265 OA
ATOM      4  C   UNK d   1      20.781  78.975  17.258  0.00  0.00     0.154 A 
ATOM      5  C   UNK d   1      20.014  78.425  18.211  0.00  0.00     0.152 A 
ATOM      6  N   UNK d   1      19.999  77.108  17.939  0.00  0.00    -0.279 N 
ATOM      7  N   UNK d   1      20.727  76.870  16.863  0.00  0.00    -0.239 N 
ATOM      8  N   UNK d   1      21.217  78.011  16.430  0.00  0.00    -0.266 N 
ATOM      9  C   UNK d   1      19.587  79.441  19.040  0.00  0.00     0.286 A 
ATOM     10  O   UNK d   1      18.844  79.280  20.046  0.00  0.00    -0.265 OA
ATOM     11  H   UNK d   1      19.502  76.365  18.471  0.00  0.00     0.189 HD
ATOM     12  H   UNK d   1      20.895  75.920  16.416  0.00  0.00     0.208 HD
ENDROOT
BRANCH   1  13
ATOM     13  C   UNK d   1      19.854  81.900  19.218  0.00  0.00     0.046 A 
ATOM     14  C   UNK d   1      19.336  82.026  20.490  0.00  0.00     0.032 A 
ATOM     15  C   UNK d   1      19.125  83.263  21.070  0.00  0.00     0.026 A 
ATOM     16  C   UNK d   1      19.424  84.429  20.397  0.00  0.00     0.034 A 
ATOM     17 Cl   UNK d   1      19.154  86.003  21.138  0.00  0.00    -0.084 Cl
ATOM     18  C   UNK d   1      19.943  84.315  19.123  0.00  0.00     0.026 A 
ATOM     19  C   UNK d   1      20.151  83.075  18.551  0.00  0.00     0.032 A 
ENDBRANCH   1  13
BRANCH   8  20
ATOM     20  C   UNK d   1      22.064  78.215  15.279  0.00  0.00     0.189 C 
BRANCH  20  21
ATOM     21  C   UNK d   1      23.505  78.290  15.604  0.00  0.00    -0.038 A 
ATOM     22  C   UNK d   1      24.332  77.244  15.277  0.00  0.00     0.009 A 
ATOM     23  C   UNK d   1      25.668  77.333  15.593  0.00  0.00     0.001 A 
ATOM     24  C   UNK d   1      26.187  78.448  16.227  0.00  0.00     0.000 A 
ATOM     25  C   UNK d   1      25.359  79.497  16.556  0.00  0.00     0.001 A 
ATOM     26  C   UNK d   1      24.034  79.393  16.235  0.00  0.00     0.009 A 
ENDBRANCH  20  21
ENDBRANCH   8  20
TORSDOF 3
ENDMDL
