/Users/jonathanwahrer/Desktop/Msc/3_Semester/Drug_Design_Praktikum/waehrer_HTS_screening/HTS_experiment/out/docking_results/vina_output/6e43/1895_docked.pdbqt
 OpenBabel03212220523D

 32 35  0  0  1  0  0  0  0  0999 V2000
   21.3180   77.9820   11.4310 N   0  0  0  0  0  0  0  0  0  0  0  0
   21.1460   78.0800   12.8280 C   0  0  0  0  0  2  0  0  0  0  0  0
   22.5460   78.2660   13.4510 C   0  0  0  0  0  2  0  0  0  0  0  0
   22.9230   79.5910   13.0280 N   0  0  0  0  0  0  0  0  0  0  0  0
   23.1240   79.6760   11.5650 C   0  0  0  0  0  2  0  0  0  0  0  0
   22.1550   78.8970   10.7750 C   0  0  0  0  0  2  0  0  0  0  0  0
   23.1120   80.7430   13.7890 C   0  0  0  0  0  0  0  0  0  0  0  0
   23.4490   81.7900   13.0610 O   0  0  0  0  0  0  0  0  0  0  0  0
   23.0220   81.0580   15.1910 C   0  0  0  0  0  2  0  0  0  0  0  0
   22.6820   80.0090   16.1050 N   0  0  0  0  0  0  0  0  0  0  0  0
   23.5950   79.3280   16.9660 C   0  0  0  0  0  0  0  0  0  0  0  0
   24.8490   79.5720   17.0030 O   0  0  0  0  0  0  0  0  0  0  0  0
   22.8660   78.3840   17.7230 N   0  0  0  0  0  0  0  0  0  0  0  0
   21.4560   78.7300   17.6410 C   0  0  1  0  0  0  0  0  0  0  0  0
   23.2440   77.5820   18.2500 H   0  0  0  0  0  0  0  0  0  0  0  0
   20.5410   77.5560   17.5830 C   0  0  1  0  0  3  0  0  0  0  0  0
   21.1600   79.6420   18.8100 C   0  0  0  0  0  2  0  0  0  0  0  0
   21.3810   79.4670   16.3450 C   0  0  0  0  0  0  0  0  0  0  0  0
   19.2460   77.9440   18.3040 C   0  0  0  0  0  2  0  0  0  0  0  0
   20.1380   77.1570   16.1820 C   0  0  0  0  0  1  0  0  0  0  0  0
   19.5790   77.9570   19.7830 C   0  0  0  0  0  2  0  0  0  0  0  0
   20.8490   78.7430   19.9980 C   0  0  0  0  0  2  0  0  0  0  0  0
   20.3820   79.5910   15.6110 O   0  0  0  0  0  0  0  0  0  0  0  0
   19.9190   77.5190   10.5670 S   0  0  0  0  0  0  0  0  0  0  0  0
   18.8310   78.5180   10.5810 O   0  0  0  0  0  0  0  0  0  0  0  0
   20.3190   77.2600    9.1340 O   0  0  0  0  0  0  0  0  0  0  0  0
   19.3480   75.9960   11.2720 C   0  0  0  0  0  0  0  0  0  0  0  0
   18.8320   74.5650   10.5060 S   0  0  0  0  0  0  0  0  0  0  0  0
   18.4680   73.6330   11.8830 C   0  0  0  0  0  0  0  0  0  0  0  0
   18.7640   74.4790   12.9200 C   0  0  0  0  0  3  0  0  0  0  0  0
   17.8550   71.9740   11.9590 Cl  0  0  0  0  0  0  0  0  0  0  0  0
   19.2200   75.7020   12.5970 C   0  0  0  0  0  3  0  0  0  0  0  0
  1  2  1  0  0  0  0
  2  3  1  0  0  0  0
  4  3  1  0  0  0  0
  4  7  1  0  0  0  0
  5  4  1  0  0  0  0
  6  1  1  0  0  0  0
  6  5  1  0  0  0  0
  7  9  1  0  0  0  0
  8  7  2  0  0  0  0
  9 10  1  0  0  0  0
 10 18  1  0  0  0  0
 10 11  1  0  0  0  0
 11 12  2  0  0  0  0
 11 13  1  0  0  0  0
 13 15  1  0  0  0  0
 14 13  1  0  0  0  0
 14 17  1  1  0  0  0
 16 20  1  6  0  0  0
 16 14  1  0  0  0  0
 16 19  1  0  0  0  0
 17 22  1  0  0  0  0
 18 14  1  0  0  0  0
 19 21  1  0  0  0  0
 21 22  1  0  0  0  0
 23 18  2  0  0  0  0
 24 25  2  0  0  0  0
 24 27  1  0  0  0  0
 24  1  1  0  0  0  0
 26 24  2  0  0  0  0
 27 32  2  0  0  0  0
 28 27  1  0  0  0  0
 28 29  1  0  0  0  0
 29 31  1  0  0  0  0
 29 30  2  0  0  0  0
 32 30  1  0  0  0  0
M  END
>  <Pose>
1

>  <Score>
-8.092

$$$$
