MODEL 1
REMARK VINA RESULT:   -11.085      0.000      0.000
REMARK INTER + INTRA:         -14.877
REMARK INTER:                 -14.001
REMARK INTRA:                  -0.876
REMARK UNBOUND:                -0.876
REMARK  5 active torsions:
REMARK  status: ('A' for Active; 'I' for Inactive)
REMARK    1  A    between atoms: C_5  and  C_8 
REMARK    2  A    between atoms: C_8  and  O_32 
REMARK       I    between atoms: N_11  and  C_14 
REMARK    3  A    between atoms: C_14  and  C_16 
REMARK    4  A    between atoms: C_16  and  N_17 
REMARK       I    between atoms: N_17  and  C_18 
REMARK    5  A    between atoms: C_18  and  C_20 
ROOT
ATOM      1  C   UNK d   1      19.261  76.873   8.673  0.00  0.00     0.210 C 
ENDROOT
BRANCH   1   2
ATOM      2  C   UNK d   1      20.464  77.717   8.721  0.00  0.00     0.171 C 
ATOM      3  N   UNK d   1      20.986  78.513   9.733  0.00  0.00    -0.361 N 
ATOM      4  C   UNK d   1      20.331  78.877  10.939  0.00  0.00     0.128 C 
ATOM      5  C   UNK d   1      22.369  79.031   9.565  0.00  0.00     0.128 C 
ATOM      6  C   UNK d   1      21.138  78.418  12.136  0.00  0.00     0.062 C 
ATOM      7  C   UNK d   1      22.388  79.294  12.090  0.00  0.00     0.088 C 
ATOM      8  C   UNK d   1      23.149  79.091  10.834  0.00  0.00     0.062 C 
ATOM      9  O   UNK d   1      21.137  77.704   7.599  0.00  0.00    -0.175 OA
BRANCH   7  10
ATOM     10  C   UNK d   1      23.131  79.180  13.332  0.00  0.00    -0.024 A 
ATOM     11  C   UNK d   1      22.946  80.184  14.291  0.00  0.00     0.012 A 
ATOM     12  C   UNK d   1      23.637  80.188  15.502  0.00  0.00     0.024 A 
ATOM     13  C   UNK d   1      24.536  79.194  15.804  0.00  0.00     0.034 A 
ATOM     14 Cl   UNK d   1      25.430  79.201  17.347  0.00  0.00    -0.084 Cl
ATOM     15  C   UNK d   1      24.730  78.195  14.864  0.00  0.00     0.024 A 
ATOM     16  C   UNK d   1      24.038  78.204  13.668  0.00  0.00     0.012 A 
ENDBRANCH   7  10
BRANCH   7  17
ATOM     17  O   UNK d   1      21.853  80.621  12.036  0.00  0.00    -0.385 OA
ATOM     18  H   UNK d   1      21.119  80.597  11.372  0.00  0.00     0.211 HD
ENDBRANCH   7  17
ENDBRANCH   1   2
BRANCH   1  19
ATOM     19  N   UNK d   1      18.038  77.490   8.399  0.00  0.00    -0.350 N 
ATOM     20  C   UNK d   1      17.396  77.509   7.123  0.00  0.00     0.243 C 
ATOM     21  O   UNK d   1      18.030  76.932   6.201  0.00  0.00    -0.269 OA
ATOM     22  H   UNK d   1      17.463  77.933   9.164  0.00  0.00     0.163 HD
BRANCH  20  23
ATOM     23  C   UNK d   1      16.120  78.144   6.940  0.00  0.00     0.105 C 
ATOM     24  C   UNK d   1      14.980  77.669   6.561  0.00  0.00     0.064 A 
ATOM     25  N   UNK d   1      14.777  76.297   6.216  0.00  0.00    -0.297 N 
ATOM     26  C   UNK d   1      13.778  78.538   6.486  0.00  0.00     0.008 A 
ATOM     27  N   UNK d   1      13.515  75.800   5.827  0.00  0.00    -0.265 N 
ATOM     28  H   UNK d   1      15.570  75.612   6.241  0.00  0.00     0.187 HD
ATOM     29  C   UNK d   1      12.390  76.646   5.763  0.00  0.00     0.271 A 
ATOM     30  H   UNK d   1      13.398  74.788   5.586  0.00  0.00     0.190 HD
ATOM     31  O   UNK d   1      11.276  76.159   5.412  0.00  0.00    -0.266 OA
ATOM     32  C   UNK d   1      12.551  78.046   6.105  0.00  0.00     0.046 A 
ATOM     33  C   UNK d   1      11.415  78.827   6.053  0.00  0.00     0.018 A 
ATOM     34  C   UNK d   1      11.530  80.169   6.403  0.00  0.00     0.001 A 
ATOM     35  C   UNK d   1      12.728  80.707   6.788  0.00  0.00     0.001 A 
ATOM     36  C   UNK d   1      13.842  79.860   6.819  0.00  0.00     0.015 A 
ENDBRANCH  20  23
ENDBRANCH   1  19
TORSDOF 5
ENDMDL
