/Users/jonathanwahrer/Desktop/Msc/3_Semester/Drug_Design_Praktikum/waehrer_HTS_screening/HTS_experiment/out/docking_results/vina_output/6e43/1928_docked.pdbqt
 OpenBabel03212220533D

 28 31  0  0  0  0  0  0  0  0999 V2000
   21.0190   77.5540   16.0740 N   0  0  0  0  0  0  0  0  0  0  0  0
   20.8280   78.1480   14.8770 C   0  0  0  0  0  2  0  0  0  0  0  0
   21.8940   78.4860   14.0820 C   0  0  0  0  0  0  0  0  0  0  0  0
   23.2550   78.1940   14.5460 C   0  0  0  0  0  0  0  0  0  0  0  0
   24.0900   78.6270   13.5770 N   0  0  0  0  0  2  0  0  0  0  0  0
   23.3860   79.1440   12.5910 N   0  0  0  0  0  0  0  0  0  0  0  0
   22.0690   79.0860   12.8370 C   0  0  0  0  0  0  0  0  0  0  0  0
   21.1320   79.4880   12.1060 O   0  0  0  0  0  0  0  0  0  0  0  0
   23.4000   77.5860   15.7750 C   0  0  0  0  0  0  0  0  0  0  0  0
   22.2620   77.2980   16.4770 C   0  0  0  0  0  3  0  0  0  0  0  0
   23.8020   79.5440   11.7300 H   0  0  0  0  0  0  0  0  0  0  0  0
   19.8450   77.2160   16.8810 C   0  0  0  0  0  2  0  0  0  0  0  0
   19.6690   78.2150   17.9540 C   0  0  0  0  0  0  0  0  0  0  0  0
   19.3590   77.9250   19.1930 O   0  0  0  0  0  0  0  0  0  0  0  0
   19.2810   79.0270   19.8770 N   0  0  0  0  0  0  0  0  0  0  0  0
   19.5430   80.0810   19.0890 C   0  0  0  0  0  0  0  0  0  0  0  0
   19.7880   79.5670   17.8750 N   0  0  0  0  0  0  0  0  0  0  0  0
   19.5480   81.4740   19.5120 C   0  0  0  0  0  0  0  0  0  0  0  0
   19.1030   81.8540   20.7570 C   0  0  0  0  0  3  0  0  0  0  0  0
   19.1040   83.1740   21.1680 C   0  0  0  0  0  3  0  0  0  0  0  0
   19.5590   84.1690   20.3230 C   0  0  0  0  0  0  0  0  0  0  0  0
   19.5700   85.8520   20.8220 Cl  0  0  0  0  0  0  0  0  0  0  0  0
   20.0090   83.7900   19.0660 C   0  0  0  0  0  3  0  0  0  0  0  0
   20.0040   82.4630   18.6640 C   0  0  0  0  0  3  0  0  0  0  0  0
   24.7410   77.2800   16.2710 C   0  0  0  0  0  0  0  0  0  0  0  0
   25.3090   76.2260   15.9530 O   0  0  0  0  0  0  0  0  0  0  0  0
   25.4110   78.1570   17.1080 O   0  0  0  0  0  0  0  0  0  0  0  0
   26.2840   79.1620   16.6490 C   0  0  0  0  0  1  0  0  0  0  0  0
  1 10  1  0  0  0  0
  1 12  1  0  0  0  0
  2  1  1  0  0  0  0
  3  4  2  0  0  0  0
  3  2  1  0  0  0  0
  4  9  1  0  0  0  0
  5  4  1  0  0  0  0
  6  7  1  0  0  0  0
  6  5  1  0  0  0  0
  7  3  1  0  0  0  0
  8  7  2  0  0  0  0
  9 25  1  0  0  0  0
  9 10  2  0  0  0  0
 11  6  1  0  0  0  0
 12 13  1  0  0  0  0
 13 14  1  0  0  0  0
 14 15  1  0  0  0  0
 16 18  1  0  0  0  0
 16 15  2  0  0  0  0
 17 13  2  0  0  0  0
 17 16  1  0  0  0  0
 18 19  1  0  0  0  0
 19 20  2  0  0  0  0
 21 22  1  0  0  0  0
 21 20  1  0  0  0  0
 23 21  2  0  0  0  0
 24 23  1  0  0  0  0
 24 18  2  0  0  0  0
 25 27  1  0  0  0  0
 26 25  2  0  0  0  0
 28 27  1  0  0  0  0
M  END
>  <Pose>
1

>  <Score>
-9.628

$$$$
