/Users/jonathanwahrer/Desktop/Msc/3_Semester/Drug_Design_Praktikum/waehrer_HTS_screening/HTS_experiment/out/docking_results/vina_output/6e43/1930_docked.pdbqt
 OpenBabel03212220533D

 34 37  0  0  1  0  0  0  0  0999 V2000
   21.4520   77.8770   14.2830 C   0  0  0  0  0  0  0  0  0  0  0  0
   20.5200   77.0480   14.4410 O   0  0  0  0  0  0  0  0  0  0  0  0
   21.4650   78.6990   13.1410 N   0  0  0  0  0  0  0  0  0  0  0  0
   20.4260   78.6320   12.1130 C   0  0  0  0  0  2  0  0  0  0  0  0
   21.1300   78.1470   10.8610 C   0  0  2  0  0  3  0  0  0  0  0  0
   22.2960   79.0440   10.5160 C   0  0  2  0  0  0  0  0  0  0  0  0
   22.3600   80.2310   11.4840 C   0  0  0  0  0  2  0  0  0  0  0  0
   22.5080   79.6780   12.8910 C   0  0  0  0  0  2  0  0  0  0  0  0
   22.2820   79.5380    9.1010 C   0  0  0  0  0  1  0  0  0  0  0  0
   22.5180   77.9630   15.3110 C   0  0  0  0  0  2  0  0  0  0  0  0
   22.0440   77.6470   16.6920 C   0  0  0  0  0  2  0  0  0  0  0  0
   21.4370   78.8020   17.3980 C   0  0  0  0  0  0  0  0  0  0  0  0
   21.4480   80.1030   17.0630 N   0  0  0  0  0  0  0  0  0  0  0  0
   20.7830   80.8400   17.9690 C   0  0  0  0  0  0  0  0  0  0  0  0
   20.4840   82.1840   18.1270 C   0  0  0  0  0  3  0  0  0  0  0  0
   20.3240   79.9640   18.9300 C   0  0  0  0  0  0  0  0  0  0  0  0
   19.7600   82.6600   19.1900 C   0  0  0  0  0  0  0  0  0  0  0  0
   19.3770   84.3620   19.4000 Cl  0  0  0  0  0  0  0  0  0  0  0  0
   19.3160   81.7580   20.1330 C   0  0  0  0  0  3  0  0  0  0  0  0
   19.5930   80.4000   20.0150 C   0  0  0  0  0  3  0  0  0  0  0  0
   20.7310   78.7430   18.5640 N   0  0  0  0  0  0  0  0  0  0  0  0
   20.4930   77.4800   19.2600 C   0  0  0  0  0  1  0  0  0  0  0  0
   20.2650   77.8540    9.7730 N   0  0  0  0  0  0  0  0  0  0  0  0
   20.3470   76.6730    9.0930 C   0  0  0  0  0  3  0  0  0  0  0  0
   19.5090   76.3870    8.0360 C   0  0  0  0  0  0  0  0  0  0  0  0
   18.5620   77.3100    7.6510 C   0  0  0  0  0  0  0  0  0  0  0  0
   19.5710   75.1140    7.2760 C   0  0  0  0  0  1  0  0  0  0  0  0
   17.7660   77.0830    6.6770 O   0  0  0  0  0  0  0  0  0  0  0  0
   18.4880   78.4700    8.3260 N   0  0  0  0  0  0  0  0  0  0  0  0
   19.3390   78.7090    9.3650 C   0  0  0  0  0  0  0  0  0  0  0  0
   17.7760   79.1680    8.0410 H   0  0  0  0  0  0  0  0  0  0  0  0
   19.2230   79.8060    9.9560 O   0  0  0  0  0  0  0  0  0  0  0  0
   23.5390   78.3880   10.6890 O   0  0  0  0  0  0  0  0  0  0  0  0
   23.9280   78.7630   11.5170 H   0  0  0  0  0  0  0  0  0  0  0  0
  1  2  2  0  0  0  0
  1 10  1  0  0  0  0
  3  1  1  0  0  0  0
  4  3  1  0  0  0  0
  5 23  1  6  0  0  0
  5  4  1  0  0  0  0
  6  9  1  6  0  0  0
  6 33  1  0  0  0  0
  6  5  1  0  0  0  0
  6  7  1  0  0  0  0
  7  8  1  0  0  0  0
  8  3  1  0  0  0  0
 10 11  1  0  0  0  0
 11 12  1  0  0  0  0
 12 21  1  0  0  0  0
 13 12  2  0  0  0  0
 13 14  1  0  0  0  0
 14 15  2  0  0  0  0
 14 16  1  0  0  0  0
 15 17  1  0  0  0  0
 16 20  2  0  0  0  0
 17 18  1  0  0  0  0
 17 19  2  0  0  0  0
 20 19  1  0  0  0  0
 21 16  1  0  0  0  0
 21 22  1  0  0  0  0
 24 23  1  0  0  0  0
 25 24  2  0  0  0  0
 26 25  1  0  0  0  0
 26 29  1  0  0  0  0
 27 25  1  0  0  0  0
 28 26  2  0  0  0  0
 29 30  1  0  0  0  0
 30 23  1  0  0  0  0
 30 32  2  0  0  0  0
 31 29  1  0  0  0  0
 33 34  1  0  0  0  0
M  END
>  <Pose>
1

>  <Score>
-10.245

$$$$
