MODEL 1
REMARK VINA RESULT:   -10.245      0.000      0.000
REMARK INTER + INTRA:         -12.415
REMARK INTER:                 -12.940
REMARK INTRA:                   0.525
REMARK UNBOUND:                 0.525
REMARK  5 active torsions:
REMARK  status: ('A' for Active; 'I' for Inactive)
REMARK    1  A    between atoms: C_6  and  C_12 
REMARK    2  A    between atoms: C_12  and  C_13 
REMARK    3  A    between atoms: C_13  and  C_14 
REMARK       I    between atoms: C_14  and  N_16 
REMARK    4  A    between atoms: C_18  and  N_24 
REMARK    5  A    between atoms: C_19  and  O_22 
ROOT
ATOM      1  C   UNK d   1      21.452  77.877  14.283  0.00  0.00     0.220 C 
ATOM      2  O   UNK d   1      20.520  77.048  14.441  0.00  0.00    -0.273 OA
ATOM      3  N   UNK d   1      21.465  78.699  13.141  0.00  0.00    -0.350 N 
ATOM      4  C   UNK d   1      20.426  78.632  12.113  0.00  0.00     0.154 C 
ATOM      5  C   UNK d   1      21.130  78.147  10.861  0.00  0.00     0.146 C 
ATOM      6  C   UNK d   1      22.296  79.044  10.516  0.00  0.00     0.078 C 
ATOM      7  C   UNK d   1      22.360  80.231  11.484  0.00  0.00     0.059 C 
ATOM      8  C   UNK d   1      22.508  79.678  12.891  0.00  0.00     0.129 C 
ATOM      9  C   UNK d   1      22.282  79.538   9.101  0.00  0.00     0.048 C 
ENDROOT
BRANCH   1  10
ATOM     10  C   UNK d   1      22.518  77.963  15.311  0.00  0.00     0.110 C 
BRANCH  10  11
ATOM     11  C   UNK d   1      22.044  77.647  16.692  0.00  0.00     0.088 C 
BRANCH  11  12
ATOM     12  C   UNK d   1      21.437  78.802  17.398  0.00  0.00     0.107 A 
ATOM     13  N   UNK d   1      21.448  80.103  17.063  0.00  0.00    -0.233 NA
ATOM     14  C   UNK d   1      20.783  80.840  17.969  0.00  0.00     0.087 A 
ATOM     15  C   UNK d   1      20.484  82.184  18.127  0.00  0.00     0.057 A 
ATOM     16  C   UNK d   1      20.324  79.964  18.930  0.00  0.00     0.064 A 
ATOM     17  C   UNK d   1      19.760  82.660  19.190  0.00  0.00     0.036 A 
ATOM     18 Cl   UNK d   1      19.377  84.362  19.400  0.00  0.00    -0.084 Cl
ATOM     19  C   UNK d   1      19.316  81.758  20.133  0.00  0.00     0.026 A 
ATOM     20  C   UNK d   1      19.593  80.400  20.015  0.00  0.00     0.034 A 
ATOM     21  N   UNK d   1      20.731  78.743  18.564  0.00  0.00    -0.338 N 
ATOM     22  C   UNK d   1      20.493  77.480  19.260  0.00  0.00     0.158 C 
ENDBRANCH  11  12
ENDBRANCH  10  11
ENDBRANCH   1  10
BRANCH   5  23
ATOM     23  N   UNK d   1      20.265  77.854   9.773  0.00  0.00    -0.300 N 
ATOM     24  C   UNK d   1      20.347  76.673   9.093  0.00  0.00     0.108 A 
ATOM     25  C   UNK d   1      19.509  76.387   8.036  0.00  0.00     0.022 A 
ATOM     26  C   UNK d   1      18.562  77.310   7.651  0.00  0.00     0.256 A 
ATOM     27  C   UNK d   1      19.571  75.114   7.276  0.00  0.00     0.056 C 
ATOM     28  O   UNK d   1      17.766  77.083   6.677  0.00  0.00    -0.267 OA
ATOM     29  N   UNK d   1      18.488  78.470   8.326  0.00  0.00    -0.275 N 
ATOM     30  C   UNK d   1      19.339  78.709   9.365  0.00  0.00     0.329 A 
ATOM     31  H   UNK d   1      17.776  79.168   8.041  0.00  0.00     0.173 HD
ATOM     32  O   UNK d   1      19.223  79.806   9.956  0.00  0.00    -0.246 OA
ENDBRANCH   5  23
BRANCH   6  33
ATOM     33  O   UNK d   1      23.539  78.388  10.689  0.00  0.00    -0.388 OA
ATOM     34  H   UNK d   1      23.928  78.763  11.517  0.00  0.00     0.210 HD
ENDBRANCH   6  33
TORSDOF 5
ENDMDL
