/Users/jonathanwahrer/Desktop/Msc/3_Semester/Drug_Design_Praktikum/waehrer_HTS_screening/HTS_experiment/out/docking_results/vina_output/6e43/1936_docked.pdbqt
 OpenBabel03212220533D

 25 28  0  0  0  0  0  0  0  0999 V2000
   21.2450   77.0800   14.3870 N   0  0  0  0  0  0  0  0  0  0  0  0
   21.8640   78.2730   14.8060 C   0  0  0  0  0  0  0  0  0  0  0  0
   21.3600   78.8790   15.7670 O   0  0  0  0  0  0  0  0  0  0  0  0
   21.6530   76.5550   13.5780 H   0  0  0  0  0  0  0  0  0  0  0  0
   20.0590   76.5440   15.0270 C   0  0  0  0  0  2  0  0  0  0  0  0
   19.6110   75.2980   14.3150 C   0  0  0  0  0  0  0  0  0  0  0  0
   18.4810   75.1330   13.6020 N   0  0  0  0  0  0  0  0  0  0  0  0
   18.4100   73.8850   13.1060 C   0  0  0  0  0  0  0  0  0  0  0  0
   17.5160   73.1790   12.3310 C   0  0  0  0  0  3  0  0  0  0  0  0
   19.5620   73.2170   13.5290 C   0  0  0  0  0  0  0  0  0  0  0  0
   17.6950   71.8590   11.9530 C   0  0  0  0  0  0  0  0  0  0  0  0
   16.5200   71.0020   10.9580 Cl  0  0  0  0  0  0  0  0  0  0  0  0
   18.8510   71.2190   12.3890 C   0  0  0  0  0  3  0  0  0  0  0  0
   19.7530   71.9050   13.1610 C   0  0  0  0  0  3  0  0  0  0  0  0
   20.2510   74.1190   14.2550 N   0  0  0  0  0  0  0  0  0  0  0  0
   21.1700   73.9290   14.7170 H   0  0  0  0  0  0  0  0  0  0  0  0
   23.0680   78.8220   14.1560 C   0  0  0  0  0  0  0  0  0  0  0  0
   23.0500   78.8680   12.6790 C   0  0  0  0  0  2  0  0  0  0  0  0
   22.8280   80.1550   13.3700 C   0  0  0  0  0  2  0  0  0  0  0  0
   24.3070   78.8610   14.8740 N   0  0  0  0  0  0  0  0  0  0  0  0
   24.9860   77.6350   15.0220 C   0  0  0  0  0  2  0  0  0  0  0  0
   24.6410   77.0770   16.3980 C   0  0  0  0  0  2  0  0  0  0  0  0
   25.2110   77.8540   17.3780 O   0  0  0  0  0  0  0  0  0  0  0  0
   25.3530   79.1820   17.0580 C   0  0  0  0  0  2  0  0  0  0  0  0
   24.3360   79.6500   16.0370 C   0  0  0  0  0  2  0  0  0  0  0  0
  1  2  1  0  0  0  0
  1  5  1  0  0  0  0
  2  3  2  0  0  0  0
  4  1  1  0  0  0  0
  6  5  1  0  0  0  0
  7  6  2  0  0  0  0
  8 10  1  0  0  0  0
  8  7  1  0  0  0  0
  9  8  2  0  0  0  0
 10 15  1  0  0  0  0
 11  9  1  0  0  0  0
 11 13  2  0  0  0  0
 12 11  1  0  0  0  0
 13 14  1  0  0  0  0
 14 10  2  0  0  0  0
 15  6  1  0  0  0  0
 15 16  1  0  0  0  0
 17  2  1  0  0  0  0
 17 20  1  0  0  0  0
 18 19  1  0  0  0  0
 18 17  1  0  0  0  0
 19 17  1  0  0  0  0
 20 21  1  0  0  0  0
 20 25  1  0  0  0  0
 21 22  1  0  0  0  0
 22 23  1  0  0  0  0
 24 23  1  0  0  0  0
 25 24  1  0  0  0  0
M  END
>  <Pose>
1

>  <Score>
-9.414

$$$$
