MODEL 1
REMARK VINA RESULT:    -8.702      0.000      0.000
REMARK INTER + INTRA:         -11.032
REMARK INTER:                 -10.228
REMARK INTRA:                  -0.804
REMARK UNBOUND:                -0.804
REMARK  3 active torsions:
REMARK  status: ('A' for Active; 'I' for Inactive)
REMARK    1  A    between atoms: C_5  and  C_8 
REMARK    2  A    between atoms: C_8  and  N_9 
REMARK    3  A    between atoms: C_13  and  N_14 
ROOT
ATOM      1  N   UNK d   1      22.074  77.928  13.808  0.00  0.00    -0.168 N 
ATOM      2  C   UNK d   1      21.492  78.146  12.591  0.00  0.00     0.167 A 
ATOM      3  C   UNK d   1      22.265  78.996  11.849  0.00  0.00     0.185 A 
ATOM      4  N   UNK d   1      23.298  79.274  12.634  0.00  0.00    -0.044 NA
ATOM      5  C   UNK d   1      23.207  78.632  13.844  0.00  0.00     0.707 A 
ATOM      6  N   UNK d   1      21.908  79.378  10.609  0.00  0.00    -0.286 N 
ATOM      7  C   UNK d   1      20.751  78.914  10.069  0.00  0.00     0.330 A 
ATOM      8  O   UNK d   1      20.460  79.295   8.913  0.00  0.00    -0.246 OA
ATOM      9  N   UNK d   1      19.957  78.077  10.758  0.00  0.00    -0.273 N 
ATOM     10  C   UNK d   1      20.323  77.704  11.993  0.00  0.00     0.280 A 
ATOM     11  O   UNK d   1      19.550  76.926  12.594  0.00  0.00    -0.265 OA
ATOM     12  C   UNK d   1      22.789  80.282   9.892  0.00  0.00     0.163 C 
ATOM     13  H   UNK d   1      19.081  77.751  10.298  0.00  0.00     0.173 HD
ENDROOT
BRANCH   1  14
ATOM     14  C   UNK d   1      21.487  77.075  14.808  0.00  0.00     0.186 C 
BRANCH  14  15
ATOM     15  C   UNK d   1      20.839  77.732  15.940  0.00  0.00    -0.039 A 
ATOM     16  C   UNK d   1      20.874  79.066  16.182  0.00  0.00     0.010 A 
ATOM     17  C   UNK d   1      20.281  79.642  17.309  0.00  0.00     0.024 A 
ATOM     18  C   UNK d   1      19.634  78.864  18.222  0.00  0.00     0.034 A 
ATOM     19 Cl   UNK d   1      18.909  79.634  19.616  0.00  0.00    -0.084 Cl
ATOM     20  C   UNK d   1      19.575  77.505  18.016  0.00  0.00     0.024 A 
ATOM     21  C   UNK d   1      20.166  76.960  16.900  0.00  0.00     0.010 A 
ENDBRANCH  14  15
ENDBRANCH   1  14
BRANCH   5  22
ATOM     22  N   UNK d   1      24.181  78.779  14.855  0.00  0.00    -0.212 N 
ATOM     23  C   UNK d   1      24.037  79.898  15.778  0.00  0.00     0.171 C 
ATOM     24  C   UNK d   1      24.534  79.322  17.116  0.00  0.00     0.290 C 
ATOM     25  N   UNK d   1      24.226  77.914  17.237  0.00  0.00     0.086 N 
ATOM     26  C   UNK d   1      24.940  77.074  16.299  0.00  0.00     0.290 C 
ATOM     27  H   UNK d   1      24.509  77.629  18.190  0.00  0.00     0.316 HD
ATOM     28  C   UNK d   1      25.311  77.970  15.127  0.00  0.00     0.171 C 
ENDBRANCH   5  22
TORSDOF 3
ENDMDL
