/Users/jonathanwahrer/Desktop/Msc/3_Semester/Drug_Design_Praktikum/waehrer_HTS_screening/HTS_experiment/out/docking_results/vina_output/6e43/1940_docked.pdbqt
 OpenBabel03212220543D

 30 33  0  0  1  0  0  0  0  0999 V2000
   20.5600   78.9820   16.8230 C   0  0  1  0  0  3  0  0  0  0  0  0
   20.2490   78.7450   18.2390 N   0  0  0  0  0  0  0  0  0  0  0  0
   21.0650   77.6550   18.6260 C   0  0  0  0  0  0  0  0  0  0  0  0
   20.8130   76.8120   19.5190 O   0  0  0  0  0  0  0  0  0  0  0  0
   22.2710   77.7000   17.7780 C   0  0  0  0  0  0  0  0  0  0  0  0
   23.2480   76.9170   17.7920 O   0  0  0  0  0  0  0  0  0  0  0  0
   22.0720   78.8570   16.9160 C   0  0  0  0  0  0  0  0  0  0  0  0
   22.9780   79.5950   16.3780 C   0  0  0  0  0  0  0  0  0  0  0  0
   22.6380   80.6870   15.5820 O   0  0  0  0  0  1  0  0  0  0  0  0
   19.2880   79.4870   19.0430 C   0  0  0  0  0  2  0  0  0  0  0  0
   19.2700   80.9610   18.7780 C   0  0  0  0  0  2  0  0  0  0  0  0
   20.4100   81.6920   19.2140 N   0  0  0  0  0  4  0  0  0  0  0  0
   20.5380   83.0310   18.7350 C   0  0  0  0  0  2  0  0  0  0  0  0
   19.4350   83.9530   19.2020 C   0  0  0  0  0  2  0  0  0  0  0  0
   19.3620   83.9740   20.5910 O   0  0  0  0  0  0  0  0  0  0  0  0
   19.3020   82.6950   21.1330 C   0  0  0  0  0  2  0  0  0  0  0  0
   20.4350   81.8070   20.6870 C   0  0  0  0  0  2  0  0  0  0  0  0
   21.2650   81.1690   18.9250 H   0  0  0  0  0  0  0  0  0  0  0  0
   20.1280   77.8300   15.9940 C   0  0  0  0  0  0  0  0  0  0  0  0
   19.0050   77.0970   16.2850 C   0  0  0  0  0  3  0  0  0  0  0  0
   18.5880   76.0300   15.5140 C   0  0  0  0  0  3  0  0  0  0  0  0
   19.3180   75.6720   14.4010 C   0  0  0  0  0  0  0  0  0  0  0  0
   18.8630   74.3390   13.3690 Cl  0  0  0  0  0  0  0  0  0  0  0  0
   20.4440   76.3900   14.0910 C   0  0  0  0  0  3  0  0  0  0  0  0
   20.8540   77.4540   14.8640 C   0  0  0  0  0  3  0  0  0  0  0  0
   24.3950   79.3100   16.5850 C   0  0  0  0  0  0  0  0  0  0  0  0
   25.1500   79.4000   17.6210 O   0  0  0  0  0  0  0  0  0  0  0  0
   26.3690   79.0350   17.3440 C   0  0  0  0  0  3  0  0  0  0  0  0
   26.4430   78.6700   16.0240 C   0  0  0  0  0  3  0  0  0  0  0  0
   25.1830   78.8430   15.5240 C   0  0  0  0  0  3  0  0  0  0  0  0
  1 19  1  6  0  0  0
  1  7  1  0  0  0  0
  1  2  1  0  0  0  0
  2  3  1  0  0  0  0
  2 10  1  0  0  0  0
  3  4  2  0  0  0  0
  5  6  2  0  0  0  0
  5  3  1  0  0  0  0
  7  5  1  0  0  0  0
  8 26  1  0  0  0  0
  8  7  2  0  0  0  0
  9  8  1  0  0  0  0
 11 10  1  0  0  0  0
 11 12  1  0  0  0  0
 12 17  1  0  0  0  0
 13 14  1  0  0  0  0
 13 12  1  0  0  0  0
 14 15  1  0  0  0  0
 15 16  1  0  0  0  0
 17 16  1  0  0  0  0
 18 12  1  0  0  0  0
 19 20  1  0  0  0  0
 21 20  2  0  0  0  0
 22 21  1  0  0  0  0
 23 22  1  0  0  0  0
 24 22  2  0  0  0  0
 24 25  1  0  0  0  0
 25 19  2  0  0  0  0
 26 27  1  0  0  0  0
 28 27  1  0  0  0  0
 29 28  2  0  0  0  0
 30 29  1  0  0  0  0
 30 26  2  0  0  0  0
M  END
>  <Pose>
1

>  <Score>
-8.668

$$$$
