/Users/jonathanwahrer/Desktop/Msc/3_Semester/Drug_Design_Praktikum/waehrer_HTS_screening/HTS_experiment/out/docking_results/vina_output/6e43/1941_docked.pdbqt
 OpenBabel03212220543D

 22 25  0  0  1  0  0  0  0  0999 V2000
   21.9420   78.8110   12.7500 N   0  0  0  0  0  0  0  0  0  0  0  0
   21.8540   77.8680   13.8280 C   0  0  0  0  0  0  0  0  0  0  0  0
   20.8200   77.1350   13.9990 O   0  0  0  0  0  0  0  0  0  0  0  0
   23.0910   77.9160   14.6240 C   0  0  1  0  0  3  0  0  0  0  0  0
   23.6730   79.2620   14.2650 C   0  0  2  0  0  3  0  0  0  0  0  0
   23.7080   80.1290   15.5040 C   0  0  2  0  0  3  0  0  0  0  0  0
   24.7440   79.4740   16.4300 C   0  0  0  0  0  2  0  0  0  0  0  0
   24.1690   78.1320   16.7800 C   0  0  0  0  0  0  0  0  0  0  0  0
   24.7260   77.4160   17.5670 O   0  0  0  0  0  0  0  0  0  0  0  0
   22.8840   77.7590   16.0920 C   0  0  1  0  0  3  0  0  0  0  0  0
   21.8440   78.7660   16.5960 C   0  0  0  0  0  2  0  0  0  0  0  0
   22.3940   80.1190   16.2350 C   0  0  0  0  0  0  0  0  0  0  0  0
   21.7890   81.1120   16.5330 O   0  0  0  0  0  0  0  0  0  0  0  0
   22.8660   79.8040   13.1730 C   0  0  0  0  0  0  0  0  0  0  0  0
   22.9720   80.9540   12.6900 O   0  0  0  0  0  0  0  0  0  0  0  0
   21.2580   78.7780   11.5030 C   0  0  0  0  0  0  0  0  0  0  0  0
   21.8920   78.2840   10.3780 C   0  0  0  0  0  3  0  0  0  0  0  0
   21.2710   78.2300    9.1500 C   0  0  0  0  0  3  0  0  0  0  0  0
   19.9810   78.6700    8.9900 C   0  0  0  0  0  0  0  0  0  0  0  0
   19.1790   78.6050    7.4250 Cl  0  0  0  0  0  0  0  0  0  0  0  0
   19.3260   79.1700   10.1040 C   0  0  0  0  0  3  0  0  0  0  0  0
   19.9650   79.2150   11.3220 C   0  0  0  0  0  3  0  0  0  0  0  0
  1 14  1  0  0  0  0
  1  2  1  0  0  0  0
  2  3  2  0  0  0  0
  4  2  1  6  0  0  0
  4 10  1  0  0  0  0
  5 14  1  6  0  0  0
  5  4  1  0  0  0  0
  5  6  1  0  0  0  0
  6 12  1  0  0  0  0
  6  7  1  1  0  0  0
  7  8  1  0  0  0  0
  8  9  2  0  0  0  0
 10 11  1  1  0  0  0
 10  8  1  0  0  0  0
 12 13  2  0  0  0  0
 12 11  1  0  0  0  0
 15 14  2  0  0  0  0
 16  1  1  0  0  0  0
 17 16  2  0  0  0  0
 18 17  1  0  0  0  0
 19 18  2  0  0  0  0
 19 21  1  0  0  0  0
 20 19  1  0  0  0  0
 21 22  2  0  0  0  0
 22 16  1  0  0  0  0
M  END
>  <Pose>
1

>  <Score>
-9.140

$$$$
