MODEL 1
REMARK VINA RESULT:    -9.140      0.000      0.000
REMARK INTER + INTRA:         -10.131
REMARK INTER:                  -9.674
REMARK INTRA:                  -0.457
REMARK UNBOUND:                -0.457
REMARK  1 active torsions:
REMARK  status: ('A' for Active; 'I' for Inactive)
REMARK    1  A    between atoms: C_5  and  N_8 
ROOT
ATOM      1  N   UNK d   1      21.942  78.811  12.750  0.00  0.00    -0.252 N 
ATOM      2  C   UNK d   1      21.854  77.868  13.828  0.00  0.00     0.237 C 
ATOM      3  O   UNK d   1      20.820  77.135  13.999  0.00  0.00    -0.272 OA
ATOM      4  C   UNK d   1      23.091  77.916  14.624  0.00  0.00     0.104 C 
ATOM      5  C   UNK d   1      23.673  79.262  14.265  0.00  0.00     0.104 C 
ATOM      6  C   UNK d   1      23.708  80.129  15.504  0.00  0.00     0.076 C 
ATOM      7  C   UNK d   1      24.744  79.474  16.430  0.00  0.00     0.091 C 
ATOM      8  C   UNK d   1      24.169  78.132  16.780  0.00  0.00     0.133 C 
ATOM      9  O   UNK d   1      24.726  77.416  17.567  0.00  0.00    -0.298 OA
ATOM     10  C   UNK d   1      22.884  77.759  16.092  0.00  0.00     0.076 C 
ATOM     11  C   UNK d   1      21.844  78.766  16.596  0.00  0.00     0.091 C 
ATOM     12  C   UNK d   1      22.394  80.119  16.235  0.00  0.00     0.133 C 
ATOM     13  O   UNK d   1      21.789  81.112  16.533  0.00  0.00    -0.298 OA
ATOM     14  C   UNK d   1      22.866  79.804  13.173  0.00  0.00     0.237 C 
ATOM     15  O   UNK d   1      22.972  80.954  12.690  0.00  0.00    -0.272 OA
ENDROOT
BRANCH   1  16
ATOM     16  C   UNK d   1      21.258  78.778  11.503  0.00  0.00     0.045 A 
ATOM     17  C   UNK d   1      21.892  78.284  10.378  0.00  0.00     0.032 A 
ATOM     18  C   UNK d   1      21.271  78.230   9.150  0.00  0.00     0.026 A 
ATOM     19  C   UNK d   1      19.981  78.670   8.990  0.00  0.00     0.034 A 
ATOM     20 Cl   UNK d   1      19.179  78.605   7.425  0.00  0.00    -0.084 Cl
ATOM     21  C   UNK d   1      19.326  79.170  10.104  0.00  0.00     0.026 A 
ATOM     22  C   UNK d   1      19.965  79.215  11.322  0.00  0.00     0.032 A 
ENDBRANCH   1  16
TORSDOF 1
ENDMDL
