MODEL 1
REMARK VINA RESULT:    -9.799      0.000      0.000
REMARK INTER + INTRA:         -12.567
REMARK INTER:                 -11.518
REMARK INTRA:                  -1.049
REMARK UNBOUND:                -1.049
REMARK  3 active torsions:
REMARK  status: ('A' for Active; 'I' for Inactive)
REMARK    1  A    between atoms: C_5  and  N_8 
REMARK    2  A    between atoms: C_14  and  C_18 
REMARK    3  A    between atoms: C_18  and  C_19 
REMARK       I    between atoms: C_19  and  N_21 
ROOT
ATOM      1  N   UNK d   1      20.535  80.799  18.404  0.00  0.00    -0.252 N 
ATOM      2  C   UNK d   1      20.066  79.482  18.042  0.00  0.00     0.239 C 
ATOM      3  O   UNK d   1      19.370  78.741  18.743  0.00  0.00    -0.272 OA
ATOM      4  C   UNK d   1      20.542  79.146  16.694  0.00  0.00     0.147 C 
ATOM      5  C   UNK d   1      21.150  77.772  16.539  0.00  0.00     0.279 C 
ATOM      6  N   UNK d   1      22.573  77.893  16.751  0.00  0.00     0.114 N 
ATOM      7  C   UNK d   1      22.786  79.203  17.334  0.00  0.00     0.245 C 
ATOM      8  C   UNK d   1      21.763  80.028  16.579  0.00  0.00     0.129 C 
ATOM      9  C   UNK d   1      21.336  81.243  17.297  0.00  0.00     0.238 C 
ATOM     10  O   UNK d   1      21.642  82.388  16.956  0.00  0.00    -0.272 OA
ATOM     11  C   UNK d   1      20.835  77.368  15.125  0.00  0.00     0.017 A 
ATOM     12  C   UNK d   1      19.919  76.356  15.179  0.00  0.00     0.044 A 
ATOM     13  C   UNK d   1      19.369  75.794  14.017  0.00  0.00     0.030 A 
ATOM     14  C   UNK d   1      19.752  76.258  12.775  0.00  0.00     0.002 A 
ATOM     15  C   UNK d   1      20.672  77.270  12.719  0.00  0.00     0.001 A 
ATOM     16  C   UNK d   1      21.202  77.813  13.872  0.00  0.00     0.012 A 
ATOM     17  N   UNK d   1      19.698  75.941  16.518  0.00  0.00    -0.324 N 
ATOM     18  C   UNK d   1      20.532  76.738  17.344  0.00  0.00     0.267 C 
ATOM     19  O   UNK d   1      20.679  76.537  18.568  0.00  0.00    -0.270 OA
ATOM     20  H   UNK d   1      22.863  77.129  17.405  0.00  0.00     0.318 HD
ATOM     21  H   UNK d   1      19.032  75.174  16.842  0.00  0.00     0.169 HD
ENDROOT
BRANCH   7  22
ATOM     22  C   UNK d   1      24.183  79.714  17.096  0.00  0.00     0.139 C 
BRANCH  22  23
ATOM     23  C   UNK d   1      24.889  79.046  16.007  0.00  0.00     0.217 C 
ATOM     24  O   UNK d   1      24.378  78.969  14.874  0.00  0.00    -0.274 OA
ATOM     25  N   UNK d   1      26.164  78.478  16.235  0.00  0.00    -0.370 N 
ATOM     26  H   UNK d   1      26.640  78.446  17.169  0.00  0.00     0.159 HD
ATOM     27  H   UNK d   1      26.742  78.034  15.462  0.00  0.00     0.159 HD
ENDBRANCH  22  23
ENDBRANCH   7  22
BRANCH   1  28
ATOM     28  C   UNK d   1      20.282  81.534  19.567  0.00  0.00     0.045 A 
ATOM     29  C   UNK d   1      21.034  81.425  20.705  0.00  0.00     0.032 A 
ATOM     30  C   UNK d   1      20.785  82.159  21.859  0.00  0.00     0.026 A 
ATOM     31  C   UNK d   1      19.736  83.046  21.877  0.00  0.00     0.034 A 
ATOM     32 Cl   UNK d   1      19.415  83.987  23.323  0.00  0.00    -0.084 Cl
ATOM     33  C   UNK d   1      18.966  83.180  20.763  0.00  0.00     0.026 A 
ATOM     34  C   UNK d   1      19.240  82.427  19.616  0.00  0.00     0.032 A 
ENDBRANCH   1  28
TORSDOF 3
ENDMDL
