/Users/jonathanwahrer/Desktop/Msc/3_Semester/Drug_Design_Praktikum/waehrer_HTS_screening/HTS_experiment/out/docking_results/vina_output/6e43/1943_docked.pdbqt
 OpenBabel03212220543D

 34 38  0  0  1  0  0  0  0  0999 V2000
   20.5350   80.7990   18.4040 N   0  0  0  0  0  0  0  0  0  0  0  0
   20.0660   79.4820   18.0420 C   0  0  0  0  0  0  0  0  0  0  0  0
   19.3700   78.7410   18.7430 O   0  0  0  0  0  0  0  0  0  0  0  0
   20.5420   79.1460   16.6940 C   0  0  2  0  0  3  0  0  0  0  0  0
   21.1500   77.7720   16.5390 C   0  0  2  0  0  0  0  0  0  0  0  0
   22.5730   77.8930   16.7510 N   0  0  0  0  0  0  0  0  0  0  0  0
   22.7860   79.2030   17.3340 C   0  0  2  0  0  3  0  0  0  0  0  0
   21.7630   80.0280   16.5790 C   0  0  2  0  0  3  0  0  0  0  0  0
   21.3360   81.2430   17.2970 C   0  0  0  0  0  0  0  0  0  0  0  0
   21.6420   82.3880   16.9560 O   0  0  0  0  0  0  0  0  0  0  0  0
   20.8350   77.3680   15.1250 C   0  0  0  0  0  0  0  0  0  0  0  0
   19.9190   76.3560   15.1790 C   0  0  0  0  0  0  0  0  0  0  0  0
   19.3690   75.7940   14.0170 C   0  0  0  0  0  3  0  0  0  0  0  0
   19.7520   76.2580   12.7750 C   0  0  0  0  0  3  0  0  0  0  0  0
   20.6720   77.2700   12.7190 C   0  0  0  0  0  3  0  0  0  0  0  0
   21.2020   77.8130   13.8720 C   0  0  0  0  0  3  0  0  0  0  0  0
   19.6980   75.9410   16.5180 N   0  0  0  0  0  0  0  0  0  0  0  0
   20.5320   76.7380   17.3440 C   0  0  0  0  0  0  0  0  0  0  0  0
   20.6790   76.5370   18.5680 O   0  0  0  0  0  0  0  0  0  0  0  0
   22.8630   77.1290   17.4050 H   0  0  0  0  0  0  0  0  0  0  0  0
   19.0320   75.1740   16.8420 H   0  0  0  0  0  0  0  0  0  0  0  0
   24.1830   79.7140   17.0960 C   0  0  0  0  0  2  0  0  0  0  0  0
   24.8890   79.0460   16.0070 C   0  0  0  0  0  0  0  0  0  0  0  0
   24.3780   78.9690   14.8740 O   0  0  0  0  0  0  0  0  0  0  0  0
   26.1640   78.4780   16.2350 N   0  0  0  0  0  0  0  0  0  0  0  0
   26.6400   78.4460   17.1690 H   0  0  0  0  0  0  0  0  0  0  0  0
   26.7420   78.0340   15.4620 H   0  0  0  0  0  0  0  0  0  0  0  0
   20.2820   81.5340   19.5670 C   0  0  0  0  0  0  0  0  0  0  0  0
   21.0340   81.4250   20.7050 C   0  0  0  0  0  3  0  0  0  0  0  0
   20.7850   82.1590   21.8590 C   0  0  0  0  0  3  0  0  0  0  0  0
   19.7360   83.0460   21.8770 C   0  0  0  0  0  0  0  0  0  0  0  0
   19.4150   83.9870   23.3230 Cl  0  0  0  0  0  0  0  0  0  0  0  0
   18.9660   83.1800   20.7630 C   0  0  0  0  0  3  0  0  0  0  0  0
   19.2400   82.4270   19.6160 C   0  0  0  0  0  3  0  0  0  0  0  0
  1 28  1  0  0  0  0
  2  1  1  0  0  0  0
  2  3  2  0  0  0  0
  4  2  1  1  0  0  0
  5 11  1  6  0  0  0
  5  4  1  0  0  0  0
  5  6  1  0  0  0  0
  5 18  1  0  0  0  0
  6  7  1  0  0  0  0
  6 20  1  0  0  0  0
  7 22  1  6  0  0  0
  8  4  1  0  0  0  0
  8  9  1  1  0  0  0
  8  7  1  0  0  0  0
  9  1  1  0  0  0  0
 10  9  2  0  0  0  0
 11 12  1  0  0  0  0
 12 17  1  0  0  0  0
 13 12  2  0  0  0  0
 14 13  1  0  0  0  0
 15 14  2  0  0  0  0
 15 16  1  0  0  0  0
 16 11  2  0  0  0  0
 17 21  1  0  0  0  0
 17 18  1  0  0  0  0
 18 19  2  0  0  0  0
 23 25  1  0  0  0  0
 23 22  1  0  0  0  0
 24 23  2  0  0  0  0
 25 26  1  0  0  0  0
 27 25  1  0  0  0  0
 28 34  2  0  0  0  0
 28 29  1  0  0  0  0
 29 30  2  0  0  0  0
 30 31  1  0  0  0  0
 31 32  1  0  0  0  0
 33 31  2  0  0  0  0
 34 33  1  0  0  0  0
M  END
>  <Pose>
1

>  <Score>
-9.799

$$$$
