MODEL 1
REMARK VINA RESULT:    -8.848      0.000      0.000
REMARK INTER + INTRA:         -13.149
REMARK INTER:                 -12.985
REMARK INTRA:                  -0.164
REMARK UNBOUND:                -0.164
REMARK  8 active torsions:
REMARK  status: ('A' for Active; 'I' for Inactive)
REMARK    1  A    between atoms: C_5  and  C_8 
REMARK    2  A    between atoms: C_10  and  C_24 
REMARK    3  A    between atoms: N_11  and  C_16 
REMARK    4  A    between atoms: C_16  and  C_17 
REMARK    5  A    between atoms: C_17  and  N_18 
REMARK    6  A    between atoms: C_27  and  O_30 
REMARK    7  A    between atoms: O_30  and  C_31 
REMARK    8  A    between atoms: C_31  and  C_32 
ROOT
ATOM      1  C   UNK d   1      20.539  78.098  12.057  0.00  0.00     0.130 C 
ATOM      2  C   UNK d   1      20.890  77.706  13.270  0.00  0.00     0.062 C 
ATOM      3  C   UNK d   1      19.978  77.043  14.271  0.00  0.00     0.161 C 
ATOM      4  N   UNK d   1      20.679  77.093  15.522  0.00  0.00    -0.331 N 
ATOM      5  C   UNK d   1      22.032  77.477  15.323  0.00  0.00     0.295 C 
ATOM      6  O   UNK d   1      22.937  77.488  16.170  0.00  0.00    -0.264 OA
ATOM      7  C   UNK d   1      22.162  77.866  13.899  0.00  0.00     0.250 C 
ATOM      8  O   UNK d   1      23.226  78.267  13.371  0.00  0.00    -0.282 OA
ATOM      9  O   UNK d   1      19.189  77.870  11.698  0.00  0.00    -0.190 OA
ENDROOT
BRANCH   3  10
ATOM     10  C   UNK d   1      19.740  75.660  13.773  0.00  0.00    -0.030 A 
ATOM     11  C   UNK d   1      20.354  74.601  14.378  0.00  0.00     0.012 A 
ATOM     12  C   UNK d   1      20.120  73.335  13.922  0.00  0.00     0.037 A 
ATOM     13  C   UNK d   1      19.276  73.090  12.861  0.00  0.00     0.068 A 
ATOM     14  C   UNK d   1      18.654  74.161  12.247  0.00  0.00     0.037 A 
ATOM     15  C   UNK d   1      18.894  75.445  12.714  0.00  0.00     0.012 A 
BRANCH  13  16
ATOM     16  O   UNK d   1      19.043  71.797  12.403  0.00  0.00    -0.351 OA
BRANCH  16  17
ATOM     17  C   UNK d   1      17.770  71.199  12.684  0.00  0.00     0.175 C 
BRANCH  17  18
ATOM     18  C   UNK d   1      16.954  71.156  11.395  0.00  0.00     0.022 C 
ATOM     19  C   UNK d   1      16.159  69.858  11.417  0.00  0.00     0.007 C 
ENDBRANCH  17  18
ENDBRANCH  16  17
ENDBRANCH  13  16
ENDBRANCH   3  10
BRANCH   4  20
ATOM     20  C   UNK d   1      20.093  76.807  16.827  0.00  0.00     0.155 C 
BRANCH  20  21
ATOM     21  C   UNK d   1      19.205  77.931  17.237  0.00  0.00     0.255 C 
BRANCH  21  22
ATOM     22  N   UNK d   1      19.937  78.937  18.024  0.00  0.00    -0.066 N 
ATOM     23  C   UNK d   1      19.240  79.124  19.259  0.00  0.00     0.261 C 
ATOM     24  C   UNK d   1      19.673  80.405  19.969  0.00  0.00     0.195 C 
ATOM     25  O   UNK d   1      19.429  81.454  19.065  0.00  0.00    -0.388 OA
ATOM     26  C   UNK d   1      20.351  81.338  18.046  0.00  0.00     0.195 C 
ATOM     27  C   UNK d   1      20.004  80.127  17.204  0.00  0.00     0.261 C 
ATOM     28  H   UNK d   1      20.916  78.603  18.225  0.00  0.00     0.280 HD
ENDBRANCH  21  22
ENDBRANCH  20  21
ENDBRANCH   4  20
BRANCH   1  29
ATOM     29  C   UNK d   1      21.459  78.725  11.134  0.00  0.00     0.001 A 
ATOM     30  C   UNK d   1      21.498  80.123  11.039  0.00  0.00     0.016 A 
ATOM     31  C   UNK d   1      22.321  80.783  10.151  0.00  0.00     0.024 A 
ATOM     32  C   UNK d   1      23.150  80.082   9.309  0.00  0.00     0.034 A 
ATOM     33 Cl   UNK d   1      24.218  80.857   8.161  0.00  0.00    -0.084 Cl
ATOM     34  C   UNK d   1      23.135  78.718   9.376  0.00  0.00     0.024 A 
ATOM     35  C   UNK d   1      22.297  78.050  10.279  0.00  0.00     0.016 A 
ENDBRANCH   1  29
TORSDOF 8
ENDMDL
