/Users/jonathanwahrer/Desktop/Msc/3_Semester/Drug_Design_Praktikum/waehrer_HTS_screening/HTS_experiment/out/docking_results/vina_output/6e43/1956_docked.pdbqt
 OpenBabel03212220543D

 35 38  0  0  1  0  0  0  0  0999 V2000
   20.5390   78.0980   12.0570 C   0  0  0  0  0  0  0  0  0  0  0  0
   20.8900   77.7060   13.2700 C   0  0  0  0  0  0  0  0  0  0  0  0
   19.9780   77.0430   14.2710 C   0  0  2  0  0  3  0  0  0  0  0  0
   20.6790   77.0930   15.5220 N   0  0  0  0  0  0  0  0  0  0  0  0
   22.0320   77.4770   15.3230 C   0  0  0  0  0  0  0  0  0  0  0  0
   22.9370   77.4880   16.1700 O   0  0  0  0  0  0  0  0  0  0  0  0
   22.1620   77.8660   13.8990 C   0  0  0  0  0  0  0  0  0  0  0  0
   23.2260   78.2670   13.3710 O   0  0  0  0  0  0  0  0  0  0  0  0
   19.1890   77.8700   11.6980 O   0  0  0  0  0  1  0  0  0  0  0  0
   19.7400   75.6600   13.7730 C   0  0  0  0  0  0  0  0  0  0  0  0
   20.3540   74.6010   14.3780 C   0  0  0  0  0  3  0  0  0  0  0  0
   20.1200   73.3350   13.9220 C   0  0  0  0  0  3  0  0  0  0  0  0
   19.2760   73.0900   12.8610 C   0  0  0  0  0  0  0  0  0  0  0  0
   18.6540   74.1610   12.2470 C   0  0  0  0  0  3  0  0  0  0  0  0
   18.8940   75.4450   12.7140 C   0  0  0  0  0  3  0  0  0  0  0  0
   19.0430   71.7970   12.4030 O   0  0  0  0  0  0  0  0  0  0  0  0
   17.7700   71.1990   12.6840 C   0  0  0  0  0  2  0  0  0  0  0  0
   16.9540   71.1560   11.3950 C   0  0  0  0  0  2  0  0  0  0  0  0
   16.1590   69.8580   11.4170 C   0  0  0  0  0  1  0  0  0  0  0  0
   20.0930   76.8070   16.8270 C   0  0  0  0  0  2  0  0  0  0  0  0
   19.2050   77.9310   17.2370 C   0  0  0  0  0  2  0  0  0  0  0  0
   19.9370   78.9370   18.0240 N   0  0  0  0  0  4  0  0  0  0  0  0
   19.2400   79.1240   19.2590 C   0  0  0  0  0  2  0  0  0  0  0  0
   19.6730   80.4050   19.9690 C   0  0  0  0  0  2  0  0  0  0  0  0
   19.4290   81.4540   19.0650 O   0  0  0  0  0  0  0  0  0  0  0  0
   20.3510   81.3380   18.0460 C   0  0  0  0  0  2  0  0  0  0  0  0
   20.0040   80.1270   17.2040 C   0  0  0  0  0  2  0  0  0  0  0  0
   20.9160   78.6030   18.2250 H   0  0  0  0  0  0  0  0  0  0  0  0
   21.4590   78.7250   11.1340 C   0  0  0  0  0  0  0  0  0  0  0  0
   21.4980   80.1230   11.0390 C   0  0  0  0  0  3  0  0  0  0  0  0
   22.3210   80.7830   10.1510 C   0  0  0  0  0  3  0  0  0  0  0  0
   23.1500   80.0820    9.3090 C   0  0  0  0  0  0  0  0  0  0  0  0
   24.2180   80.8570    8.1610 Cl  0  0  0  0  0  0  0  0  0  0  0  0
   23.1350   78.7180    9.3760 C   0  0  0  0  0  3  0  0  0  0  0  0
   22.2970   78.0500   10.2790 C   0  0  0  0  0  3  0  0  0  0  0  0
  1  2  2  0  0  0  0
  2  7  1  0  0  0  0
  2  3  1  0  0  0  0
  3 10  1  6  0  0  0
  3  4  1  0  0  0  0
  4 20  1  0  0  0  0
  5  4  1  0  0  0  0
  5  6  2  0  0  0  0
  7  5  1  0  0  0  0
  8  7  2  0  0  0  0
  9  1  1  0  0  0  0
 10 11  1  0  0  0  0
 12 11  2  0  0  0  0
 13 12  1  0  0  0  0
 14 15  1  0  0  0  0
 14 13  2  0  0  0  0
 15 10  2  0  0  0  0
 16 17  1  0  0  0  0
 16 13  1  0  0  0  0
 18 19  1  0  0  0  0
 18 17  1  0  0  0  0
 20 21  1  0  0  0  0
 21 22  1  0  0  0  0
 22 28  1  0  0  0  0
 22 23  1  0  0  0  0
 23 24  1  0  0  0  0
 25 24  1  0  0  0  0
 26 25  1  0  0  0  0
 27 22  1  0  0  0  0
 27 26  1  0  0  0  0
 29  1  1  0  0  0  0
 30 29  1  0  0  0  0
 31 30  2  0  0  0  0
 32 34  2  0  0  0  0
 32 31  1  0  0  0  0
 33 32  1  0  0  0  0
 34 35  1  0  0  0  0
 35 29  2  0  0  0  0
M  END
>  <Pose>
1

>  <Score>
-8.848

$$$$
