MODEL 1
REMARK VINA RESULT:    -8.662      0.000      0.000
REMARK INTER + INTRA:         -12.687
REMARK INTER:                 -11.953
REMARK INTRA:                  -0.734
REMARK UNBOUND:                -0.734
REMARK  7 active torsions:
REMARK  status: ('A' for Active; 'I' for Inactive)
REMARK    1  A    between atoms: C_5  and  C_8 
REMARK    2  A    between atoms: C_8  and  O_9 
REMARK    3  A    between atoms: C_8  and  C_10 
REMARK    4  A    between atoms: N_17  and  C_20 
REMARK    5  A    between atoms: C_20  and  C_21 
REMARK    6  A    between atoms: C_21  and  C_22 
REMARK    7  A    between atoms: C_22  and  O_23 
ROOT
ATOM      1  C   UNK d   1      20.575  80.255  17.940  0.00  0.00     0.269 C 
ATOM      2  N   UNK d   1      22.007  80.076  18.142  0.00  0.00     0.116 N 
ATOM      3  C   UNK d   1      22.425  79.015  17.247  0.00  0.00     0.279 A 
ATOM      4  C   UNK d   1      21.516  79.205  16.068  0.00  0.00     0.147 C 
ATOM      5  C   UNK d   1      20.204  79.633  16.646  0.00  0.00     0.131 C 
ATOM      6  C   UNK d   1      19.400  78.389  16.798  0.00  0.00     0.233 C 
ATOM      7  O   UNK d   1      18.352  78.254  17.473  0.00  0.00    -0.272 OA
ATOM      8  N   UNK d   1      20.068  77.374  16.016  0.00  0.00    -0.287 N 
ATOM      9  C   UNK d   1      21.171  77.961  15.358  0.00  0.00     0.234 C 
ATOM     10  O   UNK d   1      21.772  77.522  14.347  0.00  0.00    -0.272 OA
ATOM     11  C   UNK d   1      23.852  79.139  16.865  0.00  0.00     0.017 A 
ATOM     12  C   UNK d   1      24.484  78.008  17.325  0.00  0.00     0.044 A 
ATOM     13  C   UNK d   1      25.846  77.862  17.098  0.00  0.00     0.030 A 
ATOM     14  C   UNK d   1      26.524  78.847  16.419  0.00  0.00     0.002 A 
ATOM     15  C   UNK d   1      25.896  79.989  15.950  0.00  0.00     0.001 A 
ATOM     16  C   UNK d   1      24.544  80.122  16.184  0.00  0.00     0.012 A 
ATOM     17  N   UNK d   1      23.559  77.139  18.003  0.00  0.00    -0.324 N 
ATOM     18  C   UNK d   1      22.286  77.758  17.963  0.00  0.00     0.267 A 
ATOM     19  O   UNK d   1      21.263  77.270  18.469  0.00  0.00    -0.270 OA
ATOM     20  H   UNK d   1      22.209  79.854  19.123  0.00  0.00     0.318 HD
ATOM     21  H   UNK d   1      23.840  76.226  18.427  0.00  0.00     0.169 HD
ENDROOT
BRANCH   1  22
ATOM     22  C   UNK d   1      20.334  81.739  18.012  0.00  0.00     0.185 C 
BRANCH  22  23
ATOM     23  C   UNK d   1      20.092  82.225  19.400  0.00  0.00    -0.028 A 
ATOM     24  C   UNK d   1      19.211  83.279  19.635  0.00  0.00     0.011 A 
ATOM     25  C   UNK d   1      18.988  83.757  20.900  0.00  0.00     0.024 A 
ATOM     26  C   UNK d   1      19.623  83.218  22.001  0.00  0.00     0.034 A 
ATOM     27 Cl   UNK d   1      19.345  83.821  23.627  0.00  0.00    -0.084 Cl
ATOM     28  C   UNK d   1      20.488  82.178  21.745  0.00  0.00     0.024 A 
ATOM     29  C   UNK d   1      20.730  81.680  20.487  0.00  0.00     0.011 A 
ENDBRANCH  22  23
BRANCH  22  30
ATOM     30  O   UNK d   1      21.324  82.494  17.440  0.00  0.00    -0.389 OA
ATOM     31  H   UNK d   1      22.191  82.045  17.613  0.00  0.00     0.210 HD
ENDBRANCH  22  30
ENDBRANCH   1  22
BRANCH   8  32
ATOM     32  C   UNK d   1      19.672  75.999  15.939  0.00  0.00     0.137 C 
BRANCH  32  33
ATOM     33  C   UNK d   1      18.921  75.605  14.723  0.00  0.00     0.046 C 
BRANCH  33  34
ATOM     34  C   UNK d   1      19.674  74.847  13.686  0.00  0.00     0.168 C 
BRANCH  34  35
ATOM     35  O   UNK d   1      20.049  73.575  14.097  0.00  0.00    -0.396 OA
ATOM     36  C   UNK d   1      19.342  72.615  13.342  0.00  0.00     0.201 C 
ENDBRANCH  34  35
ENDBRANCH  33  34
ENDBRANCH  32  33
ENDBRANCH   8  32
TORSDOF 7
ENDMDL
