MODEL 1
REMARK VINA RESULT:   -10.182      0.000      0.000
REMARK INTER + INTRA:         -12.851
REMARK INTER:                 -12.265
REMARK INTRA:                  -0.586
REMARK UNBOUND:                -0.586
REMARK  4 active torsions:
REMARK  status: ('A' for Active; 'I' for Inactive)
REMARK    1  A    between atoms: C_5  and  C_8 
REMARK    2  A    between atoms: C_8  and  C_9 
REMARK       I    between atoms: C_9  and  N_11 
REMARK    3  A    between atoms: C_17  and  N_21 
REMARK    4  A    between atoms: C_19  and  O_20 
ROOT
ATOM      1  C   UNK d   1      19.777  80.405  18.103  0.00  0.00     0.224 C 
ATOM      2  O   UNK d   1      18.519  80.175  18.053  0.00  0.00    -0.273 OA
ATOM      3  N   UNK d   1      20.722  79.370  18.059  0.00  0.00    -0.346 N 
ATOM      4  C   UNK d   1      22.127  79.621  18.115  0.00  0.00     0.131 C 
ATOM      5  C   UNK d   1      22.971  78.570  17.449  0.00  0.00     0.065 C 
ATOM      6  C   UNK d   1      22.181  77.859  16.416  0.00  0.00     0.024 A 
ATOM      7  C   UNK d   1      20.848  77.557  16.628  0.00  0.00     0.082 A 
ATOM      8  N   UNK d   1      20.128  76.911  15.705  0.00  0.00    -0.065 NA
ATOM      9  C   UNK d   1      20.644  76.515  14.522  0.00  0.00     0.727 A 
ATOM     10  N   UNK d   1      21.950  76.808  14.309  0.00  0.00    -0.038 NA
ATOM     11  C   UNK d   1      22.714  77.456  15.206  0.00  0.00     0.189 A 
ATOM     12  C   UNK d   1      20.276  78.009  17.951  0.00  0.00     0.186 C 
ENDROOT
BRANCH   1  13
ATOM     13  C   UNK d   1      20.190  81.841  18.213  0.00  0.00     0.141 C 
BRANCH  13  14
ATOM     14  C   UNK d   1      20.004  82.347  19.582  0.00  0.00    -0.049 A 
ATOM     15  C   UNK d   1      20.771  81.945  20.654  0.00  0.00     0.009 A 
ATOM     16  C   UNK d   1      20.572  82.435  21.926  0.00  0.00     0.024 A 
ATOM     17  C   UNK d   1      19.567  83.368  22.164  0.00  0.00     0.034 A 
ATOM     18 Cl   UNK d   1      19.301  84.001  23.774  0.00  0.00    -0.084 Cl
ATOM     19  C   UNK d   1      18.806  83.761  21.081  0.00  0.00     0.024 A 
ATOM     20  C   UNK d   1      19.007  83.271  19.810  0.00  0.00     0.009 A 
ENDBRANCH  13  14
ENDBRANCH   1  13
BRANCH  11  21
ATOM     21  O   UNK d   1      24.048  77.741  14.956  0.00  0.00    -0.344 OA
ATOM     22  H   UNK d   1      24.731  77.855  15.710  0.00  0.00     0.219 HD
ENDBRANCH  11  21
BRANCH   9  23
ATOM     23  N   UNK d   1      19.844  75.840  13.584  0.00  0.00    -0.210 N 
ATOM     24  C   UNK d   1      19.478  76.467  12.349  0.00  0.00     0.167 C 
ATOM     25  C   UNK d   1      19.146  75.330  11.372  0.00  0.00     0.188 C 
ATOM     26  O   UNK d   1      18.073  74.596  11.813  0.00  0.00    -0.388 OA
ATOM     27  C   UNK d   1      18.104  74.210  13.125  0.00  0.00     0.188 C 
ATOM     28  C   UNK d   1      19.383  74.512  13.857  0.00  0.00     0.167 C 
ENDBRANCH   9  23
TORSDOF 4
ENDMDL
