/Users/jonathanwahrer/Desktop/Msc/3_Semester/Drug_Design_Praktikum/waehrer_HTS_screening/HTS_experiment/out/docking_results/vina_output/6e43/1958_docked.pdbqt
 OpenBabel03212220553D

 28 31  0  0  1  0  0  0  0  0999 V2000
   19.7770   80.4050   18.1030 C   0  0  0  0  0  0  0  0  0  0  0  0
   18.5190   80.1750   18.0530 O   0  0  0  0  0  0  0  0  0  0  0  0
   20.7220   79.3700   18.0590 N   0  0  0  0  0  0  0  0  0  0  0  0
   22.1270   79.6210   18.1150 C   0  0  0  0  0  2  0  0  0  0  0  0
   22.9710   78.5700   17.4490 C   0  0  0  0  0  2  0  0  0  0  0  0
   22.1810   77.8590   16.4160 C   0  0  2  0  0  3  0  0  0  0  0  0
   20.8480   77.5570   16.6280 C   0  0  0  0  0  0  0  0  0  0  0  0
   20.1280   76.9110   15.7050 N   0  0  0  0  0  0  0  0  0  0  0  0
   20.6440   76.5150   14.5220 C   0  0  2  0  0  3  0  0  0  0  0  0
   21.9500   76.8080   14.3090 N   0  0  0  0  0  0  0  0  0  0  0  0
   22.7140   77.4560   15.2060 C   0  0  0  0  0  0  0  0  0  0  0  0
   20.2760   78.0090   17.9510 C   0  0  0  0  0  2  0  0  0  0  0  0
   20.1900   81.8410   18.2130 C   0  0  0  0  0  2  0  0  0  0  0  0
   20.0040   82.3470   19.5820 C   0  0  0  0  0  0  0  0  0  0  0  0
   20.7710   81.9450   20.6540 C   0  0  0  0  0  3  0  0  0  0  0  0
   20.5720   82.4350   21.9260 C   0  0  0  0  0  3  0  0  0  0  0  0
   19.5670   83.3680   22.1640 C   0  0  0  0  0  0  0  0  0  0  0  0
   19.3010   84.0010   23.7740 Cl  0  0  0  0  0  0  0  0  0  0  0  0
   18.8060   83.7610   21.0810 C   0  0  0  0  0  3  0  0  0  0  0  0
   19.0070   83.2710   19.8100 C   0  0  0  0  0  3  0  0  0  0  0  0
   24.0480   77.7410   14.9560 O   0  0  0  0  0  0  0  0  0  0  0  0
   24.7310   77.8550   15.7100 H   0  0  0  0  0  0  0  0  0  0  0  0
   19.8440   75.8400   13.5840 N   0  0  0  0  0  0  0  0  0  0  0  0
   19.4780   76.4670   12.3490 C   0  0  0  0  0  2  0  0  0  0  0  0
   19.1460   75.3300   11.3720 C   0  0  0  0  0  2  0  0  0  0  0  0
   18.0730   74.5960   11.8130 O   0  0  0  0  0  0  0  0  0  0  0  0
   18.1040   74.2100   13.1250 C   0  0  0  0  0  2  0  0  0  0  0  0
   19.3830   74.5120   13.8570 C   0  0  0  0  0  2  0  0  0  0  0  0
  1 13  1  0  0  0  0
  2  1  2  0  0  0  0
  3  1  1  0  0  0  0
  3  4  1  0  0  0  0
  5  4  1  0  0  0  0
  6  7  1  0  0  0  0
  6  5  1  1  0  0  0
  7 12  1  0  0  0  0
  8  7  2  0  0  0  0
  9 23  1  6  0  0  0
  9  8  1  0  0  0  0
 10  9  1  0  0  0  0
 10 11  2  0  0  0  0
 11  6  1  0  0  0  0
 12  3  1  0  0  0  0
 13 14  1  0  0  0  0
 14 20  2  0  0  0  0
 14 15  1  0  0  0  0
 15 16  2  0  0  0  0
 16 17  1  0  0  0  0
 17 18  1  0  0  0  0
 19 17  2  0  0  0  0
 20 19  1  0  0  0  0
 21 11  1  0  0  0  0
 21 22  1  0  0  0  0
 23 28  1  0  0  0  0
 24 23  1  0  0  0  0
 25 26  1  0  0  0  0
 25 24  1  0  0  0  0
 26 27  1  0  0  0  0
 27 28  1  0  0  0  0
M  END
>  <Pose>
1

>  <Score>
-10.182

$$$$
