MODEL 1
REMARK VINA RESULT:   -10.058      0.000      0.000
REMARK INTER + INTRA:         -13.243
REMARK INTER:                 -12.410
REMARK INTRA:                  -0.834
REMARK UNBOUND:                -0.834
REMARK  4 active torsions:
REMARK  status: ('A' for Active; 'I' for Inactive)
REMARK    1  A    between atoms: C_5  and  C_8 
REMARK    2  A    between atoms: C_8  and  C_9 
REMARK       I    between atoms: C_9  and  N_11 
REMARK    3  A    between atoms: N_14  and  C_17 
REMARK    4  A    between atoms: C_21  and  N_23 
ROOT
ATOM      1  C   UNK d   1      19.725  80.174  17.974  0.00  0.00     0.224 C 
ATOM      2  O   UNK d   1      18.475  80.069  17.865  0.00  0.00    -0.273 OA
ATOM      3  N   UNK d   1      20.492  79.002  18.073  0.00  0.00    -0.349 N 
ATOM      4  C   UNK d   1      19.855  77.673  18.053  0.00  0.00     0.145 C 
ATOM      5  C   UNK d   1      20.755  76.731  17.267  0.00  0.00     0.143 C 
ATOM      6  N   UNK d   1      21.494  77.549  16.327  0.00  0.00    -0.376 N 
ATOM      7  C   UNK d   1      22.536  78.378  16.908  0.00  0.00     0.143 C 
ATOM      8  C   UNK d   1      21.942  78.970  18.198  0.00  0.00     0.145 C 
ENDROOT
BRANCH   6   9
ATOM      9  C   UNK d   1      21.204  77.548  14.938  0.00  0.00     0.053 A 
ATOM     10  C   UNK d   1      20.194  76.745  14.441  0.00  0.00     0.170 A 
ATOM     11  N   UNK d   1      19.945  76.754  13.099  0.00  0.00    -0.158 NA
ATOM     12  N   UNK d   1      20.626  77.495  12.248  0.00  0.00    -0.132 NA
ATOM     13  C   UNK d   1      21.639  78.314  12.670  0.00  0.00     0.150 A 
ATOM     14  C   UNK d   1      21.884  78.302  14.010  0.00  0.00     0.083 A 
BRANCH  13  15
ATOM     15  N   UNK d   1      22.329  79.078  11.704  0.00  0.00    -0.360 N 
ATOM     16  C   UNK d   1      22.451  80.518  11.840  0.00  0.00     0.151 C 
ATOM     17  C   UNK d   1      22.171  81.207  10.503  0.00  0.00     0.187 C 
ATOM     18  O   UNK d   1      22.850  80.601   9.466  0.00  0.00    -0.388 OA
ATOM     19  C   UNK d   1      22.385  79.300   9.350  0.00  0.00     0.187 C 
ATOM     20  C   UNK d   1      22.940  78.494  10.538  0.00  0.00     0.151 C 
ENDBRANCH  13  15
ENDBRANCH   6   9
BRANCH   1  21
ATOM     21  C   UNK d   1      20.296  81.534  17.988  0.00  0.00     0.141 C 
BRANCH  21  22
ATOM     22  C   UNK d   1      20.044  82.217  19.285  0.00  0.00    -0.049 A 
ATOM     23  C   UNK d   1      20.653  81.731  20.439  0.00  0.00     0.009 A 
ATOM     24  C   UNK d   1      20.446  82.339  21.664  0.00  0.00     0.024 A 
ATOM     25  C   UNK d   1      19.617  83.457  21.767  0.00  0.00     0.034 A 
ATOM     26 Cl   UNK d   1      19.351  84.228  23.301  0.00  0.00    -0.084 Cl
ATOM     27  C   UNK d   1      19.023  83.924  20.618  0.00  0.00     0.024 A 
ATOM     28  C   UNK d   1      19.232  83.313  19.382  0.00  0.00     0.009 A 
ENDBRANCH  21  22
ENDBRANCH   1  21
TORSDOF 4
ENDMDL
