/Users/jonathanwahrer/Desktop/Msc/3_Semester/Drug_Design_Praktikum/waehrer_HTS_screening/HTS_experiment/out/docking_results/vina_output/6e43/1966_docked.pdbqt
 OpenBabel03212220553D

 27 30  0  0  0  0  0  0  0  0999 V2000
   20.5990   77.4800   16.9390 C   0  0  0  0  0  0  0  0  0  0  0  0
   20.2460   76.5030   17.7080 O   0  0  0  0  0  0  0  0  0  0  0  0
   21.0480   77.3230   15.6510 N   0  0  0  0  0  0  0  0  0  0  0  0
   21.4950   77.1670   14.3720 C   0  0  0  0  0  2  0  0  0  0  0  0
   20.9160   75.9660   15.7550 H   0  0  0  0  0  0  0  0  0  0  0  0
   20.4460   78.7780   17.6480 C   0  0  0  0  0  0  0  0  0  0  0  0
   20.1860   79.0120   18.9760 C   0  0  0  0  0  0  0  0  0  0  0  0
   20.0020   78.0880   19.9510 F   0  0  0  0  0  0  0  0  0  0  0  0
   20.1260   80.3550   19.2270 N   0  0  0  0  0  0  0  0  0  0  0  0
   20.3500   80.9470   18.0430 C   0  0  0  0  0  0  0  0  0  0  0  0
   19.9010   81.0620   20.3470 C   0  0  0  0  0  3  0  0  0  0  0  0
   20.5410   80.0070   17.1040 N   0  0  0  0  0  0  0  0  0  0  0  0
   20.3420   82.3200   18.0160 C   0  0  0  0  0  3  0  0  0  0  0  0
   20.1130   83.0920   19.1570 C   0  0  0  0  0  3  0  0  0  0  0  0
   19.8880   82.4520   20.3460 C   0  0  0  0  0  0  0  0  0  0  0  0
   19.5970   83.3630   21.8280 Cl  0  0  0  0  0  0  0  0  0  0  0  0
   21.8610   78.4390   13.6490 C   0  0  0  0  0  0  0  0  0  0  0  0
   22.9270   79.2030   13.9050 N   0  0  0  0  0  0  0  0  0  0  0  0
   22.9040   80.2210   13.0620 N   0  0  0  0  0  0  0  0  0  0  0  0
   21.8540   80.1300   12.2750 N   0  0  0  0  0  0  0  0  0  0  0  0
   21.2120   79.0220   12.6460 N   0  0  0  0  0  0  0  0  0  0  0  0
   23.8790   78.8880   14.9220 C   0  0  0  0  0  0  0  0  0  0  0  0
   23.8750   79.6550   16.0820 C   0  0  0  0  0  3  0  0  0  0  0  0
   24.7870   79.4120   17.1020 C   0  0  0  0  0  3  0  0  0  0  0  0
   25.7240   78.4050   16.9970 C   0  0  0  0  0  3  0  0  0  0  0  0
   25.7220   77.6480   15.8450 C   0  0  0  0  0  3  0  0  0  0  0  0
   24.8160   77.8870   14.8270 C   0  0  0  0  0  3  0  0  0  0  0  0
  1  6  1  0  0  0  0
  1  2  2  0  0  0  0
  3  5  1  0  0  0  0
  3  1  1  0  0  0  0
  4  3  1  0  0  0  0
  6  7  2  0  0  0  0
  7  9  1  0  0  0  0
  7  8  1  0  0  0  0
  9 11  1  0  0  0  0
 10  9  1  0  0  0  0
 12  6  1  0  0  0  0
 12 10  2  0  0  0  0
 13 10  1  0  0  0  0
 13 14  2  0  0  0  0
 14 15  1  0  0  0  0
 15 11  2  0  0  0  0
 15 16  1  0  0  0  0
 17 18  1  0  0  0  0
 17  4  1  0  0  0  0
 18 22  1  0  0  0  0
 19 18  1  0  0  0  0
 20 21  1  0  0  0  0
 20 19  2  0  0  0  0
 21 17  2  0  0  0  0
 22 23  1  0  0  0  0
 23 24  2  0  0  0  0
 25 24  1  0  0  0  0
 26 25  2  0  0  0  0
 27 22  2  0  0  0  0
 27 26  1  0  0  0  0
M  END
>  <Pose>
1

>  <Score>
-10.726

$$$$
