MODEL 1
REMARK VINA RESULT:   -10.726      0.000      0.000
REMARK INTER + INTRA:         -13.232
REMARK INTER:                 -12.607
REMARK INTRA:                  -0.625
REMARK UNBOUND:                -0.625
REMARK  3 active torsions:
REMARK  status: ('A' for Active; 'I' for Inactive)
REMARK    1  A    between atoms: C_6  and  C_7 
REMARK       I    between atoms: C_7  and  N_9 
REMARK    2  A    between atoms: C_10  and  C_11 
REMARK    3  A    between atoms: N_12  and  C_16 
ROOT
ATOM      1  C   UNK d   1      20.599  77.480  16.939  0.00  0.00     0.275 C 
ATOM      2  O   UNK d   1      20.246  76.503  17.708  0.00  0.00    -0.266 OA
ATOM      3  N   UNK d   1      21.048  77.323  15.651  0.00  0.00    -0.348 N 
ATOM      4  C   UNK d   1      21.495  77.167  14.372  0.00  0.00     0.205 C 
ATOM      5  H   UNK d   1      20.916  75.966  15.755  0.00  0.00     0.163 HD
ENDROOT
BRANCH   1   6
ATOM      6  C   UNK d   1      20.446  78.778  17.648  0.00  0.00     0.183 A 
ATOM      7  C   UNK d   1      20.186  79.012  18.976  0.00  0.00     0.231 A 
ATOM      8  F   UNK d   1      20.002  78.088  19.951  0.00  0.00    -0.183 F 
ATOM      9  N   UNK d   1      20.126  80.355  19.227  0.00  0.00    -0.279 N 
ATOM     10  C   UNK d   1      20.350  80.947  18.043  0.00  0.00     0.137 A 
ATOM     11  C   UNK d   1      19.901  81.062  20.347  0.00  0.00     0.125 A 
ATOM     12  N   UNK d   1      20.541  80.007  17.104  0.00  0.00    -0.220 NA
ATOM     13  C   UNK d   1      20.342  82.320  18.016  0.00  0.00     0.053 A 
ATOM     14  C   UNK d   1      20.113  83.092  19.157  0.00  0.00     0.029 A 
ATOM     15  C   UNK d   1      19.888  82.452  20.346  0.00  0.00     0.050 A 
ATOM     16 Cl   UNK d   1      19.597  83.363  21.828  0.00  0.00    -0.083 Cl
ENDBRANCH   1   6
BRANCH   4  17
ATOM     17  C   UNK d   1      21.861  78.439  13.649  0.00  0.00     0.171 A 
ATOM     18  N   UNK d   1      22.927  79.203  13.905  0.00  0.00    -0.197 N 
ATOM     19  N   UNK d   1      22.904  80.221  13.062  0.00  0.00    -0.039 NA
ATOM     20  N   UNK d   1      21.854  80.130  12.275  0.00  0.00    -0.023 NA
ATOM     21  N   UNK d   1      21.212  79.022  12.646  0.00  0.00    -0.112 NA
BRANCH  18  22
ATOM     22  C   UNK d   1      23.879  78.888  14.922  0.00  0.00     0.062 A 
ATOM     23  C   UNK d   1      23.875  79.655  16.082  0.00  0.00     0.032 A 
ATOM     24  C   UNK d   1      24.787  79.412  17.102  0.00  0.00     0.002 A 
ATOM     25  C   UNK d   1      25.724  78.405  16.997  0.00  0.00     0.000 A 
ATOM     26  C   UNK d   1      25.722  77.648  15.845  0.00  0.00     0.002 A 
ATOM     27  C   UNK d   1      24.816  77.887  14.827  0.00  0.00     0.032 A 
ENDBRANCH  18  22
ENDBRANCH   4  17
TORSDOF 3
ENDMDL
