MODEL 1
REMARK VINA RESULT:    -9.966      0.000      0.000
REMARK INTER + INTRA:         -12.327
REMARK INTER:                 -11.714
REMARK INTRA:                  -0.613
REMARK UNBOUND:                -0.613
REMARK  3 active torsions:
REMARK  status: ('A' for Active; 'I' for Inactive)
REMARK    1  A    between atoms: C_4  and  N_8 
REMARK    2  A    between atoms: C_11  and  C_13 
REMARK    3  A    between atoms: N_18  and  C_21 
ROOT
ATOM      1  C   UNK d   1      21.511  78.786  16.755  0.00  0.00     0.209 C 
ATOM      2  O   UNK d   1      21.811  77.473  17.105  0.00  0.00    -0.170 OA
ATOM      3  N   UNK d   1      22.455  79.298  15.931  0.00  0.00    -0.354 N 
ATOM      4  C   UNK d   1      22.543  80.548  15.235  0.00  0.00     0.145 C 
ATOM      5  C   UNK d   1      23.437  80.376  13.990  0.00  0.00     0.161 C 
ATOM      6  N   UNK d   1      23.190  78.989  13.570  0.00  0.00    -0.211 N 
ATOM      7  C   UNK d   1      23.714  77.928  14.364  0.00  0.00     0.161 C 
ATOM      8  C   UNK d   1      23.674  78.442  15.768  0.00  0.00     0.145 C 
ENDROOT
BRANCH   1   9
ATOM      9  C   UNK d   1      20.265  79.013  17.465  0.00  0.00     0.151 A 
ATOM     10  N   UNK d   1      19.222  79.203  18.058  0.00  0.00    -0.126 NA
ATOM     11  N   UNK d   1      18.854  79.931  18.918  0.00  0.00    -0.060 NA
ATOM     12  N   UNK d   1      19.901  80.670  19.217  0.00  0.00    -0.224 N 
ATOM     13  C   UNK d   1      20.867  80.252  18.442  0.00  0.00     0.158 A 
BRANCH  12  14
ATOM     14  C   UNK d   1      19.824  81.689  20.240  0.00  0.00     0.061 A 
ATOM     15  C   UNK d   1      18.850  82.623  20.328  0.00  0.00     0.055 A 
ATOM     16  C   UNK d   1      18.841  83.564  21.349  0.00  0.00     0.036 A 
ATOM     17 Cl   UNK d   1      17.635  84.800  21.523  0.00  0.00    -0.084 Cl
ATOM     18  C   UNK d   1      19.884  83.557  22.332  0.00  0.00     0.024 A 
ATOM     19  C   UNK d   1      20.846  82.614  22.230  0.00  0.00     0.004 A 
ATOM     20  C   UNK d   1      20.802  81.722  21.213  0.00  0.00     0.032 A 
ENDBRANCH  12  14
ENDBRANCH   1   9
BRANCH   6  21
ATOM     21  C   UNK d   1      22.360  78.741  12.483  0.00  0.00     0.724 A 
ATOM     22  N   UNK d   1      22.816  78.924  11.172  0.00  0.00    -0.075 NA
ATOM     23  C   UNK d   1      22.143  78.699  10.099  0.00  0.00     0.138 A 
ATOM     24  C   UNK d   1      20.826  78.215  10.138  0.00  0.00     0.040 A 
ATOM     25  C   UNK d   1      20.363  78.036  11.435  0.00  0.00     0.138 A 
ATOM     26  N   UNK d   1      21.081  78.282  12.465  0.00  0.00    -0.075 NA
ENDBRANCH   6  21
TORSDOF 3
ENDMDL
