/Users/jonathanwahrer/Desktop/Msc/3_Semester/Drug_Design_Praktikum/waehrer_HTS_screening/HTS_experiment/out/docking_results/vina_output/6e43/1969_docked.pdbqt
 OpenBabel03212220553D

 26 29  0  0  0  0  0  0  0  0999 V2000
   21.5110   78.7860   16.7550 C   0  0  0  0  0  0  0  0  0  0  0  0
   21.8110   77.4730   17.1050 O   0  0  0  0  0  0  0  0  0  0  0  0
   22.4550   79.2980   15.9310 N   0  0  0  0  0  0  0  0  0  0  0  0
   22.5430   80.5480   15.2350 C   0  0  0  0  0  2  0  0  0  0  0  0
   23.4370   80.3760   13.9900 C   0  0  0  0  0  2  0  0  0  0  0  0
   23.1900   78.9890   13.5700 N   0  0  0  0  0  0  0  0  0  0  0  0
   23.7140   77.9280   14.3640 C   0  0  0  0  0  2  0  0  0  0  0  0
   23.6740   78.4420   15.7680 C   0  0  0  0  0  2  0  0  0  0  0  0
   20.2650   79.0130   17.4650 C   0  0  0  0  0  0  0  0  0  0  0  0
   19.2220   79.2030   18.0580 N   0  0  0  0  0  0  0  0  0  0  0  0
   18.8540   79.9310   18.9180 N   0  0  0  0  0  0  0  0  0  0  0  0
   19.9010   80.6700   19.2170 N   0  0  0  0  0  0  0  0  0  0  0  0
   20.8670   80.2520   18.4420 C   0  0  0  0  0  3  0  0  0  0  0  0
   19.8240   81.6890   20.2400 C   0  0  0  0  0  0  0  0  0  0  0  0
   18.8500   82.6230   20.3280 C   0  0  0  0  0  3  0  0  0  0  0  0
   18.8410   83.5640   21.3490 C   0  0  0  0  0  0  0  0  0  0  0  0
   17.6350   84.8000   21.5230 Cl  0  0  0  0  0  0  0  0  0  0  0  0
   19.8840   83.5570   22.3320 C   0  0  0  0  0  3  0  0  0  0  0  0
   20.8460   82.6140   22.2300 C   0  0  0  0  0  3  0  0  0  0  0  0
   20.8020   81.7220   21.2130 C   0  0  0  0  0  3  0  0  0  0  0  0
   22.3600   78.7410   12.4830 C   0  0  0  0  0  0  0  0  0  0  0  0
   22.8160   78.9240   11.1720 N   0  0  0  0  0  0  0  0  0  0  0  0
   22.1430   78.6990   10.0990 C   0  0  0  0  0  3  0  0  0  0  0  0
   20.8260   78.2150   10.1380 C   0  0  0  0  0  3  0  0  0  0  0  0
   20.3630   78.0360   11.4350 C   0  0  0  0  0  3  0  0  0  0  0  0
   21.0810   78.2820   12.4650 N   0  0  0  0  0  0  0  0  0  0  0  0
  1  2  2  0  0  0  0
  1  9  1  0  0  0  0
  3  1  1  0  0  0  0
  4  3  1  0  0  0  0
  5  4  1  0  0  0  0
  6  5  1  0  0  0  0
  6  7  1  0  0  0  0
  7  8  1  0  0  0  0
  8  3  1  0  0  0  0
  9 10  1  0  0  0  0
  9 13  2  0  0  0  0
 10 11  2  0  0  0  0
 11 12  1  0  0  0  0
 12 14  1  0  0  0  0
 13 12  1  0  0  0  0
 14 15  2  0  0  0  0
 14 20  1  0  0  0  0
 15 16  1  0  0  0  0
 16 17  1  0  0  0  0
 16 18  2  0  0  0  0
 19 18  1  0  0  0  0
 20 19  2  0  0  0  0
 21  6  1  0  0  0  0
 22 21  2  0  0  0  0
 23 24  2  0  0  0  0
 23 22  1  0  0  0  0
 24 25  1  0  0  0  0
 25 26  2  0  0  0  0
 26 21  1  0  0  0  0
M  END
>  <Pose>
1

>  <Score>
-9.966

$$$$
