MODEL 1
REMARK VINA RESULT:    -9.256      0.000      0.000
REMARK INTER + INTRA:          -8.235
REMARK INTER:                  -9.797
REMARK INTRA:                   1.562
REMARK UNBOUND:                 1.562
REMARK  1 active torsions:
REMARK  status: ('A' for Active; 'I' for Inactive)
REMARK       I    between atoms: N_10  and  C_13 
REMARK    1  A    between atoms: C_13  and  C_15 
ROOT
ATOM      1 Cl   UNK d   1      20.199  78.687   9.104  0.00  0.00    -0.083 Cl
ATOM      2  C   UNK d   1      21.075  79.070  10.586  0.00  0.00     0.050 A 
ATOM      3  C   UNK d   1      20.927  78.323  11.737  0.00  0.00     0.125 A 
ATOM      4  N   UNK d   1      21.591  78.601  12.884  0.00  0.00    -0.271 N 
ATOM      5  C   UNK d   1      22.447  79.637  12.971  0.00  0.00     0.137 A 
ATOM      6  N   UNK d   1      23.122  79.932  14.113  0.00  0.00    -0.234 NA
ATOM      7  C   UNK d   1      22.983  79.209  15.239  0.00  0.00     0.051 A 
ATOM      8  C   UNK d   1      22.103  78.135  15.166  0.00  0.00     0.053 A 
ATOM      9  C   UNK d   1      21.948  77.336  16.410  0.00  0.00     0.172 C 
ATOM     10  N   UNK d   1      21.804  78.323  17.486  0.00  0.00    -0.347 N 
ATOM     11  C   UNK d   1      22.904  79.216  17.719  0.00  0.00     0.132 C 
ATOM     12  C   UNK d   1      23.717  79.519  16.493  0.00  0.00     0.080 C 
ATOM     13  C   UNK d   1      20.619  78.385  18.251  0.00  0.00     0.224 C 
ATOM     14  O   UNK d   1      19.694  77.556  17.953  0.00  0.00    -0.273 OA
ATOM     15  C   UNK d   1      21.432  77.860  13.995  0.00  0.00     0.263 A 
ATOM     16  O   UNK d   1      20.631  76.870  13.954  0.00  0.00    -0.267 OA
ATOM     17  C   UNK d   1      22.609  80.400  11.826  0.00  0.00     0.053 A 
ATOM     18  C   UNK d   1      21.945  80.138  10.646  0.00  0.00     0.029 A 
ENDROOT
BRANCH  13  19
ATOM     19  C   UNK d   1      20.423  79.351  19.355  0.00  0.00     0.082 C 
ATOM     20  C   UNK d   1      18.967  79.715  19.546  0.00  0.00     0.040 C 
ATOM     21  C   UNK d   1      18.398  79.893  18.145  0.00  0.00     0.168 C 
ATOM     22  O   UNK d   1      19.336  80.509  17.319  0.00  0.00    -0.391 OA
ATOM     23  C   UNK d   1      20.154  81.389  18.042  0.00  0.00     0.168 C 
ATOM     24  C   UNK d   1      21.121  80.660  18.955  0.00  0.00     0.040 C 
ENDBRANCH  13  19
TORSDOF 1
ENDMDL
