MODEL 1
REMARK VINA RESULT:    -9.532      0.000      0.000
REMARK INTER + INTRA:         -11.615
REMARK INTER:                 -11.204
REMARK INTRA:                  -0.412
REMARK UNBOUND:                -0.412
REMARK  3 active torsions:
REMARK  status: ('A' for Active; 'I' for Inactive)
REMARK    1  A    between atoms: N_13  and  C_14 
REMARK    2  A    between atoms: C_14  and  N_15 
REMARK    3  A    between atoms: N_18  and  C_21 
ROOT
ATOM      1  F   UNK d   1      23.285  79.292  18.126  0.00  0.00    -0.204 F 
ATOM      2  C   UNK d   1      23.303  79.170  16.777  0.00  0.00     0.144 A 
ATOM      3  C   UNK d   1      22.298  78.433  16.168  0.00  0.00     0.094 A 
ATOM      4  C   UNK d   1      22.253  78.265  14.801  0.00  0.00     0.071 A 
ATOM      5  C   UNK d   1      23.251  78.859  14.048  0.00  0.00     0.051 A 
ATOM      6  C   UNK d   1      24.247  79.590  14.650  0.00  0.00     0.028 A 
ATOM      7  C   UNK d   1      24.287  79.754  16.015  0.00  0.00     0.046 A 
ATOM      8 Cl   UNK d   1      23.197  78.648  12.307  0.00  0.00    -0.083 Cl
ATOM      9  C   UNK d   1      21.115  77.460  14.408  0.00  0.00     0.254 A 
ATOM     10  O   UNK d   1      20.767  77.111  13.257  0.00  0.00    -0.281 OA
ATOM     11  C   UNK d   1      20.430  77.124  15.650  0.00  0.00     0.301 A 
ATOM     12  O   UNK d   1      19.373  76.424  15.739  0.00  0.00    -0.263 OA
ATOM     13  N   UNK d   1      21.163  77.723  16.707  0.00  0.00    -0.280 N 
ENDROOT
BRANCH  13  14
ATOM     14  C   UNK d   1      20.859  77.659  18.121  0.00  0.00     0.405 C 
BRANCH  14  15
ATOM     15  N   UNK d   1      19.620  78.320  18.474  0.00  0.00     0.109 N 
ATOM     16  C   UNK d   1      19.559  78.580  19.871  0.00  0.00     0.294 C 
ATOM     17  C   UNK d   1      19.060  79.929  20.253  0.00  0.00     0.154 C 
ATOM     18  N   UNK d   1      19.521  80.983  19.386  0.00  0.00    -0.361 N 
ATOM     19  C   UNK d   1      20.050  80.628  18.090  0.00  0.00     0.154 C 
ATOM     20  C   UNK d   1      19.281  79.410  17.624  0.00  0.00     0.294 C 
BRANCH  18  21
ATOM     21  C   UNK d   1      19.470  82.346  19.757  0.00  0.00     0.143 A 
ATOM     22  N   UNK d   1      18.867  82.740  20.891  0.00  0.00    -0.241 NA
ATOM     23  C   UNK d   1      18.806  84.033  21.266  0.00  0.00     0.138 A 
ATOM     24  C   UNK d   1      19.373  85.017  20.480  0.00  0.00     0.135 A 
ATOM     25  N   UNK d   1      19.978  84.629  19.346  0.00  0.00    -0.268 NA
ATOM     26  C   UNK d   1      20.041  83.337  18.969  0.00  0.00     0.166 A 
ENDBRANCH  18  21
ENDBRANCH  14  15
ENDBRANCH  13  14
TORSDOF 3
ENDMDL
