MODEL 1
REMARK VINA RESULT:    -8.731      0.000      0.000
REMARK INTER + INTRA:         -10.679
REMARK INTER:                 -10.262
REMARK INTRA:                  -0.416
REMARK UNBOUND:                -0.416
REMARK  3 active torsions:
REMARK  status: ('A' for Active; 'I' for Inactive)
REMARK    1  A    between atoms: N_15  and  C_19 
REMARK    2  A    between atoms: C_19  and  C_20 
REMARK    3  A    between atoms: C_20  and  C_21 
REMARK       I    between atoms: C_21  and  N_23 
ROOT
ATOM      1 Cl   UNK d   1      22.577  81.136   9.923  0.00  0.00    -0.084 Cl
ATOM      2  C   UNK d   1      21.745  79.757  10.610  0.00  0.00     0.036 A 
ATOM      3  C   UNK d   1      21.862  79.402  11.937  0.00  0.00     0.055 A 
ATOM      4  C   UNK d   1      21.213  78.317  12.492  0.00  0.00     0.077 A 
ATOM      5  C   UNK d   1      20.410  77.560  11.661  0.00  0.00     0.038 A 
ATOM      6  C   UNK d   1      20.285  77.905  10.331  0.00  0.00     0.019 A 
ATOM      7  C   UNK d   1      20.934  78.990   9.777  0.00  0.00     0.025 A 
ATOM      8  C   UNK d   1      19.703  76.393  12.233  0.00  0.00     0.153 A 
ATOM      9  N   UNK d   1      18.922  75.551  11.700  0.00  0.00    -0.270 NA
ATOM     10  C   UNK d   1      18.438  74.546  12.623  0.00  0.00     0.172 A 
ATOM     11  C   UNK d   1      19.071  74.891  13.931  0.00  0.00     0.171 A 
ATOM     12  N   UNK d   1      19.855  76.067  13.607  0.00  0.00    -0.160 N 
ATOM     13  C   UNK d   1      20.703  76.902  14.397  0.00  0.00     0.736 A 
ATOM     14  N   UNK d   1      21.029  76.838  15.700  0.00  0.00     0.024 NA
ATOM     15  N   UNK d   1      21.854  77.818  16.029  0.00  0.00    -0.203 N 
ATOM     16  C   UNK d   1      22.046  78.516  14.883  0.00  0.00     0.364 A 
ATOM     17  O   UNK d   1      22.779  79.526  14.812  0.00  0.00    -0.244 OA
ATOM     18  N   UNK d   1      21.350  77.973  13.870  0.00  0.00    -0.090 N 
ENDROOT
BRANCH  15  19
ATOM     19  C   UNK d   1      22.428  78.084  17.334  0.00  0.00     0.166 C 
BRANCH  19  20
ATOM     20  C   UNK d   1      21.464  78.968  18.138  0.00  0.00     0.124 C 
BRANCH  20  21
ATOM     21  C   UNK d   1      20.501  78.123  18.888  0.00  0.00     0.216 C 
ATOM     22  O   UNK d   1      19.429  78.544  19.391  0.00  0.00    -0.274 OA
ATOM     23  N   UNK d   1      20.811  76.748  19.048  0.00  0.00    -0.370 N 
ATOM     24  H   UNK d   1      21.770  76.392  19.213  0.00  0.00     0.159 HD
ATOM     25  H   UNK d   1      20.027  76.065  18.994  0.00  0.00     0.159 HD
ENDBRANCH  20  21
ENDBRANCH  19  20
ENDBRANCH  15  19
TORSDOF 3
ENDMDL
