MODEL 1
REMARK VINA RESULT:    -9.148      0.000      0.000
REMARK INTER + INTRA:          -8.403
REMARK INTER:                  -9.683
REMARK INTRA:                   1.280
REMARK UNBOUND:                 1.280
REMARK  1 active torsions:
REMARK  status: ('A' for Active; 'I' for Inactive)
REMARK    1  A    between atoms: C_11  and  C_12 
ROOT
ATOM      1 Cl   UNK d   1      17.364  72.311  11.111  0.00  0.00    -0.084 Cl
ATOM      2  C   UNK d   1      18.194  73.792  11.558  0.00  0.00     0.034 A 
ATOM      3  C   UNK d   1      18.851  74.551  10.611  0.00  0.00     0.034 A 
ATOM      4  C   UNK d   1      19.514  75.733  10.967  0.00  0.00    -0.009 A 
ATOM      5  C   UNK d   1      19.474  76.087  12.291  0.00  0.00     0.085 A 
ATOM      6  C   UNK d   1      18.806  75.313  13.249  0.00  0.00     0.039 A 
ATOM      7  C   UNK d   1      18.156  74.152  12.889  0.00  0.00     0.026 A 
ATOM      8  O   UNK d   1      20.124  77.258  12.670  0.00  0.00    -0.292 OA
ATOM      9  C   UNK d   1      20.804  78.071  11.780  0.00  0.00     0.166 A 
ATOM     10  C   UNK d   1      20.844  77.711  10.442  0.00  0.00     0.075 A 
ATOM     11  C   UNK d   1      20.202  76.503   9.913  0.00  0.00     0.107 A 
ATOM     12  C   UNK d   1      21.533  78.555   9.594  0.00  0.00     0.262 A 
ATOM     13  O   UNK d   1      21.604  78.277   8.355  0.00  0.00    -0.267 OA
ATOM     14  N   UNK d   1      22.153  79.680   9.983  0.00  0.00    -0.270 N 
ATOM     15  C   UNK d   1      22.087  79.992  11.300  0.00  0.00     0.332 A 
ATOM     16  O   UNK d   1      22.676  81.052  11.644  0.00  0.00    -0.246 OA
ATOM     17  N   UNK d   1      21.427  79.199  12.164  0.00  0.00    -0.283 N 
ATOM     18  C   UNK d   1      21.402  79.600  13.556  0.00  0.00     0.163 C 
ATOM     19  C   UNK d   1      22.868  80.541   9.041  0.00  0.00     0.164 C 
ENDROOT
BRANCH  11  20
ATOM     20  C   UNK d   1      19.202  76.893   8.866  0.00  0.00     0.078 A 
ATOM     21  C   UNK d   1      19.019  76.120   7.741  0.00  0.00     0.197 A 
ATOM     22  N   UNK d   1      18.109  76.485   6.797  0.00  0.00    -0.281 N 
ATOM     23  O   UNK d   1      19.758  74.981   7.581  0.00  0.00    -0.171 OA
ATOM     24  C   UNK d   1      17.373  77.614   6.952  0.00  0.00     0.332 A 
ATOM     25  C   UNK d   1      17.960  75.622   5.629  0.00  0.00     0.163 C 
ATOM     26  O   UNK d   1      16.539  77.923   6.055  0.00  0.00    -0.246 OA
ATOM     27  N   UNK d   1      17.530  78.388   8.037  0.00  0.00    -0.270 N 
ATOM     28  C   UNK d   1      18.429  78.032   8.974  0.00  0.00     0.262 A 
ATOM     29  C   UNK d   1      16.723  79.597   8.171  0.00  0.00     0.164 C 
ATOM     30  O   UNK d   1      18.562  78.756   9.971  0.00  0.00    -0.267 OA
ENDBRANCH  11  20
TORSDOF 1
ENDMDL
