MODEL 1
REMARK VINA RESULT:    -9.886      0.000      0.000
REMARK INTER + INTRA:         -12.189
REMARK INTER:                 -11.619
REMARK INTRA:                  -0.570
REMARK UNBOUND:                -0.570
REMARK  3 active torsions:
REMARK  status: ('A' for Active; 'I' for Inactive)
REMARK       I    between atoms: N_11  and  C_13 
REMARK    1  A    between atoms: C_13  and  C_15 
REMARK    2  A    between atoms: C_15  and  N_16 
REMARK    3  A    between atoms: C_19  and  C_22 
REMARK       I    between atoms: C_22  and  N_24 
ROOT
ATOM      1 Cl   UNK d   1      18.222  74.948  13.910  0.00  0.00    -0.084 Cl
ATOM      2  C   UNK d   1      19.501  76.023  14.421  0.00  0.00     0.034 A 
ATOM      3  C   UNK d   1      19.839  76.140  15.751  0.00  0.00     0.035 A 
ATOM      4  C   UNK d   1      20.845  76.988  16.135  0.00  0.00    -0.005 A 
ATOM      5  C   UNK d   1      21.528  77.734  15.166  0.00  0.00     0.078 A 
ATOM      6  C   UNK d   1      21.194  77.623  13.826  0.00  0.00     0.039 A 
ATOM      7  C   UNK d   1      20.184  76.766  13.484  0.00  0.00     0.026 A 
ATOM      8  O   UNK d   1      22.561  78.631  15.390  0.00  0.00    -0.338 OA
ATOM      9  C   UNK d   1      23.446  78.672  16.484  0.00  0.00     0.088 C 
ATOM     10  C   UNK d   1      22.751  78.986  17.768  0.00  0.00     0.164 C 
ATOM     11  N   UNK d   1      21.484  78.346  17.953  0.00  0.00    -0.344 N 
ATOM     12  C   UNK d   1      21.093  77.006  17.599  0.00  0.00     0.167 C 
ATOM     13  C   UNK d   1      20.432  79.108  18.567  0.00  0.00     0.248 C 
ATOM     14  O   UNK d   1      19.329  78.528  18.725  0.00  0.00    -0.271 OA
ATOM     15  C   UNK d   1      24.237  77.375  16.547  0.00  0.00     0.066 C 
ATOM     16  C   UNK d   1      25.530  77.508  15.763  0.00  0.00     0.170 C 
ATOM     17  O   UNK d   1      26.406  78.409  16.337  0.00  0.00    -0.391 OA
ATOM     18  C   UNK d   1      25.718  79.385  17.048  0.00  0.00     0.170 C 
ATOM     19  C   UNK d   1      24.483  79.776  16.259  0.00  0.00     0.066 C 
ENDROOT
BRANCH  13  20
ATOM     20  C   UNK d   1      20.633  80.493  18.990  0.00  0.00     0.374 C 
BRANCH  20  21
ATOM     21  N   UNK d   1      20.135  80.874  20.261  0.00  0.00     0.097 N 
ATOM     22  C   UNK d   1      18.806  81.483  20.166  0.00  0.00     0.273 C 
ATOM     23  C   UNK d   1      18.911  82.702  19.329  0.00  0.00     0.044 C 
ATOM     24  C   UNK d   1      20.041  83.627  19.636  0.00  0.00     0.081 C 
ATOM     25  C   UNK d   1      21.111  83.119  20.520  0.00  0.00     0.044 C 
ATOM     26  C   UNK d   1      20.980  81.740  21.045  0.00  0.00     0.273 C 
BRANCH  24  27
ATOM     27  C   UNK d   1      20.609  84.222  18.402  0.00  0.00     0.219 C 
ATOM     28  O   UNK d   1      21.368  83.538  17.686  0.00  0.00    -0.273 OA
ATOM     29  N   UNK d   1      20.293  85.551  18.049  0.00  0.00    -0.370 N 
ATOM     30  H   UNK d   1      19.612  85.662  17.240  0.00  0.00     0.159 HD
ATOM     31  H   UNK d   1      20.653  86.405  18.492  0.00  0.00     0.159 HD
ENDBRANCH  24  27
ENDBRANCH  20  21
ENDBRANCH  13  20
TORSDOF 3
ENDMDL
