/Users/jonathanwahrer/Desktop/Msc/3_Semester/Drug_Design_Praktikum/waehrer_HTS_screening/HTS_experiment/out/docking_results/vina_output/6e43/2003_docked.pdbqt
 OpenBabel03212220563D

 28 31  0  0  0  0  0  0  0  0999 V2000
   21.5460   78.2830   15.7830 N   0  0  0  0  0  0  0  0  0  0  0  0
   21.1080   77.3680   14.7740 C   0  0  0  0  0  2  0  0  0  0  0  0
   20.8920   78.0170   13.4330 C   0  0  0  0  0  2  0  0  0  0  0  0
   21.8560   79.0590   13.1640 N   0  0  0  0  0  0  0  0  0  0  0  0
   22.9210   79.4080   14.0660 C   0  0  0  0  0  3  0  0  0  0  0  0
   22.7240   79.0150   15.4800 C   0  0  0  0  0  3  0  0  0  0  0  0
   21.7450   79.7760   11.9420 C   0  0  0  0  0  0  0  0  0  0  0  0
   22.5650   80.7080   11.6460 O   0  0  0  0  0  0  0  0  0  0  0  0
   20.6830   79.4690   10.9840 C   0  0  0  0  0  0  0  0  0  0  0  0
   19.4670   80.1220   10.9680 C   0  0  0  0  0  3  0  0  0  0  0  0
   18.5360   79.7870   10.0550 N   0  0  0  0  0  0  0  0  0  0  0  0
   18.7200   78.8280    9.1290 C   0  0  0  0  0  0  0  0  0  0  0  0
   19.9000   78.1830    9.1310 N   0  0  0  0  0  0  0  0  0  0  0  0
   17.7360   78.5100    8.2020 C   0  0  0  0  0  3  0  0  0  0  0  0
   20.1030   77.2200    8.2100 C   0  0  0  0  0  3  0  0  0  0  0  0
   20.8570   78.4890   10.0280 C   0  0  0  0  0  0  0  0  0  0  0  0
   19.1440   76.8800    7.2770 C   0  0  0  0  0  3  0  0  0  0  0  0
   17.9220   77.5250    7.2480 C   0  0  0  0  0  3  0  0  0  0  0  0
   21.9590   77.8870   10.0300 O   0  0  0  0  0  0  0  0  0  0  0  0
   21.4460   77.6900   17.3660 S   0  0  0  0  0  0  0  0  0  0  0  0
   20.7370   76.3910   17.4090 O   0  0  0  0  0  0  0  0  0  0  0  0
   22.8470   77.5260   17.9120 O   0  0  0  0  0  0  0  0  0  0  0  0
   20.5910   78.8780   18.3650 C   0  0  0  0  0  0  0  0  0  0  0  0
   20.6600   80.5800   18.3210 S   0  0  0  0  0  0  0  0  0  0  0  0
   19.5610   80.9270   19.5780 C   0  0  0  0  0  0  0  0  0  0  0  0
   19.1700   79.6860   19.9980 C   0  0  0  0  0  3  0  0  0  0  0  0
   19.0270   82.4950   20.2170 Cl  0  0  0  0  0  0  0  0  0  0  0  0
   19.6980   78.6280   19.3760 C   0  0  0  0  0  3  0  0  0  0  0  0
  1 20  1  0  0  0  0
  2  1  1  0  0  0  0
  3  2  1  0  0  0  0
  4  3  1  0  0  0  0
  4  5  1  0  0  0  0
  5  6  2  0  0  0  0
  6  1  1  0  0  0  0
  7  4  1  0  0  0  0
  8  7  2  0  0  0  0
  9  7  1  0  0  0  0
 10  9  2  0  0  0  0
 11 10  1  0  0  0  0
 12 13  1  0  0  0  0
 12 11  2  0  0  0  0
 13 16  1  0  0  0  0
 14 12  1  0  0  0  0
 15 13  1  0  0  0  0
 16 19  2  0  0  0  0
 16  9  1  0  0  0  0
 17 15  2  0  0  0  0
 18 17  1  0  0  0  0
 18 14  2  0  0  0  0
 20 21  2  0  0  0  0
 20 22  2  0  0  0  0
 20 23  1  0  0  0  0
 23 28  2  0  0  0  0
 24 23  1  0  0  0  0
 24 25  1  0  0  0  0
 25 26  2  0  0  0  0
 25 27  1  0  0  0  0
 28 26  1  0  0  0  0
M  END
>  <Pose>
1

>  <Score>
-9.335

$$$$
