MODEL 1
REMARK VINA RESULT:    -9.335      0.000      0.000
REMARK INTER + INTRA:         -11.435
REMARK INTER:                 -10.973
REMARK INTRA:                  -0.462
REMARK UNBOUND:                -0.462
REMARK  3 active torsions:
REMARK  status: ('A' for Active; 'I' for Inactive)
REMARK    1  A    between atoms: S_1  and  N_4 
REMARK    2  A    between atoms: S_1  and  C_23 
REMARK       I    between atoms: N_7  and  C_10 
REMARK    3  A    between atoms: C_10  and  C_12 
ROOT
ATOM      1  N   UNK d   1      21.546  78.283  15.783  0.00  0.00    -0.303 N 
ATOM      2  C   UNK d   1      21.108  77.368  14.774  0.00  0.00     0.155 C 
ATOM      3  C   UNK d   1      20.892  78.017  13.433  0.00  0.00     0.146 C 
ATOM      4  N   UNK d   1      21.856  79.059  13.164  0.00  0.00    -0.345 N 
ATOM      5  C   UNK d   1      22.921  79.408  14.066  0.00  0.00     0.146 C 
ATOM      6  C   UNK d   1      22.724  79.015  15.480  0.00  0.00     0.155 C 
ATOM      7  C   UNK d   1      21.745  79.776  11.942  0.00  0.00     0.260 C 
ATOM      8  O   UNK d   1      22.565  80.708  11.646  0.00  0.00    -0.267 OA
ENDROOT
BRANCH   7   9
ATOM      9  C   UNK d   1      20.683  79.469  10.984  0.00  0.00     0.118 A 
ATOM     10  C   UNK d   1      19.467  80.122  10.968  0.00  0.00     0.141 A 
ATOM     11  N   UNK d   1      18.536  79.787  10.055  0.00  0.00    -0.242 NA
ATOM     12  C   UNK d   1      18.720  78.828   9.129  0.00  0.00     0.136 A 
ATOM     13  N   UNK d   1      19.900  78.183   9.131  0.00  0.00    -0.273 N 
ATOM     14  C   UNK d   1      17.736  78.510   8.202  0.00  0.00     0.051 A 
ATOM     15  C   UNK d   1      20.103  77.220   8.210  0.00  0.00     0.102 A 
ATOM     16  C   UNK d   1      20.857  78.489  10.028  0.00  0.00     0.270 A 
ATOM     17  C   UNK d   1      19.144  76.880   7.277  0.00  0.00     0.018 A 
ATOM     18  C   UNK d   1      17.922  77.525   7.248  0.00  0.00     0.005 A 
ATOM     19  O   UNK d   1      21.959  77.887  10.030  0.00  0.00    -0.266 OA
ENDBRANCH   7   9
BRANCH   1  20
ATOM     20  S   UNK d   1      21.446  77.690  17.366  0.00  0.00     0.267 S 
ATOM     21  O   UNK d   1      20.737  76.391  17.409  0.00  0.00    -0.200 OA
ATOM     22  O   UNK d   1      22.847  77.526  17.912  0.00  0.00    -0.200 OA
BRANCH  20  23
ATOM     23  C   UNK d   1      20.591  78.878  18.365  0.00  0.00     0.121 A 
ATOM     24  S   UNK d   1      20.660  80.580  18.321  0.00  0.00    -0.064 SA
ATOM     25  C   UNK d   1      19.561  80.927  19.578  0.00  0.00     0.075 A 
ATOM     26  C   UNK d   1      19.170  79.686  19.998  0.00  0.00     0.033 A 
ATOM     27 Cl   UNK d   1      19.027  82.495  20.217  0.00  0.00    -0.076 Cl
ATOM     28  C   UNK d   1      19.698  78.628  19.376  0.00  0.00     0.035 A 
ENDBRANCH  20  23
ENDBRANCH   1  20
TORSDOF 3
ENDMDL
