MODEL 1
REMARK VINA RESULT:   -10.650      0.000      0.000
REMARK INTER + INTRA:         -11.698
REMARK INTER:                 -12.518
REMARK INTRA:                   0.820
REMARK UNBOUND:                 0.820
REMARK  3 active torsions:
REMARK  status: ('A' for Active; 'I' for Inactive)
REMARK    1  A    between atoms: S_1  and  N_4 
REMARK    2  A    between atoms: S_1  and  C_16 
REMARK       I    between atoms: N_7  and  C_10 
REMARK    3  A    between atoms: C_10  and  C_12 
ROOT
ATOM      1  S   UNK d   1      21.502  78.226  17.183  0.00  0.00     0.262 S 
ATOM      2  O   UNK d   1      22.588  77.598  18.042  0.00  0.00    -0.200 OA
ATOM      3  O   UNK d   1      20.516  77.083  16.943  0.00  0.00    -0.200 OA
ENDROOT
BRANCH   1   4
ATOM      4  N   UNK d   1      22.106  78.747  15.711  0.00  0.00    -0.304 N 
ATOM      5  C   UNK d   1      21.895  80.078  15.343  0.00  0.00     0.155 C 
ATOM      6  C   UNK d   1      22.721  80.495  14.118  0.00  0.00     0.146 C 
ATOM      7  N   UNK d   1      22.795  79.443  13.149  0.00  0.00    -0.349 N 
ATOM      8  C   UNK d   1      23.062  78.102  13.620  0.00  0.00     0.146 C 
ATOM      9  C   UNK d   1      22.613  79.716  11.788  0.00  0.00     0.224 C 
ATOM     10  C   UNK d   1      21.990  77.782  14.643  0.00  0.00     0.155 C 
ATOM     11  O   UNK d   1      22.382  80.890  11.402  0.00  0.00    -0.273 OA
BRANCH   9  12
ATOM     12  C   UNK d   1      22.682  78.650  10.739  0.00  0.00     0.078 C 
ATOM     13  C   UNK d   1      24.052  78.495  10.122  0.00  0.00     0.014 C 
ATOM     14  C   UNK d   1      23.617  79.506   9.064  0.00  0.00     0.002 C 
ATOM     15  C   UNK d   1      22.170  79.141   9.409  0.00  0.00     0.014 C 
ENDBRANCH   9  12
ENDBRANCH   1   4
BRANCH   1  16
ATOM     16  C   UNK d   1      20.660  79.415  18.152  0.00  0.00     0.104 A 
ATOM     17  C   UNK d   1      20.616  80.749  17.699  0.00  0.00     0.066 A 
ATOM     18  C   UNK d   1      20.021  81.740  18.445  0.00  0.00     0.098 A 
ATOM     19  C   UNK d   1      19.438  81.497  19.667  0.00  0.00     0.070 A 
ATOM     20  O   UNK d   1      19.991  83.053  17.973  0.00  0.00    -0.335 OA
ATOM     21  C   UNK d   1      19.475  80.199  20.112  0.00  0.00     0.058 A 
ATOM     22  N   UNK d   1      18.844  82.563  20.386  0.00  0.00    -0.323 N 
ATOM     23  C   UNK d   1      20.076  79.174  19.367  0.00  0.00     0.059 A 
ATOM     24 Cl   UNK d   1      20.015  77.535  19.968  0.00  0.00    -0.083 Cl
ATOM     25  C   UNK d   1      18.826  83.896  19.893  0.00  0.00     0.251 C 
ATOM     26  H   UNK d   1      18.402  82.372  21.315  0.00  0.00     0.169 HD
ATOM     27  O   UNK d   1      18.110  84.813  20.340  0.00  0.00    -0.270 OA
ATOM     28  C   UNK d   1      19.740  84.186  18.758  0.00  0.00     0.217 C 
ATOM     29  C   UNK d   1      21.064  84.719  19.258  0.00  0.00     0.050 C 
ENDBRANCH   1  16
TORSDOF 3
ENDMDL
