MODEL 1
REMARK VINA RESULT:   -10.721      0.000      0.000
REMARK INTER + INTRA:         -11.652
REMARK INTER:                 -11.975
REMARK INTRA:                   0.323
REMARK UNBOUND:                 0.323
REMARK  2 active torsions:
REMARK  status: ('A' for Active; 'I' for Inactive)
REMARK    1  A    between atoms: C_4  and  N_8 
REMARK    2  A    between atoms: C_14  and  C_18 
ROOT
ATOM      1  N   UNK d   1      20.006  80.720  19.021  0.00  0.00    -0.246 N 
ATOM      2  C   UNK d   1      19.487  79.507  19.554  0.00  0.00     0.268 C 
ATOM      3  O   UNK d   1      18.488  79.433  20.289  0.00  0.00    -0.269 OA
ATOM      4  C   UNK d   1      20.319  78.381  19.097  0.00  0.00     0.285 C 
ATOM      5  O   UNK d   1      19.705  77.201  18.823  0.00  0.00    -0.260 OA
ATOM      6  N   UNK d   1      20.434  76.725  17.749  0.00  0.00    -0.264 N 
ATOM      7  C   UNK d   1      20.758  77.834  16.907  0.00  0.00     0.083 C 
ATOM      8  C   UNK d   1      20.686  78.876  17.729  0.00  0.00     0.080 C 
ATOM      9  C   UNK d   1      20.775  80.323  17.855  0.00  0.00     0.266 C 
ATOM     10  O   UNK d   1      21.421  81.054  17.063  0.00  0.00    -0.267 OA
ATOM     11  H   UNK d   1      20.686  75.732  17.620  0.00  0.00     0.194 HD
ENDROOT
BRANCH   1  12
ATOM     12  C   UNK d   1      19.854  82.070  19.443  0.00  0.00     0.047 A 
ATOM     13  C   UNK d   1      19.467  82.399  20.721  0.00  0.00     0.054 A 
ATOM     14  C   UNK d   1      19.348  83.747  21.046  0.00  0.00     0.036 A 
ATOM     15 Cl   UNK d   1      18.851  84.234  22.664  0.00  0.00    -0.084 Cl
ATOM     16  C   UNK d   1      19.613  84.718  20.102  0.00  0.00     0.024 A 
ATOM     17  C   UNK d   1      20.005  84.385  18.817  0.00  0.00     0.004 A 
ATOM     18  C   UNK d   1      20.123  83.067  18.492  0.00  0.00     0.030 A 
ENDBRANCH   1  12
BRANCH   7  19
ATOM     19  C   UNK d   1      21.134  77.832  15.507  0.00  0.00     0.036 A 
ATOM     20  C   UNK d   1      22.085  78.722  15.000  0.00  0.00     0.127 A 
ATOM     21  N   UNK d   1      22.234  78.519  13.683  0.00  0.00    -0.284 N 
ATOM     22  N   UNK d   1      21.413  77.531  13.324  0.00  0.00    -0.177 NA
ATOM     23  C   UNK d   1      23.109  79.207  12.739  0.00  0.00     0.179 C 
ATOM     24  C   UNK d   1      20.741  77.108  14.419  0.00  0.00     0.065 A 
ATOM     25  C   UNK d   1      19.717  76.033  14.442  0.00  0.00     0.073 C 
ENDBRANCH   7  19
TORSDOF 2
ENDMDL
