MODEL 1
REMARK VINA RESULT:    -9.131      0.000      0.000
REMARK INTER + INTRA:         -10.738
REMARK INTER:                 -10.198
REMARK INTRA:                  -0.540
REMARK UNBOUND:                -0.540
REMARK  2 active torsions:
REMARK  status: ('A' for Active; 'I' for Inactive)
REMARK    1  A    between atoms: C_4  and  C_10 
REMARK    2  A    between atoms: C_5  and  O_8 
ROOT
ATOM      1  C   UNK d   1      22.132  79.507  13.864  0.00  0.00     0.188 A 
ATOM      2  N   UNK d   1      21.472  78.756  12.987  0.00  0.00    -0.107 N 
ATOM      3  C   UNK d   1      21.610  79.276  11.732  0.00  0.00     0.735 A 
ATOM      4  N   UNK d   1      22.387  80.373  11.888  0.00  0.00     0.045 NA
ATOM      5  N   UNK d   1      22.704  80.523  13.145  0.00  0.00    -0.114 NA
ATOM      6  N   UNK d   1      20.951  78.527  10.835  0.00  0.00    -0.174 N 
ATOM      7  C   UNK d   1      20.372  77.511  11.465  0.00  0.00     0.165 A 
ATOM      8  C   UNK d   1      20.701  77.652  12.823  0.00  0.00     0.170 A 
ATOM      9  N   UNK d   1      20.258  76.748  13.706  0.00  0.00    -0.286 N 
ATOM     10  C   UNK d   1      19.495  75.722  13.242  0.00  0.00     0.332 A 
ATOM     11  O   UNK d   1      19.087  74.881  14.103  0.00  0.00    -0.246 OA
ATOM     12  N   UNK d   1      19.155  75.544  11.968  0.00  0.00    -0.269 N 
ATOM     13  C   UNK d   1      19.597  76.441  11.085  0.00  0.00     0.282 A 
ATOM     14  O   UNK d   1      19.304  76.321   9.867  0.00  0.00    -0.265 OA
ATOM     15  C   UNK d   1      18.323  74.403  11.547  0.00  0.00     0.164 C 
ATOM     16  C   UNK d   1      20.586  76.810  15.101  0.00  0.00     0.163 C 
ATOM     17  C   UNK d   1      20.867  78.765   9.409  0.00  0.00     0.176 C 
ENDROOT
BRANCH   1  18
ATOM     18  C   UNK d   1      22.327  79.418  15.307  0.00  0.00     0.047 A 
ATOM     19  C   UNK d   1      21.416  80.000  16.184  0.00  0.00     0.037 A 
ATOM     20  C   UNK d   1      21.569  79.844  17.534  0.00  0.00     0.012 A 
ATOM     21 Br   UNK d   1      20.324  80.640  18.757  0.00  0.00    -0.051 Br
ATOM     22  C   UNK d   1      22.604  79.121  18.101  0.00  0.00     0.022 A 
ATOM     23  C   UNK d   1      23.503  78.547  17.217  0.00  0.00     0.039 A 
ATOM     24  C   UNK d   1      23.360  78.696  15.869  0.00  0.00     0.082 A 
BRANCH  24  25
ATOM     25  O   UNK d   1      24.269  78.116  14.957  0.00  0.00    -0.355 OA
ATOM     26  C   UNK d   1      24.997  76.951  15.300  0.00  0.00     0.210 C 
ENDBRANCH  24  25
ENDBRANCH   1  18
TORSDOF 2
ENDMDL
