/Users/jonathanwahrer/Desktop/Msc/3_Semester/Drug_Design_Praktikum/waehrer_HTS_screening/HTS_experiment/out/docking_results/vina_output/6e43/2014_docked.pdbqt
 OpenBabel03212220573D

 26 29  0  0  0  0  0  0  0  0999 V2000
   22.1320   79.5070   13.8640 C   0  0  0  0  0  0  0  0  0  0  0  0
   21.4720   78.7560   12.9870 N   0  0  0  0  0  0  0  0  0  0  0  0
   21.6100   79.2760   11.7320 C   0  0  0  0  0  0  0  0  0  0  0  0
   22.3870   80.3730   11.8880 N   0  0  0  0  0  0  0  0  0  0  0  0
   22.7040   80.5230   13.1450 N   0  0  0  0  0  0  0  0  0  0  0  0
   20.9510   78.5270   10.8350 N   0  0  0  0  0  0  0  0  0  0  0  0
   20.3720   77.5110   11.4650 C   0  0  0  0  0  0  0  0  0  0  0  0
   20.7010   77.6520   12.8230 C   0  0  0  0  0  0  0  0  0  0  0  0
   20.2580   76.7480   13.7060 N   0  0  0  0  0  0  0  0  0  0  0  0
   19.4950   75.7220   13.2420 C   0  0  0  0  0  0  0  0  0  0  0  0
   19.0870   74.8810   14.1030 O   0  0  0  0  0  0  0  0  0  0  0  0
   19.1550   75.5440   11.9680 N   0  0  0  0  0  0  0  0  0  0  0  0
   19.5970   76.4410   11.0850 C   0  0  0  0  0  0  0  0  0  0  0  0
   19.3040   76.3210    9.8670 O   0  0  0  0  0  0  0  0  0  0  0  0
   18.3230   74.4030   11.5470 C   0  0  0  0  0  1  0  0  0  0  0  0
   20.5860   76.8100   15.1010 C   0  0  0  0  0  1  0  0  0  0  0  0
   20.8670   78.7650    9.4090 C   0  0  0  0  0  1  0  0  0  0  0  0
   22.3270   79.4180   15.3070 C   0  0  0  0  0  0  0  0  0  0  0  0
   21.4160   80.0000   16.1840 C   0  0  0  0  0  3  0  0  0  0  0  0
   21.5690   79.8440   17.5340 C   0  0  0  0  0  0  0  0  0  0  0  0
   20.3240   80.6400   18.7570 Br  0  0  0  0  0  0  0  0  0  0  0  0
   22.6040   79.1210   18.1010 C   0  0  0  0  0  3  0  0  0  0  0  0
   23.5030   78.5470   17.2170 C   0  0  0  0  0  3  0  0  0  0  0  0
   23.3600   78.6960   15.8690 C   0  0  0  0  0  0  0  0  0  0  0  0
   24.2690   78.1160   14.9570 O   0  0  0  0  0  0  0  0  0  0  0  0
   24.9970   76.9510   15.3000 C   0  0  0  0  0  1  0  0  0  0  0  0
  1 18  1  0  0  0  0
  2  1  1  0  0  0  0
  3  4  2  0  0  0  0
  3  2  1  0  0  0  0
  4  5  1  0  0  0  0
  5  1  2  0  0  0  0
  6  7  1  0  0  0  0
  6  3  1  0  0  0  0
  7  8  2  0  0  0  0
  8  2  1  0  0  0  0
  8  9  1  0  0  0  0
  9 16  1  0  0  0  0
 10  9  1  0  0  0  0
 10 11  2  0  0  0  0
 12 10  1  0  0  0  0
 13  7  1  0  0  0  0
 13 12  1  0  0  0  0
 14 13  2  0  0  0  0
 15 12  1  0  0  0  0
 17  6  1  0  0  0  0
 18 24  2  0  0  0  0
 18 19  1  0  0  0  0
 19 20  2  0  0  0  0
 20 22  1  0  0  0  0
 20 21  1  0  0  0  0
 23 22  2  0  0  0  0
 24 23  1  0  0  0  0
 25 26  1  0  0  0  0
 25 24  1  0  0  0  0
M  END
>  <Pose>
1

>  <Score>
-9.131

$$$$
