/Users/jonathanwahrer/Desktop/Msc/3_Semester/Drug_Design_Praktikum/waehrer_HTS_screening/HTS_experiment/out/docking_results/vina_output/6e43/2017_docked.pdbqt
 OpenBabel03212220573D

 24 27  0  0  0  0  0  0  0  0999 V2000
   19.9830   83.5220   21.4730 Cl  0  0  0  0  0  0  0  0  0  0  0  0
   20.0250   82.3530   20.1640 C   0  0  0  0  0  0  0  0  0  0  0  0
   19.8430   81.0000   20.3750 C   0  0  0  0  0  2  0  0  0  0  0  0
   19.8770   80.1030   19.3550 N   0  0  0  0  0  0  0  0  0  0  0  0
   20.0880   80.4690   18.0790 C   0  0  0  0  0  0  0  0  0  0  0  0
   20.1240   79.5880   17.0610 N   0  0  0  0  0  0  0  0  0  0  0  0
   19.9490   78.2690   17.2580 C   0  0  0  0  0  0  0  0  0  0  0  0
   19.7280   77.8800   18.5800 C   0  0  0  0  0  2  0  0  0  0  0  0
   19.6940   78.7910   19.6140 C   0  0  0  0  0  0  0  0  0  0  0  0
   19.4930   78.4300   20.8180 O   0  0  0  0  0  0  0  0  0  0  0  0
   20.2740   81.8240   17.8380 C   0  0  0  0  0  3  0  0  0  0  0  0
   20.2420   82.7500   18.8610 C   0  0  0  0  0  3  0  0  0  0  0  0
   19.9800   77.2590   16.1680 C   0  0  0  0  0  2  0  0  0  0  0  0
   21.3010   77.1460   15.6730 N   0  0  0  0  0  0  0  0  0  0  0  0
   22.3090   77.9200   16.2940 C   0  0  0  0  0  2  0  0  0  0  0  0
   23.4600   78.3050   15.3780 C   0  0  0  0  0  2  0  0  0  0  0  0
   22.8340   78.8680   14.1520 C   0  0  0  0  0  0  0  0  0  0  0  0
   21.8090   78.1230   13.6050 C   0  0  0  0  0  0  0  0  0  0  0  0
   23.2670   80.0600   13.6200 C   0  0  0  0  0  3  0  0  0  0  0  0
   21.2120   78.5910   12.4990 N   0  0  0  0  0  0  0  0  0  0  0  0
   21.4480   76.8560   14.2870 C   0  0  0  0  0  2  0  0  0  0  0  0
   21.6170   79.7730   11.9400 C   0  0  0  0  0  0  0  0  0  0  0  0
   22.6260   80.4770   12.5050 N   0  0  0  0  0  0  0  0  0  0  0  0
   20.9630   80.3030   10.7150 C   0  0  0  0  0  1  0  0  0  0  0  0
  2  3  1  0  0  0  0
  2  1  1  0  0  0  0
  4  9  1  0  0  0  0
  4  3  1  0  0  0  0
  5  4  1  0  0  0  0
  6  7  2  0  0  0  0
  6  5  1  0  0  0  0
  7  8  1  0  0  0  0
  8  9  1  0  0  0  0
  9 10  2  0  0  0  0
 11  5  2  0  0  0  0
 11 12  1  0  0  0  0
 12  2  2  0  0  0  0
 13  7  1  0  0  0  0
 14 13  1  0  0  0  0
 14 15  1  0  0  0  0
 16 15  1  0  0  0  0
 17 16  1  0  0  0  0
 18 17  2  0  0  0  0
 18 21  1  0  0  0  0
 19 17  1  0  0  0  0
 20 18  1  0  0  0  0
 21 14  1  0  0  0  0
 22 20  2  0  0  0  0
 22 23  1  0  0  0  0
 23 19  2  0  0  0  0
 24 22  1  0  0  0  0
M  END
>  <Pose>
1

>  <Score>
-9.077

$$$$
