MODEL 1
REMARK VINA RESULT:    -9.077      0.000      0.000
REMARK INTER + INTRA:         -10.051
REMARK INTER:                 -10.139
REMARK INTRA:                   0.088
REMARK UNBOUND:                 0.088
REMARK  2 active torsions:
REMARK  status: ('A' for Active; 'I' for Inactive)
REMARK    1  A    between atoms: C_7  and  C_11 
REMARK    2  A    between atoms: C_11  and  N_12 
ROOT
ATOM      1 Cl   UNK d   1      19.983  83.522  21.473  0.00  0.00    -0.083 Cl
ATOM      2  C   UNK d   1      20.025  82.353  20.164  0.00  0.00     0.050 A 
ATOM      3  C   UNK d   1      19.843  81.000  20.375  0.00  0.00     0.125 A 
ATOM      4  N   UNK d   1      19.877  80.103  19.355  0.00  0.00    -0.272 N 
ATOM      5  C   UNK d   1      20.088  80.469  18.079  0.00  0.00     0.137 A 
ATOM      6  N   UNK d   1      20.124  79.588  17.061  0.00  0.00    -0.233 NA
ATOM      7  C   UNK d   1      19.949  78.269  17.258  0.00  0.00     0.059 A 
ATOM      8  C   UNK d   1      19.728  77.880  18.580  0.00  0.00     0.103 A 
ATOM      9  C   UNK d   1      19.694  78.791  19.614  0.00  0.00     0.255 A 
ATOM     10  O   UNK d   1      19.493  78.430  20.818  0.00  0.00    -0.268 OA
ATOM     11  C   UNK d   1      20.274  81.824  17.838  0.00  0.00     0.053 A 
ATOM     12  C   UNK d   1      20.242  82.750  18.861  0.00  0.00     0.029 A 
ENDROOT
BRANCH   7  13
ATOM     13  C   UNK d   1      19.980  77.259  16.168  0.00  0.00     0.177 C 
BRANCH  13  14
ATOM     14  N   UNK d   1      21.301  77.146  15.673  0.00  0.00    -0.401 N 
ATOM     15  C   UNK d   1      22.309  77.920  16.294  0.00  0.00     0.122 C 
ATOM     16  C   UNK d   1      23.460  78.305  15.378  0.00  0.00     0.061 C 
ATOM     17  C   UNK d   1      22.834  78.868  14.152  0.00  0.00    -0.013 A 
ATOM     18  C   UNK d   1      21.809  78.123  13.605  0.00  0.00     0.061 A 
ATOM     19  C   UNK d   1      23.267  80.060  13.620  0.00  0.00     0.128 A 
ATOM     20  N   UNK d   1      21.212  78.591  12.499  0.00  0.00    -0.236 NA
ATOM     21  C   UNK d   1      21.448  76.856  14.287  0.00  0.00     0.177 C 
ATOM     22  C   UNK d   1      21.617  79.773  11.940  0.00  0.00     0.122 A 
ATOM     23  N   UNK d   1      22.626  80.477  12.505  0.00  0.00    -0.245 NA
ATOM     24  C   UNK d   1      20.963  80.303  10.715  0.00  0.00     0.093 C 
ENDBRANCH  13  14
ENDBRANCH   7  13
TORSDOF 2
ENDMDL
