MODEL 1
REMARK VINA RESULT:    -7.844      0.000      0.000
REMARK INTER + INTRA:          -7.105
REMARK INTER:                  -8.761
REMARK INTRA:                   1.656
REMARK UNBOUND:                 1.656
REMARK  2 active torsions:
REMARK  status: ('A' for Active; 'I' for Inactive)
REMARK    1  A    between atoms: C_4  and  C_10 
REMARK    2  A    between atoms: C_5  and  O_8 
ROOT
ATOM      1  C   UNK d   1      23.078  77.555  16.450  0.00  0.00     0.048 C 
ATOM      2  C   UNK d   1      23.595  78.917  16.990  0.00  0.00     0.178 C 
ATOM      3  C   UNK d   1      22.495  79.809  16.381  0.00  0.00     0.233 C 
ATOM      4  O   UNK d   1      21.884  80.655  17.007  0.00  0.00    -0.273 OA
ATOM      5  N   UNK d   1      22.304  79.495  14.982  0.00  0.00    -0.334 N 
ATOM      6  C   UNK d   1      23.439  78.783  14.367  0.00  0.00     0.105 C 
ATOM      7  N   UNK d   1      24.604  79.550  14.830  0.00  0.00    -0.334 N 
ATOM      8  C   UNK d   1      24.800  79.403  16.251  0.00  0.00     0.233 C 
ATOM      9  O   UNK d   1      25.873  79.655  16.828  0.00  0.00    -0.273 OA
ATOM     10  C   UNK d   1      23.544  77.419  15.100  0.00  0.00     0.064 C 
ATOM     11  C   UNK d   1      23.375  78.621  12.913  0.00  0.00     0.063 C 
ATOM     12  H   UNK d   1      21.455  79.721  14.457  0.00  0.00     0.165 HD
ATOM     13  H   UNK d   1      25.191  80.117  14.207  0.00  0.00     0.165 HD
ENDROOT
BRANCH   1  14
ATOM     14  C   UNK d   1      21.664  77.584  16.807  0.00  0.00    -0.018 A 
ATOM     15  C   UNK d   1      21.345  78.058  18.086  0.00  0.00     0.029 A 
ATOM     16  C   UNK d   1      20.030  78.042  18.557  0.00  0.00     0.011 A 
ATOM     17 Br   UNK d   1      19.637  78.685  20.304  0.00  0.00    -0.051 Br
ATOM     18  C   UNK d   1      19.012  77.569  17.792  0.00  0.00     0.022 A 
ATOM     19  C   UNK d   1      19.306  77.101  16.543  0.00  0.00     0.038 A 
ATOM     20  C   UNK d   1      20.603  77.109  16.057  0.00  0.00     0.074 A 
BRANCH  20  21
ATOM     21  O   UNK d   1      20.928  76.660  14.809  0.00  0.00    -0.355 OA
ATOM     22  C   UNK d   1      19.966  76.004  14.028  0.00  0.00     0.210 C 
ENDBRANCH  20  21
ENDBRANCH   1  14
TORSDOF 2
ENDMDL
