/Users/jonathanwahrer/Desktop/Msc/3_Semester/Drug_Design_Praktikum/waehrer_HTS_screening/HTS_experiment/out/docking_results/vina_output/6e43/2028_docked.pdbqt
 OpenBabel03212220573D

 31 34  0  0  1  0  0  0  0  0999 V2000
   20.0800   79.3000    9.6900 Cl  0  0  0  0  0  0  0  0  0  0  0  0
   20.2200   78.3140   11.1430 C   0  0  0  0  0  0  0  0  0  0  0  0
   20.9960   78.8100   12.2060 C   0  0  0  0  0  0  0  0  0  0  0  0
   21.0970   78.0460   13.3310 C   0  0  0  0  0  0  0  0  0  0  0  0
   20.4690   76.8140   13.4400 C   0  0  0  0  0  3  0  0  0  0  0  0
   19.7190   76.3540   12.3820 C   0  0  0  0  0  0  0  0  0  0  0  0
   19.5850   77.0950   11.2290 C   0  0  0  0  0  3  0  0  0  0  0  0
   19.0490   75.0140   12.5270 C   0  0  0  0  0  1  0  0  0  0  0  0
   21.8570   78.8480   14.3400 C   0  0  2  0  0  0  0  0  0  0  0  0
   22.7370   78.1080   15.1530 N   0  0  0  0  0  0  0  0  0  0  0  0
   21.9810   77.6740   16.2930 C   0  0  2  0  0  3  0  0  0  0  0  0
   20.6780   78.3620   16.3040 C   0  0  2  0  0  3  0  0  0  0  0  0
   20.9260   79.5020   15.3120 C   0  0  1  0  0  3  0  0  0  0  0  0
   21.5670   80.4800   16.1720 C   0  0  0  0  0  0  0  0  0  0  0  0
   22.5020   81.2930   16.0020 O   0  0  0  0  0  0  0  0  0  0  0  0
   20.8710   80.3680   17.4410 N   0  0  0  0  0  0  0  0  0  0  0  0
   20.2950   79.0720   17.5180 C   0  0  0  0  0  0  0  0  0  0  0  0
   19.6010   78.6530   18.4540 O   0  0  0  0  0  0  0  0  0  0  0  0
   22.4860   79.8930   13.5350 C   0  0  0  0  0  0  0  0  0  0  0  0
   23.4580   80.6720   13.7860 O   0  0  0  0  0  0  0  0  0  0  0  0
   21.8270   79.9610   12.2920 N   0  0  0  0  0  0  0  0  0  0  0  0
   23.1800   77.3000   14.6520 H   0  0  0  0  0  0  0  0  0  0  0  0
   21.8920   80.6890   11.5360 H   0  0  0  0  0  0  0  0  0  0  0  0
   22.7820   77.7620   17.5790 C   0  0  2  0  0  3  0  0  0  0  0  0
   24.2320   77.5880   17.2700 C   0  0  0  0  0  1  0  0  0  0  0  0
   22.2920   77.0290   18.6190 O   0  0  0  0  0  0  0  0  0  0  0  0
   22.6780   76.1210   18.7030 H   0  0  0  0  0  0  0  0  0  0  0  0
   20.7420   81.3640   18.4720 C   0  0  0  0  0  2  0  0  0  0  0  0
   19.9960   82.5890   18.0950 C   0  0  0  0  0  2  0  0  0  0  0  0
   20.7140   83.7130   17.8210 O   0  0  0  0  0  0  0  0  0  0  0  0
   20.2660   84.8630   18.4370 C   0  0  0  0  0  1  0  0  0  0  0  0
  1  2  1  0  0  0  0
  2  7  2  0  0  0  0
  2  3  1  0  0  0  0
  3 21  1  0  0  0  0
  3  4  2  0  0  0  0
  4  5  1  0  0  0  0
  6  8  1  0  0  0  0
  6  5  2  0  0  0  0
  7  6  1  0  0  0  0
  9  4  1  6  0  0  0
  9 10  1  0  0  0  0
  9 13  1  0  0  0  0
 10 11  1  0  0  0  0
 11 12  1  0  0  0  0
 11 24  1  1  0  0  0
 12 17  1  1  0  0  0
 13 14  1  1  0  0  0
 13 12  1  0  0  0  0
 14 16  1  0  0  0  0
 15 14  2  0  0  0  0
 16 17  1  0  0  0  0
 16 28  1  0  0  0  0
 17 18  2  0  0  0  0
 19 20  2  0  0  0  0
 19  9  1  0  0  0  0
 21 19  1  0  0  0  0
 22 10  1  0  0  0  0
 23 21  1  0  0  0  0
 24 25  1  6  0  0  0
 24 26  1  0  0  0  0
 26 27  1  0  0  0  0
 29 28  1  0  0  0  0
 30 29  1  0  0  0  0
 30 31  1  0  0  0  0
M  END
>  <Pose>
1

>  <Score>
-8.128

$$$$
