/Users/jonathanwahrer/Desktop/Msc/3_Semester/Drug_Design_Praktikum/waehrer_HTS_screening/HTS_experiment/out/docking_results/vina_output/6e43/2032_docked.pdbqt
 OpenBabel03212220573D

 31 34  0  0  0  0  0  0  0  0999 V2000
   21.2170   78.6160   10.4720 C   0  0  0  0  0  3  0  0  0  0  0  0
   21.3040   78.3560   11.7370 C   0  0  0  0  0  0  0  0  0  0  0  0
   20.4830   77.5380   12.4610 O   0  0  0  0  0  0  0  0  0  0  0  0
   20.9160   77.5160   13.7860 C   0  0  0  0  0  0  0  0  0  0  0  0
   22.0060   78.3020   13.9810 C   0  0  0  0  0  0  0  0  0  0  0  0
   22.6080   78.4040   15.2410 C   0  0  0  0  0  3  0  0  0  0  0  0
   22.1330   77.7270   16.3340 C   0  0  0  0  0  3  0  0  0  0  0  0
   21.0010   76.9320   16.0820 C   0  0  0  0  0  0  0  0  0  0  0  0
   20.3990   76.8080   14.8770 C   0  0  0  0  0  0  0  0  0  0  0  0
   20.5410   76.2720   17.2410 O   0  0  0  0  0  1  0  0  0  0  0  0
   22.3050   78.8800   12.6670 C   0  0  0  0  0  0  0  0  0  0  0  0
   23.2500   79.6770   12.3960 O   0  0  0  0  0  0  0  0  0  0  0  0
   20.2290   78.1000    9.5360 C   0  0  0  0  0  0  0  0  0  0  0  0
   20.3690   76.8440    9.0050 C   0  0  0  0  0  3  0  0  0  0  0  0
   19.4400   76.3530    8.0710 C   0  0  0  0  0  0  0  0  0  0  0  0
   19.5950   74.6180    7.3170 Br  0  0  0  0  0  0  0  0  0  0  0  0
   18.3830   77.1480    7.6900 C   0  0  0  0  0  3  0  0  0  0  0  0
   18.2440   78.3930    8.2130 C   0  0  0  0  0  3  0  0  0  0  0  0
   19.1690   78.8850    9.1460 C   0  0  0  0  0  0  0  0  0  0  0  0
   19.0850   80.1150    9.7010 O   0  0  0  0  0  0  0  0  0  0  0  0
   18.1460   80.5690   10.6130 C   0  0  0  0  0  1  0  0  0  0  0  0
   19.1810   76.0150   14.6210 C   0  0  0  0  0  2  0  0  0  0  0  0
   19.4600   74.8680   13.7900 N   0  0  0  0  0  4  0  0  0  0  0  0
   18.5020   74.8240   12.6990 C   0  0  0  0  0  2  0  0  0  0  0  0
   18.0250   73.4800   12.3440 C   0  0  0  0  0  2  0  0  0  0  0  0
   18.9450   72.4070   12.5510 N   0  0  0  0  0  0  0  0  0  0  0  0
   20.1230   72.6760   13.2420 C   0  0  0  0  0  2  0  0  0  0  0  0
   19.8390   73.6820   14.3890 C   0  0  0  0  0  2  0  0  0  0  0  0
   20.3880   75.2190   13.2690 H   0  0  0  0  0  0  0  0  0  0  0  0
   18.3990   71.1070   12.6390 C   0  0  0  0  0  2  0  0  0  0  0  0
   17.0270   70.9470   12.0860 C   0  0  0  0  0  1  0  0  0  0  0  0
  1  2  2  0  0  0  0
  2  3  1  0  0  0  0
  2 11  1  0  0  0  0
  3  4  1  0  0  0  0
  4  5  2  0  0  0  0
  4  9  1  0  0  0  0
  5  6  1  0  0  0  0
  6  7  2  0  0  0  0
  8  7  1  0  0  0  0
  8 10  1  0  0  0  0
  9  8  2  0  0  0  0
 11  5  1  0  0  0  0
 12 11  2  0  0  0  0
 13  1  1  0  0  0  0
 14 13  2  0  0  0  0
 15 14  1  0  0  0  0
 16 15  1  0  0  0  0
 17 15  2  0  0  0  0
 17 18  1  0  0  0  0
 18 19  2  0  0  0  0
 19 13  1  0  0  0  0
 19 20  1  0  0  0  0
 20 21  1  0  0  0  0
 22  9  1  0  0  0  0
 23 28  1  0  0  0  0
 23 22  1  0  0  0  0
 24 23  1  0  0  0  0
 25 26  1  0  0  0  0
 25 24  1  0  0  0  0
 26 30  1  0  0  0  0
 26 27  1  0  0  0  0
 27 28  1  0  0  0  0
 29 23  1  0  0  0  0
 31 30  1  0  0  0  0
M  END
>  <Pose>
1

>  <Score>
-8.959

$$$$
