MODEL 1
REMARK VINA RESULT:   -11.099      0.000      0.000
REMARK INTER + INTRA:         -13.903
REMARK INTER:                 -13.045
REMARK INTRA:                  -0.858
REMARK UNBOUND:                -0.858
REMARK  3 active torsions:
REMARK  status: ('A' for Active; 'I' for Inactive)
REMARK    1  A    between atoms: S_1  and  N_4 
REMARK    2  A    between atoms: S_1  and  C_24 
REMARK    3  A    between atoms: C_10  and  C_12 
ROOT
ATOM      1  N   UNK d   1      21.477  79.329  17.997  0.00  0.00    -0.304 N 
ATOM      2  C   UNK d   1      22.539  79.376  17.023  0.00  0.00     0.155 C 
ATOM      3  C   UNK d   1      22.732  77.964  16.473  0.00  0.00     0.145 C 
ATOM      4  N   UNK d   1      21.470  77.362  16.261  0.00  0.00    -0.356 N 
ATOM      5  C   UNK d   1      20.849  76.956  17.599  0.00  0.00     0.145 C 
ATOM      6  C   UNK d   1      21.195  78.053  18.541  0.00  0.00     0.155 C 
ATOM      7  C   UNK d   1      20.731  77.144  15.135  0.00  0.00     0.179 C 
ATOM      8  O   UNK d   1      19.641  76.359  15.444  0.00  0.00    -0.172 OA
ENDROOT
BRANCH   7   9
ATOM      9  C   UNK d   1      20.707  77.448  13.759  0.00  0.00     0.090 C 
ATOM     10  C   UNK d   1      21.119  78.336  12.915  0.00  0.00     0.063 A 
ATOM     11  N   UNK d   1      21.854  79.475  13.275  0.00  0.00    -0.297 N 
ATOM     12  C   UNK d   1      20.871  78.137  11.455  0.00  0.00     0.008 A 
ATOM     13  N   UNK d   1      22.365  80.425  12.362  0.00  0.00    -0.265 N 
ATOM     14  H   UNK d   1      22.026  79.700  14.257  0.00  0.00     0.187 HD
ATOM     15  C   UNK d   1      22.136  80.242  10.995  0.00  0.00     0.271 A 
ATOM     16  H   UNK d   1      22.909  81.250  12.756  0.00  0.00     0.190 HD
ATOM     17  O   UNK d   1      22.585  81.080  10.171  0.00  0.00    -0.266 OA
ATOM     18  C   UNK d   1      21.368  79.063  10.557  0.00  0.00     0.046 A 
ATOM     19  C   UNK d   1      21.174  78.937   9.192  0.00  0.00     0.018 A 
ATOM     20  C   UNK d   1      20.469  77.865   8.691  0.00  0.00     0.001 A 
ATOM     21  C   UNK d   1      19.979  76.949   9.587  0.00  0.00     0.001 A 
ATOM     22  C   UNK d   1      20.175  77.079  10.966  0.00  0.00     0.015 A 
ENDBRANCH   7   9
BRANCH   1  23
ATOM     23  S   UNK d   1      20.175  80.348  17.697  0.00  0.00     0.260 S 
ATOM     24  O   UNK d   1      20.302  80.855  16.267  0.00  0.00    -0.200 OA
ATOM     25  O   UNK d   1      18.904  79.507  17.695  0.00  0.00    -0.200 OA
BRANCH  23  26
ATOM     26  C   UNK d   1      19.957  81.633  18.818  0.00  0.00     0.079 A 
ATOM     27  C   UNK d   1      19.389  81.422  20.049  0.00  0.00     0.027 A 
ATOM     28  C   UNK d   1      19.223  82.472  20.934  0.00  0.00     0.025 A 
ATOM     29  C   UNK d   1      19.613  83.755  20.623  0.00  0.00     0.034 A 
ATOM     30  C   UNK d   1      20.187  83.976  19.381  0.00  0.00     0.025 A 
ATOM     31 Cl   UNK d   1      19.380  85.051  21.779  0.00  0.00    -0.084 Cl
ATOM     32  C   UNK d   1      20.348  82.909  18.500  0.00  0.00     0.027 A 
ENDBRANCH  23  26
ENDBRANCH   1  23
TORSDOF 3
ENDMDL
