MODEL 1
REMARK VINA RESULT:    -9.487      0.000      0.000
REMARK INTER + INTRA:         -12.837
REMARK INTER:                 -12.260
REMARK INTRA:                  -0.577
REMARK UNBOUND:                -0.577
REMARK  5 active torsions:
REMARK  status: ('A' for Active; 'I' for Inactive)
REMARK    1  A    between atoms: S_1  and  N_4 
REMARK    2  A    between atoms: S_1  and  C_22 
REMARK    3  A    between atoms: N_7  and  C_10 
REMARK    4  A    between atoms: C_10  and  C_11 
REMARK    5  A    between atoms: C_11  and  N_12 
ROOT
ATOM      1  N   UNK d   1      22.710  77.742  14.824  0.00  0.00    -0.203 NA
ATOM      2  C   UNK d   1      21.309  77.538  14.891  0.00  0.00     0.138 C 
ATOM      3  C   UNK d   1      20.697  77.368  16.252  0.00  0.00     0.288 C 
ATOM      4  N   UNK d   1      21.432  78.144  17.196  0.00  0.00     0.092 N 
ATOM      5  C   UNK d   1      22.759  77.534  17.274  0.00  0.00     0.288 C 
ATOM      6  C   UNK d   1      23.470  77.804  16.001  0.00  0.00     0.138 C 
ENDROOT
BRANCH   4   7
ATOM      7  C   UNK d   1      20.839  78.254  18.485  0.00  0.00     0.294 C 
BRANCH   7   8
ATOM      8  C   UNK d   1      19.488  78.881  18.427  0.00  0.00     0.186 C 
BRANCH   8   9
ATOM      9  N   UNK d   1      19.500  80.260  18.870  0.00  0.00    -0.216 N 
ATOM     10  N   UNK d   1      18.989  80.750  19.998  0.00  0.00    -0.149 NA
ATOM     11  C   UNK d   1      19.202  82.071  20.072  0.00  0.00     0.158 A 
ATOM     12  N   UNK d   1      19.864  82.428  18.964  0.00  0.00    -0.256 N 
ATOM     13  C   UNK d   1      18.901  83.063  20.988  0.00  0.00     0.053 A 
ATOM     14  C   UNK d   1      20.226  83.714  18.745  0.00  0.00     0.103 A 
ATOM     15  C   UNK d   1      20.042  81.294  18.225  0.00  0.00     0.350 A 
ATOM     16  C   UNK d   1      19.939  84.719  19.642  0.00  0.00     0.018 A 
ATOM     17  C   UNK d   1      19.257  84.380  20.794  0.00  0.00     0.005 A 
ATOM     18  O   UNK d   1      20.636  81.320  17.120  0.00  0.00    -0.244 OA
ENDBRANCH   8   9
ENDBRANCH   7   8
ENDBRANCH   4   7
BRANCH   1  19
ATOM     19  S   UNK d   1      23.036  79.118  13.840  0.00  0.00     0.250 S 
ATOM     20  O   UNK d   1      22.329  80.313  14.440  0.00  0.00    -0.205 OA
ATOM     21  O   UNK d   1      24.485  79.428  13.787  0.00  0.00    -0.205 OA
BRANCH  19  22
ATOM     22  C   UNK d   1      22.478  78.832  12.185  0.00  0.00     0.116 A 
ATOM     23  S   UNK d   1      20.890  78.627  11.601  0.00  0.00    -0.070 SA
ATOM     24  C   UNK d   1      21.231  78.411   9.947  0.00  0.00     0.052 A 
ATOM     25  C   UNK d   1      22.596  78.506   9.896  0.00  0.00     0.028 A 
ATOM     26 Br   UNK d   1      20.019  78.105   8.479  0.00  0.00    -0.043 Br
ATOM     27  C   UNK d   1      23.239  78.724  11.049  0.00  0.00     0.034 A 
ENDBRANCH  19  22
ENDBRANCH   1  19
TORSDOF 5
ENDMDL
