MODEL 1
REMARK VINA RESULT:   -10.332      0.000      0.000
REMARK INTER + INTRA:         -14.412
REMARK INTER:                 -13.654
REMARK INTRA:                  -0.757
REMARK UNBOUND:                -0.757
REMARK  6 active torsions:
REMARK  status: ('A' for Active; 'I' for Inactive)
REMARK    1  A    between atoms: C_5  and  C_8 
REMARK    2  A    between atoms: C_12  and  C_17 
REMARK    3  A    between atoms: C_17  and  N_18 
REMARK    4  A    between atoms: N_21  and  C_24 
REMARK    5  A    between atoms: C_24  and  C_25 
REMARK    6  A    between atoms: C_25  and  O_26 
ROOT
ATOM      1  C   UNK d   1      19.253  74.868  12.915  0.00  0.00     0.051 A 
ATOM      2  C   UNK d   1      19.283  75.828  11.929  0.00  0.00     0.032 A 
ATOM      3  C   UNK d   1      20.058  76.978  12.132  0.00  0.00    -0.000 A 
ATOM      4  C   UNK d   1      20.778  77.163  13.292  0.00  0.00     0.100 A 
ATOM      5  C   UNK d   1      21.577  78.269  13.583  0.00  0.00     0.039 A 
ATOM      6  C   UNK d   1      21.605  79.232  12.543  0.00  0.00     0.118 A 
ATOM      7  C   UNK d   1      20.896  79.080  11.355  0.00  0.00     0.041 A 
ATOM      8  C   UNK d   1      20.127  77.944  11.160  0.00  0.00     0.017 A 
ATOM      9  O   UNK d   1      22.337  80.400  12.623  0.00  0.00    -0.191 OA
ATOM     10  O   UNK d   1      20.720  76.251  14.176  0.00  0.00    -0.273 OA
ATOM     11  C   UNK d   1      20.015  75.122  14.074  0.00  0.00     0.299 A 
ATOM     12  O   UNK d   1      20.000  74.279  14.979  0.00  0.00    -0.259 OA
ENDROOT
BRANCH   5  13
ATOM     13  C   UNK d   1      22.468  78.454  14.675  0.00  0.00     0.279 C 
BRANCH  13  14
ATOM     14  N   UNK d   1      23.030  79.720  15.072  0.00  0.00    -0.064 N 
ATOM     15  C   UNK d   1      22.124  80.456  15.997  0.00  0.00     0.265 C 
ATOM     16  C   UNK d   1      21.507  79.507  16.962  0.00  0.00     0.300 C 
ATOM     17  N   UNK d   1      22.436  78.792  17.807  0.00  0.00     0.093 N 
ATOM     18  C   UNK d   1      23.708  78.599  17.197  0.00  0.00     0.300 C 
ATOM     19  C   UNK d   1      24.114  79.411  16.059  0.00  0.00     0.265 C 
ATOM     20  H   UNK d   1      23.457  80.316  14.401  0.00  0.00     0.280 HD
BRANCH  17  21
ATOM     21  C   UNK d   1      21.864  77.500  18.213  0.00  0.00     0.298 C 
BRANCH  21  22
ATOM     22  C   UNK d   1      20.550  77.663  18.941  0.00  0.00     0.194 C 
BRANCH  22  23
ATOM     23  O   UNK d   1      20.458  76.858  20.067  0.00  0.00    -0.399 OA
ATOM     24  H   UNK d   1      19.837  76.091  19.854  0.00  0.00     0.209 HD
ENDBRANCH  22  23
ENDBRANCH  21  22
ENDBRANCH  17  21
ENDBRANCH  13  14
ENDBRANCH   5  13
BRANCH   1  25
ATOM     25  C   UNK d   1      18.556  73.581  12.722  0.00  0.00    -0.020 A 
ATOM     26  C   UNK d   1      17.151  73.603  12.809  0.00  0.00     0.014 A 
ATOM     27  C   UNK d   1      16.427  72.445  12.587  0.00  0.00     0.024 A 
ATOM     28  C   UNK d   1      17.042  71.238  12.280  0.00  0.00     0.034 A 
ATOM     29 Cl   UNK d   1      16.125  69.759  11.902  0.00  0.00    -0.084 Cl
ATOM     30  C   UNK d   1      18.424  71.224  12.203  0.00  0.00     0.024 A 
ATOM     31  C   UNK d   1      19.126  72.394  12.430  0.00  0.00     0.014 A 
ENDBRANCH   1  25
TORSDOF 6
ENDMDL
