MODEL 1
REMARK VINA RESULT:    -8.514      0.000      0.000
REMARK INTER + INTRA:         -12.601
REMARK INTER:                 -11.500
REMARK INTRA:                  -1.100
REMARK UNBOUND:                -1.100
REMARK  6 active torsions:
REMARK  status: ('A' for Active; 'I' for Inactive)
REMARK    1  A    between atoms: C_5  and  C_8 
REMARK    2  A    between atoms: C_8  and  N_9 
REMARK    3  A    between atoms: C_13  and  N_14 
REMARK    4  A    between atoms: N_17  and  C_20 
REMARK    5  A    between atoms: C_20  and  C_21 
REMARK    6  A    between atoms: C_21  and  O_23 
ROOT
ATOM      1  N   UNK d   1      21.339  77.646  13.709  0.00  0.00    -0.168 N 
ATOM      2  C   UNK d   1      21.457  78.630  12.759  0.00  0.00     0.167 A 
ATOM      3  C   UNK d   1      20.576  78.382  11.725  0.00  0.00     0.185 A 
ATOM      4  N   UNK d   1      19.944  77.255  12.064  0.00  0.00    -0.044 NA
ATOM      5  C   UNK d   1      20.406  76.799  13.272  0.00  0.00     0.707 A 
ATOM      6  N   UNK d   1      20.505  79.205  10.661  0.00  0.00    -0.286 N 
ATOM      7  C   UNK d   1      21.315  80.273  10.629  0.00  0.00     0.330 A 
ATOM      8  O   UNK d   1      21.240  81.033   9.632  0.00  0.00    -0.246 OA
ATOM      9  N   UNK d   1      22.183  80.545  11.610  0.00  0.00    -0.273 N 
ATOM     10  C   UNK d   1      22.282  79.734  12.706  0.00  0.00     0.280 A 
ATOM     11  O   UNK d   1      23.108  80.015  13.607  0.00  0.00    -0.265 OA
ATOM     12  C   UNK d   1      19.561  78.910   9.599  0.00  0.00     0.163 C 
ATOM     13  H   UNK d   1      22.813  81.386  11.568  0.00  0.00     0.173 HD
ENDROOT
BRANCH   5  14
ATOM     14  N   UNK d   1      19.976  75.577  13.812  0.00  0.00    -0.212 N 
ATOM     15  C   UNK d   1      20.692  74.370  14.023  0.00  0.00     0.160 C 
ATOM     16  C   UNK d   1      19.780  73.139  13.975  0.00  0.00     0.137 C 
ATOM     17  N   UNK d   1      18.590  73.291  13.244  0.00  0.00    -0.400 N 
ATOM     18  C   UNK d   1      17.827  74.453  13.480  0.00  0.00     0.137 C 
ATOM     19  C   UNK d   1      18.559  75.518  14.263  0.00  0.00     0.160 C 
BRANCH  17  20
ATOM     20  C   UNK d   1      18.396  72.576  12.052  0.00  0.00     0.228 C 
BRANCH  20  21
ATOM     21  C   UNK d   1      17.461  71.441  12.086  0.00  0.00     0.276 C 
ATOM     22  O   UNK d   1      17.235  70.777  13.133  0.00  0.00    -0.263 OA
BRANCH  21  23
ATOM     23  O   UNK d   1      16.794  71.068  10.939  0.00  0.00    -0.325 OA
ATOM     24  C   UNK d   1      15.858  70.026  10.913  0.00  0.00     0.213 C 
ENDBRANCH  21  23
ENDBRANCH  20  21
ENDBRANCH  17  20
ENDBRANCH   5  14
BRANCH   1  25
ATOM     25  C   UNK d   1      22.093  77.617  14.935  0.00  0.00     0.186 C 
BRANCH  25  26
ATOM     26  C   UNK d   1      21.307  78.235  16.078  0.00  0.00    -0.039 A 
ATOM     27  C   UNK d   1      20.541  77.394  16.830  0.00  0.00     0.010 A 
ATOM     28  C   UNK d   1      19.829  77.914  17.912  0.00  0.00     0.019 A 
ATOM     29  C   UNK d   1      19.902  79.256  18.212  0.00  0.00     0.011 A 
ATOM     30 Br   UNK d   1      18.939  79.989  19.686  0.00  0.00    -0.051 Br
ATOM     31  C   UNK d   1      20.689  80.080  17.425  0.00  0.00     0.019 A 
ATOM     32  C   UNK d   1      21.390  79.568  16.361  0.00  0.00     0.010 A 
ENDBRANCH  25  26
ENDBRANCH   1  25
TORSDOF 6
ENDMDL
