MODEL 1
REMARK VINA RESULT:    -7.770      0.000      0.000
REMARK INTER + INTRA:          -9.888
REMARK INTER:                  -9.132
REMARK INTRA:                  -0.756
REMARK UNBOUND:                -0.756
REMARK  3 active torsions:
REMARK  status: ('A' for Active; 'I' for Inactive)
REMARK    1  A    between atoms: C_5  and  C_8 
REMARK    2  A    between atoms: C_8  and  N_9 
REMARK    3  A    between atoms: C_13  and  N_14 
ROOT
ATOM      1  N   UNK d   1      20.863  77.166  13.571  0.00  0.00    -0.168 N 
ATOM      2  C   UNK d   1      21.139  78.128  12.679  0.00  0.00     0.167 A 
ATOM      3  C   UNK d   1      20.334  77.956  11.574  0.00  0.00     0.185 A 
ATOM      4  N   UNK d   1      19.591  76.891  11.830  0.00  0.00    -0.044 NA
ATOM      5  C   UNK d   1      19.888  76.389  13.037  0.00  0.00     0.707 A 
ATOM      6  N   UNK d   1      20.360  78.773  10.492  0.00  0.00    -0.286 N 
ATOM      7  C   UNK d   1      21.226  79.799  10.527  0.00  0.00     0.330 A 
ATOM      8  O   UNK d   1      21.238  80.545   9.516  0.00  0.00    -0.246 OA
ATOM      9  N   UNK d   1      22.035  80.022  11.577  0.00  0.00    -0.273 N 
ATOM     10  C   UNK d   1      22.017  79.217  12.656  0.00  0.00     0.280 A 
ATOM     11  O   UNK d   1      22.747  79.396  13.640  0.00  0.00    -0.265 OA
ATOM     12  C   UNK d   1      19.479  78.511   9.374  0.00  0.00     0.163 C 
ATOM     13  H   UNK d   1      22.702  80.823  11.597  0.00  0.00     0.173 HD
ENDROOT
BRANCH   1  14
ATOM     14  C   UNK d   1      21.488  76.978  14.858  0.00  0.00     0.186 C 
BRANCH  14  15
ATOM     15  C   UNK d   1      20.857  77.580  16.015  0.00  0.00    -0.039 A 
ATOM     16  C   UNK d   1      19.740  77.135  16.651  0.00  0.00     0.010 A 
ATOM     17  C   UNK d   1      19.209  77.742  17.788  0.00  0.00     0.019 A 
ATOM     18  C   UNK d   1      19.841  78.864  18.314  0.00  0.00     0.011 A 
ATOM     19 Br   UNK d   1      19.191  79.748  19.872  0.00  0.00    -0.051 Br
ATOM     20  C   UNK d   1      20.974  79.349  17.703  0.00  0.00     0.019 A 
ATOM     21  C   UNK d   1      21.462  78.718  16.583  0.00  0.00     0.010 A 
ENDBRANCH  14  15
ENDBRANCH   1  14
BRANCH   5  22
ATOM     22  N   UNK d   1      19.298  75.241  13.661  0.00  0.00    -0.213 N 
ATOM     23  C   UNK d   1      20.163  74.126  13.976  0.00  0.00     0.160 C 
ATOM     24  C   UNK d   1      19.722  72.942  13.128  0.00  0.00     0.136 C 
ATOM     25  N   UNK d   1      18.364  73.035  12.708  0.00  0.00    -0.414 N 
ATOM     26  C   UNK d   1      17.478  73.713  13.594  0.00  0.00     0.136 C 
ATOM     27  C   UNK d   1      18.114  73.164  11.323  0.00  0.00     0.143 C 
ATOM     28  C   UNK d   1      17.902  75.105  13.986  0.00  0.00     0.160 C 
ENDBRANCH   5  22
TORSDOF 3
ENDMDL
