/Users/jonathanwahrer/Desktop/Msc/3_Semester/Drug_Design_Praktikum/waehrer_HTS_screening/HTS_experiment/out/docking_results/vina_output/6e43/2105_docked.pdbqt
 OpenBabel03212220593D

 29 32  0  0  1  0  0  0  0  0999 V2000
   22.7860   79.9110   13.4670 Cl  0  0  0  0  0  0  0  0  0  0  0  0
   22.9930   79.7590   15.1990 C   0  0  0  0  0  0  0  0  0  0  0  0
   21.8940   79.8310   16.0550 C   0  0  0  0  0  0  0  0  0  0  0  0
   22.0140   79.7180   17.4090 C   0  0  0  0  0  0  0  0  0  0  0  0
   23.2960   79.5240   17.9030 C   0  0  0  0  0  3  0  0  0  0  0  0
   24.3940   79.4490   17.0740 C   0  0  0  0  0  3  0  0  0  0  0  0
   24.2530   79.5660   15.7100 C   0  0  0  0  0  3  0  0  0  0  0  0
   20.6750   79.8380   18.0210 C   0  0  2  0  0  0  0  0  0  0  0  0
   20.6160   81.0520   18.9140 C   0  0  0  0  0  0  0  0  0  0  0  0
   20.2820   81.0030   20.1730 C   0  0  0  0  0  0  0  0  0  0  0  0
   19.9410   79.7750   20.8130 N   0  0  0  0  0  0  0  0  0  0  0  0
   19.9710   78.5840   20.0460 C   0  0  0  0  0  0  0  0  0  0  0  0
   20.3050   78.6220   18.7760 C   0  0  0  0  0  0  0  0  0  0  0  0
   20.3220   77.3740   18.0250 C   0  0  0  0  0  0  0  0  0  0  0  0
   20.3450   76.3910   17.4160 N   0  0  0  0  0  0  0  0  0  0  0  0
   20.3310   82.3680   20.7340 C   0  0  0  0  0  0  0  0  0  0  0  0
   20.7160   83.1850   19.6990 O   0  0  0  0  0  0  0  0  0  0  0  0
   20.9050   82.4360   18.5610 C   0  0  0  0  0  0  0  0  0  0  0  0
   21.2640   82.8430   17.4010 O   0  0  0  0  0  0  0  0  0  0  0  0
   21.2700   82.3810   21.9190 C   0  0  0  0  0  1  0  0  0  0  0  0
   18.9700   82.8260   21.2260 C   0  0  0  0  0  1  0  0  0  0  0  0
   19.7600   80.0340   16.8720 C   0  0  0  0  0  0  0  0  0  0  0  0
   18.4880   80.1870   16.9250 O   0  0  0  0  0  0  0  0  0  0  0  0
   20.5370   80.0250   15.6950 N   0  0  0  0  0  0  0  0  0  0  0  0
   19.6740   79.7280   21.8190 H   0  0  0  0  0  0  0  0  0  0  0  0
   20.1320   80.1460   14.7180 H   0  0  0  0  0  0  0  0  0  0  0  0
   19.6400   77.3140   20.6170 N   0  0  0  0  0  0  0  0  0  0  0  0
   18.8380   76.7740   20.2690 H   0  0  0  0  0  0  0  0  0  0  0  0
   20.2240   76.9560   21.3820 H   0  0  0  0  0  0  0  0  0  0  0  0
  1  2  1  0  0  0  0
  2  7  2  0  0  0  0
  2  3  1  0  0  0  0
  3  4  2  0  0  0  0
  4  5  1  0  0  0  0
  4  8  1  0  0  0  0
  6  5  2  0  0  0  0
  7  6  1  0  0  0  0
  8 22  1  6  0  0  0
  8 13  1  0  0  0  0
  8  9  1  0  0  0  0
  9 10  2  0  0  0  0
 10 16  1  0  0  0  0
 10 11  1  0  0  0  0
 11 25  1  0  0  0  0
 12 27  1  0  0  0  0
 12 11  1  0  0  0  0
 13 12  2  0  0  0  0
 14 13  1  0  0  0  0
 15 14  3  0  0  0  0
 16 21  1  0  0  0  0
 16 20  1  0  0  0  0
 17 16  1  0  0  0  0
 18  9  1  0  0  0  0
 18 17  1  0  0  0  0
 19 18  2  0  0  0  0
 22 23  2  0  0  0  0
 24  3  1  0  0  0  0
 24 22  1  0  0  0  0
 26 24  1  0  0  0  0
 27 29  1  0  0  0  0
 28 27  1  0  0  0  0
M  END
>  <Pose>
1

>  <Score>
-7.360

$$$$
