MODEL 1
REMARK VINA RESULT:    -7.360      0.000      0.000
REMARK INTER + INTRA:          -7.575
REMARK INTER:                  -7.575
REMARK INTRA:                   0.000
REMARK UNBOUND:                 0.000
REMARK  1 active torsions:
REMARK  status: ('A' for Active; 'I' for Inactive)
REMARK    1  A    between atoms: C_12  and  N_16 
ROOT
ATOM      1 Cl   UNK d   1      22.786  79.911  13.467  0.00  0.00    -0.082 Cl
ATOM      2  C   UNK d   1      22.993  79.759  15.199  0.00  0.00     0.061 A 
ATOM      3  C   UNK d   1      21.894  79.831  16.055  0.00  0.00     0.065 A 
ATOM      4  C   UNK d   1      22.014  79.718  17.409  0.00  0.00    -0.002 A 
ATOM      5  C   UNK d   1      23.296  79.524  17.903  0.00  0.00     0.011 A 
ATOM      6  C   UNK d   1      24.394  79.449  17.074  0.00  0.00     0.002 A 
ATOM      7  C   UNK d   1      24.253  79.566  15.710  0.00  0.00     0.026 A 
ATOM      8  C   UNK d   1      20.675  79.838  18.021  0.00  0.00     0.146 A 
ATOM      9  C   UNK d   1      20.616  81.052  18.914  0.00  0.00     0.071 A 
ATOM     10  C   UNK d   1      20.282  81.003  20.173  0.00  0.00     0.060 A 
ATOM     11  N   UNK d   1      19.941  79.775  20.813  0.00  0.00    -0.342 N 
ATOM     12  C   UNK d   1      19.971  78.584  20.046  0.00  0.00     0.118 A 
ATOM     13  C   UNK d   1      20.305  78.622  18.776  0.00  0.00     0.093 A 
ATOM     14  C   UNK d   1      20.322  77.374  18.025  0.00  0.00     0.101 C 
ATOM     15  N   UNK d   1      20.345  76.391  17.416  0.00  0.00    -0.191 NA
ATOM     16  C   UNK d   1      20.331  82.368  20.734  0.00  0.00     0.106 A 
ATOM     17  O   UNK d   1      20.716  83.185  19.699  0.00  0.00    -0.301 OA
ATOM     18  C   UNK d   1      20.905  82.436  18.561  0.00  0.00     0.294 A 
ATOM     19  O   UNK d   1      21.264  82.843  17.401  0.00  0.00    -0.259 OA
ATOM     20  C   UNK d   1      21.270  82.381  21.919  0.00  0.00     0.053 C 
ATOM     21  C   UNK d   1      18.970  82.826  21.226  0.00  0.00     0.053 C 
ATOM     22  C   UNK d   1      19.760  80.034  16.872  0.00  0.00     0.246 A 
ATOM     23  O   UNK d   1      18.488  80.187  16.925  0.00  0.00    -0.271 OA
ATOM     24  N   UNK d   1      20.537  80.025  15.695  0.00  0.00    -0.324 N 
ATOM     25  H   UNK d   1      19.674  79.728  21.819  0.00  0.00     0.167 HD
ATOM     26  H   UNK d   1      20.132  80.146  14.718  0.00  0.00     0.169 HD
ENDROOT
BRANCH  12  27
ATOM     27  N   UNK d   1      19.640  77.314  20.617  0.00  0.00    -0.384 N 
ATOM     28  H   UNK d   1      18.838  76.774  20.269  0.00  0.00     0.157 HD
ATOM     29  H   UNK d   1      20.224  76.956  21.382  0.00  0.00     0.157 HD
ENDBRANCH  12  27
TORSDOF 1
ENDMDL
