/Users/jonathanwahrer/Desktop/Msc/3_Semester/Drug_Design_Praktikum/waehrer_HTS_screening/HTS_experiment/out/docking_results/vina_output/6e43/2109_docked.pdbqt
 OpenBabel03212221003D

 21 24  0  0  1  0  0  0  0  0999 V2000
   20.9540   78.9760   17.6190 N   0  0  0  0  0  0  0  0  0  0  0  0
   20.1940   77.9110   17.0290 C   0  0  0  0  0  0  0  0  0  0  0  0
   18.9440   77.7900   17.0530 O   0  0  0  0  0  0  0  0  0  0  0  0
   21.1050   76.9460   16.3720 C   0  0  1  0  0  3  0  0  0  0  0  0
   20.7370   76.6710   15.0600 O   0  0  0  0  0  0  0  0  0  0  0  0
   20.8970   77.7750   14.3490 N   0  0  1  0  0  0  0  0  0  0  0  0
   21.8370   78.6250   14.9360 C   0  0  1  0  0  3  0  0  0  0  0  0
   22.3310   77.8240   16.1420 C   0  0  1  0  0  3  0  0  0  0  0  0
   22.3220   78.6480   17.3740 C   0  0  0  0  0  0  0  0  0  0  0  0
   23.2870   79.0210   18.1050 O   0  0  0  0  0  0  0  0  0  0  0  0
   22.9340   79.1630   14.1200 C   0  0  0  0  0  2  0  0  0  0  0  0
   22.9570   78.8310   12.6790 C   0  0  0  0  0  2  0  0  0  0  0  0
   21.5330   78.7280   12.1800 C   0  0  0  0  0  2  0  0  0  0  0  0
   20.8890   77.6080   12.9550 C   0  0  0  0  0  2  0  0  0  0  0  0
   20.4670   80.1280   18.3090 C   0  0  0  0  0  0  0  0  0  0  0  0
   19.8910   80.0720   19.5610 C   0  0  0  0  0  3  0  0  0  0  0  0
   19.4210   81.1950   20.2220 C   0  0  0  0  0  3  0  0  0  0  0  0
   19.5180   82.4390   19.6340 C   0  0  0  0  0  0  0  0  0  0  0  0
   18.9270   83.8680   20.4620 Cl  0  0  0  0  0  0  0  0  0  0  0  0
   20.0930   82.5070   18.3820 C   0  0  0  0  0  3  0  0  0  0  0  0
   20.5600   81.3830   17.7260 C   0  0  0  0  0  3  0  0  0  0  0  0
  1 15  1  0  0  0  0
  2  3  2  0  0  0  0
  2  1  1  0  0  0  0
  4  5  1  6  0  0  0
  4  2  1  0  0  0  0
  6 14  1  6  0  0  0
  6  7  1  0  0  0  0
  6  5  1  0  0  0  0
  7 11  1  6  0  0  0
  7  8  1  0  0  0  0
  8  4  1  0  0  0  0
  8  9  1  1  0  0  0
  9  1  1  0  0  0  0
  9 10  2  0  0  0  0
 12 11  1  0  0  0  0
 13 12  1  0  0  0  0
 13 14  1  0  0  0  0
 15 16  1  0  0  0  0
 16 17  2  0  0  0  0
 18 17  1  0  0  0  0
 18 19  1  0  0  0  0
 20 18  2  0  0  0  0
 21 15  2  0  0  0  0
 21 20  1  0  0  0  0
M  END
>  <Pose>
1

>  <Score>
-8.577

$$$$
