MODEL 1
REMARK VINA RESULT:    -8.577      0.000      0.000
REMARK INTER + INTRA:          -9.518
REMARK INTER:                  -9.079
REMARK INTRA:                  -0.440
REMARK UNBOUND:                -0.440
REMARK  1 active torsions:
REMARK  status: ('A' for Active; 'I' for Inactive)
REMARK    1  A    between atoms: C_5  and  N_8 
ROOT
ATOM      1  N   UNK d   1      20.954  78.976  17.619  0.00  0.00    -0.250 N 
ATOM      2  C   UNK d   1      20.194  77.911  17.029  0.00  0.00     0.263 C 
ATOM      3  O   UNK d   1      18.944  77.790  17.053  0.00  0.00    -0.270 OA
ATOM      4  C   UNK d   1      21.105  76.946  16.372  0.00  0.00     0.259 C 
ATOM      5  O   UNK d   1      20.737  76.671  15.060  0.00  0.00    -0.266 OA
ATOM      6  N   UNK d   1      20.897  77.775  14.349  0.00  0.00    -0.288 N 
ATOM      7  C   UNK d   1      21.837  78.625  14.936  0.00  0.00     0.125 C 
ATOM      8  C   UNK d   1      22.331  77.824  16.142  0.00  0.00     0.144 C 
ATOM      9  C   UNK d   1      22.322  78.648  17.374  0.00  0.00     0.240 C 
ATOM     10  O   UNK d   1      23.287  79.021  18.105  0.00  0.00    -0.272 OA
ATOM     11  C   UNK d   1      22.934  79.163  14.120  0.00  0.00     0.028 C 
ATOM     12  C   UNK d   1      22.957  78.831  12.679  0.00  0.00     0.004 C 
ATOM     13  C   UNK d   1      21.533  78.728  12.180  0.00  0.00     0.022 C 
ATOM     14  C   UNK d   1      20.889  77.608  12.955  0.00  0.00     0.150 C 
ENDROOT
BRANCH   1  15
ATOM     15  C   UNK d   1      20.467  80.128  18.309  0.00  0.00     0.045 A 
ATOM     16  C   UNK d   1      19.891  80.072  19.561  0.00  0.00     0.032 A 
ATOM     17  C   UNK d   1      19.421  81.195  20.222  0.00  0.00     0.026 A 
ATOM     18  C   UNK d   1      19.518  82.439  19.634  0.00  0.00     0.034 A 
ATOM     19 Cl   UNK d   1      18.927  83.868  20.462  0.00  0.00    -0.084 Cl
ATOM     20  C   UNK d   1      20.093  82.507  18.382  0.00  0.00     0.026 A 
ATOM     21  C   UNK d   1      20.560  81.383  17.726  0.00  0.00     0.032 A 
ENDBRANCH   1  15
TORSDOF 1
ENDMDL
