MODEL 1
REMARK VINA RESULT:   -10.227      0.000      0.000
REMARK INTER + INTRA:         -14.770
REMARK INTER:                 -13.814
REMARK INTRA:                  -0.956
REMARK UNBOUND:                -0.956
REMARK  7 active torsions:
REMARK  status: ('A' for Active; 'I' for Inactive)
REMARK    1  A    between atoms: C_3  and  O_30 
REMARK    2  A    between atoms: C_5  and  O_29 
REMARK    3  A    between atoms: C_6  and  C_8 
REMARK    4  A    between atoms: N_9  and  N_10 
REMARK    5  A    between atoms: N_10  and  C_11 
REMARK    6  A    between atoms: C_13  and  N_23 
REMARK    7  A    between atoms: C_15  and  N_17 
ROOT
ATOM      1  C   UNK d   1      20.493  76.427  14.372  0.00  0.00     0.774 A 
ATOM      2  N   UNK d   1      19.880  75.259  14.264  0.00  0.00     0.133 NA
ATOM      3  C   UNK d   1      19.232  74.841  13.163  0.00  0.00     0.756 A 
ATOM      4  N   UNK d   1      19.222  75.687  12.109  0.00  0.00     0.131 NA
ATOM      5  C   UNK d   1      19.835  76.900  12.158  0.00  0.00     0.756 A 
ATOM      6  N   UNK d   1      20.469  77.252  13.304  0.00  0.00     0.133 NA
ENDROOT
BRANCH   1   7
ATOM      7  N   UNK d   1      21.125  76.797  15.591  0.00  0.00    -0.105 N 
ATOM      8  H   UNK d   1      22.000  76.334  15.866  0.00  0.00     0.208 HD
BRANCH   7   9
ATOM      9  N   UNK d   1      20.570  77.770  16.404  0.00  0.00    -0.171 NA
ATOM     10  C   UNK d   1      21.196  78.352  17.368  0.00  0.00     0.153 C 
BRANCH  10  11
ATOM     11  C   UNK d   1      20.570  79.363  18.195  0.00  0.00     0.018 A 
ATOM     12  C   UNK d   1      19.694  78.986  19.212  0.00  0.00     0.080 A 
ATOM     13  C   UNK d   1      19.054  79.895  20.014  0.00  0.00     0.075 A 
ATOM     14  C   UNK d   1      19.251  81.253  19.854  0.00  0.00     0.085 A 
ATOM     15  C   UNK d   1      20.119  81.652  18.850  0.00  0.00     0.045 A 
ATOM     16 Br   UNK d   1      20.418  83.514  18.608  0.00  0.00    -0.048 Br
ATOM     17  C   UNK d   1      20.754  80.720  18.050  0.00  0.00     0.037 A 
BRANCH  12  18
ATOM     18  O   UNK d   1      19.491  77.612  19.381  0.00  0.00    -0.360 OA
ATOM     19  H   UNK d   1      19.018  77.102  18.641  0.00  0.00     0.217 HD
ENDBRANCH  12  18
BRANCH  14  20
ATOM     20  O   UNK d   1      18.596  82.169  20.675  0.00  0.00    -0.359 OA
ATOM     21  H   UNK d   1      18.234  83.053  20.352  0.00  0.00     0.217 HD
ENDBRANCH  14  20
ENDBRANCH  10  11
ENDBRANCH   7   9
ENDBRANCH   1   7
BRANCH   3  22
ATOM     22  N   UNK d   1      18.577  73.564  13.095  0.00  0.00    -0.209 N 
ATOM     23  C   UNK d   1      17.163  73.461  12.867  0.00  0.00     0.167 C 
ATOM     24  C   UNK d   1      16.635  72.113  12.564  0.00  0.00     0.188 C 
ATOM     25  O   UNK d   1      17.491  71.071  12.892  0.00  0.00    -0.388 OA
ATOM     26  C   UNK d   1      18.779  71.283  12.419  0.00  0.00     0.188 C 
ATOM     27  C   UNK d   1      19.374  72.385  13.261  0.00  0.00     0.167 C 
ENDBRANCH   3  22
BRANCH   5  28
ATOM     28  N   UNK d   1      19.803  77.779  11.057  0.00  0.00    -0.209 N 
ATOM     29  C   UNK d   1      20.385  79.094  11.130  0.00  0.00     0.167 C 
ATOM     30  C   UNK d   1      21.337  79.184   9.929  0.00  0.00     0.188 C 
ATOM     31  O   UNK d   1      20.644  78.855   8.782  0.00  0.00    -0.388 OA
ATOM     32  C   UNK d   1      20.330  77.497   8.772  0.00  0.00     0.188 C 
ATOM     33  C   UNK d   1      19.200  77.361   9.816  0.00  0.00     0.167 C 
ENDBRANCH   5  28
TORSDOF 7
ENDMDL
