MODEL 1
REMARK VINA RESULT:   -10.249      0.000      0.000
REMARK INTER + INTRA:         -11.531
REMARK INTER:                 -11.747
REMARK INTRA:                   0.216
REMARK UNBOUND:                 0.216
REMARK  3 active torsions:
REMARK  status: ('A' for Active; 'I' for Inactive)
REMARK    1  A    between atoms: C_7  and  C_9 
REMARK       I    between atoms: C_9  and  N_11 
REMARK    2  A    between atoms: C_14  and  N_19 
REMARK    3  A    between atoms: C_15  and  O_18 
REMARK       I    between atoms: N_22  and  C_25 
ROOT
ATOM      1  C   UNK d   1      22.785  79.806  15.211  0.00  0.00     0.203 C 
ATOM      2  O   UNK d   1      23.062  81.022  15.701  0.00  0.00    -0.170 OA
ATOM      3  N   UNK d   1      22.939  78.799  16.139  0.00  0.00    -0.358 N 
ATOM      4  C   UNK d   1      23.336  79.341  17.469  0.00  0.00     0.127 C 
ATOM      5  C   UNK d   1      22.085  79.645  18.271  0.00  0.00     0.058 C 
ATOM      6  C   UNK d   1      20.978  78.838  17.709  0.00  0.00     0.253 C 
ATOM      7  C   UNK d   1      21.283  77.377  17.777  0.00  0.00     0.153 C 
ATOM      8  C   UNK d   1      21.384  76.897  16.319  0.00  0.00     0.054 C 
ATOM      9  C   UNK d   1      22.759  77.416  15.859  0.00  0.00     0.127 C 
ENDROOT
BRANCH   1  10
ATOM     10  C   UNK d   1      22.390  79.834  13.830  0.00  0.00     0.088 A 
ATOM     11  N   UNK d   1      22.661  80.718  12.867  0.00  0.00    -0.352 N 
ATOM     12  C   UNK d   1      22.045  80.368  11.696  0.00  0.00     0.043 A 
ATOM     13  H   UNK d   1      23.253  81.557  12.916  0.00  0.00     0.166 HD
ATOM     14  C   UNK d   1      21.365  79.225  11.932  0.00  0.00    -0.005 A 
ATOM     15  C   UNK d   1      22.008  80.938  10.453  0.00  0.00     0.032 A 
ATOM     16  C   UNK d   1      20.609  78.585  10.943  0.00  0.00     0.037 A 
ATOM     17  C   UNK d   1      21.563  78.871  13.252  0.00  0.00     0.048 A 
ATOM     18  C   UNK d   1      20.583  79.162   9.715  0.00  0.00     0.035 A 
ATOM     19 Cl   UNK d   1      19.638  78.385   8.441  0.00  0.00    -0.084 Cl
ATOM     20  C   UNK d   1      21.269  80.330   9.449  0.00  0.00     0.026 A 
ENDBRANCH   1  10
BRANCH   6  21
ATOM     21  N   UNK d   1      19.653  79.091  18.180  0.00  0.00     0.098 N 
ATOM     22  C   UNK d   1      18.940  80.121  17.466  0.00  0.00     0.293 C 
ATOM     23  C   UNK d   1      19.579  81.448  17.623  0.00  0.00     0.156 C 
ATOM     24  N   UNK d   1      19.669  81.701  19.066  0.00  0.00    -0.349 N 
ATOM     25  C   UNK d   1      19.118  80.678  19.916  0.00  0.00     0.156 C 
ATOM     26  C   UNK d   1      20.256  82.911  19.543  0.00  0.00     0.215 C 
ATOM     27  C   UNK d   1      19.572  79.283  19.602  0.00  0.00     0.293 C 
ATOM     28  O   UNK d   1      20.339  83.109  20.763  0.00  0.00    -0.274 OA
ATOM     29  C   UNK d   1      20.753  83.906  18.541  0.00  0.00     0.117 C 
ENDBRANCH   6  21
BRANCH   7  30
ATOM     30  O   UNK d   1      20.344  76.634  18.488  0.00  0.00    -0.393 OA
ATOM     31  H   UNK d   1      20.062  75.887  17.866  0.00  0.00     0.210 HD
ENDBRANCH   7  30
TORSDOF 3
ENDMDL
