/Users/jonathanwahrer/Desktop/Msc/3_Semester/Drug_Design_Praktikum/waehrer_HTS_screening/HTS_experiment/out/docking_results/vina_output/6e43/2122_docked.pdbqt
 OpenBabel03212221003D

 29 32  0  0  0  0  0  0  0  0999 V2000
   20.1380   77.2090   17.1020 C   0  0  0  0  0  0  0  0  0  0  0  0
   20.4560   76.8270   18.3510 N   0  0  0  0  0  0  0  0  0  0  0  0
   20.1400   77.7560   19.2070 O   0  0  0  0  0  0  0  0  0  0  0  0
   19.6150   78.7520   18.5220 C   0  0  0  0  0  0  0  0  0  0  0  0
   19.6060   78.4320   17.2250 N   0  0  0  0  0  0  0  0  0  0  0  0
   20.3270   76.3870   15.8750 C   0  0  0  0  0  2  0  0  0  0  0  0
   21.0900   77.1110   14.9000 N   0  0  0  0  0  0  0  0  0  0  0  0
   22.2570   77.7510   15.0200 C   0  0  0  0  0  0  0  0  0  0  0  0
   23.1160   77.9370   16.0930 C   0  0  0  0  0  3  0  0  0  0  0  0
   22.6070   78.3080   13.7870 C   0  0  0  0  0  0  0  0  0  0  0  0
   24.2830   78.6680   15.8880 C   0  0  0  0  0  0  0  0  0  0  0  0
   25.3740   78.9080   17.2430 Cl  0  0  0  0  0  0  0  0  0  0  0  0
   24.6000   79.2050   14.6530 C   0  0  0  0  0  3  0  0  0  0  0  0
   23.7550   79.0210   13.6020 C   0  0  0  0  0  3  0  0  0  0  0  0
   21.6330   77.9720   12.9980 O   0  0  0  0  0  0  0  0  0  0  0  0
   20.7220   77.2660   13.6170 C   0  0  0  0  0  0  0  0  0  0  0  0
   19.6820   76.8240   13.0590 O   0  0  0  0  0  0  0  0  0  0  0  0
   19.1320   80.0010   19.2020 C   0  0  0  0  0  0  0  0  0  0  0  0
   18.2140   79.7250   20.0490 O   0  0  0  0  0  0  0  0  0  0  0  0
   19.6640   81.1960   18.8890 N   0  0  0  0  0  0  0  0  0  0  0  0
   18.8810   81.7860   19.8490 H   0  0  0  0  0  0  0  0  0  0  0  0
   20.2000   82.4320   18.5810 C   0  0  0  0  0  2  0  0  0  0  0  0
   19.8320   83.5260   19.5900 C   0  0  0  0  0  2  0  0  0  0  0  0
   19.8810   83.1290   20.9410 N   0  0  0  0  0  0  0  0  0  0  0  0
   18.8930   83.7850   21.7050 C   0  0  0  0  0  2  0  0  0  0  0  0
   19.2520   83.9170   23.1470 C   0  0  0  0  0  2  0  0  0  0  0  0
   19.8340   82.7500   23.5710 O   0  0  0  0  0  0  0  0  0  0  0  0
   21.0630   82.4930   22.9930 C   0  0  0  0  0  2  0  0  0  0  0  0
   21.1190   82.8260   21.5320 C   0  0  0  0  0  2  0  0  0  0  0  0
  1  5  1  0  0  0  0
  1  2  2  0  0  0  0
  2  3  1  0  0  0  0
  4 18  1  0  0  0  0
  4  3  1  0  0  0  0
  5  4  2  0  0  0  0
  6  1  1  0  0  0  0
  7  8  1  0  0  0  0
  7  6  1  0  0  0  0
  8  9  1  0  0  0  0
 10  8  2  0  0  0  0
 11  9  2  0  0  0  0
 11 12  1  0  0  0  0
 13 11  1  0  0  0  0
 14 10  1  0  0  0  0
 14 13  2  0  0  0  0
 15 16  1  0  0  0  0
 15 10  1  0  0  0  0
 16  7  1  0  0  0  0
 17 16  2  0  0  0  0
 18 19  2  0  0  0  0
 20 18  1  0  0  0  0
 20 21  1  0  0  0  0
 22 20  1  0  0  0  0
 22 23  1  0  0  0  0
 23 24  1  0  0  0  0
 24 29  1  0  0  0  0
 24 25  1  0  0  0  0
 25 26  1  0  0  0  0
 26 27  1  0  0  0  0
 28 27  1  0  0  0  0
 29 28  1  0  0  0  0
M  END
>  <Pose>
1

>  <Score>
-9.576

$$$$
