MODEL 1
REMARK VINA RESULT:    -9.636      0.000      0.000
REMARK INTER + INTRA:         -10.838
REMARK INTER:                 -10.763
REMARK INTRA:                  -0.075
REMARK UNBOUND:                -0.075
REMARK  2 active torsions:
REMARK  status: ('A' for Active; 'I' for Inactive)
REMARK    1  A    between atoms: C_5  and  N_8 
REMARK    2  A    between atoms: C_12  and  C_21 
ROOT
ATOM      1  N   UNK d   1      19.998  80.933  18.979  0.00  0.00    -0.252 N 
ATOM      2  C   UNK d   1      20.522  81.222  17.691  0.00  0.00     0.239 C 
ATOM      3  O   UNK d   1      21.130  82.278  17.373  0.00  0.00    -0.272 OA
ATOM      4  C   UNK d   1      20.250  80.087  16.747  0.00  0.00     0.138 C 
ATOM      5  C   UNK d   1      21.516  79.565  16.154  0.00  0.00     0.142 C 
ATOM      6  O   UNK d   1      21.460  78.165  16.366  0.00  0.00    -0.355 OA
ATOM      7  C   UNK d   1      21.223  78.229  17.763  0.00  0.00     0.089 C 
ATOM      8  C   UNK d   1      19.884  78.959  17.723  0.00  0.00     0.133 C 
ATOM      9  C   UNK d   1      19.521  79.594  18.981  0.00  0.00     0.239 C 
ATOM     10  O   UNK d   1      18.887  79.025  19.906  0.00  0.00    -0.272 OA
ATOM     11  C   UNK d   1      22.332  79.118  18.183  0.00  0.00     0.010 C 
ATOM     12  C   UNK d   1      22.616  79.894  17.116  0.00  0.00     0.016 C 
ATOM     13  C   UNK d   1      21.183  76.917  18.429  0.00  0.00     0.051 C 
ENDROOT
BRANCH   1  14
ATOM     14  C   UNK d   1      19.914  81.768  20.137  0.00  0.00     0.045 A 
ATOM     15  C   UNK d   1      20.858  81.769  21.135  0.00  0.00     0.032 A 
ATOM     16  C   UNK d   1      20.765  82.579  22.253  0.00  0.00     0.026 A 
ATOM     17  C   UNK d   1      19.694  83.428  22.400  0.00  0.00     0.034 A 
ATOM     18 Cl   UNK d   1      19.532  84.476  23.812  0.00  0.00    -0.084 Cl
ATOM     19  C   UNK d   1      18.739  83.436  21.408  0.00  0.00     0.026 A 
ATOM     20  C   UNK d   1      18.835  82.620  20.283  0.00  0.00     0.032 A 
ENDBRANCH   1  14
BRANCH   5  21
ATOM     21  C   UNK d   1      21.802  79.929  14.760  0.00  0.00     0.298 C 
ATOM     22  O   UNK d   1      23.096  80.451  14.695  0.00  0.00    -0.356 OA
ATOM     23  C   UNK d   1      23.969  79.409  14.505  0.00  0.00     0.197 C 
ATOM     24  C   UNK d   1      23.118  78.387  13.799  0.00  0.00     0.197 C 
ATOM     25  O   UNK d   1      21.809  78.780  13.969  0.00  0.00    -0.356 OA
ENDBRANCH   5  21
TORSDOF 2
ENDMDL
