MODEL 1
REMARK VINA RESULT:   -12.116      0.000      0.000
REMARK INTER + INTRA:         -15.511
REMARK INTER:                 -14.949
REMARK INTRA:                  -0.562
REMARK UNBOUND:                -0.562
REMARK  4 active torsions:
REMARK  status: ('A' for Active; 'I' for Inactive)
REMARK    1  A    between atoms: C_5  and  N_8 
REMARK       I    between atoms: N_8  and  C_9 
REMARK       I    between atoms: C_9  and  N_11 
REMARK    2  A    between atoms: N_11  and  N_12 
REMARK       I    between atoms: N_12  and  C_13 
REMARK    3  A    between atoms: C_13  and  C_15 
REMARK    4  A    between atoms: N_17  and  C_26 
ROOT
ATOM      1  C   UNK d   1      20.317  76.530  14.436  0.00  0.00     0.244 A 
ATOM      2  N   UNK d   1      19.772  75.338  14.487  0.00  0.00    -0.127 NA
ATOM      3  N   UNK d   1      19.338  74.905  13.260  0.00  0.00    -0.058 N 
ATOM      4  C   UNK d   1      19.654  75.954  12.343  0.00  0.00     0.756 A 
ATOM      5  N   UNK d   1      19.478  76.091  11.063  0.00  0.00     0.020 NA
ATOM      6  N   UNK d   1      19.890  77.260  10.370  0.00  0.00    -0.258 N 
ATOM      7  C   UNK d   1      20.511  78.336  11.030  0.00  0.00     0.110 A 
ATOM      8  C   UNK d   1      20.893  79.438  10.398  0.00  0.00     0.050 C 
ATOM      9  C   UNK d   1      20.720  78.202  12.467  0.00  0.00     0.295 A 
ATOM     10  O   UNK d   1      21.265  79.134  13.066  0.00  0.00    -0.265 OA
ATOM     11  N   UNK d   1      20.280  76.995  13.092  0.00  0.00    -0.080 N 
ATOM     12  H   UNK d   1      19.701  77.267   9.343  0.00  0.00     0.190 HD
ENDROOT
BRANCH   1  13
ATOM     13  C   UNK d   1      20.861  77.236  15.579  0.00  0.00     0.308 C 
ATOM     14  N   UNK d   1      19.986  77.923  16.453  0.00  0.00    -0.259 N 
ATOM     15  H   UNK d   1      18.962  77.925  16.331  0.00  0.00     0.190 HD
ATOM     16  O   UNK d   1      22.112  77.256  15.810  0.00  0.00    -0.262 OA
BRANCH  14  17
ATOM     17  N   UNK d   1      20.530  78.617  17.528  0.00  0.00    -0.248 N 
ATOM     18  C   UNK d   1      20.152  79.893  17.988  0.00  0.00     0.339 C 
ATOM     19  N   UNK d   1      20.746  80.540  19.087  0.00  0.00    -0.308 N 
ATOM     20  O   UNK d   1      19.224  80.498  17.386  0.00  0.00    -0.245 OA
ATOM     21  H   UNK d   1      21.527  80.065  19.604  0.00  0.00     0.170 HD
ATOM     22  H   UNK d   1      21.323  78.092  18.022  0.00  0.00     0.192 HD
BRANCH  19  23
ATOM     23  C   UNK d   1      20.379  81.819  19.591  0.00  0.00     0.036 A 
ATOM     24  C   UNK d   1      20.040  81.986  20.932  0.00  0.00     0.031 A 
ATOM     25  C   UNK d   1      19.681  83.212  21.447  0.00  0.00     0.026 A 
ATOM     26  C   UNK d   1      19.670  84.274  20.580  0.00  0.00     0.034 A 
ATOM     27 Cl   UNK d   1      19.230  85.891  21.143  0.00  0.00    -0.084 Cl
ATOM     28  C   UNK d   1      19.997  84.155  19.255  0.00  0.00     0.026 A 
ATOM     29  C   UNK d   1      20.353  82.925  18.753  0.00  0.00     0.031 A 
ENDBRANCH  19  23
ENDBRANCH  14  17
ENDBRANCH   1  13
BRANCH   3  30
ATOM     30  C   UNK d   1      18.662  73.681  12.986  0.00  0.00     0.077 A 
ATOM     31  C   UNK d   1      17.298  73.633  12.836  0.00  0.00     0.033 A 
ATOM     32  C   UNK d   1      16.596  72.476  12.528  0.00  0.00     0.009 A 
ATOM     33  C   UNK d   1      17.273  71.286  12.356  0.00  0.00    -0.062 A 
ATOM     34  C   UNK d   1      18.644  71.308  12.506  0.00  0.00     0.009 A 
ATOM     35  C   UNK d   1      16.561  70.025  11.987  0.00  0.00     0.048 C 
ATOM     36  C   UNK d   1      19.323  72.485  12.816  0.00  0.00     0.033 A 
ENDBRANCH   3  30
TORSDOF 4
ENDMDL
