/Users/jonathanwahrer/Desktop/Msc/3_Semester/Drug_Design_Praktikum/waehrer_HTS_screening/HTS_experiment/out/docking_results/vina_output/6e43/2136_docked.pdbqt
 OpenBabel03212221013D

 33 37  0  0  1  0  0  0  0  0999 V2000
   24.0420   80.2840    8.8830 Cl  0  0  0  0  0  0  0  0  0  0  0  0
   22.6270   80.2020    9.9100 C   0  0  0  0  0  0  0  0  0  0  0  0
   22.5940   79.4670   11.0770 C   0  0  0  0  0  0  0  0  0  0  0  0
   21.4520   79.4230   11.8700 C   0  0  0  0  0  0  0  0  0  0  0  0
   20.3740   80.1420   11.4330 C   0  0  0  0  0  3  0  0  0  0  0  0
   20.3870   80.8800   10.2740 C   0  0  0  0  0  3  0  0  0  0  0  0
   21.5080   80.9210    9.5000 C   0  0  0  0  0  3  0  0  0  0  0  0
   21.7350   78.5660   13.0280 C   0  0  2  0  0  0  0  0  0  0  0  0
   20.8240   77.4400   13.1210 N   0  0  0  0  0  0  0  0  0  0  0  0
   21.0460   76.9850   14.4960 C   0  0  1  0  0  3  0  0  0  0  0  0
   21.2860   78.1960   15.3140 C   0  0  2  0  0  3  0  0  0  0  0  0
   21.4690   79.2960   14.3180 C   0  0  1  0  0  3  0  0  0  0  0  0
   22.5930   80.1330   14.7480 C   0  0  0  0  0  0  0  0  0  0  0  0
   22.8360   81.2740   14.2810 O   0  0  0  0  0  0  0  0  0  0  0  0
   23.2910   79.4010   15.7470 N   0  0  0  0  0  0  0  0  0  0  0  0
   22.6390   78.1610   15.9860 C   0  0  0  0  0  0  0  0  0  0  0  0
   23.0520   77.1620   16.6340 O   0  0  0  0  0  0  0  0  0  0  0  0
   23.1210   78.0950   12.8750 C   0  0  0  0  0  0  0  0  0  0  0  0
   23.7740   77.3490   13.6190 O   0  0  0  0  0  0  0  0  0  0  0  0
   23.6080   78.6710   11.6720 N   0  0  0  0  0  0  0  0  0  0  0  0
   21.0670   76.6790   12.4290 H   0  0  0  0  0  0  0  0  0  0  0  0
   24.5710   78.5440   11.2580 H   0  0  0  0  0  0  0  0  0  0  0  0
   19.8720   76.2030   15.0050 C   0  0  0  0  0  2  0  0  0  0  0  0
   19.4840   75.0600   14.1620 C   0  0  0  0  0  0  0  0  0  0  0  0
   20.2530   73.9020   14.2520 C   0  0  0  0  0  3  0  0  0  0  0  0
   19.9040   72.8130   13.4950 C   0  0  0  0  0  3  0  0  0  0  0  0
   18.8240   72.8090   12.6460 C   0  0  0  0  0  3  0  0  0  0  0  0
   18.0890   73.9730   12.5850 C   0  0  0  0  0  3  0  0  0  0  0  0
   18.3950   75.0960   13.3250 C   0  0  0  0  0  3  0  0  0  0  0  0
   24.5000   79.8680   16.4210 C   0  0  0  0  0  2  0  0  0  0  0  0
   25.6990   79.3090   15.6700 C   0  0  0  0  0  2  0  0  0  0  0  0
   26.7350   79.0140   16.5410 O   0  0  0  0  0  0  0  0  0  0  0  0
   26.2150   78.6620   17.7720 C   0  0  0  0  0  1  0  0  0  0  0  0
  1  2  1  0  0  0  0
  2  3  1  0  0  0  0
  3 20  1  0  0  0  0
  3  4  2  0  0  0  0
  5  4  1  0  0  0  0
  6  5  2  0  0  0  0
  7  2  2  0  0  0  0
  7  6  1  0  0  0  0
  8  4  1  6  0  0  0
  8  9  1  0  0  0  0
  8 12  1  0  0  0  0
  9 10  1  0  0  0  0
 10 23  1  1  0  0  0
 10 11  1  0  0  0  0
 11 16  1  6  0  0  0
 12 13  1  1  0  0  0
 12 11  1  0  0  0  0
 13 15  1  0  0  0  0
 14 13  2  0  0  0  0
 15 16  1  0  0  0  0
 15 30  1  0  0  0  0
 16 17  2  0  0  0  0
 18  8  1  0  0  0  0
 18 19  2  0  0  0  0
 20 18  1  0  0  0  0
 21  9  1  0  0  0  0
 22 20  1  0  0  0  0
 24 25  1  0  0  0  0
 24 23  1  0  0  0  0
 26 25  2  0  0  0  0
 27 26  1  0  0  0  0
 28 27  2  0  0  0  0
 28 29  1  0  0  0  0
 29 24  2  0  0  0  0
 31 30  1  0  0  0  0
 31 32  1  0  0  0  0
 32 33  1  0  0  0  0
M  END
>  <Pose>
1

>  <Score>
-8.250

$$$$
