MODEL 1
REMARK VINA RESULT:    -8.250      0.000      0.000
REMARK INTER + INTRA:         -11.508
REMARK INTER:                 -10.662
REMARK INTRA:                  -0.846
REMARK UNBOUND:                -0.846
REMARK  5 active torsions:
REMARK  status: ('A' for Active; 'I' for Inactive)
REMARK    1  A    between atoms: C_10  and  C_22 
REMARK    2  A    between atoms: N_15  and  C_18 
REMARK    3  A    between atoms: C_18  and  C_19 
REMARK    4  A    between atoms: C_19  and  O_20 
REMARK    5  A    between atoms: C_22  and  C_23 
ROOT
ATOM      1 Cl   UNK d   1      24.042  80.284   8.883  0.00  0.00    -0.082 Cl
ATOM      2  C   UNK d   1      22.627  80.202   9.910  0.00  0.00     0.061 A 
ATOM      3  C   UNK d   1      22.594  79.467  11.077  0.00  0.00     0.066 A 
ATOM      4  C   UNK d   1      21.452  79.423  11.870  0.00  0.00     0.019 A 
ATOM      5  C   UNK d   1      20.374  80.142  11.433  0.00  0.00     0.013 A 
ATOM      6  C   UNK d   1      20.387  80.880  10.274  0.00  0.00     0.002 A 
ATOM      7  C   UNK d   1      21.508  80.921   9.500  0.00  0.00     0.026 A 
ATOM      8  C   UNK d   1      21.735  78.566  13.028  0.00  0.00     0.279 A 
ATOM      9  N   UNK d   1      20.824  77.440  13.121  0.00  0.00     0.114 N 
ATOM     10  C   UNK d   1      21.046  76.985  14.496  0.00  0.00     0.240 C 
ATOM     11  C   UNK d   1      21.286  78.196  15.314  0.00  0.00     0.128 C 
ATOM     12  C   UNK d   1      21.469  79.296  14.318  0.00  0.00     0.147 C 
ATOM     13  C   UNK d   1      22.593  80.133  14.748  0.00  0.00     0.235 C 
ATOM     14  O   UNK d   1      22.836  81.274  14.281  0.00  0.00    -0.272 OA
ATOM     15  N   UNK d   1      23.291  79.401  15.747  0.00  0.00    -0.286 N 
ATOM     16  C   UNK d   1      22.639  78.161  15.986  0.00  0.00     0.233 C 
ATOM     17  O   UNK d   1      23.052  77.162  16.634  0.00  0.00    -0.272 OA
ATOM     18  C   UNK d   1      23.121  78.095  12.875  0.00  0.00     0.267 A 
ATOM     19  O   UNK d   1      23.774  77.349  13.619  0.00  0.00    -0.270 OA
ATOM     20  N   UNK d   1      23.608  78.671  11.672  0.00  0.00    -0.323 N 
ATOM     21  H   UNK d   1      21.067  76.679  12.429  0.00  0.00     0.318 HD
ATOM     22  H   UNK d   1      24.571  78.544  11.258  0.00  0.00     0.169 HD
ENDROOT
BRANCH  10  23
ATOM     23  C   UNK d   1      19.872  76.203  15.005  0.00  0.00     0.075 C 
BRANCH  23  24
ATOM     24  C   UNK d   1      19.484  75.060  14.162  0.00  0.00    -0.056 A 
ATOM     25  C   UNK d   1      20.253  73.902  14.252  0.00  0.00     0.007 A 
ATOM     26  C   UNK d   1      19.904  72.813  13.495  0.00  0.00     0.001 A 
ATOM     27  C   UNK d   1      18.824  72.809  12.646  0.00  0.00     0.000 A 
ATOM     28  C   UNK d   1      18.089  73.973  12.585  0.00  0.00     0.001 A 
ATOM     29  C   UNK d   1      18.395  75.096  13.325  0.00  0.00     0.007 A 
ENDBRANCH  23  24
ENDBRANCH  10  23
BRANCH  15  30
ATOM     30  C   UNK d   1      24.500  79.868  16.421  0.00  0.00     0.161 C 
BRANCH  30  31
ATOM     31  C   UNK d   1      25.699  79.309  15.670  0.00  0.00     0.187 C 
BRANCH  31  32
ATOM     32  O   UNK d   1      26.735  79.014  16.541  0.00  0.00    -0.394 OA
ATOM     33  C   UNK d   1      26.215  78.662  17.772  0.00  0.00     0.201 C 
ENDBRANCH  31  32
ENDBRANCH  30  31
ENDBRANCH  15  30
TORSDOF 5
ENDMDL
