MODEL 1
REMARK VINA RESULT:    -9.324      0.000      0.000
REMARK INTER + INTRA:         -11.594
REMARK INTER:                 -11.232
REMARK INTRA:                  -0.362
REMARK UNBOUND:                -0.362
REMARK  4 active torsions:
REMARK  status: ('A' for Active; 'I' for Inactive)
REMARK    1  A    between atoms: C_5  and  C_8 
REMARK    2  A    between atoms: C_8  and  N_9 
REMARK    3  A    between atoms: N_12  and  C_15 
REMARK    4  A    between atoms: C_17  and  N_24 
ROOT
ATOM      1  N   UNK d   1      20.843  79.561  18.503  0.00  0.00    -0.405 N 
ATOM      2  C   UNK d   1      19.861  78.607  18.831  0.00  0.00     0.137 C 
ATOM      3  C   UNK d   1      19.610  77.526  17.815  0.00  0.00     0.144 C 
ATOM      4  N   UNK d   1      20.842  77.448  16.988  0.00  0.00    -0.360 N 
ATOM      5  C   UNK d   1      22.036  77.606  17.729  0.00  0.00     0.144 C 
ATOM      6  C   UNK d   1      22.136  79.062  18.128  0.00  0.00     0.137 C 
ENDROOT
BRANCH   4   7
ATOM      7  C   UNK d   1      20.663  77.201  15.611  0.00  0.00     0.176 A 
ATOM      8  N   UNK d   1      19.972  76.089  15.218  0.00  0.00    -0.043 NA
ATOM      9  C   UNK d   1      19.765  75.724  13.959  0.00  0.00     0.724 A 
ATOM     10  N   UNK d   1      20.264  76.495  12.979  0.00  0.00    -0.041 NA
ATOM     11  C   UNK d   1      20.955  77.609  13.306  0.00  0.00     0.200 A 
ATOM     12  N   UNK d   1      21.547  78.558  12.557  0.00  0.00    -0.222 NA
ATOM     13  C   UNK d   1      21.177  77.998  14.628  0.00  0.00     0.129 A 
ATOM     14  C   UNK d   1      22.096  79.472  13.359  0.00  0.00     0.210 A 
ATOM     15  N   UNK d   1      21.877  79.144  14.644  0.00  0.00    -0.344 N 
ATOM     16  H   UNK d   1      22.201  79.712  15.456  0.00  0.00     0.167 HD
BRANCH   9  17
ATOM     17  N   UNK d   1      19.024  74.534  13.615  0.00  0.00    -0.231 N 
ATOM     18  H   UNK d   1      18.945  73.734  14.258  0.00  0.00     0.174 HD
ATOM     19  H   UNK d   1      18.551  74.471  12.692  0.00  0.00     0.174 HD
ENDBRANCH   9  17
ENDBRANCH   4   7
BRANCH   1  20
ATOM     20  C   UNK d   1      20.426  80.751  17.867  0.00  0.00     0.155 C 
BRANCH  20  21
ATOM     21  C   UNK d   1      20.093  81.873  18.742  0.00  0.00    -0.041 A 
ATOM     22  C   UNK d   1      20.362  83.164  18.362  0.00  0.00     0.010 A 
ATOM     23  C   UNK d   1      20.071  84.274  19.146  0.00  0.00     0.024 A 
ATOM     24  C   UNK d   1      19.480  84.041  20.370  0.00  0.00     0.034 A 
ATOM     25 Cl   UNK d   1      19.084  85.391  21.414  0.00  0.00    -0.084 Cl
ATOM     26  C   UNK d   1      19.210  82.748  20.755  0.00  0.00     0.024 A 
ATOM     27  C   UNK d   1      19.505  81.663  19.964  0.00  0.00     0.010 A 
ENDBRANCH  20  21
ENDBRANCH   1  20
TORSDOF 4
ENDMDL
