/Users/jonathanwahrer/Desktop/Msc/3_Semester/Drug_Design_Praktikum/waehrer_HTS_screening/HTS_experiment/out/docking_results/vina_output/6e43/2149_docked.pdbqt
 OpenBabel03212221013D

 24 27  0  0  0  0  0  0  0  0999 V2000
   22.8520   78.0790   15.1490 N   0  0  0  0  0  0  0  0  0  0  0  0
   23.4100   79.0260   14.4200 N   0  0  0  0  0  0  0  0  0  0  0  0
   22.7930   79.1620   13.2600 N   0  0  0  0  0  0  0  0  0  0  0  0
   21.7930   78.2820   13.2070 C   0  0  0  0  0  0  0  0  0  0  0  0
   21.8280   77.5960   14.4010 C   0  0  0  0  0  0  0  0  0  0  0  0
   20.9100   76.6390   14.6000 N   0  0  0  0  0  0  0  0  0  0  0  0
   19.9860   76.3610   13.6640 C   0  0  0  0  0  3  0  0  0  0  0  0
   19.9720   77.0450   12.5060 N   0  0  0  0  0  0  0  0  0  0  0  0
   20.8590   78.0310   12.2090 C   0  0  0  0  0  0  0  0  0  0  0  0
   23.2240   77.6140   16.4840 C   0  0  0  0  0  2  0  0  0  0  0  0
   22.1790   78.0820   17.4310 C   0  0  0  0  0  0  0  0  0  0  0  0
   22.0600   79.4290   17.6320 C   0  0  0  0  0  3  0  0  0  0  0  0
   21.1130   79.9510   18.4980 C   0  0  0  0  0  3  0  0  0  0  0  0
   20.2750   79.0960   19.1690 C   0  0  0  0  0  0  0  0  0  0  0  0
   19.0640   79.7380   20.2740 Cl  0  0  0  0  0  0  0  0  0  0  0  0
   20.4030   77.7380   18.9590 C   0  0  0  0  0  3  0  0  0  0  0  0
   21.3420   77.2220   18.1020 C   0  0  0  0  0  3  0  0  0  0  0  0
   20.8480   78.7480   11.0000 N   0  0  0  0  0  0  0  0  0  0  0  0
   21.7370   78.5690    9.8840 C   0  0  0  0  0  2  0  0  0  0  0  0
   20.9260   78.2190    8.6920 C   0  0  0  0  0  2  0  0  0  0  0  0
   19.5510   78.4870    8.7240 N   0  0  0  0  0  0  0  0  0  0  0  0
   19.0250   79.4090    9.6370 C   0  0  0  0  0  2  0  0  0  0  0  0
   18.8210   77.2360    8.8280 C   0  0  0  0  0  1  0  0  0  0  0  0
   19.8670   79.7860   10.7980 C   0  0  0  0  0  2  0  0  0  0  0  0
  1 10  1  0  0  0  0
  2  1  1  0  0  0  0
  3  2  2  0  0  0  0
  4  3  1  0  0  0  0
  4  5  1  0  0  0  0
  5  6  2  0  0  0  0
  5  1  1  0  0  0  0
  7  6  1  0  0  0  0
  8  7  2  0  0  0  0
  9  8  1  0  0  0  0
  9  4  2  0  0  0  0
 10 11  1  0  0  0  0
 11 12  2  0  0  0  0
 11 17  1  0  0  0  0
 12 13  1  0  0  0  0
 13 14  2  0  0  0  0
 14 15  1  0  0  0  0
 16 14  1  0  0  0  0
 17 16  2  0  0  0  0
 18  9  1  0  0  0  0
 19 18  1  0  0  0  0
 20 21  1  0  0  0  0
 20 19  1  0  0  0  0
 21 23  1  0  0  0  0
 21 22  1  0  0  0  0
 22 24  1  0  0  0  0
 24 18  1  0  0  0  0
M  END
>  <Pose>
1

>  <Score>
-8.826

$$$$
