MODEL 1
REMARK VINA RESULT:    -9.735      0.000      0.000
REMARK INTER + INTRA:         -11.370
REMARK INTER:                 -10.874
REMARK INTRA:                  -0.497
REMARK UNBOUND:                -0.497
REMARK  2 active torsions:
REMARK  status: ('A' for Active; 'I' for Inactive)
REMARK    1  A    between atoms: C_10  and  N_11 
REMARK    2  A    between atoms: N_14  and  C_17 
ROOT
ATOM      1  N   UNK d   1      21.029  78.719  10.851  0.00  0.00    -0.384 N 
ATOM      2  C   UNK d   1      20.014  77.769  11.238  0.00  0.00     0.142 C 
ATOM      3  C   UNK d   1      19.042  77.628  10.095  0.00  0.00     0.144 C 
ATOM      4  N   UNK d   1      19.689  77.504   8.804  0.00  0.00    -0.362 N 
ATOM      5  C   UNK d   1      20.733  78.447   8.454  0.00  0.00     0.144 C 
ATOM      6  C   UNK d   1      21.714  78.517   9.595  0.00  0.00     0.142 C 
ENDROOT
BRANCH   1   7
ATOM      7  C   UNK d   1      21.301  79.798  11.736  0.00  0.00     0.134 C 
ATOM      8  C   UNK d   1      22.101  79.737  12.775  0.00  0.00     0.124 A 
ATOM      9  N   UNK d   1      22.802  78.552  13.139  0.00  0.00    -0.340 N 
ATOM     10  N   UNK d   1      22.291  80.887  13.585  0.00  0.00    -0.308 N 
ATOM     11  C   UNK d   1      23.674  78.451  14.255  0.00  0.00     0.049 A 
ATOM     12  H   UNK d   1      22.653  77.717  12.535  0.00  0.00     0.167 HD
ATOM     13  C   UNK d   1      23.863  79.565  15.048  0.00  0.00     0.060 A 
ATOM     14  C   UNK d   1      24.354  77.306  14.611  0.00  0.00     0.032 A 
ATOM     15  C   UNK d   1      24.695  79.527  16.141  0.00  0.00     0.043 A 
ATOM     16  C   UNK d   1      23.151  80.809  14.697  0.00  0.00     0.259 A 
ATOM     17  C   UNK d   1      25.367  78.374  16.481  0.00  0.00     0.035 A 
ATOM     18 Cl   UNK d   1      26.427  78.367  17.894  0.00  0.00    -0.084 Cl
ATOM     19  C   UNK d   1      25.190  77.252  15.702  0.00  0.00     0.026 A 
ATOM     20  O   UNK d   1      23.368  81.800  15.468  0.00  0.00    -0.267 OA
ATOM     21  H   UNK d   1      21.811  81.794  13.383  0.00  0.00     0.170 HD
ENDBRANCH   1   7
BRANCH   4  22
ATOM     22  C   UNK d   1      19.294  76.467   7.904  0.00  0.00     0.142 A 
ATOM     23  N   UNK d   1      19.962  75.297   7.927  0.00  0.00    -0.224 NA
ATOM     24  C   UNK d   1      19.618  74.281   7.087  0.00  0.00     0.237 A 
ATOM     25  N   UNK d   1      18.599  74.426   6.210  0.00  0.00    -0.222 NA
ATOM     26  C   UNK d   1      17.899  75.563   6.141  0.00  0.00     0.162 A 
ATOM     27  N   UNK d   1      16.864  75.967   5.382  0.00  0.00    -0.256 N 
ATOM     28  C   UNK d   1      18.264  76.593   7.009  0.00  0.00     0.076 A 
ATOM     29  N   UNK d   1      16.570  77.204   5.742  0.00  0.00    -0.182 NA
ATOM     30  C   UNK d   1      16.169  75.202   4.342  0.00  0.00     0.182 C 
ATOM     31  C   UNK d   1      17.409  77.614   6.735  0.00  0.00     0.158 A 
ENDBRANCH   4  22
TORSDOF 2
ENDMDL
