/Users/jonathanwahrer/Desktop/Msc/3_Semester/Drug_Design_Praktikum/waehrer_HTS_screening/HTS_experiment/out/docking_results/vina_output/6e43/2184_docked.pdbqt
 OpenBabel03212221023D

 29 32  0  0  0  0  0  0  0  0999 V2000
   21.0710   77.1100   16.8130 N   0  0  0  0  0  4  0  0  0  0  0  0
   19.9790   77.5450   17.5390 C   0  0  0  0  0  2  0  0  0  0  0  0
   20.4230   78.0330   18.9610 C   0  0  0  0  0  2  0  0  0  0  0  0
   21.1350   79.3290   18.5260 N   0  0  0  0  0  0  0  0  0  0  0  0
   22.2960   79.0660   17.8270 C   0  0  0  0  0  2  0  0  0  0  0  0
   22.2980   77.5480   17.5400 C   0  0  0  0  0  2  0  0  0  0  0  0
   21.1310   76.0480   16.9330 H   0  0  0  0  0  0  0  0  0  0  0  0
   21.2940   77.3520   15.4550 C   0  0  0  0  0  2  0  0  0  0  0  0
   20.4450   76.7770   14.3990 C   0  0  0  0  0  0  0  0  0  0  0  0
   20.6170   77.4260   13.1350 C   0  0  0  0  0  0  0  0  0  0  0  0
   21.4030   78.5210   13.0490 C   0  0  0  0  0  3  0  0  0  0  0  0
   19.9570   76.9410   12.0400 C   0  0  0  0  0  0  0  0  0  0  0  0
   21.5680   79.1810   11.8610 C   0  0  0  0  0  0  0  0  0  0  0  0
   22.5270   80.6550   11.6820 Cl  0  0  0  0  0  0  0  0  0  0  0  0
   20.9240   78.7250   10.7060 C   0  0  0  0  0  0  0  0  0  0  0  0
   20.1280   77.6190   10.8090 C   0  0  0  0  0  3  0  0  0  0  0  0
   21.0910   79.3650    9.4570 O   0  0  0  0  0  1  0  0  0  0  0  0
   19.1710   75.9040   12.0900 O   0  0  0  0  0  0  0  0  0  0  0  0
   18.9790   75.2690   13.2410 C   0  0  0  0  0  0  0  0  0  0  0  0
   18.2270   74.2870   13.2660 O   0  0  0  0  0  0  0  0  0  0  0  0
   19.6200   75.7060   14.4180 C   0  0  0  0  0  3  0  0  0  0  0  0
   20.4070   80.4870   18.8760 C   0  0  0  0  0  0  0  0  0  0  0  0
   19.7160   80.6900   20.0200 C   0  0  0  0  0  3  0  0  0  0  0  0
   19.2280   81.9770   20.3840 C   0  0  0  0  0  3  0  0  0  0  0  0
   19.4360   83.0730   19.5900 C   0  0  0  0  0  0  0  0  0  0  0  0
   20.1390   82.8740   18.4060 C   0  0  0  0  0  3  0  0  0  0  0  0
   20.6070   81.6160   18.0580 C   0  0  0  0  0  3  0  0  0  0  0  0
   18.9380   84.3080   19.9870 O   0  0  0  0  0  0  0  0  0  0  0  0
   18.1470   84.4370   21.1790 C   0  0  0  0  0  1  0  0  0  0  0  0
  1  7  1  0  0  0  0
  1  2  1  0  0  0  0
  1  6  1  0  0  0  0
  2  3  1  0  0  0  0
  4 22  1  0  0  0  0
  4  3  1  0  0  0  0
  5  4  1  0  0  0  0
  6  5  1  0  0  0  0
  8  1  1  0  0  0  0
  9 21  2  0  0  0  0
  9  8  1  0  0  0  0
 10  9  1  0  0  0  0
 11 10  1  0  0  0  0
 12 18  1  0  0  0  0
 12 10  2  0  0  0  0
 13 11  2  0  0  0  0
 14 13  1  0  0  0  0
 15 16  2  0  0  0  0
 15 13  1  0  0  0  0
 16 12  1  0  0  0  0
 17 15  1  0  0  0  0
 18 19  1  0  0  0  0
 19 20  2  0  0  0  0
 19 21  1  0  0  0  0
 22 23  1  0  0  0  0
 23 24  2  0  0  0  0
 25 28  1  0  0  0  0
 25 24  1  0  0  0  0
 26 25  2  0  0  0  0
 27 26  1  0  0  0  0
 27 22  2  0  0  0  0
 28 29  1  0  0  0  0
M  END
>  <Pose>
1

>  <Score>
-10.572

$$$$
