MODEL 1
REMARK VINA RESULT:   -10.572      0.000      0.000
REMARK INTER + INTRA:         -13.681
REMARK INTER:                 -13.045
REMARK INTRA:                  -0.636
REMARK UNBOUND:                -0.636
REMARK  4 active torsions:
REMARK  status: ('A' for Active; 'I' for Inactive)
REMARK    1  A    between atoms: C_13  and  C_14 
REMARK    2  A    between atoms: C_14  and  N_15 
REMARK    3  A    between atoms: N_18  and  C_21 
REMARK    4  A    between atoms: C_24  and  O_27 
ROOT
ATOM      1  N   UNK d   1      21.071  77.110  16.813  0.00  0.00    -0.064 N 
ATOM      2  C   UNK d   1      19.979  77.545  17.539  0.00  0.00     0.255 C 
ATOM      3  C   UNK d   1      20.423  78.033  18.961  0.00  0.00     0.150 C 
ATOM      4  N   UNK d   1      21.135  79.329  18.526  0.00  0.00    -0.378 N 
ATOM      5  C   UNK d   1      22.296  79.066  17.827  0.00  0.00     0.150 C 
ATOM      6  C   UNK d   1      22.298  77.548  17.540  0.00  0.00     0.255 C 
ATOM      7  H   UNK d   1      21.131  76.048  16.933  0.00  0.00     0.280 HD
ENDROOT
BRANCH   1   8
ATOM      8  C   UNK d   1      21.294  77.352  15.455  0.00  0.00     0.274 C 
BRANCH   8   9
ATOM      9  C   UNK d   1      20.445  76.777  14.399  0.00  0.00    -0.014 A 
ATOM     10  C   UNK d   1      20.617  77.426  13.135  0.00  0.00     0.008 A 
ATOM     11  C   UNK d   1      21.403  78.521  13.049  0.00  0.00     0.041 A 
ATOM     12  C   UNK d   1      19.957  76.941  12.040  0.00  0.00     0.093 A 
ATOM     13  C   UNK d   1      21.568  79.181  11.861  0.00  0.00     0.071 A 
ATOM     14 Cl   UNK d   1      22.527  80.655  11.682  0.00  0.00    -0.081 Cl
ATOM     15  C   UNK d   1      20.924  78.725  10.706  0.00  0.00     0.131 A 
ATOM     16  C   UNK d   1      20.128  77.619  10.809  0.00  0.00     0.080 A 
ATOM     17  O   UNK d   1      21.091  79.365   9.457  0.00  0.00    -0.190 OA
ATOM     18  O   UNK d   1      19.171  75.904  12.090  0.00  0.00    -0.275 OA
ATOM     19  C   UNK d   1      18.979  75.269  13.241  0.00  0.00     0.288 A 
ATOM     20  O   UNK d   1      18.227  74.287  13.266  0.00  0.00    -0.260 OA
ATOM     21  C   UNK d   1      19.620  75.706  14.418  0.00  0.00     0.092 A 
ENDBRANCH   8   9
ENDBRANCH   1   8
BRANCH   4  22
ATOM     22  C   UNK d   1      20.407  80.487  18.876  0.00  0.00     0.030 A 
ATOM     23  C   UNK d   1      19.716  80.690  20.020  0.00  0.00     0.032 A 
ATOM     24  C   UNK d   1      19.228  81.977  20.384  0.00  0.00     0.039 A 
ATOM     25  C   UNK d   1      19.436  83.073  19.590  0.00  0.00     0.068 A 
ATOM     26  C   UNK d   1      20.139  82.874  18.406  0.00  0.00     0.039 A 
ATOM     27  C   UNK d   1      20.607  81.616  18.058  0.00  0.00     0.032 A 
BRANCH  25  28
ATOM     28  O   UNK d   1      18.938  84.308  19.987  0.00  0.00    -0.356 OA
ATOM     29  C   UNK d   1      18.147  84.437  21.179  0.00  0.00     0.210 C 
ENDBRANCH  25  28
ENDBRANCH   4  22
TORSDOF 4
ENDMDL
