/Users/jonathanwahrer/Desktop/Msc/3_Semester/Drug_Design_Praktikum/waehrer_HTS_screening/HTS_experiment/out/docking_results/vina_output/6e43/2195_docked.pdbqt
 OpenBabel03212221023D

 29 32  0  0  1  0  0  0  0  0999 V2000
   21.2980   80.0580   16.5560 C   0  0  0  0  0  0  0  0  0  0  0  0
   20.9970   80.9550   17.4920 N   0  0  0  0  0  0  0  0  0  0  0  0
   20.0190   80.7450   18.3890 C   0  0  0  0  0  0  0  0  0  0  0  0
   19.5170   81.4750   19.4240 N   0  0  0  0  0  0  0  0  0  0  0  0
   18.5520   80.7530   19.9540 N   0  0  0  0  0  0  0  0  0  0  0  0
   18.4060   79.6040   19.3220 N   0  0  0  0  0  0  0  0  0  0  0  0
   19.3040   79.5560   18.3320 C   0  0  0  0  0  0  0  0  0  0  0  0
   19.6070   78.6130   17.3650 C   0  0  0  0  0  0  0  0  0  0  0  0
   20.5990   78.9190   16.5180 N   0  0  0  0  0  0  0  0  0  0  0  0
   22.3790   80.2530   15.5520 C   0  0  1  0  0  3  0  0  0  0  0  0
   23.6620   79.6340   15.8890 C   0  0  0  0  0  2  0  0  0  0  0  0
   24.1170   78.5060   15.2100 N   0  0  0  0  0  0  0  0  0  0  0  0
   23.2850   77.7830   14.3670 C   0  0  0  0  0  2  0  0  0  0  0  0
   21.8810   78.2900   14.2060 C   0  0  0  0  0  2  0  0  0  0  0  0
   21.8790   79.7770   14.2120 C   0  0  0  0  0  2  0  0  0  0  0  0
   25.3740   77.6730   15.9840 S   0  0  0  0  0  0  0  0  0  0  0  0
   25.9140   76.5420   15.1800 O   0  0  0  0  0  0  0  0  0  0  0  0
   24.8560   77.1770   17.3190 O   0  0  0  0  0  0  0  0  0  0  0  0
   26.7310   78.7830   16.3860 C   0  0  0  0  0  1  0  0  0  0  0  0
   18.9040   77.4180   17.2910 O   0  0  0  0  0  0  0  0  0  0  0  0
   18.5000   77.1220   16.4160 H   0  0  0  0  0  0  0  0  0  0  0  0
   19.9590   82.7680   19.8410 C   0  0  0  0  0  2  0  0  0  0  0  0
   20.0710   82.9120   21.3130 C   0  0  0  0  0  0  0  0  0  0  0  0
   19.1490   83.6900   21.9670 C   0  0  0  0  0  0  0  0  0  0  0  0
   19.1810   83.8780   23.3470 C   0  0  0  0  0  3  0  0  0  0  0  0
   17.8750   84.4890   21.0690 Cl  0  0  0  0  0  0  0  0  0  0  0  0
   20.1630   83.2720   24.1010 C   0  0  0  0  0  3  0  0  0  0  0  0
   21.0920   82.4890   23.4510 C   0  0  0  0  0  3  0  0  0  0  0  0
   21.0490   82.3080   22.0710 C   0  0  0  0  0  3  0  0  0  0  0  0
  1  2  2  0  0  0  0
  2  3  1  0  0  0  0
  3  4  1  0  0  0  0
  4 22  1  0  0  0  0
  4  5  1  0  0  0  0
  6  5  2  0  0  0  0
  7  3  2  0  0  0  0
  7  6  1  0  0  0  0
  8  7  1  0  0  0  0
  9  1  1  0  0  0  0
  9  8  2  0  0  0  0
 10 11  1  0  0  0  0
 10  1  1  1  0  0  0
 12 11  1  0  0  0  0
 12 16  1  0  0  0  0
 13 12  1  0  0  0  0
 14 15  1  0  0  0  0
 14 13  1  0  0  0  0
 15 10  1  0  0  0  0
 16 19  1  0  0  0  0
 16 18  2  0  0  0  0
 17 16  2  0  0  0  0
 20  8  1  0  0  0  0
 21 20  1  0  0  0  0
 22 23  1  0  0  0  0
 23 24  2  0  0  0  0
 23 29  1  0  0  0  0
 24 25  1  0  0  0  0
 25 27  2  0  0  0  0
 26 24  1  0  0  0  0
 28 27  1  0  0  0  0
 29 28  2  0  0  0  0
M  END
>  <Pose>
1

>  <Score>
-10.979

$$$$
