MODEL 1
REMARK VINA RESULT:   -10.979      0.000      0.000
REMARK INTER + INTRA:         -13.912
REMARK INTER:                 -13.868
REMARK INTRA:                  -0.044
REMARK UNBOUND:                -0.044
REMARK  5 active torsions:
REMARK  status: ('A' for Active; 'I' for Inactive)
REMARK    1  A    between atoms: S_1  and  N_4 
REMARK    2  A    between atoms: C_6  and  C_10 
REMARK    3  A    between atoms: N_13  and  C_20 
REMARK    4  A    between atoms: C_17  and  O_19 
REMARK    5  A    between atoms: C_20  and  C_21 
ROOT
ATOM      1  C   UNK d   1      21.298  80.058  16.556  0.00  0.00     0.137 A 
ATOM      2  N   UNK d   1      20.997  80.955  17.492  0.00  0.00    -0.211 NA
ATOM      3  C   UNK d   1      20.019  80.745  18.389  0.00  0.00     0.184 A 
ATOM      4  N   UNK d   1      19.517  81.475  19.424  0.00  0.00    -0.227 N 
ATOM      5  N   UNK d   1      18.552  80.753  19.954  0.00  0.00    -0.063 NA
ATOM      6  N   UNK d   1      18.406  79.604  19.322  0.00  0.00    -0.124 NA
ATOM      7  C   UNK d   1      19.304  79.556  18.332  0.00  0.00     0.180 A 
ATOM      8  C   UNK d   1      19.607  78.613  17.365  0.00  0.00     0.199 A 
ATOM      9  N   UNK d   1      20.599  78.919  16.518  0.00  0.00    -0.207 NA
ENDROOT
BRANCH   1  10
ATOM     10  C   UNK d   1      22.379  80.253  15.552  0.00  0.00     0.076 C 
ATOM     11  C   UNK d   1      23.662  79.634  15.889  0.00  0.00     0.147 C 
ATOM     12  N   UNK d   1      24.117  78.506  15.210  0.00  0.00    -0.310 N 
ATOM     13  C   UNK d   1      23.285  77.783  14.367  0.00  0.00     0.135 C 
ATOM     14  C   UNK d   1      21.881  78.290  14.206  0.00  0.00     0.021 C 
ATOM     15  C   UNK d   1      21.879  79.777  14.212  0.00  0.00     0.015 C 
BRANCH  12  16
ATOM     16  S   UNK d   1      25.374  77.673  15.984  0.00  0.00     0.224 S 
ATOM     17  O   UNK d   1      25.914  76.542  15.180  0.00  0.00    -0.206 OA
ATOM     18  O   UNK d   1      24.856  77.177  17.319  0.00  0.00    -0.206 OA
ATOM     19  C   UNK d   1      26.731  78.783  16.386  0.00  0.00     0.186 C 
ENDBRANCH  12  16
ENDBRANCH   1  10
BRANCH   8  20
ATOM     20  O   UNK d   1      18.904  77.418  17.291  0.00  0.00    -0.343 OA
ATOM     21  H   UNK d   1      18.500  77.122  16.416  0.00  0.00     0.219 HD
ENDBRANCH   8  20
BRANCH   4  22
ATOM     22  C   UNK d   1      19.959  82.768  19.841  0.00  0.00     0.195 C 
BRANCH  22  23
ATOM     23  C   UNK d   1      20.071  82.912  21.313  0.00  0.00    -0.017 A 
ATOM     24  C   UNK d   1      19.149  83.690  21.967  0.00  0.00     0.042 A 
ATOM     25  C   UNK d   1      19.181  83.878  23.347  0.00  0.00     0.024 A 
ATOM     26 Cl   UNK d   1      17.875  84.489  21.069  0.00  0.00    -0.084 Cl
ATOM     27  C   UNK d   1      20.163  83.272  24.101  0.00  0.00     0.002 A 
ATOM     28  C   UNK d   1      21.092  82.489  23.451  0.00  0.00     0.001 A 
ATOM     29  C   UNK d   1      21.049  82.308  22.071  0.00  0.00     0.010 A 
ENDBRANCH  22  23
ENDBRANCH   4  22
TORSDOF 5
ENDMDL
