MODEL 1
REMARK VINA RESULT:    -8.975      0.000      0.000
REMARK INTER + INTRA:         -11.794
REMARK INTER:                 -11.598
REMARK INTRA:                  -0.196
REMARK UNBOUND:                -0.196
REMARK  5 active torsions:
REMARK  status: ('A' for Active; 'I' for Inactive)
REMARK    1  A    between atoms: S_1  and  N_4 
REMARK    2  A    between atoms: S_1  and  C_22 
REMARK    3  A    between atoms: C_6  and  C_10 
REMARK       I    between atoms: C_10  and  N_12 
REMARK    4  A    between atoms: N_15  and  C_18 
REMARK    5  A    between atoms: C_18  and  C_19 
ROOT
ATOM      1  N   UNK d   1      23.124  77.943  13.999  0.00  0.00    -0.202 NA
ATOM      2  C   UNK d   1      22.309  77.580  15.176  0.00  0.00     0.149 C 
ATOM      3  C   UNK d   1      22.546  78.617  16.211  0.00  0.00     0.227 C 
ATOM      4  O   UNK d   1      23.812  78.981  16.488  0.00  0.00    -0.374 OA
ATOM      5  C   UNK d   1      24.804  78.685  15.635  0.00  0.00     0.184 C 
ATOM      6  C   UNK d   1      24.464  77.850  14.449  0.00  0.00     0.134 C 
ENDROOT
BRANCH   3   7
ATOM      7  C   UNK d   1      21.893  78.139  17.465  0.00  0.00     0.250 C 
ATOM      8  O   UNK d   1      22.482  77.232  18.111  0.00  0.00    -0.270 OA
ATOM      9  N   UNK d   1      20.674  78.627  17.973  0.00  0.00    -0.347 N 
ATOM     10  C   UNK d   1      19.884  79.667  17.341  0.00  0.00     0.156 C 
ATOM     11  C   UNK d   1      20.095  78.105  19.220  0.00  0.00     0.156 C 
ATOM     12  C   UNK d   1      18.603  79.805  18.139  0.00  0.00     0.292 C 
ATOM     13  N   UNK d   1      18.841  80.193  19.517  0.00  0.00     0.091 N 
ATOM     14  C   UNK d   1      19.845  79.349  20.082  0.00  0.00     0.292 C 
BRANCH  13  15
ATOM     15  C   UNK d   1      19.131  81.590  19.546  0.00  0.00     0.277 C 
BRANCH  15  16
ATOM     16  C   UNK d   1      19.978  82.013  20.715  0.00  0.00     0.014 A 
ATOM     17  C   UNK d   1      19.409  83.216  21.465  0.00  0.00     0.007 A 
ATOM     18  C   UNK d   1      20.717  83.276  20.738  0.00  0.00     0.007 A 
ENDBRANCH  15  16
ENDBRANCH  13  15
ENDBRANCH   3   7
BRANCH   1  19
ATOM     19  S   UNK d   1      22.587  79.373  13.291  0.00  0.00     0.245 S 
ATOM     20  O   UNK d   1      21.477  79.939  14.187  0.00  0.00    -0.206 OA
ATOM     21  O   UNK d   1      23.630  80.464  13.270  0.00  0.00    -0.206 OA
BRANCH  19  22
ATOM     22  C   UNK d   1      21.859  79.155  11.732  0.00  0.00     0.096 A 
ATOM     23  C   UNK d   1      22.598  78.786  10.629  0.00  0.00     0.056 A 
ATOM     24  C   UNK d   1      22.037  78.666   9.372  0.00  0.00     0.025 A 
ATOM     25 Cl   UNK d   1      24.312  78.358  10.791  0.00  0.00    -0.083 Cl
ATOM     26  C   UNK d   1      20.698  78.918   9.202  0.00  0.00     0.002 A 
ATOM     27  C   UNK d   1      19.938  79.288  10.301  0.00  0.00     0.002 A 
ATOM     28  C   UNK d   1      20.499  79.407  11.541  0.00  0.00     0.026 A 
ENDBRANCH  19  22
ENDBRANCH   1  19
TORSDOF 5
ENDMDL
