/Users/jonathanwahrer/Desktop/Msc/3_Semester/Drug_Design_Praktikum/waehrer_HTS_screening/HTS_experiment/out/docking_results/vina_output/6e43/2210_docked.pdbqt
 OpenBabel03212221033D

 33 36  0  0  0  0  0  0  0  0999 V2000
   20.6440   78.4800   10.7000 C   0  0  0  0  0  3  0  0  0  0  0  0
   21.2600   78.8410   11.8330 C   0  0  0  0  0  0  0  0  0  0  0  0
   21.2630   78.0770   12.9950 O   0  0  0  0  0  0  0  0  0  0  0  0
   22.0240   78.7400   13.9670 C   0  0  0  0  0  0  0  0  0  0  0  0
   22.5300   79.9190   13.5150 C   0  0  0  0  0  0  0  0  0  0  0  0
   23.3270   80.7190   14.3010 C   0  0  0  0  0  3  0  0  0  0  0  0
   23.6340   80.3260   15.5990 C   0  0  0  0  0  3  0  0  0  0  0  0
   23.1100   79.1160   16.0570 C   0  0  0  0  0  0  0  0  0  0  0  0
   22.3220   78.3320   15.2780 C   0  0  0  0  0  0  0  0  0  0  0  0
   23.4630   78.7940   17.3670 O   0  0  0  0  0  1  0  0  0  0  0  0
   22.0430   80.0270   12.1080 C   0  0  0  0  0  0  0  0  0  0  0  0
   22.2610   80.9570   11.3210 O   0  0  0  0  0  0  0  0  0  0  0  0
   21.5810   77.1440   15.7550 C   0  0  0  0  0  2  0  0  0  0  0  0
   20.6240   77.4280   16.7180 N   0  0  0  0  0  4  0  0  0  0  0  0
   20.9250   76.7640   18.0260 C   0  0  0  0  0  2  0  0  0  0  0  0
   20.7700   77.9010   19.0660 C   0  0  0  0  0  2  0  0  0  0  0  0
   20.0690   78.9940   18.4700 N   0  0  0  0  0  0  0  0  0  0  0  0
   18.8970   78.6550   17.7620 C   0  0  0  0  0  2  0  0  0  0  0  0
   19.2500   77.5940   16.6310 C   0  0  0  0  0  2  0  0  0  0  0  0
   21.0080   78.4690   17.0070 H   0  0  0  0  0  0  0  0  0  0  0  0
   20.5710   80.2690   18.6040 C   0  0  0  0  0  2  0  0  0  0  0  0
   20.4130   81.2680   17.5020 C   0  0  0  0  0  2  0  0  0  0  0  0
   20.4270   82.5790   18.0040 O   0  0  0  0  0  0  0  0  0  0  0  0
   21.3800   82.9210   17.9890 H   0  0  0  0  0  0  0  0  0  0  0  0
   19.9570   77.1780   10.7520 C   0  0  0  0  0  0  0  0  0  0  0  0
   19.6640   76.6310   11.9500 C   0  0  0  0  0  3  0  0  0  0  0  0
   19.0940   75.3470   11.9840 C   0  0  0  0  0  0  0  0  0  0  0  0
   18.6670   74.5500   13.6610 Br  0  0  0  0  0  0  0  0  0  0  0  0
   18.8350   74.6390   10.8370 C   0  0  0  0  0  3  0  0  0  0  0  0
   19.1530   75.2280    9.6290 C   0  0  0  0  0  3  0  0  0  0  0  0
   19.7190   76.5100    9.5710 C   0  0  0  0  0  0  0  0  0  0  0  0
   20.0410   77.1020    8.3590 O   0  0  0  0  0  0  0  0  0  0  0  0
   19.2070   77.8830    7.5760 C   0  0  0  0  0  1  0  0  0  0  0  0
  1 25  1  0  0  0  0
  1  2  2  0  0  0  0
  2 11  1  0  0  0  0
  2  3  1  0  0  0  0
  3  4  1  0  0  0  0
  4  9  1  0  0  0  0
  5  4  2  0  0  0  0
  5  6  1  0  0  0  0
  6  7  2  0  0  0  0
  7  8  1  0  0  0  0
  8 10  1  0  0  0  0
  9 13  1  0  0  0  0
  9  8  2  0  0  0  0
 11  5  1  0  0  0  0
 12 11  2  0  0  0  0
 13 14  1  0  0  0  0
 14 20  1  0  0  0  0
 14 15  1  0  0  0  0
 15 16  1  0  0  0  0
 17 21  1  0  0  0  0
 17 16  1  0  0  0  0
 18 17  1  0  0  0  0
 19 14  1  0  0  0  0
 19 18  1  0  0  0  0
 22 23  1  0  0  0  0
 22 21  1  0  0  0  0
 24 23  1  0  0  0  0
 25 26  1  0  0  0  0
 26 27  2  0  0  0  0
 27 28  1  0  0  0  0
 29 27  1  0  0  0  0
 30 29  2  0  0  0  0
 31 30  1  0  0  0  0
 31 25  2  0  0  0  0
 32 31  1  0  0  0  0
 33 32  1  0  0  0  0
M  END
>  <Pose>
1

>  <Score>
-8.940

$$$$
