MODEL 1
REMARK VINA RESULT:    -9.731      0.000      0.000
REMARK INTER + INTRA:          -9.138
REMARK INTER:                 -10.300
REMARK INTRA:                   1.162
REMARK UNBOUND:                 1.162
REMARK  1 active torsions:
REMARK  status: ('A' for Active; 'I' for Inactive)
REMARK    1  A    between atoms: C_9  and  C_21 
ROOT
ATOM      1 Cl   UNK d   1      19.013  75.913  14.830  0.00  0.00    -0.081 Cl
ATOM      2  C   UNK d   1      18.940  75.379  13.165  0.00  0.00     0.070 A 
ATOM      3  C   UNK d   1      19.562  76.172  12.188  0.00  0.00     0.107 A 
ATOM      4  C   UNK d   1      19.521  75.780  10.876  0.00  0.00    -0.007 A 
ATOM      5  C   UNK d   1      18.848  74.589  10.584  0.00  0.00     0.035 A 
ATOM      6  C   UNK d   1      18.241  73.819  11.552  0.00  0.00     0.036 A 
ATOM      7  C   UNK d   1      18.279  74.210  12.878  0.00  0.00     0.050 A 
ATOM      8 Cl   UNK d   1      17.400  72.324  11.160  0.00  0.00    -0.084 Cl
ATOM      9  C   UNK d   1      20.144  76.548   9.787  0.00  0.00     0.107 A 
ATOM     10  C   UNK d   1      20.799  77.762  10.302  0.00  0.00     0.075 A 
ATOM     11  C   UNK d   1      20.828  78.132  11.610  0.00  0.00     0.167 A 
ATOM     12  N   UNK d   1      21.450  79.270  12.036  0.00  0.00    -0.283 N 
ATOM     13  C   UNK d   1      22.042  80.028  11.116  0.00  0.00     0.332 A 
ATOM     14  O   UNK d   1      22.634  81.098  11.465  0.00  0.00    -0.246 OA
ATOM     15  N   UNK d   1      22.038  79.699   9.809  0.00  0.00    -0.270 N 
ATOM     16  C   UNK d   1      21.433  78.586   9.381  0.00  0.00     0.262 A 
ATOM     17  O   UNK d   1      21.429  78.278   8.161  0.00  0.00    -0.267 OA
ATOM     18  C   UNK d   1      22.707  80.570   8.852  0.00  0.00     0.164 C 
ATOM     19  C   UNK d   1      21.461  79.636  13.436  0.00  0.00     0.163 C 
ATOM     20  O   UNK d   1      20.212  77.339  12.540  0.00  0.00    -0.290 OA
ENDROOT
BRANCH   9  21
ATOM     21  C   UNK d   1      19.152  76.874   8.709  0.00  0.00     0.078 A 
ATOM     22  C   UNK d   1      18.351  77.988   8.771  0.00  0.00     0.197 A 
ATOM     23  N   UNK d   1      17.447  78.300   7.828  0.00  0.00    -0.281 N 
ATOM     24  O   UNK d   1      18.479  78.833   9.854  0.00  0.00    -0.171 OA
ATOM     25  C   UNK d   1      17.323  77.474   6.772  0.00  0.00     0.332 A 
ATOM     26  C   UNK d   1      16.619  79.487   7.920  0.00  0.00     0.163 C 
ATOM     27  O   UNK d   1      16.467  77.777   5.889  0.00  0.00    -0.246 OA
ATOM     28  N   UNK d   1      18.086  76.371   6.671  0.00  0.00    -0.270 N 
ATOM     29  C   UNK d   1      18.994  76.044   7.600  0.00  0.00     0.262 A 
ATOM     30  C   UNK d   1      17.913  75.517   5.519  0.00  0.00     0.164 C 
ATOM     31  O   UNK d   1      19.720  75.023   7.534  0.00  0.00    -0.267 OA
ENDBRANCH   9  21
TORSDOF 1
ENDMDL
