MODEL 1
REMARK VINA RESULT:    -9.475      0.000      0.000
REMARK INTER + INTRA:         -13.035
REMARK INTER:                 -12.244
REMARK INTRA:                  -0.790
REMARK UNBOUND:                -0.790
REMARK  5 active torsions:
REMARK  status: ('A' for Active; 'I' for Inactive)
REMARK    1  A    between atoms: C_5  and  O_8 
REMARK    2  A    between atoms: O_8  and  C_9 
REMARK    3  A    between atoms: C_9  and  C_10 
REMARK       I    between atoms: C_10  and  N_12 
REMARK    4  A    between atoms: N_15  and  C_18 
REMARK    5  A    between atoms: C_20  and  N_24 
ROOT
ATOM      1  C   UNK d   1      21.151  80.530  16.976  0.00  0.00     0.177 C 
ATOM      2  O   UNK d   1      21.854  81.356  16.253  0.00  0.00    -0.175 OA
ATOM      3  N   UNK d   1      21.638  79.235  17.060  0.00  0.00    -0.358 N 
ATOM      4  C   UNK d   1      22.892  78.918  16.310  0.00  0.00     0.144 C 
ATOM      5  C   UNK d   1      22.675  77.554  15.704  0.00  0.00     0.144 C 
ATOM      6  N   UNK d   1      21.273  77.193  15.598  0.00  0.00    -0.362 N 
ATOM      7  C   UNK d   1      20.524  77.095  16.822  0.00  0.00     0.144 C 
ATOM      8  C   UNK d   1      21.118  78.107  17.787  0.00  0.00     0.144 C 
ENDROOT
BRANCH   6   9
ATOM      9  C   UNK d   1      20.696  76.959  14.332  0.00  0.00     0.146 A 
ATOM     10  N   UNK d   1      20.928  77.797  13.283  0.00  0.00    -0.045 NA
ATOM     11  C   UNK d   1      20.411  77.617  12.076  0.00  0.00     0.726 A 
ATOM     12  N   UNK d   1      19.610  76.535  11.894  0.00  0.00    -0.075 NA
ATOM     13  C   UNK d   1      19.339  75.678  12.862  0.00  0.00     0.140 A 
ATOM     14  C   UNK d   1      19.884  75.873  14.127  0.00  0.00     0.071 A 
BRANCH  11  15
ATOM     15  N   UNK d   1      20.642  78.479  10.976  0.00  0.00    -0.210 N 
ATOM     16  C   UNK d   1      21.872  78.355  10.201  0.00  0.00     0.167 C 
ATOM     17  C   UNK d   1      22.475  79.763  10.178  0.00  0.00     0.188 C 
ATOM     18  O   UNK d   1      21.606  80.637   9.580  0.00  0.00    -0.388 OA
ATOM     19  C   UNK d   1      20.410  80.806  10.236  0.00  0.00     0.188 C 
ATOM     20  C   UNK d   1      19.715  79.503  10.561  0.00  0.00     0.167 C 
ENDBRANCH  11  15
ENDBRANCH   6   9
BRANCH   1  21
ATOM     21  C   UNK d   1      19.951  81.140  17.581  0.00  0.00     0.262 C 
BRANCH  21  22
ATOM     22  O   UNK d   1      19.915  81.669  18.751  0.00  0.00    -0.343 OA
BRANCH  22  23
ATOM     23  C   UNK d   1      19.840  82.211  19.923  0.00  0.00     0.069 A 
ATOM     24  C   UNK d   1      20.758  81.980  20.971  0.00  0.00     0.038 A 
ATOM     25  C   UNK d   1      20.625  82.584  22.184  0.00  0.00     0.026 A 
ATOM     26  C   UNK d   1      19.594  83.451  22.467  0.00  0.00     0.034 A 
ATOM     27 Cl   UNK d   1      19.438  84.215  24.028  0.00  0.00    -0.084 Cl
ATOM     28  C   UNK d   1      18.688  83.688  21.458  0.00  0.00     0.026 A 
ATOM     29  C   UNK d   1      18.791  83.102  20.232  0.00  0.00     0.038 A 
ENDBRANCH  22  23
ENDBRANCH  21  22
ENDBRANCH   1  21
TORSDOF 5
ENDMDL
