/Users/jonathanwahrer/Desktop/Msc/3_Semester/Drug_Design_Praktikum/waehrer_HTS_screening/HTS_experiment/out/docking_results/vina_output/6e43/2225_docked.pdbqt
 OpenBabel03212221033D

 29 32  0  0  0  0  0  0  0  0999 V2000
   21.1510   80.5300   16.9760 C   0  0  0  0  0  0  0  0  0  0  0  0
   21.8540   81.3560   16.2530 O   0  0  0  0  0  0  0  0  0  0  0  0
   21.6380   79.2350   17.0600 N   0  0  0  0  0  0  0  0  0  0  0  0
   22.8920   78.9180   16.3100 C   0  0  0  0  0  2  0  0  0  0  0  0
   22.6750   77.5540   15.7040 C   0  0  0  0  0  2  0  0  0  0  0  0
   21.2730   77.1930   15.5980 N   0  0  0  0  0  0  0  0  0  0  0  0
   20.5240   77.0950   16.8220 C   0  0  0  0  0  2  0  0  0  0  0  0
   21.1180   78.1070   17.7870 C   0  0  0  0  0  2  0  0  0  0  0  0
   20.6960   76.9590   14.3320 C   0  0  0  0  0  0  0  0  0  0  0  0
   20.9280   77.7970   13.2830 N   0  0  0  0  0  0  0  0  0  0  0  0
   20.4110   77.6170   12.0760 C   0  0  0  0  0  0  0  0  0  0  0  0
   19.6100   76.5350   11.8940 N   0  0  0  0  0  0  0  0  0  0  0  0
   19.3390   75.6780   12.8620 C   0  0  0  0  0  3  0  0  0  0  0  0
   19.8840   75.8730   14.1270 C   0  0  0  0  0  3  0  0  0  0  0  0
   20.6420   78.4790   10.9760 N   0  0  0  0  0  0  0  0  0  0  0  0
   21.8720   78.3550   10.2010 C   0  0  0  0  0  2  0  0  0  0  0  0
   22.4750   79.7630   10.1780 C   0  0  0  0  0  2  0  0  0  0  0  0
   21.6060   80.6370    9.5800 O   0  0  0  0  0  0  0  0  0  0  0  0
   20.4100   80.8060   10.2360 C   0  0  0  0  0  2  0  0  0  0  0  0
   19.7150   79.5030   10.5610 C   0  0  0  0  0  2  0  0  0  0  0  0
   19.9510   81.1400   17.5810 C   0  0  0  0  0  2  0  0  0  0  0  0
   19.9150   81.6690   18.7510 O   0  0  0  0  0  0  0  0  0  0  0  0
   19.8400   82.2110   19.9230 C   0  0  0  0  0  0  0  0  0  0  0  0
   20.7580   81.9800   20.9710 C   0  0  0  0  0  3  0  0  0  0  0  0
   20.6250   82.5840   22.1840 C   0  0  0  0  0  3  0  0  0  0  0  0
   19.5940   83.4510   22.4670 C   0  0  0  0  0  0  0  0  0  0  0  0
   19.4380   84.2150   24.0280 Cl  0  0  0  0  0  0  0  0  0  0  0  0
   18.6880   83.6880   21.4580 C   0  0  0  0  0  3  0  0  0  0  0  0
   18.7910   83.1020   20.2320 C   0  0  0  0  0  3  0  0  0  0  0  0
  1  3  1  0  0  0  0
  1 21  1  0  0  0  0
  2  1  2  0  0  0  0
  3  8  1  0  0  0  0
  4  3  1  0  0  0  0
  5  4  1  0  0  0  0
  6  5  1  0  0  0  0
  6  7  1  0  0  0  0
  7  8  1  0  0  0  0
  9  6  1  0  0  0  0
 10  9  1  0  0  0  0
 11 10  2  0  0  0  0
 12 11  1  0  0  0  0
 12 13  2  0  0  0  0
 13 14  1  0  0  0  0
 14  9  2  0  0  0  0
 15 11  1  0  0  0  0
 16 15  1  0  0  0  0
 17 16  1  0  0  0  0
 18 17  1  0  0  0  0
 18 19  1  0  0  0  0
 19 20  1  0  0  0  0
 20 15  1  0  0  0  0
 21 22  1  0  0  0  0
 22 23  1  0  0  0  0
 23 29  2  0  0  0  0
 23 24  1  0  0  0  0
 24 25  2  0  0  0  0
 25 26  1  0  0  0  0
 26 27  1  0  0  0  0
 28 26  2  0  0  0  0
 29 28  1  0  0  0  0
M  END
>  <Pose>
1

>  <Score>
-9.475

$$$$
