/Users/jonathanwahrer/Desktop/Msc/3_Semester/Drug_Design_Praktikum/waehrer_HTS_screening/HTS_experiment/out/docking_results/vina_output/6e43/2231_docked.pdbqt
 OpenBabel03212221033D

 27 31  0  0  0  0  0  0  0  0999 V2000
   19.1200   74.0590   13.3690 N   0  0  0  0  0  0  0  0  0  0  0  0
   19.7770   74.1030   14.5150 N   0  0  0  0  0  0  0  0  0  0  0  0
   20.4340   75.2380   14.6580 N   0  0  0  0  0  0  0  0  0  0  0  0
   20.2270   76.0070   13.5760 C   0  0  0  0  0  0  0  0  0  0  0  0
   19.3970   75.2480   12.7760 C   0  0  0  0  0  0  0  0  0  0  0  0
   19.0100   75.7750   11.5920 N   0  0  0  0  0  0  0  0  0  0  0  0
   19.4410   77.0010   11.2430 C   0  0  0  0  0  3  0  0  0  0  0  0
   20.2570   77.7420   12.0330 N   0  0  0  0  0  0  0  0  0  0  0  0
   20.6720   77.2650   13.2210 C   0  0  0  0  0  0  0  0  0  0  0  0
   21.5300   78.0310   14.0660 N   0  0  0  0  0  0  0  0  0  0  0  0
   22.7390   78.5520   13.4590 C   0  0  0  0  0  2  0  0  0  0  0  0
   23.2400   79.7830   14.2110 C   0  0  0  0  0  2  0  0  0  0  0  0
   23.0190   79.6630   15.6070 N   0  0  0  0  0  0  0  0  0  0  0  0
   21.5690   79.5760   15.9630 C   0  0  0  0  0  2  0  0  0  0  0  0
   23.9860   79.6150   16.5970 C   0  0  0  0  0  0  0  0  0  0  0  0
   21.1360   78.2240   15.4270 C   0  0  0  0  0  2  0  0  0  0  0  0
   23.5000   79.5020   17.8220 O   0  0  0  0  0  0  0  0  0  0  0  0
   25.4400   79.6630   16.5650 C   0  0  0  0  0  3  0  0  0  0  0  0
   26.2020   78.7700   17.4700 C   0  0  0  0  0  2  0  0  0  0  0  0
   26.3500   78.6920   15.9680 C   0  0  0  0  0  2  0  0  0  0  0  0
   18.3090   73.0030   12.8780 C   0  0  0  0  0  0  0  0  0  0  0  0
   16.9400   73.0680   12.7550 C   0  0  0  0  0  3  0  0  0  0  0  0
   16.2040   72.0100   12.2720 C   0  0  0  0  0  3  0  0  0  0  0  0
   16.8330   70.8500   11.8950 C   0  0  0  0  0  0  0  0  0  0  0  0
   15.8990   69.5190   11.2850 Cl  0  0  0  0  0  0  0  0  0  0  0  0
   18.1900   70.7540   12.0040 C   0  0  0  0  0  3  0  0  0  0  0  0
   18.9120   71.8270   12.4920 C   0  0  0  0  0  3  0  0  0  0  0  0
  1  2  1  0  0  0  0
  2  3  2  0  0  0  0
  4  3  1  0  0  0  0
  5  1  1  0  0  0  0
  5  4  2  0  0  0  0
  6  5  1  0  0  0  0
  7  6  2  0  0  0  0
  7  8  1  0  0  0  0
  8  9  2  0  0  0  0
  9  4  1  0  0  0  0
  9 10  1  0  0  0  0
 10 16  1  0  0  0  0
 11 10  1  0  0  0  0
 11 12  1  0  0  0  0
 12 13  1  0  0  0  0
 13 14  1  0  0  0  0
 13 15  1  0  0  0  0
 15 17  2  0  0  0  0
 16 14  1  0  0  0  0
 18 15  1  0  0  0  0
 18 19  1  0  0  0  0
 20 18  1  0  0  0  0
 20 19  1  0  0  0  0
 21  1  1  0  0  0  0
 22 21  1  0  0  0  0
 23 22  2  0  0  0  0
 24 26  2  0  0  0  0
 24 23  1  0  0  0  0
 25 24  1  0  0  0  0
 26 27  1  0  0  0  0
 27 21  2  0  0  0  0
M  END
>  <Pose>
1

>  <Score>
-10.257

$$$$
