MODEL 1
REMARK VINA RESULT:   -10.257      0.000      0.000
REMARK INTER + INTRA:         -12.422
REMARK INTER:                 -12.056
REMARK INTRA:                  -0.366
REMARK UNBOUND:                -0.366
REMARK  3 active torsions:
REMARK  status: ('A' for Active; 'I' for Inactive)
REMARK    1  A    between atoms: C_5  and  N_8 
REMARK    2  A    between atoms: C_16  and  N_17 
REMARK       I    between atoms: N_20  and  C_23 
REMARK    3  A    between atoms: C_23  and  C_25 
ROOT
ATOM      1  N   UNK d   1      19.120  74.059  13.369  0.00  0.00    -0.195 N 
ATOM      2  N   UNK d   1      19.777  74.103  14.515  0.00  0.00    -0.058 NA
ATOM      3  N   UNK d   1      20.434  75.238  14.658  0.00  0.00    -0.124 NA
ATOM      4  C   UNK d   1      20.227  76.007  13.576  0.00  0.00     0.174 A 
ATOM      5  C   UNK d   1      19.397  75.248  12.776  0.00  0.00     0.188 A 
ATOM      6  N   UNK d   1      19.010  75.775  11.592  0.00  0.00    -0.220 NA
ATOM      7  C   UNK d   1      19.441  77.001  11.243  0.00  0.00     0.237 A 
ATOM      8  N   UNK d   1      20.257  77.742  12.033  0.00  0.00    -0.222 NA
ATOM      9  C   UNK d   1      20.672  77.265  13.221  0.00  0.00     0.162 A 
ENDROOT
BRANCH   9  10
ATOM     10  N   UNK d   1      21.530  78.031  14.066  0.00  0.00    -0.361 N 
ATOM     11  C   UNK d   1      22.739  78.552  13.459  0.00  0.00     0.144 C 
ATOM     12  C   UNK d   1      23.240  79.783  14.211  0.00  0.00     0.144 C 
ATOM     13  N   UNK d   1      23.019  79.663  15.607  0.00  0.00    -0.360 N 
ATOM     14  C   UNK d   1      21.569  79.576  15.963  0.00  0.00     0.144 C 
ATOM     15  C   UNK d   1      23.986  79.615  16.597  0.00  0.00     0.157 C 
ATOM     16  C   UNK d   1      21.136  78.224  15.427  0.00  0.00     0.144 C 
ATOM     17  O   UNK d   1      23.500  79.502  17.822  0.00  0.00    -0.177 OA
BRANCH  15  18
ATOM     18  C   UNK d   1      25.440  79.663  16.565  0.00  0.00     0.063 A 
ATOM     19  C   UNK d   1      26.202  78.770  17.470  0.00  0.00     0.013 A 
ATOM     20  C   UNK d   1      26.350  78.692  15.968  0.00  0.00     0.013 A 
ENDBRANCH  15  18
ENDBRANCH   9  10
BRANCH   1  21
ATOM     21  C   UNK d   1      18.309  73.003  12.878  0.00  0.00     0.062 A 
ATOM     22  C   UNK d   1      16.940  73.068  12.755  0.00  0.00     0.033 A 
ATOM     23  C   UNK d   1      16.204  72.010  12.272  0.00  0.00     0.026 A 
ATOM     24  C   UNK d   1      16.833  70.850  11.895  0.00  0.00     0.034 A 
ATOM     25 Cl   UNK d   1      15.899  69.519  11.285  0.00  0.00    -0.084 Cl
ATOM     26  C   UNK d   1      18.190  70.754  12.004  0.00  0.00     0.026 A 
ATOM     27  C   UNK d   1      18.912  71.827  12.492  0.00  0.00     0.033 A 
ENDBRANCH   1  21
TORSDOF 3
ENDMDL
