MODEL 1
REMARK VINA RESULT:   -10.131      0.000      0.000
REMARK INTER + INTRA:         -12.490
REMARK INTER:                 -11.908
REMARK INTRA:                  -0.582
REMARK UNBOUND:                -0.582
REMARK  3 active torsions:
REMARK  status: ('A' for Active; 'I' for Inactive)
REMARK    1  A    between atoms: C_7  and  N_8 
REMARK       I    between atoms: N_8  and  C_9 
REMARK    2  A    between atoms: C_9  and  C_11 
REMARK    3  A    between atoms: N_13  and  C_18 
ROOT
ATOM      1  N   UNK d   1      20.561  78.038  11.697  0.00  0.00    -0.319 N 
ATOM      2  C   UNK d   1      21.878  78.499  11.768  0.00  0.00     0.293 C 
ATOM      3  O   UNK d   1      22.575  78.713  10.766  0.00  0.00    -0.264 OA
ATOM      4  H   UNK d   1      20.040  77.880  12.616  0.00  0.00     0.169 HD
ENDROOT
BRANCH   2   5
ATOM      5  C   UNK d   1      22.516  78.761  13.088  0.00  0.00     0.213 C 
ATOM      6  N   UNK d   1      21.755  78.915  14.127  0.00  0.00    -0.141 NA
ATOM      7  N   UNK d   1      22.271  79.164  15.397  0.00  0.00    -0.198 N 
ATOM      8  C   UNK d   1      23.669  79.249  15.562  0.00  0.00     0.262 C 
ATOM      9  O   UNK d   1      24.098  79.390  16.757  0.00  0.00    -0.269 OA
ATOM     10  C   UNK d   1      24.611  79.182  14.427  0.00  0.00     0.226 C 
ATOM     11  N   UNK d   1      23.925  78.842  13.230  0.00  0.00    -0.360 N 
ATOM     12  H   UNK d   1      24.492  78.633  12.367  0.00  0.00     0.161 HD
BRANCH   7  13
ATOM     13  C   UNK d   1      21.390  79.337  16.533  0.00  0.00     0.062 A 
ATOM     14  C   UNK d   1      20.893  78.261  17.228  0.00  0.00     0.032 A 
ATOM     15  C   UNK d   1      20.047  78.454  18.325  0.00  0.00     0.009 A 
ATOM     16  C   UNK d   1      19.692  79.725  18.730  0.00  0.00    -0.062 A 
ATOM     17  C   UNK d   1      20.197  80.792  18.023  0.00  0.00     0.009 A 
ATOM     18  C   UNK d   1      18.795  79.985  19.896  0.00  0.00     0.048 C 
ATOM     19  C   UNK d   1      21.022  80.596  16.955  0.00  0.00     0.032 A 
ENDBRANCH   7  13
ENDBRANCH   2   5
BRANCH   1  20
ATOM     20  C   UNK d   1      19.868  77.765  10.511  0.00  0.00     0.059 A 
ATOM     21  C   UNK d   1      19.142  78.805   9.926  0.00  0.00     0.063 A 
ATOM     22 Cl   UNK d   1      19.116  80.379  10.692  0.00  0.00    -0.082 Cl
ATOM     23  C   UNK d   1      18.442  78.635   8.765  0.00  0.00     0.058 A 
ATOM     24  C   UNK d   1      18.415  77.435   8.111  0.00  0.00     0.070 A 
ATOM     25  C   UNK d   1      19.115  76.390   8.652  0.00  0.00     0.098 A 
ATOM     26  N   UNK d   1      17.698  77.231   6.888  0.00  0.00    -0.323 N 
ATOM     27  C   UNK d   1      19.834  76.571   9.847  0.00  0.00     0.070 A 
ATOM     28  O   UNK d   1      19.140  75.134   8.051  0.00  0.00    -0.340 OA
ATOM     29  C   UNK d   1      18.769  74.935   6.679  0.00  0.00     0.278 C 
ATOM     30  C   UNK d   1      17.743  75.944   6.280  0.00  0.00     0.246 C 
ATOM     31  O   UNK d   1      16.916  75.634   5.393  0.00  0.00    -0.271 OA
ATOM     32  H   UNK d   1      17.157  78.006   6.455  0.00  0.00     0.169 HD
ENDBRANCH   1  20
TORSDOF 3
ENDMDL
