MODEL 1
REMARK VINA RESULT:    -8.096      0.000      0.000
REMARK INTER + INTRA:         -10.368
REMARK INTER:                  -9.989
REMARK INTRA:                  -0.380
REMARK UNBOUND:                -0.380
REMARK  4 active torsions:
REMARK  status: ('A' for Active; 'I' for Inactive)
REMARK    1  A    between atoms: C_3  and  O_20 
REMARK    2  A    between atoms: C_5  and  C_8 
REMARK       I    between atoms: C_8  and  N_10 
REMARK    3  A    between atoms: N_10  and  C_11 
REMARK    4  A    between atoms: C_11  and  C_12 
ROOT
ATOM      1  C   UNK d   1      20.295  80.201  18.911  0.00  0.00     0.251 C 
ATOM      2  O   UNK d   1      19.331  79.388  18.988  0.00  0.00    -0.268 OA
ATOM      3  N   UNK d   1      21.584  79.785  18.457  0.00  0.00    -0.355 N 
ATOM      4  H   UNK d   1      22.330  80.478  18.413  0.00  0.00     0.162 HD
ENDROOT
BRANCH   1   5
ATOM      5  C   UNK d   1      20.084  81.575  19.293  0.00  0.00     0.034 A 
ATOM      6  C   UNK d   1      19.646  81.825  20.598  0.00  0.00     0.055 A 
ATOM      7  C   UNK d   1      19.406  83.092  21.080  0.00  0.00     0.090 A 
ATOM      8  C   UNK d   1      19.609  84.166  20.239  0.00  0.00     0.067 A 
ATOM      9 Cl   UNK d   1      19.309  85.797  20.833  0.00  0.00    -0.081 Cl
ATOM     10  C   UNK d   1      20.043  83.939  18.941  0.00  0.00     0.028 A 
ATOM     11  C   UNK d   1      20.282  82.644  18.468  0.00  0.00     0.019 A 
BRANCH   7  12
ATOM     12  O   UNK d   1      18.971  83.310  22.380  0.00  0.00    -0.354 OA
ATOM     13  C   UNK d   1      19.850  83.190  23.481  0.00  0.00     0.210 C 
ENDBRANCH   7  12
ENDBRANCH   1   5
BRANCH   3  14
ATOM     14  C   UNK d   1      21.752  78.411  18.086  0.00  0.00     0.160 C 
BRANCH  14  15
ATOM     15  C   UNK d   1      22.905  78.081  17.224  0.00  0.00     0.268 C 
ATOM     16  N   UNK d   1      23.975  79.028  17.164  0.00  0.00     0.100 N 
ATOM     17  C   UNK d   1      25.210  78.210  17.088  0.00  0.00     0.303 C 
ATOM     18  C   UNK d   1      24.025  79.818  15.951  0.00  0.00     0.303 C 
ATOM     19  C   UNK d   1      24.890  77.162  16.014  0.00  0.00     0.302 C 
ATOM     20  N   UNK d   1      23.846  77.606  15.112  0.00  0.00     0.094 N 
ATOM     21  C   UNK d   1      22.552  77.729  15.788  0.00  0.00     0.309 C 
ATOM     22  C   UNK d   1      24.192  78.957  14.705  0.00  0.00     0.302 C 
ENDBRANCH  14  15
ENDBRANCH   3  14
TORSDOF 4
ENDMDL
