/Users/jonathanwahrer/Desktop/Msc/3_Semester/Drug_Design_Praktikum/waehrer_HTS_screening/HTS_experiment/out/docking_results/vina_output/6e43/2271_docked.pdbqt
 OpenBabel03212221043D

 27 30  0  0  1  0  0  0  0  0999 V2000
   22.1570   77.6140   15.0590 C   0  0  2  0  0  0  0  0  0  0  0  0
   22.3410   78.0270   16.3600 N   0  0  0  0  0  4  0  0  0  0  0  0
   23.7390   78.3960   16.4420 C   0  0  0  0  0  0  0  0  0  0  0  0
   24.4130   79.3660   16.9700 C   0  0  0  0  0  3  0  0  0  0  0  0
   25.8800   79.4870   16.8940 C   0  0  0  0  0  2  0  0  0  0  0  0
   26.5780   78.4140   16.1370 C   0  0  0  0  0  2  0  0  0  0  0  0
   25.8080   77.1430   16.0080 C   0  0  0  0  0  2  0  0  0  0  0  0
   24.4040   77.3650   15.7350 N   0  0  0  0  0  0  0  0  0  0  0  0
   23.4280   76.7430   14.8450 C   0  0  0  0  0  2  0  0  0  0  0  0
   22.3340   77.1240   16.9630 H   0  0  0  0  0  0  0  0  0  0  0  0
   22.1170   78.5110   13.9210 C   0  0  0  0  0  0  0  0  0  0  0  0
   21.2410   78.2470   12.8860 C   0  0  0  0  0  3  0  0  0  0  0  0
   21.1950   79.0610   11.7920 C   0  0  0  0  0  3  0  0  0  0  0  0
   22.0120   80.1770   11.6670 C   0  0  0  0  0  0  0  0  0  0  0  0
   21.9720   81.2330   10.2790 Cl  0  0  0  0  0  0  0  0  0  0  0  0
   22.8780   80.4360   12.6930 C   0  0  0  0  0  3  0  0  0  0  0  0
   22.9280   79.6120   13.8040 C   0  0  0  0  0  3  0  0  0  0  0  0
   21.1090   76.6570   14.9490 O   0  0  0  0  0  0  0  0  0  0  0  0
   21.2900   76.1610   14.1090 H   0  0  0  0  0  0  0  0  0  0  0  0
   21.5050   78.9060   17.0300 C   0  0  0  0  0  0  0  0  0  0  0  0
   21.1030   80.1300   16.6130 C   0  0  0  0  0  3  0  0  0  0  0  0
   20.2440   80.8970   17.3980 C   0  0  0  0  0  3  0  0  0  0  0  0
   19.7640   80.4590   18.6210 C   0  0  0  0  0  0  0  0  0  0  0  0
   20.1900   79.2100   19.0190 C   0  0  0  0  0  3  0  0  0  0  0  0
   21.0340   78.4320   18.2710 C   0  0  0  0  0  3  0  0  0  0  0  0
   18.9120   81.2540   19.3700 O   0  0  0  0  0  0  0  0  0  0  0  0
   19.4420   82.0600   20.3910 C   0  0  0  0  0  1  0  0  0  0  0  0
  1 18  1  6  0  0  0
  1  2  1  0  0  0  0
  2  3  1  0  0  0  0
  2 10  1  0  0  0  0
  2 20  1  0  0  0  0
  3  4  2  0  0  0  0
  5  4  1  0  0  0  0
  6  5  1  0  0  0  0
  7  6  1  0  0  0  0
  8  7  1  0  0  0  0
  8  3  1  0  0  0  0
  9  1  1  0  0  0  0
  9  8  1  0  0  0  0
 11  1  1  0  0  0  0
 12 11  2  0  0  0  0
 13 12  1  0  0  0  0
 14 13  2  0  0  0  0
 14 16  1  0  0  0  0
 15 14  1  0  0  0  0
 16 17  2  0  0  0  0
 17 11  1  0  0  0  0
 19 18  1  0  0  0  0
 20 25  1  0  0  0  0
 21 20  2  0  0  0  0
 21 22  1  0  0  0  0
 22 23  2  0  0  0  0
 23 24  1  0  0  0  0
 23 26  1  0  0  0  0
 25 24  2  0  0  0  0
 26 27  1  0  0  0  0
M  END
>  <Pose>
1

>  <Score>
-9.281

$$$$
