MODEL 1
REMARK VINA RESULT:    -9.281      0.000      0.000
REMARK INTER + INTRA:         -11.387
REMARK INTER:                 -11.180
REMARK INTRA:                  -0.207
REMARK UNBOUND:                -0.207
REMARK  4 active torsions:
REMARK  status: ('A' for Active; 'I' for Inactive)
REMARK    1  A    between atoms: C_5  and  C_8 
REMARK    2  A    between atoms: C_8  and  O_25 
REMARK    3  A    between atoms: N_9  and  C_17 
REMARK    4  A    between atoms: C_20  and  O_23 
ROOT
ATOM      1  C   UNK d   1      22.157  77.614  15.059  0.00  0.00     0.283 C 
ATOM      2  N   UNK d   1      22.341  78.027  16.360  0.00  0.00     0.042 N 
ATOM      3  C   UNK d   1      23.739  78.396  16.442  0.00  0.00     0.210 C 
ATOM      4  C   UNK d   1      24.413  79.366  16.970  0.00  0.00     0.030 C 
ATOM      5  C   UNK d   1      25.880  79.487  16.894  0.00  0.00     0.032 C 
ATOM      6  C   UNK d   1      26.578  78.414  16.137  0.00  0.00     0.023 C 
ATOM      7  C   UNK d   1      25.808  77.143  16.008  0.00  0.00     0.125 C 
ATOM      8  N   UNK d   1      24.404  77.365  15.735  0.00  0.00    -0.356 N 
ATOM      9  C   UNK d   1      23.428  76.743  14.845  0.00  0.00     0.200 C 
ATOM     10  H   UNK d   1      22.334  77.124  16.963  0.00  0.00     0.299 HD
ENDROOT
BRANCH   1  11
ATOM     11  C   UNK d   1      22.117  78.511  13.921  0.00  0.00     0.007 A 
ATOM     12  C   UNK d   1      21.241  78.247  12.886  0.00  0.00     0.014 A 
ATOM     13  C   UNK d   1      21.195  79.061  11.792  0.00  0.00     0.024 A 
ATOM     14  C   UNK d   1      22.012  80.177  11.667  0.00  0.00     0.034 A 
ATOM     15 Cl   UNK d   1      21.972  81.233  10.279  0.00  0.00    -0.084 Cl
ATOM     16  C   UNK d   1      22.878  80.436  12.693  0.00  0.00     0.024 A 
ATOM     17  C   UNK d   1      22.928  79.612  13.804  0.00  0.00     0.014 A 
ENDBRANCH   1  11
BRANCH   1  18
ATOM     18  O   UNK d   1      21.109  76.657  14.949  0.00  0.00    -0.359 OA
ATOM     19  H   UNK d   1      21.290  76.161  14.109  0.00  0.00     0.213 HD
ENDBRANCH   1  18
BRANCH   2  20
ATOM     20  C   UNK d   1      21.505  78.906  17.030  0.00  0.00     0.146 A 
ATOM     21  C   UNK d   1      21.103  80.130  16.613  0.00  0.00     0.041 A 
ATOM     22  C   UNK d   1      20.244  80.897  17.398  0.00  0.00     0.039 A 
ATOM     23  C   UNK d   1      19.764  80.459  18.621  0.00  0.00     0.068 A 
ATOM     24  C   UNK d   1      20.190  79.210  19.019  0.00  0.00     0.039 A 
ATOM     25  C   UNK d   1      21.034  78.432  18.271  0.00  0.00     0.041 A 
BRANCH  23  26
ATOM     26  O   UNK d   1      18.912  81.254  19.370  0.00  0.00    -0.356 OA
ATOM     27  C   UNK d   1      19.442  82.060  20.391  0.00  0.00     0.210 C 
ENDBRANCH  23  26
ENDBRANCH   2  20
TORSDOF 4
ENDMDL
