MODEL 1
REMARK VINA RESULT:    -9.334      0.000      0.000
REMARK INTER + INTRA:         -13.245
REMARK INTER:                 -12.608
REMARK INTRA:                  -0.637
REMARK UNBOUND:                -0.637
REMARK  6 active torsions:
REMARK  status: ('A' for Active; 'I' for Inactive)
REMARK    1  A    between atoms: N_8  and  C_12 
REMARK    2  A    between atoms: C_12  and  C_13 
REMARK    3  A    between atoms: C_13  and  C_14 
REMARK       I    between atoms: C_14  and  N_16 
REMARK    4  A    between atoms: N_19  and  C_22 
REMARK    5  A    between atoms: C_22  and  C_23 
REMARK       I    between atoms: C_23  and  N_25 
REMARK    6  A    between atoms: N_25  and  C_26 
ROOT
ATOM      1  C   UNK d   1      23.036  79.718  12.583  0.00  0.00     0.221 C 
ATOM      2  O   UNK d   1      22.649  80.724  13.292  0.00  0.00    -0.273 OA
ATOM      3  N   UNK d   1      22.630  79.730  11.248  0.00  0.00    -0.349 N 
ATOM      4  C   UNK d   1      22.772  78.591  10.321  0.00  0.00     0.145 C 
ATOM      5  C   UNK d   1      21.265  78.206  10.193  0.00  0.00     0.137 C 
ATOM      6  N   UNK d   1      20.592  79.294   9.497  0.00  0.00    -0.401 N 
ATOM      7  C   UNK d   1      21.092  80.557   9.527  0.00  0.00     0.137 C 
ATOM      8  C   UNK d   1      22.070  80.894  10.617  0.00  0.00     0.145 C 
ENDROOT
BRANCH   1   9
ATOM      9  C   UNK d   1      23.847  78.757  13.290  0.00  0.00     0.123 C 
BRANCH   9  10
ATOM     10  C   UNK d   1      24.402  79.030  14.613  0.00  0.00     0.144 C 
BRANCH  10  11
ATOM     11  N   UNK d   1      23.660  78.541  15.763  0.00  0.00    -0.290 N 
ATOM     12  C   UNK d   1      22.698  79.092  16.496  0.00  0.00     0.073 A 
ATOM     13  C   UNK d   1      22.364  78.265  17.542  0.00  0.00     0.109 A 
ATOM     14  C   UNK d   1      22.014  80.312  16.344  0.00  0.00     0.034 A 
ATOM     15  C   UNK d   1      21.366  78.597  18.467  0.00  0.00     0.063 A 
ATOM     16  O   UNK d   1      23.143  77.224  17.416  0.00  0.00    -0.259 OA
ATOM     17  C   UNK d   1      20.695  79.781  18.332  0.00  0.00     0.036 A 
ATOM     18 Cl   UNK d   1      19.433  80.220  19.457  0.00  0.00    -0.084 Cl
ATOM     19  C   UNK d   1      21.033  80.607  17.276  0.00  0.00     0.026 A 
ATOM     20  C   UNK d   1      23.931  77.339  16.376  0.00  0.00     0.372 A 
ATOM     21  O   UNK d   1      24.798  76.503  15.988  0.00  0.00    -0.237 OA
ENDBRANCH  10  11
ENDBRANCH   9  10
ENDBRANCH   1   9
BRANCH   6  22
ATOM     22  C   UNK d   1      19.285  78.902   9.256  0.00  0.00     0.219 C 
BRANCH  22  23
ATOM     23  C   UNK d   1      19.176  78.014   8.016  0.00  0.00     0.235 C 
ATOM     24  O   UNK d   1      19.214  78.673   6.908  0.00  0.00    -0.272 OA
ATOM     25  N   UNK d   1      19.046  76.696   8.119  0.00  0.00    -0.355 N 
ATOM     26  H   UNK d   1      19.202  76.537   6.779  0.00  0.00     0.162 HD
BRANCH  25  27
ATOM     27  C   UNK d   1      18.907  75.294   8.229  0.00  0.00     0.084 A 
ATOM     28  C   UNK d   1      20.130  74.467   7.674  0.00  0.00     0.027 A 
ATOM     29  C   UNK d   1      18.871  74.480   6.953  0.00  0.00     0.027 A 
ENDBRANCH  25  27
ENDBRANCH  22  23
ENDBRANCH   6  22
TORSDOF 6
ENDMDL
