MODEL 1
REMARK VINA RESULT:    -8.421      0.000      0.000
REMARK INTER + INTRA:          -9.533
REMARK INTER:                  -9.405
REMARK INTRA:                  -0.127
REMARK UNBOUND:                -0.127
REMARK  2 active torsions:
REMARK  status: ('A' for Active; 'I' for Inactive)
REMARK    1  A    between atoms: C_3  and  N_17 
REMARK    2  A    between atoms: N_17  and  C_18 
ROOT
ATOM      1 Cl   UNK d   1      18.521  77.164  17.351  0.00  0.00    -0.076 Cl
ATOM      2  C   UNK d   1      19.869  78.190  16.913  0.00  0.00     0.135 A 
ATOM      3  C   UNK d   1      19.889  79.512  17.307  0.00  0.00     0.126 A 
ATOM      4  C   UNK d   1      20.983  80.259  16.930  0.00  0.00     0.291 A 
ATOM      5  O   UNK d   1      21.102  81.484  17.240  0.00  0.00    -0.264 OA
ATOM      6  N   UNK d   1      21.966  79.694  16.214  0.00  0.00    -0.241 N 
ATOM      7  N   UNK d   1      21.989  78.436  15.817  0.00  0.00    -0.242 N 
ATOM      8  C   UNK d   1      23.077  77.864  15.042  0.00  0.00     0.134 C 
ATOM      9  C   UNK d   1      23.083  78.353  13.609  0.00  0.00     0.031 C 
ATOM     10  C   UNK d   1      23.750  79.715  13.515  0.00  0.00     0.005 C 
ATOM     11  C   UNK d   1      23.013  80.745  14.339  0.00  0.00     0.031 C 
ATOM     12  C   UNK d   1      23.125  80.511  15.823  0.00  0.00     0.134 C 
ATOM     13  C   UNK d   1      24.326  79.669  16.069  0.00  0.00    -0.002 C 
ATOM     14  C   UNK d   1      24.343  78.404  15.665  0.00  0.00    -0.002 C 
ATOM     15  C   UNK d   1      20.915  77.674  16.177  0.00  0.00     0.287 A 
ATOM     16  O   UNK d   1      20.909  76.452  15.807  0.00  0.00    -0.265 OA
ENDROOT
BRANCH   3  17
ATOM     17  N   UNK d   1      18.843  80.114  18.064  0.00  0.00    -0.380 N 
ATOM     18  H   UNK d   1      18.054  80.514  17.472  0.00  0.00     0.160 HD
BRANCH  17  19
ATOM     19  C   UNK d   1      18.815  80.193  19.499  0.00  0.00     0.073 C 
ATOM     20  C   UNK d   1      19.566  79.041  20.145  0.00  0.00     0.031 C 
ATOM     21  C   UNK d   1      19.355  81.466  20.059  0.00  0.00     0.031 C 
ENDBRANCH  17  19
ENDBRANCH   3  17
TORSDOF 2
ENDMDL
