MODEL 1
REMARK VINA RESULT:    -8.454      0.000      0.000
REMARK INTER + INTRA:          -9.673
REMARK INTER:                  -9.443
REMARK INTRA:                  -0.231
REMARK UNBOUND:                -0.231
REMARK  2 active torsions:
REMARK  status: ('A' for Active; 'I' for Inactive)
REMARK    1  A    between atoms: C_3  and  N_17 
REMARK    2  A    between atoms: N_17  and  C_18 
ROOT
ATOM      1 Cl   UNK d   1      20.037  77.333  12.060  0.00  0.00    -0.076 Cl
ATOM      2  C   UNK d   1      21.207  78.091  13.122  0.00  0.00     0.135 A 
ATOM      3  C   UNK d   1      21.735  79.307  12.740  0.00  0.00     0.126 A 
ATOM      4  C   UNK d   1      22.667  79.851  13.632  0.00  0.00     0.291 A 
ATOM      5  O   UNK d   1      23.176  80.950  13.337  0.00  0.00    -0.264 OA
ATOM      6  N   UNK d   1      23.000  79.217  14.763  0.00  0.00    -0.241 N 
ATOM      7  N   UNK d   1      22.489  78.050  15.124  0.00  0.00    -0.241 N 
ATOM      8  C   UNK d   1      22.956  77.501  16.389  0.00  0.00     0.139 C 
ATOM      9  C   UNK d   1      24.466  77.397  16.282  0.00  0.00     0.021 A 
ATOM     10  C   UNK d   1      25.045  78.670  15.837  0.00  0.00     0.021 A 
ATOM     11  C   UNK d   1      23.977  79.764  15.708  0.00  0.00     0.139 C 
ATOM     12  C   UNK d   1      23.248  79.779  17.023  0.00  0.00    -0.001 C 
ATOM     13  C   UNK d   1      22.721  78.619  17.378  0.00  0.00    -0.001 C 
ATOM     14  C   UNK d   1      25.330  78.124  17.243  0.00  0.00     0.015 A 
ATOM     15  C   UNK d   1      21.600  77.486  14.313  0.00  0.00     0.287 A 
ATOM     16  O   UNK d   1      21.109  76.378  14.646  0.00  0.00    -0.265 OA
ENDROOT
BRANCH   3  17
ATOM     17  N   UNK d   1      21.386  79.995  11.542  0.00  0.00    -0.380 N 
ATOM     18  H   UNK d   1      20.670  80.743  11.653  0.00  0.00     0.160 HD
BRANCH  17  19
ATOM     19  C   UNK d   1      21.929  79.738  10.258  0.00  0.00     0.073 C 
ATOM     20  C   UNK d   1      22.580  80.927   9.601  0.00  0.00     0.031 C 
ATOM     21  C   UNK d   1      22.965  78.623  10.257  0.00  0.00     0.031 C 
ENDBRANCH  17  19
ENDBRANCH   3  17
TORSDOF 2
ENDMDL
