MODEL 1
REMARK VINA RESULT:   -10.069      0.000      0.000
REMARK INTER + INTRA:         -13.675
REMARK INTER:                 -13.012
REMARK INTRA:                  -0.663
REMARK UNBOUND:                -0.663
REMARK  5 active torsions:
REMARK  status: ('A' for Active; 'I' for Inactive)
REMARK    1  A    between atoms: C_3  and  N_15 
REMARK    2  A    between atoms: N_6  and  C_9 
REMARK    3  A    between atoms: N_18  and  C_21 
REMARK    4  A    between atoms: C_21  and  C_22 
REMARK       I    between atoms: C_22  and  N_24 
REMARK       I    between atoms: N_24  and  C_25 
REMARK       I    between atoms: C_25  and  N_27 
REMARK    5  A    between atoms: N_27  and  C_28 
ROOT
ATOM      1  N   UNK d   1      21.135  78.201  17.651  0.00  0.00    -0.375 N 
ATOM      2  C   UNK d   1      22.402  77.921  17.121  0.00  0.00     0.153 C 
ATOM      3  C   UNK d   1      22.179  77.375  15.663  0.00  0.00     0.292 C 
ATOM      4  N   UNK d   1      20.918  77.505  15.124  0.00  0.00     0.100 N 
ATOM      5  C   UNK d   1      19.778  77.552  15.999  0.00  0.00     0.292 C 
ATOM      6  C   UNK d   1      20.177  77.038  17.420  0.00  0.00     0.153 C 
ENDROOT
BRANCH   1   7
ATOM      7  C   UNK d   1      20.511  79.330  18.158  0.00  0.00     0.077 A 
ATOM      8  C   UNK d   1      20.759  80.593  17.840  0.00  0.00     0.131 A 
ATOM      9 Cl   UNK d   1      21.630  80.898  16.283  0.00  0.00    -0.076 Cl
ATOM     10  C   UNK d   1      20.375  81.685  18.618  0.00  0.00     0.292 A 
ATOM     11  N   UNK d   1      19.721  81.469  19.727  0.00  0.00    -0.197 N 
ATOM     12  O   UNK d   1      20.707  82.846  18.201  0.00  0.00    -0.264 OA
ATOM     13  N   UNK d   1      19.432  80.190  20.082  0.00  0.00    -0.174 NA
ATOM     14  C   UNK d   1      19.750  79.143  19.418  0.00  0.00     0.170 A 
BRANCH  11  15
ATOM     15  C   UNK d   1      19.515  82.497  20.745  0.00  0.00     0.062 A 
ATOM     16  C   UNK d   1      18.507  83.405  20.681  0.00  0.00     0.032 A 
ATOM     17  C   UNK d   1      18.264  84.282  21.715  0.00  0.00     0.002 A 
ATOM     18  C   UNK d   1      19.051  84.262  22.865  0.00  0.00     0.000 A 
ATOM     19  C   UNK d   1      20.084  83.325  22.900  0.00  0.00     0.002 A 
ATOM     20  C   UNK d   1      20.303  82.480  21.882  0.00  0.00     0.032 A 
ENDBRANCH  11  15
ENDBRANCH   1   7
BRANCH   4  21
ATOM     21  C   UNK d   1      20.524  76.426  14.157  0.00  0.00     0.375 C 
BRANCH  21  22
ATOM     22  C   UNK d   1      20.360  76.996  12.828  0.00  0.00     0.254 C 
ATOM     23  O   UNK d   1      20.763  77.884  12.284  0.00  0.00    -0.271 OA
ATOM     24  N   UNK d   1      19.285  76.032  11.914  0.00  0.00    -0.278 N 
ATOM     25  C   UNK d   1      19.646  76.667  10.598  0.00  0.00     0.323 C 
ATOM     26  H   UNK d   1      19.103  75.710  12.593  0.00  0.00     0.173 HD
ATOM     27  O   UNK d   1      19.978  77.809  10.439  0.00  0.00    -0.247 OA
ATOM     28  N   UNK d   1      19.552  75.694   9.533  0.00  0.00    -0.338 N 
ATOM     29  H   UNK d   1      19.204  74.723   9.833  0.00  0.00     0.164 HD
BRANCH  28  30
ATOM     30  C   UNK d   1      19.838  75.885   8.162  0.00  0.00     0.086 C 
ATOM     31  C   UNK d   1      19.879  74.724   7.254  0.00  0.00     0.025 C 
ATOM     32  C   UNK d   1      18.477  74.555   6.661  0.00  0.00     0.002 C 
ATOM     33  C   UNK d   1      18.023  75.994   6.569  0.00  0.00     0.002 C 
ATOM     34  C   UNK d   1      18.680  76.756   7.633  0.00  0.00     0.025 C 
ENDBRANCH  28  30
ENDBRANCH  21  22
ENDBRANCH   4  21
TORSDOF 5
ENDMDL
