/Users/jonathanwahrer/Desktop/Msc/3_Semester/Drug_Design_Praktikum/waehrer_HTS_screening/HTS_experiment/out/docking_results/vina_output/6e43/2281_docked.pdbqt
 OpenBabel03212221053D

 34 37  0  0  1  0  0  0  0  0999 V2000
   21.1350   78.2010   17.6510 N   0  0  0  0  0  0  0  0  0  0  0  0
   22.4020   77.9210   17.1210 C   0  0  0  0  0  2  0  0  0  0  0  0
   22.1790   77.3750   15.6630 C   0  0  0  0  0  2  0  0  0  0  0  0
   20.9180   77.5050   15.1240 N   0  0  0  0  0  0  0  0  0  0  0  0
   19.7780   77.5520   15.9990 C   0  0  0  0  0  2  0  0  0  0  0  0
   20.1770   77.0380   17.4200 C   0  0  0  0  0  2  0  0  0  0  0  0
   20.5110   79.3300   18.1580 C   0  0  2  0  0  3  0  0  0  0  0  0
   20.7590   80.5930   17.8400 C   0  0  1  0  0  3  0  0  0  0  0  0
   21.6300   80.8980   16.2830 Cl  0  0  0  0  0  0  0  0  0  0  0  0
   20.3750   81.6850   18.6180 C   0  0  0  0  0  0  0  0  0  0  0  0
   19.7210   81.4690   19.7270 N   0  0  0  0  0  0  0  0  0  0  0  0
   20.7070   82.8460   18.2010 O   0  0  0  0  0  0  0  0  0  0  0  0
   19.4320   80.1900   20.0820 N   0  0  0  0  0  0  0  0  0  0  0  0
   19.7500   79.1430   19.4180 C   0  0  0  0  0  3  0  0  0  0  0  0
   19.5150   82.4970   20.7450 C   0  0  0  0  0  0  0  0  0  0  0  0
   18.5070   83.4050   20.6810 C   0  0  0  0  0  3  0  0  0  0  0  0
   18.2640   84.2820   21.7150 C   0  0  0  0  0  3  0  0  0  0  0  0
   19.0510   84.2620   22.8650 C   0  0  0  0  0  3  0  0  0  0  0  0
   20.0840   83.3250   22.9000 C   0  0  0  0  0  3  0  0  0  0  0  0
   20.3030   82.4800   21.8820 C   0  0  0  0  0  3  0  0  0  0  0  0
   20.5240   76.4260   14.1570 C   0  0  0  0  0  2  0  0  0  0  0  0
   20.3600   76.9960   12.8280 C   0  0  0  0  0  0  0  0  0  0  0  0
   20.7630   77.8840   12.2840 O   0  0  0  0  0  0  0  0  0  0  0  0
   19.2850   76.0320   11.9140 N   0  0  0  0  0  0  0  0  0  0  0  0
   19.6460   76.6670   10.5980 C   0  0  0  0  0  0  0  0  0  0  0  0
   19.1030   75.7100   12.5930 H   0  0  0  0  0  0  0  0  0  0  0  0
   19.9780   77.8090   10.4390 O   0  0  0  0  0  0  0  0  0  0  0  0
   19.5520   75.6940    9.5330 N   0  0  0  0  0  0  0  0  0  0  0  0
   19.2040   74.7230    9.8330 H   0  0  0  0  0  0  0  0  0  0  0  0
   19.8380   75.8850    8.1620 C   0  0  0  0  0  3  0  0  0  0  0  0
   19.8790   74.7240    7.2540 C   0  0  0  0  0  2  0  0  0  0  0  0
   18.4770   74.5550    6.6610 C   0  0  0  0  0  2  0  0  0  0  0  0
   18.0230   75.9940    6.5690 C   0  0  0  0  0  2  0  0  0  0  0  0
   18.6800   76.7560    7.6330 C   0  0  0  0  0  2  0  0  0  0  0  0
  2  1  1  0  0  0  0
  3  2  1  0  0  0  0
  4  3  1  0  0  0  0
  4  5  1  0  0  0  0
  5  6  1  0  0  0  0
  6  1  1  0  0  0  0
  7  1  1  1  0  0  0
  7 14  1  0  0  0  0
  8  9  1  6  0  0  0
  8  7  1  0  0  0  0
  8 10  1  0  0  0  0
 10 11  1  0  0  0  0
 11 13  1  0  0  0  0
 11 15  1  0  0  0  0
 12 10  2  0  0  0  0
 14 13  2  0  0  0  0
 15 20  1  0  0  0  0
 16 15  2  0  0  0  0
 16 17  1  0  0  0  0
 17 18  2  0  0  0  0
 18 19  1  0  0  0  0
 20 19  2  0  0  0  0
 21  4  1  0  0  0  0
 22 21  1  0  0  0  0
 23 22  2  0  0  0  0
 24 26  1  0  0  0  0
 24 22  1  0  0  0  0
 25 24  1  0  0  0  0
 27 25  2  0  0  0  0
 28 29  1  0  0  0  0
 28 25  1  0  0  0  0
 30 28  1  0  0  0  0
 31 30  1  0  0  0  0
 32 31  1  0  0  0  0
 33 32  1  0  0  0  0
 33 34  1  0  0  0  0
 34 30  1  0  0  0  0
M  END
>  <Pose>
1

>  <Score>
-10.069

$$$$
