/Users/jonathanwahrer/Desktop/Msc/3_Semester/Drug_Design_Praktikum/waehrer_HTS_screening/HTS_experiment/out/docking_results/vina_output/6e43/2284_docked.pdbqt
 OpenBabel03212221053D

 33 37  0  0  0  0  0  0  0  0999 V2000
   21.5300   80.0080   10.9270 C   0  0  0  0  0  0  0  0  0  0  0  0
   20.2310   80.4180   11.1500 C   0  0  0  0  0  3  0  0  0  0  0  0
   19.1390   79.9640   10.4540 C   0  0  0  0  0  0  0  0  0  0  0  0
   17.9860   80.4180   10.7520 O   0  0  0  0  0  0  0  0  0  0  0  0
   19.3100   79.0400    9.4630 N   0  0  0  0  0  0  0  0  0  0  0  0
   18.3850   78.5400    8.7450 N   0  0  0  0  0  0  0  0  0  0  0  0
   18.6180   77.6610    7.8150 C   0  0  0  0  0  0  0  0  0  0  0  0
   20.3330   77.5250    7.9690 S   0  0  0  0  0  0  0  0  0  0  0  0
   20.5670   78.6460    9.2490 C   0  0  0  0  0  0  0  0  0  0  0  0
   21.6400   79.0960    9.9370 N   0  0  0  0  0  0  0  0  0  0  0  0
   22.6760   80.5320   11.7080 C   0  0  0  0  0  2  0  0  0  0  0  0
   22.6040   80.0090   13.0350 N   0  0  0  0  0  0  0  0  0  0  0  0
   22.9890   80.8730   14.0780 C   0  0  0  0  0  2  0  0  0  0  0  0
   22.4410   80.3240   15.3990 C   0  0  0  0  0  2  0  0  0  0  0  0
   22.7740   78.9750   15.5510 N   0  0  0  0  0  0  0  0  0  0  0  0
   23.6360   78.4750   14.5630 C   0  0  0  0  0  2  0  0  0  0  0  0
   23.0290   78.6700   13.1920 C   0  0  0  0  0  2  0  0  0  0  0  0
   21.8400   77.9500   16.4610 S   0  0  0  0  0  0  0  0  0  0  0  0
   22.7470   77.1930   17.4260 O   0  0  0  0  0  0  0  0  0  0  0  0
   21.0660   76.9690   15.6200 O   0  0  0  0  0  0  0  0  0  0  0  0
   20.7260   78.8400   17.4750 C   0  0  0  0  0  0  0  0  0  0  0  0
   21.0410   79.6070   18.5550 N   0  0  0  0  0  0  0  0  0  0  0  0
   19.9360   80.1320   19.0870 C   0  0  0  0  0  3  0  0  0  0  0  0
   18.8670   79.7330   18.3830 N   0  0  0  0  0  0  0  0  0  0  0  0
   19.3580   78.9380   17.3930 C   0  0  0  0  0  3  0  0  0  0  0  0
   17.8800   79.9790   18.5600 H   0  0  0  0  0  0  0  0  0  0  0  0
   17.7290   76.9600    6.8820 C   0  0  0  0  0  0  0  0  0  0  0  0
   16.4890   77.5020    6.6160 C   0  0  0  0  0  3  0  0  0  0  0  0
   15.6020   76.8880    5.7430 C   0  0  0  0  0  3  0  0  0  0  0  0
   15.9590   75.7090    5.1210 C   0  0  0  0  0  0  0  0  0  0  0  0
   17.1990   75.1460    5.3720 C   0  0  0  0  0  3  0  0  0  0  0  0
   14.8620   74.9310    4.0270 Cl  0  0  0  0  0  0  0  0  0  0  0  0
   18.0430   75.7920    6.2460 C   0  0  0  0  0  3  0  0  0  0  0  0
  1  2  2  0  0  0  0
  1 11  1  0  0  0  0
  3  4  2  0  0  0  0
  3  2  1  0  0  0  0
  5  3  1  0  0  0  0
  6  5  1  0  0  0  0
  7  8  1  0  0  0  0
  7  6  2  0  0  0  0
  8  9  1  0  0  0  0
  9  5  1  0  0  0  0
  9 10  2  0  0  0  0
 10  1  1  0  0  0  0
 11 12  1  0  0  0  0
 12 17  1  0  0  0  0
 12 13  1  0  0  0  0
 13 14  1  0  0  0  0
 14 15  1  0  0  0  0
 15 18  1  0  0  0  0
 16 15  1  0  0  0  0
 17 16  1  0  0  0  0
 18 19  2  0  0  0  0
 18 21  1  0  0  0  0
 20 18  2  0  0  0  0
 21 22  1  0  0  0  0
 22 23  2  0  0  0  0
 24 26  1  0  0  0  0
 24 23  1  0  0  0  0
 25 21  2  0  0  0  0
 25 24  1  0  0  0  0
 27  7  1  0  0  0  0
 28 27  1  0  0  0  0
 29 28  2  0  0  0  0
 30 31  2  0  0  0  0
 30 29  1  0  0  0  0
 31 33  1  0  0  0  0
 32 30  1  0  0  0  0
 33 27  2  0  0  0  0
M  END
>  <Pose>
1

>  <Score>
-9.486

$$$$
