MODEL 1
REMARK VINA RESULT:   -10.899      0.000      0.000
REMARK INTER + INTRA:         -15.489
REMARK INTER:                 -14.722
REMARK INTRA:                  -0.767
REMARK UNBOUND:                -0.767
REMARK  6 active torsions:
REMARK  status: ('A' for Active; 'I' for Inactive)
REMARK    1  A    between atoms: S_1  and  N_4 
REMARK    2  A    between atoms: S_1  and  C_22 
REMARK    3  A    between atoms: N_7  and  C_10 
REMARK    4  A    between atoms: C_10  and  C_11 
REMARK    5  A    between atoms: N_13  and  C_14 
REMARK    6  A    between atoms: C_14  and  C_15 
ROOT
ATOM      1  N   UNK d   1      22.642  77.206  16.806  0.00  0.00    -0.203 NA
ATOM      2  C   UNK d   1      22.617  78.222  17.816  0.00  0.00     0.127 C 
ATOM      3  C   UNK d   1      21.229  78.451  18.442  0.00  0.00     0.132 C 
ATOM      4  N   UNK d   1      20.338  78.736  17.362  0.00  0.00    -0.403 N 
ATOM      5  C   UNK d   1      20.192  77.538  16.582  0.00  0.00     0.132 C 
ATOM      6  C   UNK d   1      21.499  77.414  15.849  0.00  0.00     0.127 C 
ENDROOT
BRANCH   1   7
ATOM      7  S   UNK d   1      24.051  77.583  15.787  0.00  0.00     0.243 S 
ATOM      8  O   UNK d   1      25.130  78.122  16.707  0.00  0.00    -0.206 OA
ATOM      9  O   UNK d   1      24.520  76.326  15.147  0.00  0.00    -0.206 OA
BRANCH   7  10
ATOM     10  C   UNK d   1      23.689  78.772  14.598  0.00  0.00     0.077 A 
ATOM     11  C   UNK d   1      23.606  78.292  13.284  0.00  0.00     0.064 A 
ATOM     12  C   UNK d   1      23.228  79.086  12.198  0.00  0.00     0.103 A 
ATOM     13  C   UNK d   1      22.918  80.421  12.439  0.00  0.00     0.102 A 
ATOM     14  O   UNK d   1      23.163  78.578  10.911  0.00  0.00    -0.346 OA
ATOM     15  C   UNK d   1      23.011  80.881  13.740  0.00  0.00     0.041 A 
ATOM     16  O   UNK d   1      22.548  81.146  11.321  0.00  0.00    -0.346 OA
ATOM     17  C   UNK d   1      23.384  80.081  14.812  0.00  0.00     0.028 A 
ATOM     18  C   UNK d   1      21.719  80.474  10.335  0.00  0.00     0.202 C 
ATOM     19  C   UNK d   1      22.157  79.073  10.062  0.00  0.00     0.202 C 
ENDBRANCH   7  10
ENDBRANCH   1   7
BRANCH   4  20
ATOM     20  C   UNK d   1      19.311  79.644  17.550  0.00  0.00     0.204 C 
BRANCH  20  21
ATOM     21  C   UNK d   1      19.644  80.926  18.175  0.00  0.00     0.169 C 
ATOM     22  O   UNK d   1      20.414  81.670  17.420  0.00  0.00    -0.176 OA
ATOM     23  N   UNK d   1      19.298  81.480  19.374  0.00  0.00    -0.366 N 
ATOM     24  H   UNK d   1      18.708  80.985  20.122  0.00  0.00     0.161 HD
BRANCH  23  25
ATOM     25  C   UNK d   1      19.634  82.841  19.798  0.00  0.00     0.162 C 
BRANCH  25  26
ATOM     26  C   UNK d   1      19.842  82.851  21.260  0.00  0.00    -0.019 A 
ATOM     27  C   UNK d   1      19.082  83.700  22.097  0.00  0.00     0.042 A 
ATOM     28  C   UNK d   1      19.330  83.843  23.408  0.00  0.00     0.024 A 
ATOM     29 Cl   UNK d   1      17.728  84.596  21.365  0.00  0.00    -0.084 Cl
ATOM     30  C   UNK d   1      20.399  83.120  24.025  0.00  0.00     0.002 A 
ATOM     31  C   UNK d   1      21.133  82.320  23.246  0.00  0.00     0.001 A 
ATOM     32  C   UNK d   1      20.899  82.156  21.876  0.00  0.00     0.010 A 
ENDBRANCH  25  26
ENDBRANCH  23  25
ENDBRANCH  20  21
ENDBRANCH   4  20
TORSDOF 6
ENDMDL
