/Users/jonathanwahrer/Desktop/Msc/3_Semester/Drug_Design_Praktikum/waehrer_HTS_screening/HTS_experiment/out/docking_results/vina_output/6e43/2298_docked.pdbqt
 OpenBabel03212221063D

 34 37  0  0  0  0  0  0  0  0999 V2000
   21.2590   79.9670   12.1270 C   0  0  0  0  0  2  0  0  0  0  0  0
   21.9290   80.0880   10.8650 N   0  0  0  0  0  0  0  0  0  0  0  0
   22.4640   78.8710   10.3710 C   0  0  0  0  0  2  0  0  0  0  0  0
   21.9310   78.4120    9.0410 C   0  0  0  0  0  2  0  0  0  0  0  0
   20.5610   78.5590    8.9870 N   0  0  0  0  0  0  0  0  0  0  0  0
   20.0410   79.8000    9.3720 C   0  0  0  0  0  2  0  0  0  0  0  0
   21.1250   80.7440    9.8840 C   0  0  0  0  0  2  0  0  0  0  0  0
   19.5260   77.3530    8.5000 S   0  0  0  0  0  0  0  0  0  0  0  0
   18.1530   77.8480    8.1170 O   0  0  0  0  0  0  0  0  0  0  0  0
   20.0150   76.5610    7.3080 O   0  0  0  0  0  0  0  0  0  0  0  0
   19.2720   76.2140    9.8190 C   0  0  0  0  0  0  0  0  0  0  0  0
   18.8980   74.9210    9.5790 C   0  0  0  0  0  3  0  0  0  0  0  0
   18.7000   74.0310   10.6010 C   0  0  0  0  0  3  0  0  0  0  0  0
   18.8810   74.4560   11.8990 C   0  0  0  0  0  0  0  0  0  0  0  0
   19.2590   75.7630   12.1460 C   0  0  0  0  0  3  0  0  0  0  0  0
   18.6190   73.2930   13.1860 Cl  0  0  0  0  0  0  0  0  0  0  0  0
   19.4560   76.6450   11.1140 C   0  0  0  0  0  3  0  0  0  0  0  0
   22.2120   80.1720   13.2680 C   0  0  0  0  0  0  0  0  0  0  0  0
   23.3420   80.6290   12.9870 O   0  0  0  0  0  0  0  0  0  0  0  0
   21.8440   79.8620   14.6020 N   0  0  0  0  0  0  0  0  0  0  0  0
   20.8750   79.4830   14.7710 H   0  0  0  0  0  0  0  0  0  0  0  0
   22.8190   80.0890   15.6290 C   0  0  0  0  0  2  0  0  0  0  0  0
   23.3510   78.8910   16.3170 C   0  0  0  0  0  0  0  0  0  0  0  0
   24.4700   79.2990   17.2430 C   0  0  0  0  0  2  0  0  0  0  0  0
   25.8400   79.2330   16.5600 C   0  0  0  0  0  2  0  0  0  0  0  0
   26.2060   77.7930   16.2610 C   0  0  0  0  0  2  0  0  0  0  0  0
   24.9150   77.0480   15.9780 C   0  0  0  0  0  2  0  0  0  0  0  0
   24.0240   78.0220   15.2360 C   0  0  0  0  0  2  0  0  0  0  0  0
   22.4380   78.0490   16.9890 N   0  0  0  0  0  0  0  0  0  0  0  0
   21.6910   78.5880   18.0690 C   0  0  0  0  0  2  0  0  0  0  0  0
   21.1500   77.3780   18.8540 C   0  0  0  0  0  2  0  0  0  0  0  0
   20.2970   76.6460   18.0630 O   0  0  0  0  0  0  0  0  0  0  0  0
   20.1620   77.1200   16.7830 C   0  0  0  0  0  2  0  0  0  0  0  0
   21.5160   77.3590   16.1120 C   0  0  0  0  0  2  0  0  0  0  0  0
  1 18  1  0  0  0  0
  2  1  1  0  0  0  0
  3  2  1  0  0  0  0
  4  3  1  0  0  0  0
  5  4  1  0  0  0  0
  5  6  1  0  0  0  0
  6  7  1  0  0  0  0
  7  2  1  0  0  0  0
  8  5  1  0  0  0  0
  8 11  1  0  0  0  0
  9  8  2  0  0  0  0
 10  8  2  0  0  0  0
 11 17  1  0  0  0  0
 12 11  2  0  0  0  0
 12 13  1  0  0  0  0
 13 14  2  0  0  0  0
 14 15  1  0  0  0  0
 14 16  1  0  0  0  0
 17 15  2  0  0  0  0
 18 20  1  0  0  0  0
 19 18  2  0  0  0  0
 20 21  1  0  0  0  0
 20 22  1  0  0  0  0
 22 23  1  0  0  0  0
 23 29  1  0  0  0  0
 23 24  1  0  0  0  0
 25 24  1  0  0  0  0
 26 25  1  0  0  0  0
 27 26  1  0  0  0  0
 28 27  1  0  0  0  0
 28 23  1  0  0  0  0
 29 30  1  0  0  0  0
 30 31  1  0  0  0  0
 32 31  1  0  0  0  0
 33 32  1  0  0  0  0
 34 33  1  0  0  0  0
 34 29  1  0  0  0  0
M  END
>  <Pose>
1

>  <Score>
-10.146

$$$$
