MODEL 1
REMARK VINA RESULT:    -8.534      0.000      0.000
REMARK INTER + INTRA:         -10.823
REMARK INTER:                 -10.030
REMARK INTRA:                  -0.793
REMARK UNBOUND:                -0.793
REMARK  3 active torsions:
REMARK  status: ('A' for Active; 'I' for Inactive)
REMARK    1  A    between atoms: S_1  and  N_4 
REMARK    2  A    between atoms: S_1  and  C_22 
REMARK       I    between atoms: N_7  and  C_10 
REMARK    3  A    between atoms: C_10  and  C_12 
ROOT
ATOM      1  N   UNK d   1      24.014  78.022  15.088  0.00  0.00    -0.304 N 
ATOM      2  C   UNK d   1      24.538  79.048  14.268  0.00  0.00     0.155 C 
ATOM      3  C   UNK d   1      23.952  79.115  12.882  0.00  0.00     0.146 C 
ATOM      4  N   UNK d   1      22.527  78.938  12.862  0.00  0.00    -0.347 N 
ATOM      5  C   UNK d   1      21.911  78.463  14.075  0.00  0.00     0.146 C 
ATOM      6  C   UNK d   1      22.828  77.381  14.639  0.00  0.00     0.155 C 
ATOM      7  C   UNK d   1      21.798  79.219  11.695  0.00  0.00     0.243 C 
ATOM      8  O   UNK d   1      22.449  79.617  10.688  0.00  0.00    -0.271 OA
ENDROOT
BRANCH   7   9
ATOM      9  C   UNK d   1      20.321  79.077  11.575  0.00  0.00     0.190 C 
ATOM     10  N   UNK d   1      19.948  77.774  11.160  0.00  0.00    -0.320 N 
ATOM     11  C   UNK d   1      19.846  77.558   9.754  0.00  0.00     0.081 C 
ATOM     12  C   UNK d   1      19.618  76.498  11.755  0.00  0.00     0.222 C 
ATOM     13  S   UNK d   1      19.328  79.174   9.139  0.00  0.00    -0.135 SA
ATOM     14  C   UNK d   1      18.649  76.633   9.644  0.00  0.00     0.051 C 
ATOM     15  C   UNK d   1      21.045  77.014   9.085  0.00  0.00     0.051 C 
ATOM     16  C   UNK d   1      19.718  80.109  10.670  0.00  0.00     0.111 C 
ATOM     17  C   UNK d   1      19.022  75.629  10.743  0.00  0.00     0.106 C 
ATOM     18  O   UNK d   1      19.800  76.148  12.960  0.00  0.00    -0.273 OA
ENDBRANCH   7   9
BRANCH   1  19
ATOM     19  S   UNK d   1      24.120  78.286  16.760  0.00  0.00     0.260 S 
ATOM     20  O   UNK d   1      24.738  77.110  17.451  0.00  0.00    -0.200 OA
ATOM     21  O   UNK d   1      25.039  79.459  16.999  0.00  0.00    -0.200 OA
BRANCH  19  22
ATOM     22  C   UNK d   1      22.573  78.704  17.491  0.00  0.00     0.079 A 
ATOM     23  C   UNK d   1      22.058  79.974  17.360  0.00  0.00     0.027 A 
ATOM     24  C   UNK d   1      20.855  80.334  17.920  0.00  0.00     0.025 A 
ATOM     25  C   UNK d   1      20.101  79.428  18.644  0.00  0.00     0.034 A 
ATOM     26  C   UNK d   1      20.644  78.160  18.759  0.00  0.00     0.025 A 
ATOM     27 Cl   UNK d   1      18.564  79.852  19.370  0.00  0.00    -0.084 Cl
ATOM     28  C   UNK d   1      21.844  77.787  18.205  0.00  0.00     0.027 A 
ENDBRANCH  19  22
ENDBRANCH   1  19
TORSDOF 3
ENDMDL
