/Users/jonathanwahrer/Desktop/Msc/3_Semester/Drug_Design_Praktikum/waehrer_HTS_screening/HTS_experiment/out/docking_results/vina_output/6e43/2319_docked.pdbqt
 OpenBabel03212221073D

 33 36  0  0  0  0  0  0  0  0999 V2000
   21.2500   77.8360   16.1530 N   0  0  0  0  0  0  0  0  0  0  0  0
   20.2490   77.5720   17.1140 C   0  0  0  0  0  0  0  0  0  0  0  0
   19.1290   77.1470   16.7610 O   0  0  0  0  0  0  0  0  0  0  0  0
   22.2040   78.1910   16.3740 H   0  0  0  0  0  0  0  0  0  0  0  0
   20.4700   77.7830   18.5790 C   0  0  0  0  0  2  0  0  0  0  0  0
   20.8800   79.1290   18.8730 N   0  0  0  0  0  0  0  0  0  0  0  0
   19.9880   80.2350   18.8270 C   0  0  0  0  0  0  0  0  0  0  0  0
   18.7960   80.0230   18.5180 O   0  0  0  0  0  0  0  0  0  0  0  0
   21.8690   79.3510   19.1370 H   0  0  0  0  0  0  0  0  0  0  0  0
   20.4000   81.6390   19.1260 C   0  0  0  0  0  0  0  0  0  0  0  0
   21.1070   81.7310   20.3280 O   0  0  0  0  0  0  0  0  0  0  0  0
   20.6250   82.3250   21.4920 C   0  0  0  0  0  0  0  0  0  0  0  0
   19.5660   83.1840   21.3580 C   0  0  0  0  0  0  0  0  0  0  0  0
   21.1580   82.0890   22.7230 C   0  0  0  0  0  3  0  0  0  0  0  0
   19.0620   83.7940   22.5070 C   0  0  0  0  0  3  0  0  0  0  0  0
   19.0340   83.4180   20.1200 O   0  0  0  0  0  0  0  0  0  0  0  0
   19.5910   83.5650   23.7570 C   0  0  0  0  0  3  0  0  0  0  0  0
   20.6580   82.6940   23.8530 C   0  0  0  0  0  3  0  0  0  0  0  0
   19.2730   82.6040   19.0060 C   0  0  0  0  0  3  0  0  0  0  0  0
   20.9450   77.6100   14.8070 N   0  0  0  0  0  0  0  0  0  0  0  0
   21.3360   78.3850   13.8670 C   0  0  0  0  0  0  0  0  0  0  0  0
   21.1150   78.3070   12.4310 C   0  0  0  0  0  0  0  0  0  0  0  0
   22.1410   79.5930   14.0780 C   0  0  0  0  0  0  0  0  0  0  0  0
   21.7220   79.3650   11.7750 C   0  0  0  0  0  0  0  0  0  0  0  0
   20.4350   77.4040   11.6430 C   0  0  0  0  0  3  0  0  0  0  0  0
   21.6540   79.5170   10.4050 C   0  0  0  0  0  0  0  0  0  0  0  0
   22.3450   80.1430   12.7910 N   0  0  0  0  0  0  0  0  0  0  0  0
   22.4960   80.9870    9.5140 Br  0  0  0  0  0  0  0  0  0  0  0  0
   20.9590   78.5860    9.6330 C   0  0  0  0  0  3  0  0  0  0  0  0
   20.3470   77.5210   10.2740 C   0  0  0  0  0  0  0  0  0  0  0  0
   19.3870   76.2330    9.2380 Br  0  0  0  0  0  0  0  0  0  0  0  0
   22.8820   81.0070   12.6070 H   0  0  0  0  0  0  0  0  0  0  0  0
   22.5310   79.9890   15.2090 O   0  0  0  0  0  0  0  0  0  0  0  0
  1  4  1  0  0  0  0
  1  2  1  0  0  0  0
  2  5  1  0  0  0  0
  3  2  2  0  0  0  0
  5  6  1  0  0  0  0
  6  9  1  0  0  0  0
  7  6  1  0  0  0  0
  7 10  1  0  0  0  0
  8  7  2  0  0  0  0
 10 11  1  0  0  0  0
 11 12  1  0  0  0  0
 12 14  1  0  0  0  0
 13 12  2  0  0  0  0
 13 15  1  0  0  0  0
 14 18  2  0  0  0  0
 15 17  2  0  0  0  0
 16 13  1  0  0  0  0
 17 18  1  0  0  0  0
 19 10  2  0  0  0  0
 19 16  1  0  0  0  0
 20  1  1  0  0  0  0
 21 23  1  0  0  0  0
 21 20  2  0  0  0  0
 22 21  1  0  0  0  0
 23 33  2  0  0  0  0
 24 22  1  0  0  0  0
 24 27  1  0  0  0  0
 25 22  2  0  0  0  0
 26 24  2  0  0  0  0
 27 23  1  0  0  0  0
 28 26  1  0  0  0  0
 29 30  2  0  0  0  0
 29 26  1  0  0  0  0
 30 25  1  0  0  0  0
 31 30  1  0  0  0  0
 32 27  1  0  0  0  0
M  END
>  <Pose>
1

>  <Score>
-10.277

$$$$
