MODEL 1
REMARK VINA RESULT:   -10.389      0.000      0.000
REMARK INTER + INTRA:         -12.990
REMARK INTER:                 -12.818
REMARK INTRA:                  -0.172
REMARK UNBOUND:                -0.172
REMARK  4 active torsions:
REMARK  status: ('A' for Active; 'I' for Inactive)
REMARK    1  A    between atoms: S_1  and  N_4 
REMARK    2  A    between atoms: S_1  and  C_18 
REMARK    3  A    between atoms: C_6  and  C_10 
REMARK       I    between atoms: C_10  and  N_12 
REMARK    4  A    between atoms: C_22  and  C_24 
ROOT
ATOM      1  S   UNK d   1      22.584  78.589  15.343  0.00  0.00     0.245 S 
ATOM      2  O   UNK d   1      23.227  77.259  15.742  0.00  0.00    -0.206 OA
ATOM      3  O   UNK d   1      23.665  79.631  15.651  0.00  0.00    -0.206 OA
ENDROOT
BRANCH   1   4
ATOM      4  N   UNK d   1      22.310  78.511  13.673  0.00  0.00    -0.206 NA
ATOM      5  C   UNK d   1      21.287  79.347  13.153  0.00  0.00     0.121 C 
ATOM      6  C   UNK d   1      21.132  79.240  11.654  0.00  0.00     0.092 C 
ATOM      7  C   UNK d   1      22.428  79.518  10.975  0.00  0.00     0.016 C 
ATOM      8  C   UNK d   1      23.563  78.705  11.574  0.00  0.00     0.016 C 
ATOM      9  C   UNK d   1      23.584  78.920  13.047  0.00  0.00     0.107 C 
BRANCH   6  10
ATOM     10  C   UNK d   1      20.441  78.014  11.204  0.00  0.00     0.225 C 
ATOM     11  O   UNK d   1      19.912  77.311  12.142  0.00  0.00    -0.273 OA
ATOM     12  N   UNK d   1      20.300  77.551   9.903  0.00  0.00    -0.348 N 
ATOM     13  C   UNK d   1      19.569  76.360   9.602  0.00  0.00     0.152 C 
ATOM     14  C   UNK d   1      20.898  78.234   8.782  0.00  0.00     0.152 C 
ATOM     15  C   UNK d   1      18.804  76.430   8.310  0.00  0.00     0.187 C 
ATOM     16  O   UNK d   1      19.278  77.318   7.395  0.00  0.00    -0.388 OA
ATOM     17  C   UNK d   1      19.695  78.542   7.874  0.00  0.00     0.187 C 
ENDBRANCH   6  10
ENDBRANCH   1   4
BRANCH   1  18
ATOM     18  C   UNK d   1      21.237  78.912  16.352  0.00  0.00     0.097 A 
ATOM     19  C   UNK d   1      20.251  77.987  16.592  0.00  0.00     0.057 A 
ATOM     20  C   UNK d   1      19.220  78.285  17.470  0.00  0.00     0.026 A 
ATOM     21 Cl   UNK d   1      20.162  76.440  15.778  0.00  0.00    -0.083 Cl
ATOM     22  C   UNK d   1      19.156  79.519  18.125  0.00  0.00     0.017 A 
ATOM     23  C   UNK d   1      20.137  80.456  17.892  0.00  0.00     0.016 A 
ATOM     24  C   UNK d   1      21.150  80.141  17.017  0.00  0.00     0.042 A 
BRANCH  23  25
ATOM     25  C   UNK d   1      20.093  81.750  18.559  0.00  0.00     0.189 A 
ATOM     26  N   UNK d   1      20.361  82.941  17.997  0.00  0.00    -0.106 NA
ATOM     27  O   UNK d   1      20.226  83.890  18.882  0.00  0.00    -0.196 OA
ATOM     28  C   UNK d   1      19.874  83.360  20.023  0.00  0.00     0.169 A 
ATOM     29  N   UNK d   1      19.789  82.029  19.837  0.00  0.00    -0.204 NA
ATOM     30  C   UNK d   1      19.612  84.088  21.314  0.00  0.00     0.102 C 
ENDBRANCH  23  25
ENDBRANCH   1  18
TORSDOF 4
ENDMDL
