MODEL 1
REMARK VINA RESULT:    -9.929      0.000      0.000
REMARK INTER + INTRA:         -14.820
REMARK INTER:                 -13.992
REMARK INTRA:                  -0.829
REMARK UNBOUND:                -0.829
REMARK  7 active torsions:
REMARK  status: ('A' for Active; 'I' for Inactive)
REMARK    1  A    between atoms: S_1  and  N_4 
REMARK    2  A    between atoms: S_1  and  C_21 
REMARK    3  A    between atoms: C_6  and  C_10 
REMARK       I    between atoms: C_10  and  N_12 
REMARK    4  A    between atoms: N_12  and  C_13 
REMARK    5  A    between atoms: C_13  and  C_14 
REMARK    6  A    between atoms: C_14  and  N_15 
REMARK       I    between atoms: N_30  and  C_31 
REMARK    7  A    between atoms: C_31  and  C_33 
ROOT
ATOM      1  N   UNK d   1      20.424  76.859  15.690  0.00  0.00    -0.306 N 
ATOM      2  C   UNK d   1      19.648  77.372  16.749  0.00  0.00     0.149 C 
ATOM      3  C   UNK d   1      19.740  78.876  16.895  0.00  0.00     0.096 C 
ATOM      4  C   UNK d   1      21.013  79.456  16.410  0.00  0.00     0.017 C 
ATOM      5  C   UNK d   1      22.149  78.521  16.208  0.00  0.00     0.021 C 
ATOM      6  C   UNK d   1      21.787  77.161  15.670  0.00  0.00     0.135 C 
ENDROOT
BRANCH   1   7
ATOM      7  S   UNK d   1      19.699  75.985  14.476  0.00  0.00     0.262 S 
ATOM      8  O   UNK d   1      18.226  75.787  14.829  0.00  0.00    -0.200 OA
ATOM      9  O   UNK d   1      20.263  74.569  14.499  0.00  0.00    -0.200 OA
BRANCH   7  10
ATOM     10  C   UNK d   1      19.852  76.602  12.873  0.00  0.00     0.099 A 
ATOM     11  C   UNK d   1      20.473  77.822  12.650  0.00  0.00     0.057 A 
ATOM     12  C   UNK d   1      20.632  78.351  11.392  0.00  0.00     0.045 A 
ATOM     13  C   UNK d   1      20.149  77.633  10.292  0.00  0.00    -0.028 A 
ATOM     14  N   UNK d   1      21.213  79.529  10.851  0.00  0.00    -0.317 N 
ATOM     15  C   UNK d   1      19.543  76.441  10.520  0.00  0.00     0.030 A 
ATOM     16  C   UNK d   1      20.419  78.375   9.031  0.00  0.00     0.061 C 
ATOM     17  C   UNK d   1      19.384  75.909  11.789  0.00  0.00     0.035 A 
ATOM     18 Br   UNK d   1      18.500  74.205  11.989  0.00  0.00    -0.049 Br
ATOM     19  C   UNK d   1      20.601  79.789   9.543  0.00  0.00     0.137 C 
ATOM     20  C   UNK d   1      22.197  80.342  11.411  0.00  0.00     0.224 C 
ATOM     21  O   UNK d   1      22.638  81.346  10.753  0.00  0.00    -0.273 OA
BRANCH  20  22
ATOM     22  C   UNK d   1      22.782  80.126  12.732  0.00  0.00     0.099 C 
ATOM     23  C   UNK d   1      23.844  79.029  12.716  0.00  0.00     0.014 C 
ENDBRANCH  20  22
ENDBRANCH   7  10
ENDBRANCH   1   7
BRANCH   3  24
ATOM     24  C   UNK d   1      19.494  79.287  18.301  0.00  0.00     0.223 C 
ATOM     25  O   UNK d   1      19.312  78.386  19.155  0.00  0.00    -0.273 OA
ATOM     26  N   UNK d   1      19.468  80.687  18.660  0.00  0.00    -0.359 N 
ATOM     27  H   UNK d   1      19.619  81.340  17.886  0.00  0.00     0.162 HD
BRANCH  26  28
ATOM     28  C   UNK d   1      19.230  81.007  20.020  0.00  0.00     0.142 C 
BRANCH  28  29
ATOM     29  C   UNK d   1      20.325  81.603  20.821  0.00  0.00     0.136 C 
BRANCH  29  30
ATOM     30  N   UNK d   1      20.262  82.975  21.165  0.00  0.00    -0.407 N 
ATOM     31  C   UNK d   1      19.181  83.420  21.916  0.00  0.00     0.143 C 
ATOM     32  C   UNK d   1      18.240  84.376  21.240  0.00  0.00     0.187 C 
ATOM     33  O   UNK d   1      18.900  85.302  20.447  0.00  0.00    -0.388 OA
ATOM     34  C   UNK d   1      19.530  84.578  19.435  0.00  0.00     0.187 C 
ATOM     35  C   UNK d   1      20.676  83.832  20.079  0.00  0.00     0.143 C 
ENDBRANCH  29  30
ENDBRANCH  28  29
ENDBRANCH  26  28
ENDBRANCH   3  24
TORSDOF 7
ENDMDL
