/Users/jonathanwahrer/Desktop/Msc/3_Semester/Drug_Design_Praktikum/waehrer_HTS_screening/HTS_experiment/out/docking_results/vina_output/6e43/2335_docked.pdbqt
 OpenBabel03212221073D

 35 38  0  0  1  0  0  0  0  0999 V2000
   20.4240   76.8590   15.6900 N   0  0  0  0  0  0  0  0  0  0  0  0
   19.6480   77.3720   16.7490 C   0  0  0  0  0  2  0  0  0  0  0  0
   19.7400   78.8760   16.8950 C   0  0  2  0  0  3  0  0  0  0  0  0
   21.0130   79.4560   16.4100 C   0  0  0  0  0  2  0  0  0  0  0  0
   22.1490   78.5210   16.2080 C   0  0  0  0  0  3  0  0  0  0  0  0
   21.7870   77.1610   15.6700 C   0  0  0  0  0  3  0  0  0  0  0  0
   19.6990   75.9850   14.4760 S   0  0  0  0  0  0  0  0  0  0  0  0
   18.2260   75.7870   14.8290 O   0  0  0  0  0  0  0  0  0  0  0  0
   20.2630   74.5690   14.4990 O   0  0  0  0  0  0  0  0  0  0  0  0
   19.8520   76.6020   12.8730 C   0  0  0  0  0  0  0  0  0  0  0  0
   20.4730   77.8220   12.6500 C   0  0  0  0  0  3  0  0  0  0  0  0
   20.6320   78.3510   11.3920 C   0  0  0  0  0  0  0  0  0  0  0  0
   20.1490   77.6330   10.2920 C   0  0  0  0  0  0  0  0  0  0  0  0
   21.2130   79.5290   10.8510 N   0  0  0  0  0  0  0  0  0  0  0  0
   19.5430   76.4410   10.5200 C   0  0  0  0  0  3  0  0  0  0  0  0
   20.4190   78.3750    9.0310 C   0  0  0  0  0  2  0  0  0  0  0  0
   19.3840   75.9090   11.7890 C   0  0  0  0  0  0  0  0  0  0  0  0
   18.5000   74.2050   11.9890 Br  0  0  0  0  0  0  0  0  0  0  0  0
   20.6010   79.7890    9.5430 C   0  0  0  0  0  2  0  0  0  0  0  0
   22.1970   80.3420   11.4110 C   0  0  0  0  0  0  0  0  0  0  0  0
   22.6380   81.3460   10.7530 O   0  0  0  0  0  0  0  0  0  0  0  0
   22.7820   80.1260   12.7320 C   0  0  0  0  0  2  0  0  0  0  0  0
   23.8440   79.0290   12.7160 C   0  0  0  0  0  1  0  0  0  0  0  0
   19.4940   79.2870   18.3010 C   0  0  0  0  0  0  0  0  0  0  0  0
   19.3120   78.3860   19.1550 O   0  0  0  0  0  0  0  0  0  0  0  0
   19.4680   80.6870   18.6600 N   0  0  0  0  0  0  0  0  0  0  0  0
   19.6190   81.3400   17.8860 H   0  0  0  0  0  0  0  0  0  0  0  0
   19.2300   81.0070   20.0200 C   0  0  0  0  0  2  0  0  0  0  0  0
   20.3250   81.6030   20.8210 C   0  0  0  0  0  2  0  0  0  0  0  0
   20.2620   82.9750   21.1650 N   0  0  0  0  0  0  0  0  0  0  0  0
   19.1810   83.4200   21.9160 C   0  0  0  0  0  2  0  0  0  0  0  0
   18.2400   84.3760   21.2400 C   0  0  0  0  0  2  0  0  0  0  0  0
   18.9000   85.3020   20.4470 O   0  0  0  0  0  0  0  0  0  0  0  0
   19.5300   84.5780   19.4350 C   0  0  0  0  0  2  0  0  0  0  0  0
   20.6760   83.8320   20.0790 C   0  0  0  0  0  2  0  0  0  0  0  0
  1  2  1  0  0  0  0
  2  3  1  0  0  0  0
  3 24  1  1  0  0  0
  4  3  1  0  0  0  0
  5  4  1  0  0  0  0
  6  1  1  0  0  0  0
  6  5  2  0  0  0  0
  7  9  2  0  0  0  0
  7  8  2  0  0  0  0
  7  1  1  0  0  0  0
 10  7  1  0  0  0  0
 11 10  1  0  0  0  0
 12 11  2  0  0  0  0
 13 15  2  0  0  0  0
 13 12  1  0  0  0  0
 14 12  1  0  0  0  0
 14 20  1  0  0  0  0
 15 17  1  0  0  0  0
 16 19  1  0  0  0  0
 16 13  1  0  0  0  0
 17 18  1  0  0  0  0
 17 10  2  0  0  0  0
 19 14  1  0  0  0  0
 20 22  1  0  0  0  0
 21 20  2  0  0  0  0
 23 22  1  0  0  0  0
 24 26  1  0  0  0  0
 24 25  2  0  0  0  0
 26 28  1  0  0  0  0
 27 26  1  0  0  0  0
 28 29  1  0  0  0  0
 29 30  1  0  0  0  0
 30 31  1  0  0  0  0
 32 31  1  0  0  0  0
 33 32  1  0  0  0  0
 34 35  1  0  0  0  0
 34 33  1  0  0  0  0
 35 30  1  0  0  0  0
M  END
>  <Pose>
1

>  <Score>
-9.929

$$$$
