/Users/jonathanwahrer/Desktop/Msc/3_Semester/Drug_Design_Praktikum/waehrer_HTS_screening/HTS_experiment/out/docking_results/vina_output/6e43/2349_docked.pdbqt
 OpenBabel03212221073D

 28 31  0  0  1  0  0  0  0  0999 V2000
   20.3020   79.7760   18.9210 N   0  0  0  0  0  0  0  0  0  0  0  0
   19.6170   78.6130   19.4090 C   0  0  0  0  0  0  0  0  0  0  0  0
   18.9000   78.7190   20.4430 O   0  0  0  0  0  0  0  0  0  0  0  0
   19.7980   77.4120   18.6790 N   0  0  0  0  0  2  0  0  0  0  0  0
   20.5140   77.2860   17.6510 C   0  0  0  0  0  0  0  0  0  0  0  0
   21.3200   78.3780   17.0040 C   0  0  1  0  0  0  0  0  0  0  0  0
   22.7490   77.9540   17.1910 C   0  0  0  0  0  2  0  0  0  0  0  0
   23.7020   78.4610   16.2810 N   0  0  0  0  0  4  0  0  0  0  0  0
   23.2980   78.5320   14.9270 C   0  0  0  0  0  0  0  0  0  0  0  0
   21.9780   78.5330   14.6100 C   0  0  0  0  0  0  0  0  0  0  0  0
   21.6190   78.6050   13.2670 C   0  0  0  0  0  3  0  0  0  0  0  0
   22.5970   78.6730   12.2950 C   0  0  0  0  0  0  0  0  0  0  0  0
   23.9450   78.6700   12.6200 C   0  0  0  0  0  3  0  0  0  0  0  0
   24.2900   78.5980   13.9680 C   0  0  0  0  0  3  0  0  0  0  0  0
   22.2430   78.7410   10.8410 C   0  0  0  0  0  1  0  0  0  0  0  0
   20.8760   78.4670   15.5950 C   0  0  0  0  0  2  0  0  0  0  0  0
   24.3350   79.7120   16.6700 C   0  0  0  0  0  1  0  0  0  0  0  0
   21.0910   79.6380   17.7530 C   0  0  0  0  0  0  0  0  0  0  0  0
   21.6250   80.7350   17.3550 O   0  0  0  0  0  0  0  0  0  0  0  0
   20.6130   76.0400   17.0040 O   0  0  0  0  0  0  0  0  0  0  0  0
   24.5140   77.7630   16.2720 H   0  0  0  0  0  0  0  0  0  0  0  0
   20.1620   80.9690   19.6660 C   0  0  0  0  0  0  0  0  0  0  0  0
   19.2080   81.9330   19.3330 C   0  0  0  0  0  3  0  0  0  0  0  0
   19.0490   83.0920   20.0430 C   0  0  0  0  0  3  0  0  0  0  0  0
   19.8410   83.3830   21.1530 C   0  0  0  0  0  0  0  0  0  0  0  0
   19.6130   84.8700   22.0540 Cl  0  0  0  0  0  0  0  0  0  0  0  0
   20.7860   82.4310   21.4840 C   0  0  0  0  0  3  0  0  0  0  0  0
   20.9440   81.2680   20.7700 C   0  0  0  0  0  3  0  0  0  0  0  0
  1  2  1  0  0  0  0
  1 22  1  0  0  0  0
  2  3  2  0  0  0  0
  4  2  1  0  0  0  0
  5  4  1  0  0  0  0
  6 16  1  6  0  0  0
  6  7  1  0  0  0  0
  6  5  1  0  0  0  0
  6 18  1  0  0  0  0
  8 17  1  0  0  0  0
  8  7  1  0  0  0  0
  9  8  1  0  0  0  0
 10  9  1  0  0  0  0
 10 16  1  0  0  0  0
 11 10  2  0  0  0  0
 12 13  2  0  0  0  0
 12 11  1  0  0  0  0
 13 14  1  0  0  0  0
 14  9  2  0  0  0  0
 15 12  1  0  0  0  0
 18  1  1  0  0  0  0
 19 18  2  0  0  0  0
 20  5  2  0  0  0  0
 21  8  1  0  0  0  0
 22 28  1  0  0  0  0
 23 22  2  0  0  0  0
 23 24  1  0  0  0  0
 24 25  2  0  0  0  0
 25 27  1  0  0  0  0
 25 26  1  0  0  0  0
 28 27  2  0  0  0  0
M  END
>  <Pose>
1

>  <Score>
-10.959

$$$$
