MODEL 1
REMARK VINA RESULT:   -10.959      0.000      0.000
REMARK INTER + INTRA:         -11.853
REMARK INTER:                 -11.599
REMARK INTRA:                  -0.254
REMARK UNBOUND:                -0.254
REMARK  1 active torsions:
REMARK  status: ('A' for Active; 'I' for Inactive)
REMARK    1  A    between atoms: C_5  and  N_8 
ROOT
ATOM      1  N   UNK d   1      20.302  79.776  18.921  0.00  0.00    -0.231 N 
ATOM      2  C   UNK d   1      19.617  78.613  19.409  0.00  0.00     0.357 A 
ATOM      3  O   UNK d   1      18.900  78.719  20.443  0.00  0.00    -0.244 OA
ATOM      4  N   UNK d   1      19.798  77.412  18.679  0.00  0.00    -0.169 NA
ATOM      5  C   UNK d   1      20.514  77.286  17.651  0.00  0.00     0.202 A 
ATOM      6  C   UNK d   1      21.320  78.378  17.004  0.00  0.00     0.140 A 
ATOM      7  C   UNK d   1      22.749  77.954  17.191  0.00  0.00     0.269 C 
ATOM      8  N   UNK d   1      23.702  78.461  16.281  0.00  0.00    -0.043 N 
ATOM      9  C   UNK d   1      23.298  78.532  14.927  0.00  0.00     0.140 A 
ATOM     10  C   UNK d   1      21.978  78.533  14.610  0.00  0.00    -0.021 A 
ATOM     11  C   UNK d   1      21.619  78.605  13.267  0.00  0.00     0.016 A 
ATOM     12  C   UNK d   1      22.597  78.673  12.295  0.00  0.00    -0.061 A 
ATOM     13  C   UNK d   1      23.945  78.670  12.620  0.00  0.00     0.009 A 
ATOM     14  C   UNK d   1      24.290  78.598  13.968  0.00  0.00     0.038 A 
ATOM     15  C   UNK d   1      22.243  78.741  10.841  0.00  0.00     0.048 C 
ATOM     16  C   UNK d   1      20.876  78.467  15.595  0.00  0.00     0.070 C 
ATOM     17  C   UNK d   1      24.335  79.712  16.670  0.00  0.00     0.276 C 
ATOM     18  C   UNK d   1      21.091  79.638  17.753  0.00  0.00     0.251 A 
ATOM     19  O   UNK d   1      21.625  80.735  17.355  0.00  0.00    -0.271 OA
ATOM     20  O   UNK d   1      20.613  76.040  17.004  0.00  0.00    -0.173 OA
ATOM     21  H   UNK d   1      24.514  77.763  16.272  0.00  0.00     0.286 HD
ENDROOT
BRANCH   1  22
ATOM     22  C   UNK d   1      20.162  80.969  19.666  0.00  0.00     0.047 A 
ATOM     23  C   UNK d   1      19.208  81.933  19.333  0.00  0.00     0.032 A 
ATOM     24  C   UNK d   1      19.049  83.092  20.043  0.00  0.00     0.026 A 
ATOM     25  C   UNK d   1      19.841  83.383  21.153  0.00  0.00     0.034 A 
ATOM     26 Cl   UNK d   1      19.613  84.870  22.054  0.00  0.00    -0.084 Cl
ATOM     27  C   UNK d   1      20.786  82.431  21.484  0.00  0.00     0.026 A 
ATOM     28  C   UNK d   1      20.944  81.268  20.770  0.00  0.00     0.032 A 
ENDBRANCH   1  22
TORSDOF 1
ENDMDL
