MODEL 1
REMARK VINA RESULT:    -9.237      0.000      0.000
REMARK INTER + INTRA:         -10.840
REMARK INTER:                 -10.318
REMARK INTRA:                  -0.522
REMARK UNBOUND:                -0.522
REMARK  3 active torsions:
REMARK  status: ('A' for Active; 'I' for Inactive)
REMARK    1  A    between atoms: C_5  and  N_8 
REMARK    2  A    between atoms: C_13  and  O_21 
REMARK    3  A    between atoms: C_14  and  O_20 
ROOT
ATOM      1  N   UNK d   1      22.609  78.859  15.703  0.00  0.00    -0.252 N 
ATOM      2  C   UNK d   1      22.208  79.916  16.590  0.00  0.00     0.236 C 
ATOM      3  O   UNK d   1      22.004  81.096  16.209  0.00  0.00    -0.272 OA
ATOM      4  C   UNK d   1      22.078  79.415  17.981  0.00  0.00     0.099 C 
ATOM      5  C   UNK d   1      20.685  79.481  18.517  0.00  0.00     0.031 C 
ATOM      6  C   UNK d   1      19.741  79.317  17.344  0.00  0.00     0.152 C 
ATOM      7  C   UNK d   1      20.044  77.883  16.911  0.00  0.00     0.152 C 
ATOM      8  C   UNK d   1      21.002  77.330  17.940  0.00  0.00     0.031 C 
ATOM      9  C   UNK d   1      22.376  77.916  17.846  0.00  0.00     0.099 C 
ATOM     10  C   UNK d   1      23.012  77.767  16.515  0.00  0.00     0.236 C 
ATOM     11  O   UNK d   1      23.774  76.821  16.197  0.00  0.00    -0.272 OA
ATOM     12  C   UNK d   1      20.486  78.105  19.174  0.00  0.00     0.016 C 
ENDROOT
BRANCH   1  13
ATOM     13  C   UNK d   1      22.618  78.845  14.283  0.00  0.00     0.045 A 
ATOM     14  C   UNK d   1      23.806  79.065  13.576  0.00  0.00     0.032 A 
ATOM     15  C   UNK d   1      23.818  79.060  12.201  0.00  0.00     0.026 A 
ATOM     16  C   UNK d   1      22.666  78.839  11.471  0.00  0.00     0.034 A 
ATOM     17 Cl   UNK d   1      22.710  78.843   9.709  0.00  0.00    -0.084 Cl
ATOM     18  C   UNK d   1      21.475  78.619  12.148  0.00  0.00     0.026 A 
ATOM     19  C   UNK d   1      21.492  78.628  13.523  0.00  0.00     0.032 A 
ENDBRANCH   1  13
BRANCH   6  20
ATOM     20  O   UNK d   1      18.452  79.341  17.832  0.00  0.00    -0.393 OA
ATOM     21  H   UNK d   1      17.858  78.640  17.477  0.00  0.00     0.210 HD
ENDBRANCH   6  20
BRANCH   7  22
ATOM     22  O   UNK d   1      18.901  77.089  16.983  0.00  0.00    -0.393 OA
ATOM     23  H   UNK d   1      18.235  77.579  17.552  0.00  0.00     0.210 HD
ENDBRANCH   7  22
TORSDOF 3
ENDMDL
