MODEL 1
REMARK VINA RESULT:    -9.378      0.000      0.000
REMARK INTER + INTRA:         -13.315
REMARK INTER:                 -12.393
REMARK INTRA:                  -0.923
REMARK UNBOUND:                -0.923
REMARK  6 active torsions:
REMARK  status: ('A' for Active; 'I' for Inactive)
REMARK    1  A    between atoms: C_5  and  N_8 
REMARK    2  A    between atoms: C_14  and  C_17 
REMARK    3  A    between atoms: C_19  and  C_22 
REMARK    4  A    between atoms: C_24  and  O_31 
REMARK    5  A    between atoms: C_25  and  O_30 
REMARK    6  A    between atoms: C_26  and  O_28 
ROOT
ATOM      1  C   UNK d   1      22.318  78.478  13.581  0.00  0.00     0.041 C 
ATOM      2  C   UNK d   1      22.706  78.306  12.333  0.00  0.00     0.026 C 
ATOM      3  C   UNK d   1      22.479  79.550  11.554  0.00  0.00     0.134 C 
ATOM      4  N   UNK d   1      22.363  80.548  12.580  0.00  0.00    -0.228 NA
ATOM      5  N   UNK d   1      21.844  79.818  13.661  0.00  0.00    -0.323 N 
ATOM      6  H   UNK d   1      21.817  81.370  12.330  0.00  0.00     0.147 HD
ATOM      7  H   UNK d   1      21.217  80.210  14.391  0.00  0.00     0.180 HD
ENDROOT
BRANCH   1   8
ATOM      8  C   UNK d   1      22.365  77.484  14.708  0.00  0.00     0.221 C 
ATOM      9  C   UNK d   1      23.764  77.257  15.136  0.00  0.00     0.244 C 
ATOM     10  N   UNK d   1      24.342  78.089  16.122  0.00  0.00    -0.277 N 
ATOM     11  O   UNK d   1      24.421  76.332  14.620  0.00  0.00    -0.272 OA
ATOM     12  C   UNK d   1      23.540  78.879  16.951  0.00  0.00     0.336 C 
ATOM     13  H   UNK d   1      25.393  78.136  16.263  0.00  0.00     0.173 HD
ATOM     14  N   UNK d   1      22.125  78.867  16.823  0.00  0.00    -0.233 N 
ATOM     15  O   UNK d   1      24.036  79.641  17.852  0.00  0.00    -0.246 OA
ATOM     16  C   UNK d   1      21.559  78.027  15.828  0.00  0.00     0.251 C 
ATOM     17  O   UNK d   1      20.353  77.733  15.892  0.00  0.00    -0.271 OA
BRANCH  14  18
ATOM     18  C   UNK d   1      21.327  79.678  17.674  0.00  0.00     0.047 A 
ATOM     19  C   UNK d   1      21.048  80.977  17.336  0.00  0.00     0.032 A 
ATOM     20  C   UNK d   1      20.274  81.789  18.140  0.00  0.00     0.026 A 
ATOM     21  C   UNK d   1      19.758  81.305  19.316  0.00  0.00     0.034 A 
ATOM     22 Cl   UNK d   1      18.763  82.327  20.362  0.00  0.00    -0.084 Cl
ATOM     23  C   UNK d   1      20.026  80.005  19.674  0.00  0.00     0.026 A 
ATOM     24  C   UNK d   1      20.813  79.196  18.845  0.00  0.00     0.032 A 
ENDBRANCH  14  18
ENDBRANCH   1   8
BRANCH   3  25
ATOM     25  C   UNK d   1      21.287  79.376  10.733  0.00  0.00    -0.030 A 
ATOM     26  C   UNK d   1      21.367  78.564   9.622  0.00  0.00     0.049 A 
ATOM     27  C   UNK d   1      20.296  78.333   8.784  0.00  0.00     0.104 A 
ATOM     28  C   UNK d   1      19.082  78.962   9.090  0.00  0.00     0.133 A 
ATOM     29  C   UNK d   1      18.953  79.784  10.188  0.00  0.00     0.104 A 
ATOM     30  C   UNK d   1      20.068  79.968  10.981  0.00  0.00     0.049 A 
BRANCH  27  31
ATOM     31  O   UNK d   1      20.366  77.516   7.663  0.00  0.00    -0.353 OA
ATOM     32  C   UNK d   1      19.985  76.166   7.834  0.00  0.00     0.210 C 
ENDBRANCH  27  31
BRANCH  28  33
ATOM     33  O   UNK d   1      17.984  78.764   8.284  0.00  0.00    -0.356 OA
ATOM     34  H   UNK d   1      18.097  78.333   7.376  0.00  0.00     0.218 HD
ENDBRANCH  28  33
BRANCH  29  35
ATOM     35  O   UNK d   1      17.750  80.373  10.440  0.00  0.00    -0.353 OA
ATOM     36  C   UNK d   1      17.506  81.433  11.319  0.00  0.00     0.210 C 
ENDBRANCH  29  35
ENDBRANCH   3  25
TORSDOF 6
ENDMDL
