/Users/jonathanwahrer/Desktop/Msc/3_Semester/Drug_Design_Praktikum/waehrer_HTS_screening/HTS_experiment/out/docking_results/vina_output/6e43/2358_docked.pdbqt
 OpenBabel03212221083D

 34 37  0  0  1  0  0  0  0  0999 V2000
   21.6650   78.0240   14.8260 N   0  0  0  0  0  0  0  0  0  0  0  0
   20.8060   76.9320   15.1240 C   0  0  0  0  0  0  0  0  0  0  0  0
   20.3740   76.2310   14.1620 O   0  0  0  0  0  0  0  0  0  0  0  0
   20.4330   76.6240   16.4520 N   0  0  0  0  0  0  0  0  0  0  0  0
   20.9110   77.4030   17.5310 C   0  0  0  0  0  0  0  0  0  0  0  0
   20.7350   77.0380   18.7460 O   0  0  0  0  0  0  0  0  0  0  0  0
   21.6280   78.6580   17.3110 C   0  0  1  0  0  3  0  0  0  0  0  0
   22.1240   78.7840   15.9350 C   0  0  0  0  0  0  0  0  0  0  0  0
   23.0440   79.6350   15.6780 O   0  0  0  0  0  0  0  0  0  0  0  0
   19.7950   75.8100   16.6510 H   0  0  0  0  0  0  0  0  0  0  0  0
   20.7760   79.8170   17.7110 C   0  0  1  0  0  3  0  0  0  0  0  0
   19.6640   79.8050   18.3970 C   0  0  0  0  0  2  0  0  0  0  0  0
   19.2120   81.2120   18.5250 C   0  0  2  0  0  3  0  0  0  0  0  0
   19.9380   81.9080   17.4840 N   0  0  0  0  0  0  0  0  0  0  0  0
   21.1120   81.1560   17.3630 N   0  0  0  0  0  0  0  0  0  0  0  0
   19.3980   81.9260   16.5860 H   0  0  0  0  0  0  0  0  0  0  0  0
   22.0380   81.5600   17.0670 H   0  0  0  0  0  0  0  0  0  0  0  0
   19.5740   81.7600   19.8610 C   0  0  0  0  0  0  0  0  0  0  0  0
   18.8040   82.7030   20.5030 C   0  0  0  0  0  3  0  0  0  0  0  0
   19.1320   83.2190   21.7430 C   0  0  0  0  0  0  0  0  0  0  0  0
   20.2700   82.7910   22.3870 C   0  0  0  0  0  0  0  0  0  0  0  0
   21.0520   81.8500   21.7630 C   0  0  0  0  0  3  0  0  0  0  0  0
   20.7170   81.3420   20.5280 C   0  0  0  0  0  3  0  0  0  0  0  0
   18.3180   84.1640   22.3370 O   0  0  0  0  0  0  0  0  0  0  0  0
   18.6240   84.6890   23.1320 H   0  0  0  0  0  0  0  0  0  0  0  0
   20.6160   83.2930   23.6250 O   0  0  0  0  0  0  0  0  0  0  0  0
   20.7060   82.4220   24.7300 C   0  0  0  0  0  1  0  0  0  0  0  0
   22.0590   78.3550   13.5020 C   0  0  0  0  0  0  0  0  0  0  0  0
   21.1360   78.6970   12.5200 C   0  0  0  0  0  3  0  0  0  0  0  0
   21.5090   79.0160   11.2500 C   0  0  0  0  0  3  0  0  0  0  0  0
   22.8530   79.0050   10.9060 C   0  0  0  0  0  0  0  0  0  0  0  0
   23.3740   79.4110    9.2810 Cl  0  0  0  0  0  0  0  0  0  0  0  0
   23.8000   78.6700   11.8600 C   0  0  0  0  0  3  0  0  0  0  0  0
   23.3920   78.3460   13.1560 C   0  0  0  0  0  3  0  0  0  0  0  0
  1  2  1  0  0  0  0
  1  8  1  0  0  0  0
  2  4  1  0  0  0  0
  3  2  2  0  0  0  0
  4 10  1  0  0  0  0
  4  5  1  0  0  0  0
  5  6  2  0  0  0  0
  7  8  1  6  0  0  0
  7  5  1  0  0  0  0
  7 11  1  0  0  0  0
  9  8  2  0  0  0  0
 11 12  1  1  0  0  0
 12 13  1  0  0  0  0
 13 18  1  1  0  0  0
 14 13  1  0  0  0  0
 15 14  1  0  0  0  0
 15 11  1  0  0  0  0
 16 14  1  0  0  0  0
 17 15  1  0  0  0  0
 18 19  2  0  0  0  0
 18 23  1  0  0  0  0
 19 20  1  0  0  0  0
 20 24  1  0  0  0  0
 20 21  2  0  0  0  0
 21 26  1  0  0  0  0
 22 21  1  0  0  0  0
 23 22  2  0  0  0  0
 24 25  1  0  0  0  0
 26 27  1  0  0  0  0
 28  1  1  0  0  0  0
 29 28  2  0  0  0  0
 30 29  1  0  0  0  0
 31 30  2  0  0  0  0
 31 33  1  0  0  0  0
 32 31  1  0  0  0  0
 33 34  2  0  0  0  0
 34 28  1  0  0  0  0
M  END
>  <Pose>
1

>  <Score>
-10.186

$$$$
