/Users/jonathanwahrer/Desktop/Msc/3_Semester/Drug_Design_Praktikum/waehrer_HTS_screening/HTS_experiment/out/docking_results/vina_output/6e43/2359_docked.pdbqt
 OpenBabel03212221083D

 32 35  0  0  1  0  0  0  0  0999 V2000
   20.5290   79.8790   18.7760 N   0  0  0  0  0  0  0  0  0  0  0  0
   20.1370   78.5480   19.1460 C   0  0  0  0  0  0  0  0  0  0  0  0
   19.5480   78.3130   20.2460 O   0  0  0  0  0  0  0  0  0  0  0  0
   20.4410   77.5130   18.2230 N   0  0  0  0  0  0  0  0  0  0  0  0
   21.1130   77.8090   16.9780 C   0  0  0  0  0  0  0  0  0  0  0  0
   20.9520   77.0020   16.0530 O   0  0  0  0  0  0  0  0  0  0  0  0
   21.9240   79.0060   16.8750 C   0  0  2  0  0  3  0  0  0  0  0  0
   21.1860   80.1200   17.5420 C   0  0  0  0  0  0  0  0  0  0  0  0
   21.1040   81.2840   17.0740 O   0  0  0  0  0  0  0  0  0  0  0  0
   20.1660   76.5460   18.4720 H   0  0  0  0  0  0  0  0  0  0  0  0
   22.4360   79.3670   15.5730 C   0  0  2  0  0  3  0  0  0  0  0  0
   22.8110   78.5900   14.5820 C   0  0  0  0  0  2  0  0  0  0  0  0
   23.2740   79.3850   13.4190 C   0  0  2  0  0  3  0  0  0  0  0  0
   22.8660   80.7270   13.7670 N   0  0  0  0  0  0  0  0  0  0  0  0
   22.6350   80.7300   15.1410 N   0  0  0  0  0  0  0  0  0  0  0  0
   22.0490   81.0600   13.2110 H   0  0  0  0  0  0  0  0  0  0  0  0
   22.6230   81.6040   15.7080 H   0  0  0  0  0  0  0  0  0  0  0  0
   22.6010   79.0220   12.1660 C   0  0  0  0  0  0  0  0  0  0  0  0
   21.2890   78.5790   12.2340 C   0  0  0  0  0  3  0  0  0  0  0  0
   20.6300   78.2320   11.0780 C   0  0  0  0  0  0  0  0  0  0  0  0
   21.2370   78.3120    9.8470 C   0  0  0  0  0  3  0  0  0  0  0  0
   22.5380   78.7490    9.7630 C   0  0  0  0  0  3  0  0  0  0  0  0
   23.2050   79.1000   10.9380 C   0  0  0  0  0  3  0  0  0  0  0  0
   19.3030   77.7830   11.1330 O   0  0  0  0  0  0  0  0  0  0  0  0
   18.5600   78.4580   11.1810 H   0  0  0  0  0  0  0  0  0  0  0  0
   20.2230   80.9380   19.7120 C   0  0  0  0  0  0  0  0  0  0  0  0
   19.0400   81.6460   19.6420 C   0  0  0  0  0  3  0  0  0  0  0  0
   18.7190   82.6650   20.5200 C   0  0  0  0  0  3  0  0  0  0  0  0
   19.6170   83.0030   21.5230 C   0  0  0  0  0  0  0  0  0  0  0  0
   19.1870   84.2890   22.6120 Cl  0  0  0  0  0  0  0  0  0  0  0  0
   20.8180   82.3030   21.6130 C   0  0  0  0  0  3  0  0  0  0  0  0
   21.1040   81.2890   20.7170 C   0  0  0  0  0  3  0  0  0  0  0  0
  1  2  1  0  0  0  0
  1 26  1  0  0  0  0
  2  3  2  0  0  0  0
  4 10  1  0  0  0  0
  4  2  1  0  0  0  0
  5  4  1  0  0  0  0
  6  5  2  0  0  0  0
  7  5  1  6  0  0  0
  7  8  1  0  0  0  0
  8  1  1  0  0  0  0
  9  8  2  0  0  0  0
 11 12  1  1  0  0  0
 11  7  1  0  0  0  0
 13 18  1  6  0  0  0
 13 14  1  0  0  0  0
 13 12  1  0  0  0  0
 14 15  1  0  0  0  0
 15 11  1  0  0  0  0
 15 17  1  0  0  0  0
 16 14  1  0  0  0  0
 18 19  1  0  0  0  0
 20 24  1  0  0  0  0
 20 19  2  0  0  0  0
 21 20  1  0  0  0  0
 22 21  2  0  0  0  0
 22 23  1  0  0  0  0
 23 18  2  0  0  0  0
 24 25  1  0  0  0  0
 26 32  1  0  0  0  0
 27 26  2  0  0  0  0
 27 28  1  0  0  0  0
 28 29  2  0  0  0  0
 29 31  1  0  0  0  0
 29 30  1  0  0  0  0
 32 31  2  0  0  0  0
M  END
>  <Pose>
1

>  <Score>
-11.208

$$$$
