MODEL 1
REMARK VINA RESULT:   -11.208      0.000      0.000
REMARK INTER + INTRA:         -13.634
REMARK INTER:                 -13.502
REMARK INTRA:                  -0.133
REMARK UNBOUND:                -0.133
REMARK  4 active torsions:
REMARK  status: ('A' for Active; 'I' for Inactive)
REMARK    1  A    between atoms: C_5  and  N_8 
REMARK    2  A    between atoms: C_14  and  C_17 
REMARK    3  A    between atoms: C_19  and  C_22 
REMARK    4  A    between atoms: C_24  and  O_28 
ROOT
ATOM      1  N   UNK d   1      20.529  79.879  18.776  0.00  0.00    -0.233 N 
ATOM      2  C   UNK d   1      20.137  78.548  19.146  0.00  0.00     0.336 C 
ATOM      3  O   UNK d   1      19.548  78.313  20.246  0.00  0.00    -0.246 OA
ATOM      4  N   UNK d   1      20.441  77.513  18.223  0.00  0.00    -0.277 N 
ATOM      5  C   UNK d   1      21.113  77.809  16.978  0.00  0.00     0.244 C 
ATOM      6  O   UNK d   1      20.952  77.002  16.053  0.00  0.00    -0.272 OA
ATOM      7  C   UNK d   1      21.924  79.006  16.875  0.00  0.00     0.221 C 
ATOM      8  C   UNK d   1      21.186  80.120  17.542  0.00  0.00     0.251 C 
ATOM      9  O   UNK d   1      21.104  81.284  17.074  0.00  0.00    -0.271 OA
ATOM     10  H   UNK d   1      20.166  76.546  18.472  0.00  0.00     0.173 HD
ENDROOT
BRANCH   7  11
ATOM     11  C   UNK d   1      22.436  79.367  15.573  0.00  0.00     0.041 C 
ATOM     12  C   UNK d   1      22.811  78.590  14.582  0.00  0.00     0.026 C 
ATOM     13  C   UNK d   1      23.274  79.385  13.419  0.00  0.00     0.134 C 
ATOM     14  N   UNK d   1      22.866  80.727  13.767  0.00  0.00    -0.228 NA
ATOM     15  N   UNK d   1      22.635  80.730  15.141  0.00  0.00    -0.323 N 
ATOM     16  H   UNK d   1      22.049  81.060  13.211  0.00  0.00     0.147 HD
ATOM     17  H   UNK d   1      22.623  81.604  15.708  0.00  0.00     0.180 HD
BRANCH  13  18
ATOM     18  C   UNK d   1      22.601  79.022  12.166  0.00  0.00    -0.033 A 
ATOM     19  C   UNK d   1      21.289  78.579  12.234  0.00  0.00     0.045 A 
ATOM     20  C   UNK d   1      20.630  78.232  11.078  0.00  0.00     0.066 A 
ATOM     21  C   UNK d   1      21.237  78.312   9.847  0.00  0.00     0.036 A 
ATOM     22  C   UNK d   1      22.538  78.749   9.763  0.00  0.00     0.003 A 
ATOM     23  C   UNK d   1      23.205  79.100  10.938  0.00  0.00     0.009 A 
BRANCH  20  24
ATOM     24  O   UNK d   1      19.303  77.783  11.133  0.00  0.00    -0.361 OA
ATOM     25  H   UNK d   1      18.560  78.458  11.181  0.00  0.00     0.217 HD
ENDBRANCH  20  24
ENDBRANCH  13  18
ENDBRANCH   7  11
BRANCH   1  26
ATOM     26  C   UNK d   1      20.223  80.938  19.712  0.00  0.00     0.047 A 
ATOM     27  C   UNK d   1      19.040  81.646  19.642  0.00  0.00     0.032 A 
ATOM     28  C   UNK d   1      18.719  82.665  20.520  0.00  0.00     0.026 A 
ATOM     29  C   UNK d   1      19.617  83.003  21.523  0.00  0.00     0.034 A 
ATOM     30 Cl   UNK d   1      19.187  84.289  22.612  0.00  0.00    -0.084 Cl
ATOM     31  C   UNK d   1      20.818  82.303  21.613  0.00  0.00     0.026 A 
ATOM     32  C   UNK d   1      21.104  81.289  20.717  0.00  0.00     0.032 A 
ENDBRANCH   1  26
TORSDOF 4
ENDMDL
