MODEL 1
REMARK VINA RESULT:   -10.514      0.000      0.000
REMARK INTER + INTRA:         -13.176
REMARK INTER:                 -12.358
REMARK INTRA:                  -0.819
REMARK UNBOUND:                -0.819
REMARK  3 active torsions:
REMARK  status: ('A' for Active; 'I' for Inactive)
REMARK    1  A    between atoms: C_5  and  N_8 
REMARK    2  A    between atoms: C_14  and  C_17 
REMARK    3  A    between atoms: C_19  and  C_22 
ROOT
ATOM      1  N   UNK d   1      22.900  78.837  14.082  0.00  0.00    -0.233 N 
ATOM      2  C   UNK d   1      23.368  80.097  14.526  0.00  0.00     0.336 C 
ATOM      3  O   UNK d   1      23.305  81.098  13.770  0.00  0.00    -0.246 OA
ATOM      4  N   UNK d   1      23.910  80.208  15.854  0.00  0.00    -0.277 N 
ATOM      5  C   UNK d   1      23.982  79.077  16.712  0.00  0.00     0.244 C 
ATOM      6  O   UNK d   1      24.746  79.105  17.708  0.00  0.00    -0.272 OA
ATOM      7  C   UNK d   1      23.158  77.894  16.417  0.00  0.00     0.221 C 
ATOM      8  C   UNK d   1      22.987  77.731  14.963  0.00  0.00     0.251 C 
ATOM      9  O   UNK d   1      22.910  76.556  14.462  0.00  0.00    -0.271 OA
ATOM     10  H   UNK d   1      24.266  81.116  16.222  0.00  0.00     0.173 HD
ENDROOT
BRANCH   7  11
ATOM     11  C   UNK d   1      21.818  77.994  17.086  0.00  0.00     0.041 C 
ATOM     12  C   UNK d   1      20.732  78.574  16.646  0.00  0.00     0.026 C 
ATOM     13  C   UNK d   1      19.662  78.421  17.645  0.00  0.00     0.135 C 
ATOM     14  N   UNK d   1      20.152  77.397  18.524  0.00  0.00    -0.228 NA
ATOM     15  N   UNK d   1      21.545  77.430  18.358  0.00  0.00    -0.323 N 
ATOM     16  H   UNK d   1      19.764  76.473  18.308  0.00  0.00     0.147 HD
ATOM     17  H   UNK d   1      22.203  77.079  19.091  0.00  0.00     0.180 HD
BRANCH  13  18
ATOM     18  C   UNK d   1      19.558  79.713  18.371  0.00  0.00    -0.018 A 
ATOM     19  C   UNK d   1      18.946  79.768  19.601  0.00  0.00     0.125 A 
ATOM     20  N   UNK d   1      18.846  80.948  20.272  0.00  0.00    -0.273 NA
ATOM     21  C   UNK d   1      19.329  82.101  19.780  0.00  0.00     0.116 A 
ATOM     22  C   UNK d   1      19.947  82.082  18.551  0.00  0.00     0.020 A 
ATOM     23  C   UNK d   1      20.059  80.874  17.846  0.00  0.00     0.012 A 
ENDBRANCH  13  18
ENDBRANCH   7  11
BRANCH   1  24
ATOM     24  C   UNK d   1      22.351  78.680  12.751  0.00  0.00     0.047 A 
ATOM     25  C   UNK d   1      21.012  78.433  12.538  0.00  0.00     0.032 A 
ATOM     26  C   UNK d   1      20.499  78.283  11.255  0.00  0.00     0.026 A 
ATOM     27  C   UNK d   1      21.315  78.377  10.147  0.00  0.00     0.034 A 
ATOM     28 Cl   UNK d   1      20.673  78.190   8.524  0.00  0.00    -0.084 Cl
ATOM     29  C   UNK d   1      22.654  78.623  10.365  0.00  0.00     0.026 A 
ATOM     30  C   UNK d   1      23.163  78.772  11.643  0.00  0.00     0.032 A 
ENDBRANCH   1  24
TORSDOF 3
ENDMDL
