/Users/jonathanwahrer/Desktop/Msc/3_Semester/Drug_Design_Praktikum/waehrer_HTS_screening/HTS_experiment/out/docking_results/vina_output/6e43/2363_docked.pdbqt
 OpenBabel03212221093D

 33 36  0  0  1  0  0  0  0  0999 V2000
   21.9210   79.2460   15.6030 N   0  0  0  0  0  0  0  0  0  0  0  0
   21.4430   78.1140   16.3140 C   0  0  2  0  0  0  0  0  0  0  0  0
   20.9160   78.4060   17.6390 C   0  0  0  0  0  0  0  0  0  0  0  0
   20.9650   79.6490   18.1940 C   0  0  0  0  0  0  0  0  0  0  0  0
   20.4550   79.8550   19.4900 C   0  0  0  0  0  3  0  0  0  0  0  0
   19.9000   78.8480   20.2390 C   0  0  0  0  0  3  0  0  0  0  0  0
   19.8580   77.5920   19.6580 C   0  0  0  0  0  3  0  0  0  0  0  0
   20.3480   77.3860   18.4090 C   0  0  0  0  0  3  0  0  0  0  0  0
   21.5010   80.7800   17.4890 N   0  0  0  0  0  0  0  0  0  0  0  0
   21.9730   80.5230   16.1810 C   0  0  0  0  0  0  0  0  0  0  0  0
   22.4660   81.4730   15.4900 O   0  0  0  0  0  0  0  0  0  0  0  0
   21.5240   81.7100   17.9440 H   0  0  0  0  0  0  0  0  0  0  0  0
   22.6130   77.2950   16.5020 O   0  0  0  0  0  0  0  0  0  0  0  0
   23.2210   77.4060   15.7250 H   0  0  0  0  0  0  0  0  0  0  0  0
   20.5160   77.2850   15.5030 C   0  0  0  0  0  0  0  0  0  0  0  0
   19.3000   77.3480   15.6950 O   0  0  0  0  0  0  0  0  0  0  0  0
   21.0710   76.4410   14.5230 N   0  0  0  0  0  0  0  0  0  0  0  0
   22.1130   76.3800   14.3510 H   0  0  0  0  0  0  0  0  0  0  0  0
   20.2520   75.5820   13.6670 C   0  0  0  0  0  2  0  0  0  0  0  0
   20.0490   74.2320   14.2410 C   0  0  0  0  0  2  0  0  0  0  0  0
   19.1280   73.3800   13.5940 N   0  0  0  0  0  0  0  0  0  0  0  0
   18.0810   73.9520   12.8520 C   0  0  0  0  0  2  0  0  0  0  0  0
   17.4010   72.8470   12.0380 C   0  0  0  0  0  2  0  0  0  0  0  0
   17.4150   71.6360   12.7520 O   0  0  0  0  0  0  0  0  0  0  0  0
   18.6990   71.0990   12.8100 C   0  0  0  0  0  2  0  0  0  0  0  0
   19.6800   72.2300   12.9620 C   0  0  0  0  0  2  0  0  0  0  0  0
   22.3730   79.0890   14.2140 C   0  0  0  0  0  0  0  0  0  0  0  0
   23.6620   78.7370   13.9150 C   0  0  0  0  0  3  0  0  0  0  0  0
   24.0760   78.5920   12.5940 C   0  0  0  0  0  3  0  0  0  0  0  0
   23.1750   78.8050   11.5760 C   0  0  0  0  0  0  0  0  0  0  0  0
   23.7090   78.6190    9.9020 Cl  0  0  0  0  0  0  0  0  0  0  0  0
   21.8710   79.1600   11.8500 C   0  0  0  0  0  3  0  0  0  0  0  0
   21.4930   79.2960   13.1740 C   0  0  0  0  0  3  0  0  0  0  0  0
  1 10  1  0  0  0  0
  1  2  1  0  0  0  0
  2 15  1  6  0  0  0
  2 13  1  0  0  0  0
  2  3  1  0  0  0  0
  3  4  2  0  0  0  0
  3  8  1  0  0  0  0
  4  5  1  0  0  0  0
  5  6  2  0  0  0  0
  7  6  1  0  0  0  0
  8  7  2  0  0  0  0
  9 12  1  0  0  0  0
  9  4  1  0  0  0  0
 10  9  1  0  0  0  0
 11 10  2  0  0  0  0
 14 13  1  0  0  0  0
 15 16  2  0  0  0  0
 17 15  1  0  0  0  0
 18 17  1  0  0  0  0
 19 20  1  0  0  0  0
 19 17  1  0  0  0  0
 21 20  1  0  0  0  0
 22 21  1  0  0  0  0
 23 24  1  0  0  0  0
 23 22  1  0  0  0  0
 24 25  1  0  0  0  0
 25 26  1  0  0  0  0
 26 21  1  0  0  0  0
 27  1  1  0  0  0  0
 28 27  1  0  0  0  0
 29 28  2  0  0  0  0
 30 32  2  0  0  0  0
 30 29  1  0  0  0  0
 31 30  1  0  0  0  0
 32 33  1  0  0  0  0
 33 27  2  0  0  0  0
M  END
>  <Pose>
1

>  <Score>
-8.805

$$$$
