MODEL 1
REMARK VINA RESULT:    -9.869      0.000      0.000
REMARK INTER + INTRA:         -13.055
REMARK INTER:                 -13.042
REMARK INTRA:                  -0.013
REMARK UNBOUND:                -0.013
REMARK  6 active torsions:
REMARK  status: ('A' for Active; 'I' for Inactive)
REMARK    1  A    between atoms: C_4  and  C_8 
REMARK    2  A    between atoms: C_8  and  N_9 
REMARK    3  A    between atoms: N_16  and  C_18 
REMARK    4  A    between atoms: C_18  and  C_19 
REMARK    5  A    between atoms: C_21  and  O_25 
REMARK    6  A    between atoms: C_30  and  O_32 
ROOT
ATOM      1  N   UNK d   1      21.591  77.503  16.945  0.00  0.00    -0.280 N 
ATOM      2  C   UNK d   1      22.823  77.659  16.251  0.00  0.00     0.260 C 
ATOM      3  O   UNK d   1      23.875  77.952  16.905  0.00  0.00    -0.270 OA
ATOM      4  C   UNK d   1      22.957  77.499  14.799  0.00  0.00     0.319 C 
ATOM      5  N   UNK d   1      21.726  77.405  14.088  0.00  0.00     0.127 N 
ATOM      6  C   UNK d   1      20.642  76.776  14.770  0.00  0.00     0.292 A 
ATOM      7  C   UNK d   1      20.554  75.276  14.628  0.00  0.00     0.326 A 
ATOM      8  N   UNK d   1      19.368  75.424  13.848  0.00  0.00     0.098 N 
ATOM      9  C   UNK d   1      19.395  76.832  13.904  0.00  0.00     0.326 A 
ATOM     10  C   UNK d   1      20.431  77.273  16.155  0.00  0.00     0.270 C 
ATOM     11  O   UNK d   1      19.293  77.493  16.642  0.00  0.00    -0.270 OA
ATOM     12  C   UNK d   1      21.336  78.726  13.686  0.00  0.00     0.307 C 
ATOM     13  C   UNK d   1      22.416  79.680  14.114  0.00  0.00     0.149 C 
ATOM     14  C   UNK d   1      23.611  78.784  14.273  0.00  0.00     0.079 C 
ENDROOT
BRANCH   8  15
ATOM     15  C   UNK d   1      19.260  74.743  12.609  0.00  0.00     0.311 C 
BRANCH  15  16
ATOM     16  C   UNK d   1      18.809  73.349  12.676  0.00  0.00    -0.028 A 
ATOM     17  C   UNK d   1      17.511  73.030  12.361  0.00  0.00     0.045 A 
ATOM     18  C   UNK d   1      17.054  71.711  12.415  0.00  0.00     0.068 A 
ATOM     19  C   UNK d   1      17.927  70.716  12.793  0.00  0.00     0.037 A 
ATOM     20  C   UNK d   1      19.232  71.007  13.112  0.00  0.00     0.003 A 
ATOM     21  C   UNK d   1      19.654  72.333  13.047  0.00  0.00     0.009 A 
BRANCH  18  22
ATOM     22  O   UNK d   1      15.749  71.387  12.100  0.00  0.00    -0.356 OA
ATOM     23  C   UNK d   1      15.518  70.382  11.130  0.00  0.00     0.210 C 
ENDBRANCH  18  22
ENDBRANCH  15  16
ENDBRANCH   8  15
BRANCH   1  24
ATOM     24  C   UNK d   1      21.505  77.575  18.393  0.00  0.00     0.173 C 
BRANCH  24  25
ATOM     25  C   UNK d   1      20.693  78.775  18.797  0.00  0.00    -0.038 A 
ATOM     26  C   UNK d   1      21.008  80.031  18.330  0.00  0.00     0.032 A 
ATOM     27  C   UNK d   1      20.280  81.148  18.686  0.00  0.00     0.034 A 
ATOM     28 Cl   UNK d   1      20.709  82.729  18.073  0.00  0.00    -0.084 Cl
ATOM     29  C   UNK d   1      19.204  81.024  19.533  0.00  0.00     0.024 A 
ATOM     30  C   UNK d   1      18.907  79.760  19.988  0.00  0.00     0.002 A 
ATOM     31  C   UNK d   1      19.615  78.652  19.645  0.00  0.00     0.009 A 
ENDBRANCH  24  25
ENDBRANCH   1  24
BRANCH  13  32
ATOM     32  O   UNK d   1      22.632  80.700  13.198  0.00  0.00    -0.394 OA
ATOM     33  H   UNK d   1      22.915  80.278  12.350  0.00  0.00     0.210 HD
ENDBRANCH  13  32
TORSDOF 6
ENDMDL
