MODEL 1
REMARK VINA RESULT:   -10.384      0.000      0.000
REMARK INTER + INTRA:         -14.775
REMARK INTER:                 -14.026
REMARK INTRA:                  -0.749
REMARK UNBOUND:                -0.749
REMARK  6 active torsions:
REMARK  status: ('A' for Active; 'I' for Inactive)
REMARK    1  A    between atoms: N_4  and  C_7 
REMARK    2  A    between atoms: C_7  and  C_8 
REMARK    3  A    between atoms: C_8  and  C_10 
REMARK       I    between atoms: C_10  and  N_12 
REMARK    4  A    between atoms: N_12  and  N_13 
REMARK       I    between atoms: N_13  and  C_14 
REMARK    5  A    between atoms: C_14  and  C_16 
REMARK    6  A    between atoms: C_18  and  N_26 
ROOT
ATOM      1  N   UNK d   1      20.106  76.082  14.849  0.00  0.00    -0.267 N 
ATOM      2  C   UNK d   1      20.806  77.238  14.470  0.00  0.00     0.245 C 
ATOM      3  O   UNK d   1      20.858  77.531  13.237  0.00  0.00    -0.271 OA
ATOM      4  H   UNK d   1      20.053  75.827  15.866  0.00  0.00     0.190 HD
ENDROOT
BRANCH   2   5
ATOM      5  C   UNK d   1      21.494  78.147  15.416  0.00  0.00     0.045 C 
ATOM      6  C   UNK d   1      20.554  78.577  16.524  0.00  0.00     0.054 C 
ATOM      7  C   UNK d   1      21.243  79.509  17.480  0.00  0.00     0.078 C 
ATOM      8  C   UNK d   1      22.387  78.725  18.125  0.00  0.00     0.039 C 
ATOM      9  C   UNK d   1      21.834  80.708  16.805  0.00  0.00     0.039 C 
ATOM     10  C   UNK d   1      23.338  78.264  17.067  0.00  0.00    -0.010 C 
ATOM     11  C   UNK d   1      22.629  77.385  16.063  0.00  0.00     0.024 C 
ATOM     12  C   UNK d   1      23.913  79.470  16.361  0.00  0.00     0.009 C 
ATOM     13  C   UNK d   1      22.769  80.225  15.726  0.00  0.00    -0.010 C 
ATOM     14  C   UNK d   1      22.066  79.359  14.714  0.00  0.00     0.024 C 
BRANCH   7  15
ATOM     15  N   UNK d   1      20.280  79.867  18.502  0.00  0.00    -0.159 N 
ATOM     16  N   UNK d   1      19.242  79.194  18.965  0.00  0.00    -0.046 NA
ATOM     17  N   UNK d   1      18.608  79.850  19.890  0.00  0.00    -0.122 NA
ATOM     18  C   UNK d   1      19.228  81.003  20.066  0.00  0.00     0.282 A 
ATOM     19  N   UNK d   1      20.277  81.017  19.197  0.00  0.00    -0.144 NA
ENDBRANCH   7  15
ENDBRANCH   2   5
BRANCH   1  20
ATOM     20  N   UNK d   1      19.487  75.279  13.918  0.00  0.00    -0.267 N 
ATOM     21  C   UNK d   1      19.799  73.917  13.693  0.00  0.00     0.241 C 
ATOM     22  O   UNK d   1      20.693  73.336  14.358  0.00  0.00    -0.271 OA
ATOM     23  H   UNK d   1      18.722  75.697  13.318  0.00  0.00     0.190 HD
BRANCH  21  24
ATOM     24  C   UNK d   1      19.090  73.098  12.666  0.00  0.00     0.095 C 
ATOM     25  C   UNK d   1      18.442  71.889  13.250  0.00  0.00     0.022 C 
BRANCH  24  26
ATOM     26  C   UNK d   1      18.095  73.971  11.937  0.00  0.00     0.164 C 
BRANCH  26  27
ATOM     27  N   UNK d   1      18.676  74.643  10.799  0.00  0.00    -0.279 N 
ATOM     28  C   UNK d   1      19.113  75.927  10.719  0.00  0.00     0.133 A 
ATOM     29  C   UNK d   1      19.599  76.171   9.450  0.00  0.00     0.047 A 
ATOM     30 Br   UNK d   1      20.345  77.772   8.733  0.00  0.00    -0.048 Br
ATOM     31  C   UNK d   1      19.434  74.965   8.765  0.00  0.00     0.159 A 
ATOM     32  N   UNK d   1      18.878  74.098   9.630  0.00  0.00    -0.184 NA
ENDBRANCH  26  27
ENDBRANCH  24  26
ENDBRANCH  21  24
ENDBRANCH   1  20
TORSDOF 6
ENDMDL
