/Users/jonathanwahrer/Desktop/Msc/3_Semester/Drug_Design_Praktikum/waehrer_HTS_screening/HTS_experiment/out/docking_results/vina_output/6e43/2365_docked.pdbqt
 OpenBabel03212221093D

 32 36  0  0  1  0  0  0  0  0999 V2000
   20.1060   76.0820   14.8490 N   0  0  0  0  0  0  0  0  0  0  0  0
   20.8060   77.2380   14.4700 C   0  0  0  0  0  0  0  0  0  0  0  0
   20.8580   77.5310   13.2370 O   0  0  0  0  0  0  0  0  0  0  0  0
   20.0530   75.8270   15.8660 H   0  0  0  0  0  0  0  0  0  0  0  0
   21.4940   78.1470   15.4160 C   0  0  1  0  0  0  0  0  0  0  0  0
   20.5540   78.5770   16.5240 C   0  0  0  0  0  2  0  0  0  0  0  0
   21.2430   79.5090   17.4800 C   0  0  1  0  0  0  0  0  0  0  0  0
   22.3870   78.7250   18.1250 C   0  0  0  0  0  2  0  0  0  0  0  0
   21.8340   80.7080   16.8050 C   0  0  0  0  0  2  0  0  0  0  0  0
   23.3380   78.2640   17.0670 C   0  0  1  0  0  3  0  0  0  0  0  0
   22.6290   77.3850   16.0630 C   0  0  0  0  0  2  0  0  0  0  0  0
   23.9130   79.4700   16.3610 C   0  0  0  0  0  2  0  0  0  0  0  0
   22.7690   80.2250   15.7260 C   0  0  1  0  0  3  0  0  0  0  0  0
   22.0660   79.3590   14.7140 C   0  0  0  0  0  2  0  0  0  0  0  0
   20.2800   79.8670   18.5020 N   0  0  0  0  0  0  0  0  0  0  0  0
   19.2420   79.1940   18.9650 N   0  0  0  0  0  0  0  0  0  0  0  0
   18.6080   79.8500   19.8900 N   0  0  0  0  0  0  0  0  0  0  0  0
   19.2280   81.0030   20.0660 C   0  0  0  0  0  3  0  0  0  0  0  0
   20.2770   81.0170   19.1970 N   0  0  0  0  0  0  0  0  0  0  0  0
   19.4870   75.2790   13.9180 N   0  0  0  0  0  0  0  0  0  0  0  0
   19.7990   73.9170   13.6930 C   0  0  0  0  0  0  0  0  0  0  0  0
   20.6930   73.3360   14.3580 O   0  0  0  0  0  0  0  0  0  0  0  0
   18.7220   75.6970   13.3180 H   0  0  0  0  0  0  0  0  0  0  0  0
   19.0900   73.0980   12.6660 C   0  0  1  0  0  3  0  0  0  0  0  0
   18.4420   71.8890   13.2500 C   0  0  0  0  0  1  0  0  0  0  0  0
   18.0950   73.9710   11.9370 C   0  0  0  0  0  2  0  0  0  0  0  0
   18.6760   74.6430   10.7990 N   0  0  0  0  0  0  0  0  0  0  0  0
   19.1130   75.9270   10.7190 C   0  0  0  0  0  3  0  0  0  0  0  0
   19.5990   76.1710    9.4500 C   0  0  0  0  0  0  0  0  0  0  0  0
   20.3450   77.7720    8.7330 Br  0  0  0  0  0  0  0  0  0  0  0  0
   19.4340   74.9650    8.7650 C   0  0  0  0  0  3  0  0  0  0  0  0
   18.8780   74.0980    9.6300 N   0  0  0  0  0  0  0  0  0  0  0  0
  1  4  1  0  0  0  0
  2  1  1  0  0  0  0
  3  2  2  0  0  0  0
  5  2  1  6  0  0  0
  5 11  1  0  0  0  0
  5  6  1  0  0  0  0
  7  6  1  6  0  0  0
  7  8  1  0  0  0  0
  7 15  1  0  0  0  0
  9  7  1  0  0  0  0
 10 11  1  6  0  0  0
 10  8  1  0  0  0  0
 12 10  1  0  0  0  0
 13 14  1  6  0  0  0
 13 12  1  0  0  0  0
 13  9  1  0  0  0  0
 14  5  1  0  0  0  0
 15 16  1  0  0  0  0
 15 19  1  0  0  0  0
 16 17  2  0  0  0  0
 17 18  1  0  0  0  0
 19 18  2  0  0  0  0
 20  1  1  0  0  0  0
 21 20  1  0  0  0  0
 21 22  2  0  0  0  0
 23 20  1  0  0  0  0
 24 25  1  1  0  0  0
 24 21  1  0  0  0  0
 26 24  1  0  0  0  0
 27 26  1  0  0  0  0
 28 27  1  0  0  0  0
 29 28  2  0  0  0  0
 30 29  1  0  0  0  0
 31 29  1  0  0  0  0
 31 32  2  0  0  0  0
 32 27  1  0  0  0  0
M  END
>  <Pose>
1

>  <Score>
-10.384

$$$$
