MODEL 1
REMARK VINA RESULT:    -9.992      0.000      0.000
REMARK INTER + INTRA:         -13.612
REMARK INTER:                 -12.620
REMARK INTRA:                  -0.992
REMARK UNBOUND:                -0.992
REMARK  5 active torsions:
REMARK  status: ('A' for Active; 'I' for Inactive)
REMARK    1  A    between atoms: C_5  and  C_8 
REMARK    2  A    between atoms: C_8  and  O_33 
REMARK       I    between atoms: N_11  and  C_14 
REMARK    3  A    between atoms: C_14  and  C_16 
REMARK    4  A    between atoms: C_16  and  N_17 
REMARK       I    between atoms: N_17  and  C_18 
REMARK    5  A    between atoms: C_20  and  C_21 
ROOT
ATOM      1  C   UNK d   1      23.489  77.408  15.419  0.00  0.00     0.172 C 
ATOM      2  C   UNK d   1      24.684  76.777  15.898  0.00  0.00     0.042 C 
ENDROOT
BRANCH   1   3
ATOM      3  C   UNK d   1      23.514  78.912  15.184  0.00  0.00     0.242 C 
ATOM      4  N   UNK d   1      22.937  79.789  16.134  0.00  0.00    -0.350 N 
ATOM      5  C   UNK d   1      22.568  81.150  15.922  0.00  0.00     0.129 C 
ATOM      6  C   UNK d   1      22.978  79.392  17.556  0.00  0.00     0.129 C 
ATOM      7  C   UNK d   1      21.372  81.633  16.704  0.00  0.00     0.062 C 
ATOM      8  C   UNK d   1      20.815  80.728  17.719  0.00  0.00     0.088 C 
ATOM      9  C   UNK d   1      21.742  79.667  18.259  0.00  0.00     0.062 C 
ATOM     10  O   UNK d   1      24.046  79.341  14.163  0.00  0.00    -0.271 OA
BRANCH   8  11
ATOM     11  C   UNK d   1      20.281  81.415  18.918  0.00  0.00    -0.024 A 
ATOM     12  C   UNK d   1      20.319  82.801  18.897  0.00  0.00     0.012 A 
ATOM     13  C   UNK d   1      19.817  83.570  19.958  0.00  0.00     0.024 A 
ATOM     14  C   UNK d   1      19.267  82.948  21.055  0.00  0.00     0.034 A 
ATOM     15 Cl   UNK d   1      18.608  83.908  22.401  0.00  0.00    -0.084 Cl
ATOM     16  C   UNK d   1      19.228  81.565  21.075  0.00  0.00     0.024 A 
ATOM     17  C   UNK d   1      19.736  80.827  20.013  0.00  0.00     0.012 A 
ENDBRANCH   8  11
BRANCH   8  18
ATOM     18  O   UNK d   1      19.711  80.055  17.114  0.00  0.00    -0.385 OA
ATOM     19  H   UNK d   1      19.281  80.609  16.441  0.00  0.00     0.211 HD
ENDBRANCH   8  18
ENDBRANCH   1   3
BRANCH   1  20
ATOM     20  N   UNK d   1      22.614  76.784  14.455  0.00  0.00    -0.356 N 
ATOM     21  C   UNK d   1      21.222  76.792  14.512  0.00  0.00     0.177 C 
ATOM     22  O   UNK d   1      20.815  77.430  15.667  0.00  0.00    -0.172 OA
ATOM     23  C   UNK d   1      20.129  76.386  13.762  0.00  0.00     0.090 C 
ATOM     24  H   UNK d   1      23.188  76.254  13.716  0.00  0.00     0.162 HD
BRANCH  23  25
ATOM     25  C   UNK d   1      19.640  75.907  12.656  0.00  0.00     0.063 A 
ATOM     26  N   UNK d   1      19.779  76.684  11.418  0.00  0.00    -0.297 N 
ATOM     27  N   UNK d   1      19.376  76.219  10.182  0.00  0.00    -0.265 N 
ATOM     28  H   UNK d   1      20.217  77.639  11.527  0.00  0.00     0.187 HD
ATOM     29  C   UNK d   1      18.801  74.968  10.016  0.00  0.00     0.271 A 
ATOM     30  H   UNK d   1      19.506  76.834   9.332  0.00  0.00     0.190 HD
ATOM     31  O   UNK d   1      18.414  74.507   8.913  0.00  0.00    -0.266 OA
ATOM     32  C   UNK d   1      18.619  74.109  11.211  0.00  0.00     0.046 A 
ATOM     33  C   UNK d   1      19.038  74.610  12.421  0.00  0.00     0.008 A 
ATOM     34  C   UNK d   1      18.121  72.842  11.033  0.00  0.00     0.018 A 
ATOM     35  C   UNK d   1      18.939  73.725  13.501  0.00  0.00     0.015 A 
ATOM     36  C   UNK d   1      18.438  72.442  13.337  0.00  0.00     0.001 A 
ATOM     37  C   UNK d   1      18.023  71.989  12.112  0.00  0.00     0.001 A 
ENDBRANCH  23  25
ENDBRANCH   1  20
TORSDOF 5
ENDMDL
