/Users/jonathanwahrer/Desktop/Msc/3_Semester/Drug_Design_Praktikum/waehrer_HTS_screening/HTS_experiment/out/docking_results/vina_output/6e43/2380_docked.pdbqt
 OpenBabel03212221103D

 27 30  0  0  1  0  0  0  0  0999 V2000
   20.2250   77.1510   18.7680 Cl  0  0  0  0  0  0  0  0  0  0  0  0
   20.4400   78.8780   18.4980 C   0  0  0  0  0  0  0  0  0  0  0  0
   20.9480   79.2770   17.2850 C   0  0  0  0  0  0  0  0  0  0  0  0
   21.1050   80.6410   17.1050 C   0  0  0  0  0  3  0  0  0  0  0  0
   20.7690   81.4950   18.0880 N   0  0  0  0  0  0  0  0  0  0  0  0
   20.2790   81.1240   19.2590 N   0  0  0  0  0  0  0  0  0  0  0  0
   20.1140   79.8060   19.4670 C   0  0  0  0  0  0  0  0  0  0  0  0
   19.6500   79.3780   20.5620 O   0  0  0  0  0  0  0  0  0  0  0  0
   21.2760   78.3120   16.3080 N   0  0  0  0  0  0  0  0  0  0  0  0
   22.6390   78.1540   15.8150 C   0  0  0  0  0  2  0  0  0  0  0  0
   22.5830   78.6140   14.3450 C   0  0  0  0  0  2  0  0  0  0  0  0
   21.5460   77.9210   13.6460 N   0  0  0  0  0  0  0  0  0  0  0  0
   20.8240   76.8680   14.3900 C   0  0  0  0  0  2  0  0  0  0  0  0
   21.1900   78.1900   12.2990 C   0  0  0  0  0  0  0  0  0  0  0  0
   20.3130   77.4030   15.7130 C   0  0  0  0  0  2  0  0  0  0  0  0
   20.2620   77.5480   11.7200 O   0  0  0  0  0  0  0  0  0  0  0  0
   21.8610   79.2190   11.4860 C   0  0  1  0  0  3  0  0  0  0  0  0
   22.8220   78.6700   10.6940 O   0  0  0  0  0  0  0  0  0  0  0  0
   22.9060   79.4160    9.5250 C   0  0  0  0  0  2  0  0  0  0  0  0
   21.4330   79.6410    9.2150 C   0  0  0  0  0  2  0  0  0  0  0  0
   20.8950   79.9650   10.5930 C   0  0  0  0  0  2  0  0  0  0  0  0
   19.9380   82.0850   20.2700 C   0  0  0  0  0  0  0  0  0  0  0  0
   18.8500   82.9170   20.0990 C   0  0  0  0  0  3  0  0  0  0  0  0
   18.5060   83.8570   21.0740 C   0  0  0  0  0  3  0  0  0  0  0  0
   19.2500   83.9680   22.2220 C   0  0  0  0  0  3  0  0  0  0  0  0
   20.3340   83.1480   22.4040 C   0  0  0  0  0  3  0  0  0  0  0  0
   20.6590   82.2290   21.4370 C   0  0  0  0  0  3  0  0  0  0  0  0
  2  1  1  0  0  0  0
  2  7  1  0  0  0  0
  3  2  2  0  0  0  0
  4  3  1  0  0  0  0
  4  5  2  0  0  0  0
  5  6  1  0  0  0  0
  6  7  1  0  0  0  0
  6 22  1  0  0  0  0
  7  8  2  0  0  0  0
  9  3  1  0  0  0  0
 10  9  1  0  0  0  0
 11 10  1  0  0  0  0
 12 11  1  0  0  0  0
 12 13  1  0  0  0  0
 13 15  1  0  0  0  0
 14 12  1  0  0  0  0
 15  9  1  0  0  0  0
 16 14  2  0  0  0  0
 17 14  1  6  0  0  0
 18 17  1  0  0  0  0
 19 18  1  0  0  0  0
 20 19  1  0  0  0  0
 20 21  1  0  0  0  0
 21 17  1  0  0  0  0
 22 27  1  0  0  0  0
 23 22  2  0  0  0  0
 23 24  1  0  0  0  0
 24 25  2  0  0  0  0
 25 26  1  0  0  0  0
 27 26  2  0  0  0  0
M  END
>  <Pose>
1

>  <Score>
-9.741

$$$$
