MODEL 1
REMARK VINA RESULT:    -9.741      0.000      0.000
REMARK INTER + INTRA:         -11.637
REMARK INTER:                 -11.449
REMARK INTRA:                  -0.188
REMARK UNBOUND:                -0.188
REMARK  3 active torsions:
REMARK  status: ('A' for Active; 'I' for Inactive)
REMARK    1  A    between atoms: C_3  and  N_15 
REMARK    2  A    between atoms: N_6  and  C_9 
REMARK       I    between atoms: N_18  and  C_21 
REMARK    3  A    between atoms: C_21  and  C_23 
ROOT
ATOM      1 Cl   UNK d   1      20.225  77.151  18.768  0.00  0.00    -0.076 Cl
ATOM      2  C   UNK d   1      20.440  78.878  18.498  0.00  0.00     0.131 A 
ATOM      3  C   UNK d   1      20.948  79.277  17.285  0.00  0.00     0.077 A 
ATOM      4  C   UNK d   1      21.105  80.641  17.105  0.00  0.00     0.170 A 
ATOM      5  N   UNK d   1      20.769  81.495  18.088  0.00  0.00    -0.174 NA
ATOM      6  N   UNK d   1      20.279  81.124  19.259  0.00  0.00    -0.197 N 
ATOM      7  C   UNK d   1      20.114  79.806  19.467  0.00  0.00     0.292 A 
ATOM      8  O   UNK d   1      19.650  79.378  20.562  0.00  0.00    -0.264 OA
ENDROOT
BRANCH   3   9
ATOM      9  N   UNK d   1      21.276  78.312  16.308  0.00  0.00    -0.375 N 
ATOM     10  C   UNK d   1      22.639  78.154  15.815  0.00  0.00     0.143 C 
ATOM     11  C   UNK d   1      22.583  78.614  14.345  0.00  0.00     0.145 C 
ATOM     12  N   UNK d   1      21.546  77.921  13.646  0.00  0.00    -0.347 N 
ATOM     13  C   UNK d   1      20.824  76.868  14.390  0.00  0.00     0.145 C 
ATOM     14  C   UNK d   1      21.190  78.190  12.299  0.00  0.00     0.248 C 
ATOM     15  C   UNK d   1      20.313  77.403  15.713  0.00  0.00     0.143 C 
ATOM     16  O   UNK d   1      20.262  77.548  11.720  0.00  0.00    -0.270 OA
BRANCH  14  17
ATOM     17  C   UNK d   1      21.861  79.219  11.486  0.00  0.00     0.213 C 
ATOM     18  O   UNK d   1      22.822  78.670  10.694  0.00  0.00    -0.376 OA
ATOM     19  C   UNK d   1      22.906  79.416   9.525  0.00  0.00     0.168 C 
ATOM     20  C   UNK d   1      21.433  79.641   9.215  0.00  0.00     0.029 C 
ATOM     21  C   UNK d   1      20.895  79.965  10.593  0.00  0.00     0.043 C 
ENDBRANCH  14  17
ENDBRANCH   3   9
BRANCH   6  22
ATOM     22  C   UNK d   1      19.938  82.085  20.270  0.00  0.00     0.062 A 
ATOM     23  C   UNK d   1      18.850  82.917  20.099  0.00  0.00     0.032 A 
ATOM     24  C   UNK d   1      18.506  83.857  21.074  0.00  0.00     0.002 A 
ATOM     25  C   UNK d   1      19.250  83.968  22.222  0.00  0.00     0.000 A 
ATOM     26  C   UNK d   1      20.334  83.148  22.404  0.00  0.00     0.002 A 
ATOM     27  C   UNK d   1      20.659  82.229  21.437  0.00  0.00     0.032 A 
ENDBRANCH   6  22
TORSDOF 3
ENDMDL
