MODEL 1
REMARK VINA RESULT:    -8.660      0.000      0.000
REMARK INTER + INTRA:         -11.221
REMARK INTER:                 -10.685
REMARK INTRA:                  -0.536
REMARK UNBOUND:                -0.536
REMARK  4 active torsions:
REMARK  status: ('A' for Active; 'I' for Inactive)
REMARK       I    between atoms: N_11  and  C_13 
REMARK    1  A    between atoms: C_13  and  C_15 
REMARK    2  A    between atoms: C_15  and  C_16 
REMARK    3  A    between atoms: C_16  and  C_17 
REMARK    4  A    between atoms: C_17  and  N_18 
ROOT
ATOM      1 Cl   UNK d   1      18.350  73.941  13.252  0.00  0.00    -0.084 Cl
ATOM      2  C   UNK d   1      19.291  75.424  13.375  0.00  0.00     0.034 A 
ATOM      3  C   UNK d   1      19.660  76.043  12.183  0.00  0.00     0.035 A 
ATOM      4  C   UNK d   1      20.396  77.203  12.262  0.00  0.00    -0.005 A 
ATOM      5  C   UNK d   1      20.751  77.726  13.499  0.00  0.00     0.078 A 
ATOM      6  C   UNK d   1      20.379  77.102  14.684  0.00  0.00     0.039 A 
ATOM      7  C   UNK d   1      19.640  75.936  14.603  0.00  0.00     0.026 A 
ATOM      8  O   UNK d   1      21.489  78.886  13.661  0.00  0.00    -0.338 OA
ATOM      9  C   UNK d   1      22.445  79.468  12.819  0.00  0.00     0.088 C 
ATOM     10  C   UNK d   1      21.975  79.857  11.465  0.00  0.00     0.164 C 
ATOM     11  N   UNK d   1      20.826  79.174  10.963  0.00  0.00    -0.345 N 
ATOM     12  C   UNK d   1      20.690  77.713  10.896  0.00  0.00     0.167 C 
ATOM     13  C   UNK d   1      19.729  79.939  10.481  0.00  0.00     0.220 C 
ATOM     14  O   UNK d   1      19.845  81.185  10.523  0.00  0.00    -0.273 OA
ATOM     15  C   UNK d   1      23.001  80.719  13.525  0.00  0.00     0.066 C 
ATOM     16  C   UNK d   1      23.391  80.285  14.912  0.00  0.00     0.170 C 
ATOM     17  O   UNK d   1      23.279  78.918  15.095  0.00  0.00    -0.391 OA
ATOM     18  C   UNK d   1      24.022  78.193  14.179  0.00  0.00     0.170 C 
ATOM     19  C   UNK d   1      23.664  78.534  12.749  0.00  0.00     0.066 C 
ENDROOT
BRANCH  13  20
ATOM     20  C   UNK d   1      18.519  79.326   9.955  0.00  0.00     0.104 C 
BRANCH  20  21
ATOM     21  C   UNK d   1      18.383  79.187   8.494  0.00  0.00     0.029 C 
BRANCH  21  22
ATOM     22  C   UNK d   1      19.225  78.223   7.768  0.00  0.00     0.137 C 
BRANCH  22  23
ATOM     23  N   UNK d   1      18.674  77.014   7.279  0.00  0.00    -0.269 N 
ATOM     24  C   UNK d   1      17.514  76.903   6.474  0.00  0.00     0.325 C 
ATOM     25  O   UNK d   1      16.766  77.826   6.036  0.00  0.00    -0.247 OA
ATOM     26  N   UNK d   1      17.314  75.523   6.221  0.00  0.00    -0.334 N 
ATOM     27  C   UNK d   1      18.543  74.804   6.547  0.00  0.00     0.227 C 
ATOM     28  H   UNK d   1      16.455  75.059   5.865  0.00  0.00     0.164 HD
ATOM     29  C   UNK d   1      19.181  75.716   7.520  0.00  0.00     0.245 C 
ATOM     30  O   UNK d   1      20.036  75.365   8.410  0.00  0.00    -0.271 OA
ENDBRANCH  22  23
ENDBRANCH  21  22
ENDBRANCH  20  21
ENDBRANCH  13  20
TORSDOF 4
ENDMDL
