/Users/jonathanwahrer/Desktop/Msc/3_Semester/Drug_Design_Praktikum/waehrer_HTS_screening/HTS_experiment/out/docking_results/vina_output/6e43/2402_docked.pdbqt
 OpenBabel03212221113D

 33 36  0  0  1  0  0  0  0  0999 V2000
   21.3220   77.4250   15.2130 C   0  0  2  0  0  3  0  0  0  0  0  0
   20.2960   76.4300   15.3010 N   0  0  0  0  0  0  0  0  0  0  0  0
   19.1670   76.9340   15.9970 C   0  0  0  0  0  0  0  0  0  0  0  0
   18.0130   76.4610   16.1330 O   0  0  0  0  0  0  0  0  0  0  0  0
   19.5450   78.2260   16.6150 C   0  0  0  0  0  0  0  0  0  0  0  0
   18.8130   78.9730   17.3110 O   0  0  0  0  0  0  0  0  0  0  0  0
   20.9320   78.4310   16.2390 C   0  0  0  0  0  0  0  0  0  0  0  0
   21.6870   79.4090   16.7550 C   0  0  0  0  0  0  0  0  0  0  0  0
   22.9900   79.4630   16.2420 O   0  0  0  0  0  1  0  0  0  0  0  0
   21.5550   77.9610   13.8830 C   0  0  0  0  0  0  0  0  0  0  0  0
   22.8020   78.4600   13.5590 C   0  0  0  0  0  3  0  0  0  0  0  0
   23.1210   78.9790   12.3400 C   0  0  0  0  0  3  0  0  0  0  0  0
   22.1750   79.0220   11.3570 C   0  0  0  0  0  0  0  0  0  0  0  0
   22.6740   79.7580    9.6640 Br  0  0  0  0  0  0  0  0  0  0  0  0
   20.9140   78.5410   11.6160 C   0  0  0  0  0  3  0  0  0  0  0  0
   20.6180   78.0170   12.8730 C   0  0  0  0  0  3  0  0  0  0  0  0
   21.2120   80.3430   17.7700 C   0  0  0  0  0  0  0  0  0  0  0  0
   20.7440   81.5380   17.6630 O   0  0  0  0  0  0  0  0  0  0  0  0
   20.4130   82.0940   18.7900 C   0  0  0  0  0  0  0  0  0  0  0  0
   20.6800   81.1840   19.8010 C   0  0  0  0  0  0  0  0  0  0  0  0
   19.8860   83.3270   19.1330 C   0  0  0  0  0  0  0  0  0  0  0  0
   21.1890   80.0740   19.1240 C   0  0  0  0  0  3  0  0  0  0  0  0
   20.4200   81.5210   21.1090 C   0  0  0  0  0  3  0  0  0  0  0  0
   19.8970   82.7530   21.4290 C   0  0  0  0  0  3  0  0  0  0  0  0
   19.6270   83.6710   20.4220 C   0  0  0  0  0  3  0  0  0  0  0  0
   19.6290   84.2160   18.1100 O   0  0  0  0  0  0  0  0  0  0  0  0
   20.3880   85.3890   17.8500 C   0  0  0  0  0  1  0  0  0  0  0  0
   20.3640   75.0960   14.7680 C   0  0  0  0  0  2  0  0  0  0  0  0
   19.4520   74.9290   13.5670 C   0  0  0  0  0  2  0  0  0  0  0  0
   18.7000   73.7210   13.5850 N   0  0  0  0  0  4  0  0  0  0  0  0
   17.4940   73.7220   12.8150 C   0  0  0  0  0  1  0  0  0  0  0  0
   19.5360   72.5820   13.2270 C   0  0  0  0  0  1  0  0  0  0  0  0
   18.4060   73.5500   14.5920 H   0  0  0  0  0  0  0  0  0  0  0  0
  1 10  1  6  0  0  0
  1  2  1  0  0  0  0
  1  7  1  0  0  0  0
  2  3  1  0  0  0  0
  3  4  2  0  0  0  0
  3  5  1  0  0  0  0
  5  6  2  0  0  0  0
  7  5  1  0  0  0  0
  7  8  2  0  0  0  0
  8 17  1  0  0  0  0
  9  8  1  0  0  0  0
 11 10  1  0  0  0  0
 12 11  2  0  0  0  0
 13 15  2  0  0  0  0
 13 12  1  0  0  0  0
 14 13  1  0  0  0  0
 15 16  1  0  0  0  0
 16 10  2  0  0  0  0
 17 22  2  0  0  0  0
 18 17  1  0  0  0  0
 18 19  1  0  0  0  0
 19 21  2  0  0  0  0
 19 20  1  0  0  0  0
 20 23  2  0  0  0  0
 21 25  1  0  0  0  0
 22 20  1  0  0  0  0
 23 24  1  0  0  0  0
 25 24  2  0  0  0  0
 26 21  1  0  0  0  0
 27 26  1  0  0  0  0
 28  2  1  0  0  0  0
 29 30  1  0  0  0  0
 29 28  1  0  0  0  0
 30 33  1  0  0  0  0
 31 30  1  0  0  0  0
 32 30  1  0  0  0  0
M  END
>  <Pose>
1

>  <Score>
-8.161

$$$$
