MODEL 1
REMARK VINA RESULT:    -9.535      0.000      0.000
REMARK INTER + INTRA:         -10.814
REMARK INTER:                 -10.649
REMARK INTRA:                  -0.164
REMARK UNBOUND:                -0.164
REMARK  2 active torsions:
REMARK  status: ('A' for Active; 'I' for Inactive)
REMARK    1  A    between atoms: C_7  and  C_11 
REMARK    2  A    between atoms: C_11  and  N_12 
ROOT
ATOM      1  N   UNK d   1      21.841  78.103  15.133  0.00  0.00    -0.328 N 
ATOM      2  C   UNK d   1      21.109  77.560  14.150  0.00  0.00     0.151 A 
ATOM      3  C   UNK d   1      21.237  78.291  12.974  0.00  0.00     0.167 A 
ATOM      4  N   UNK d   1      22.080  79.305  13.282  0.00  0.00    -0.223 NA
ATOM      5  C   UNK d   1      22.441  79.197  14.563  0.00  0.00     0.213 A 
ATOM      6  N   UNK d   1      20.606  77.972  11.826  0.00  0.00    -0.286 N 
ATOM      7  C   UNK d   1      19.818  76.881  11.862  0.00  0.00     0.332 A 
ATOM      8  O   UNK d   1      19.220  76.567  10.796  0.00  0.00    -0.246 OA
ATOM      9  N   UNK d   1      19.659  76.142  12.970  0.00  0.00    -0.269 N 
ATOM     10  C   UNK d   1      20.290  76.458  14.120  0.00  0.00     0.282 A 
ATOM     11  O   UNK d   1      20.153  75.785  15.160  0.00  0.00    -0.265 OA
ATOM     12  C   UNK d   1      18.807  74.966  13.005  0.00  0.00     0.164 C 
ATOM     13  C   UNK d   1      20.784  78.776  10.632  0.00  0.00     0.163 C 
ENDROOT
BRANCH   1  14
ATOM     14  C   UNK d   1      22.032  77.678  16.506  0.00  0.00     0.189 C 
BRANCH  14  15
ATOM     15  C   UNK d   1      21.314  78.565  17.482  0.00  0.00     0.060 A 
ATOM     16  N   UNK d   1      21.368  79.897  17.307  0.00  0.00    -0.233 NA
ATOM     17  C   UNK d   1      20.725  80.746  18.162  0.00  0.00     0.137 A 
ATOM     18  N   UNK d   1      20.020  80.273  19.201  0.00  0.00    -0.272 N 
ATOM     19  C   UNK d   1      20.813  82.111  17.937  0.00  0.00     0.052 A 
ATOM     20  C   UNK d   1      19.384  81.111  20.046  0.00  0.00     0.121 A 
ATOM     21  C   UNK d   1      19.927  78.931  19.431  0.00  0.00     0.255 A 
ATOM     22  C   UNK d   1      19.466  82.460  19.832  0.00  0.00     0.027 A 
ATOM     23 Br   UNK d   1      18.557  83.619  21.042  0.00  0.00    -0.050 Br
ATOM     24  C   UNK d   1      20.178  82.989  18.779  0.00  0.00     0.024 A 
ATOM     25  C   UNK d   1      20.587  78.102  18.550  0.00  0.00     0.103 A 
ATOM     26  O   UNK d   1      19.265  78.536  20.403  0.00  0.00    -0.268 OA
ENDBRANCH  14  15
ENDBRANCH   1  14
TORSDOF 2
ENDMDL
