/Users/jonathanwahrer/Desktop/Msc/3_Semester/Drug_Design_Praktikum/waehrer_HTS_screening/HTS_experiment/out/docking_results/vina_output/6e43/2416_docked.pdbqt
 OpenBabel03212221113D

 34 37  0  0  1  0  0  0  0  0999 V2000
   21.0040   78.4450   17.8680 N   0  0  0  0  0  0  0  0  0  0  0  0
   22.2330   79.0980   17.8400 C   0  0  0  0  0  2  0  0  0  0  0  0
   23.1150   78.4540   16.7620 C   0  0  0  0  0  2  0  0  0  0  0  0
   22.3030   78.1560   15.5810 N   0  0  0  0  0  0  0  0  0  0  0  0
   21.1600   77.2910   15.7940 C   0  0  0  0  0  2  0  0  0  0  0  0
   21.0010   77.1550   17.3160 C   0  0  0  0  0  2  0  0  0  0  0  0
   22.6380   78.7200   14.3180 C   0  0  0  0  0  0  0  0  0  0  0  0
   23.6400   79.4710   14.2680 O   0  0  0  0  0  0  0  0  0  0  0  0
   21.8330   78.4280   13.1320 C   0  0  0  0  0  2  0  0  0  0  0  0
   22.0040   79.4330   12.0020 C   0  0  2  0  0  3  0  0  0  0  0  0
   20.8240   80.2150   11.7450 N   0  0  0  0  0  0  0  0  0  0  0  0
   19.9100   80.2420   10.6580 C   0  0  0  0  0  0  0  0  0  0  0  0
   20.5410   80.9280   12.4900 H   0  0  0  0  0  0  0  0  0  0  0  0
   19.1940   81.2580   10.4600 O   0  0  0  0  0  0  0  0  0  0  0  0
   19.6760   79.1700    9.6650 C   0  0  0  0  0  0  0  0  0  0  0  0
   20.5750   78.1670    9.2870 C   0  0  0  0  0  0  0  0  0  0  0  0
   18.4310   79.2000    9.0920 C   0  0  0  0  0  3  0  0  0  0  0  0
   20.1980   77.2420    8.3560 C   0  0  0  0  0  3  0  0  0  0  0  0
   21.8930   77.9990    9.7870 N   0  0  0  0  0  0  0  0  0  0  0  0
   18.9370   77.2480    7.7560 C   0  0  0  0  0  3  0  0  0  0  0  0
   18.0620   78.2590    8.1550 C   0  0  0  0  0  3  0  0  0  0  0  0
   22.5530   78.7450   10.8150 C   0  0  0  0  0  0  0  0  0  0  0  0
   22.4260   77.2460    9.3520 H   0  0  0  0  0  0  0  0  0  0  0  0
   23.8210   78.7990   10.6380 O   0  0  0  0  0  0  0  0  0  0  0  0
   19.7260   79.0020   18.7640 S   0  0  0  0  0  0  0  0  0  0  0  0
   18.4400   78.7250   18.0070 O   0  0  0  0  0  0  0  0  0  0  0  0
   19.5620   78.3140   20.1030 O   0  0  0  0  0  0  0  0  0  0  0  0
   19.7610   80.7440   19.0590 C   0  0  0  0  0  0  0  0  0  0  0  0
   20.2100   81.6270   18.1060 C   0  0  0  0  0  3  0  0  0  0  0  0
   20.2240   82.9770   18.3840 C   0  0  0  0  0  3  0  0  0  0  0  0
   19.8030   83.5050   19.5910 C   0  0  0  0  0  0  0  0  0  0  0  0
   19.3500   82.6110   20.5520 C   0  0  0  0  0  3  0  0  0  0  0  0
   19.8150   85.2010   19.9490 Cl  0  0  0  0  0  0  0  0  0  0  0  0
   19.3390   81.2640   20.2690 C   0  0  0  0  0  3  0  0  0  0  0  0
  1 25  1  0  0  0  0
  2  1  1  0  0  0  0
  3  2  1  0  0  0  0
  4  5  1  0  0  0  0
  4  3  1  0  0  0  0
  5  6  1  0  0  0  0
  6  1  1  0  0  0  0
  7  4  1  0  0  0  0
  8  7  2  0  0  0  0
  9  7  1  0  0  0  0
 10  9  1  1  0  0  0
 11 10  1  0  0  0  0
 11 13  1  0  0  0  0
 12 11  1  0  0  0  0
 14 12  2  0  0  0  0
 15 12  1  0  0  0  0
 16 15  1  0  0  0  0
 16 19  1  0  0  0  0
 17 15  2  0  0  0  0
 18 16  2  0  0  0  0
 19 22  1  0  0  0  0
 20 21  2  0  0  0  0
 20 18  1  0  0  0  0
 21 17  1  0  0  0  0
 22 10  1  0  0  0  0
 23 19  1  0  0  0  0
 24 22  2  0  0  0  0
 25 28  1  0  0  0  0
 25 27  2  0  0  0  0
 26 25  2  0  0  0  0
 28 34  1  0  0  0  0
 29 30  1  0  0  0  0
 29 28  2  0  0  0  0
 30 31  2  0  0  0  0
 31 33  1  0  0  0  0
 31 32  1  0  0  0  0
 34 32  2  0  0  0  0
M  END
>  <Pose>
1

>  <Score>
-10.998

$$$$
