MODEL 1
REMARK VINA RESULT:   -10.998      0.000      0.000
REMARK INTER + INTRA:         -14.075
REMARK INTER:                 -13.570
REMARK INTRA:                  -0.505
REMARK UNBOUND:                -0.505
REMARK  4 active torsions:
REMARK  status: ('A' for Active; 'I' for Inactive)
REMARK    1  A    between atoms: S_1  and  N_4 
REMARK    2  A    between atoms: S_1  and  C_26 
REMARK       I    between atoms: N_7  and  C_10 
REMARK    3  A    between atoms: C_10  and  C_12 
REMARK    4  A    between atoms: C_12  and  C_13 
ROOT
ATOM      1  N   UNK d   1      21.004  78.445  17.868  0.00  0.00    -0.304 N 
ATOM      2  C   UNK d   1      22.233  79.098  17.840  0.00  0.00     0.155 C 
ATOM      3  C   UNK d   1      23.115  78.454  16.762  0.00  0.00     0.146 C 
ATOM      4  N   UNK d   1      22.303  78.156  15.581  0.00  0.00    -0.349 N 
ATOM      5  C   UNK d   1      21.160  77.291  15.794  0.00  0.00     0.146 C 
ATOM      6  C   UNK d   1      21.001  77.155  17.316  0.00  0.00     0.155 C 
ATOM      7  C   UNK d   1      22.638  78.720  14.318  0.00  0.00     0.222 C 
ATOM      8  O   UNK d   1      23.640  79.471  14.268  0.00  0.00    -0.273 OA
ENDROOT
BRANCH   7   9
ATOM      9  C   UNK d   1      21.833  78.428  13.132  0.00  0.00     0.138 C 
BRANCH   9  10
ATOM     10  C   UNK d   1      22.004  79.433  12.002  0.00  0.00     0.186 C 
ATOM     11  N   UNK d   1      20.824  80.215  11.745  0.00  0.00    -0.343 N 
ATOM     12  C   UNK d   1      19.910  80.242  10.658  0.00  0.00     0.254 C 
ATOM     13  H   UNK d   1      20.541  80.928  12.490  0.00  0.00     0.163 HD
ATOM     14  O   UNK d   1      19.194  81.258  10.460  0.00  0.00    -0.268 OA
ATOM     15  C   UNK d   1      19.676  79.170   9.665  0.00  0.00     0.058 A 
ATOM     16  C   UNK d   1      20.575  78.167   9.287  0.00  0.00     0.050 A 
ATOM     17  C   UNK d   1      18.431  79.200   9.092  0.00  0.00     0.019 A 
ATOM     18  C   UNK d   1      20.198  77.242   8.356  0.00  0.00     0.030 A 
ATOM     19  N   UNK d   1      21.893  77.999   9.787  0.00  0.00    -0.324 N 
ATOM     20  C   UNK d   1      18.937  77.248   7.756  0.00  0.00     0.002 A 
ATOM     21  C   UNK d   1      18.062  78.259   8.155  0.00  0.00     0.001 A 
ATOM     22  C   UNK d   1      22.553  78.745  10.815  0.00  0.00     0.245 C 
ATOM     23  H   UNK d   1      22.426  77.246   9.352  0.00  0.00     0.169 HD
ATOM     24  O   UNK d   1      23.821  78.799  10.638  0.00  0.00    -0.271 OA
ENDBRANCH   9  10
ENDBRANCH   7   9
BRANCH   1  25
ATOM     25  S   UNK d   1      19.726  79.002  18.764  0.00  0.00     0.260 S 
ATOM     26  O   UNK d   1      18.440  78.725  18.007  0.00  0.00    -0.200 OA
ATOM     27  O   UNK d   1      19.562  78.314  20.103  0.00  0.00    -0.200 OA
BRANCH  25  28
ATOM     28  C   UNK d   1      19.761  80.744  19.059  0.00  0.00     0.079 A 
ATOM     29  C   UNK d   1      20.210  81.627  18.106  0.00  0.00     0.027 A 
ATOM     30  C   UNK d   1      20.224  82.977  18.384  0.00  0.00     0.025 A 
ATOM     31  C   UNK d   1      19.803  83.505  19.591  0.00  0.00     0.034 A 
ATOM     32  C   UNK d   1      19.350  82.611  20.552  0.00  0.00     0.025 A 
ATOM     33 Cl   UNK d   1      19.815  85.201  19.949  0.00  0.00    -0.084 Cl
ATOM     34  C   UNK d   1      19.339  81.264  20.269  0.00  0.00     0.027 A 
ENDBRANCH  25  28
ENDBRANCH   1  25
TORSDOF 4
ENDMDL
