MODEL 1
REMARK VINA RESULT:    -8.781      0.000      0.000
REMARK INTER + INTRA:         -12.354
REMARK INTER:                 -11.604
REMARK INTRA:                  -0.750
REMARK UNBOUND:                -0.750
REMARK  6 active torsions:
REMARK  status: ('A' for Active; 'I' for Inactive)
REMARK    1  A    between atoms: C_7  and  C_8 
REMARK    2  A    between atoms: C_8  and  N_9 
REMARK    3  A    between atoms: C_11  and  C_16 
REMARK    4  A    between atoms: C_12  and  C_14 
REMARK    5  A    between atoms: C_14  and  O_15 
REMARK    6  A    between atoms: C_16  and  N_17 
ROOT
ATOM      1  N   UNK d   1      20.868  77.393  16.853  0.00  0.00     0.095 N 
ATOM      2  C   UNK d   1      19.761  78.368  16.985  0.00  0.00     0.279 C 
ATOM      3  C   UNK d   1      20.382  79.459  17.729  0.00  0.00     0.050 C 
ATOM      4  C   UNK d   1      20.987  78.697  18.897  0.00  0.00     0.045 C 
ATOM      5  C   UNK d   1      21.632  77.543  18.017  0.00  0.00     0.280 C 
ENDROOT
BRANCH   1   6
ATOM      6  C   UNK d   1      21.498  77.669  15.553  0.00  0.00     0.334 C 
BRANCH   6   7
ATOM      7  C   UNK d   1      20.875  77.093  14.388  0.00  0.00     0.097 A 
ATOM      8  C   UNK d   1      20.741  77.572  13.104  0.00  0.00     0.042 A 
ATOM      9  C   UNK d   1      21.333  78.642  12.476  0.00  0.00     0.048 A 
ATOM     10  C   UNK d   1      19.940  76.754  12.342  0.00  0.00     0.066 A 
ATOM     11 Cl   UNK d   1      22.255  79.764  13.472  0.00  0.00    -0.083 Cl
ATOM     12  C   UNK d   1      21.156  78.891  11.142  0.00  0.00     0.025 A 
ATOM     13  C   UNK d   1      20.344  78.049  10.389  0.00  0.00     0.004 A 
ATOM     14  C   UNK d   1      19.730  76.959  11.013  0.00  0.00     0.032 A 
ATOM     15  N   UNK d   1      19.560  75.763  13.178  0.00  0.00    -0.273 N 
ATOM     16  N   UNK d   1      20.100  75.948  14.353  0.00  0.00    -0.174 NA
ATOM     17  C   UNK d   1      18.585  74.715  12.827  0.00  0.00     0.180 C 
ENDBRANCH   6   7
ENDBRANCH   1   6
BRANCH   3  18
ATOM     18  C   UNK d   1      19.446  80.530  18.232  0.00  0.00     0.279 C 
BRANCH  18  19
ATOM     19  N   UNK d   1      20.197  81.450  19.027  0.00  0.00     0.093 N 
ATOM     20  C   UNK d   1      20.356  82.744  18.397  0.00  0.00     0.298 C 
ATOM     21  C   UNK d   1      19.807  83.888  19.217  0.00  0.00     0.198 C 
ATOM     22  O   UNK d   1      20.291  83.938  20.504  0.00  0.00    -0.388 OA
ATOM     23  C   UNK d   1      20.496  82.676  21.054  0.00  0.00     0.198 C 
ATOM     24  C   UNK d   1      19.637  81.678  20.339  0.00  0.00     0.298 C 
ENDBRANCH  18  19
ENDBRANCH   3  18
BRANCH   4  25
ATOM     25  C   UNK d   1      19.933  77.984  19.694  0.00  0.00     0.170 C 
BRANCH  25  26
ATOM     26  O   UNK d   1      20.467  76.765  20.189  0.00  0.00    -0.400 OA
ATOM     27  H   UNK d   1      21.266  76.550  19.570  0.00  0.00     0.209 HD
ENDBRANCH  25  26
ENDBRANCH   4  25
TORSDOF 6
ENDMDL
