/Users/jonathanwahrer/Desktop/Msc/3_Semester/Drug_Design_Praktikum/waehrer_HTS_screening/HTS_experiment/out/docking_results/vina_output/6e43/2417_docked.pdbqt
 OpenBabel03212221113D

 27 30  0  0  1  0  0  0  0  0999 V2000
   20.8680   77.3930   16.8530 N   0  0  0  0  0  0  0  0  0  0  0  0
   19.7610   78.3680   16.9850 C   0  0  0  0  0  2  0  0  0  0  0  0
   20.3820   79.4590   17.7290 C   0  0  2  0  0  3  0  0  0  0  0  0
   20.9870   78.6970   18.8970 C   0  0  2  0  0  3  0  0  0  0  0  0
   21.6320   77.5430   18.0170 C   0  0  0  0  0  2  0  0  0  0  0  0
   21.4980   77.6690   15.5530 C   0  0  0  0  0  2  0  0  0  0  0  0
   20.8750   77.0930   14.3880 C   0  0  0  0  0  0  0  0  0  0  0  0
   20.7410   77.5720   13.1040 C   0  0  0  0  0  0  0  0  0  0  0  0
   21.3330   78.6420   12.4760 C   0  0  0  0  0  0  0  0  0  0  0  0
   19.9400   76.7540   12.3420 C   0  0  0  0  0  0  0  0  0  0  0  0
   22.2550   79.7640   13.4720 Cl  0  0  0  0  0  0  0  0  0  0  0  0
   21.1560   78.8910   11.1420 C   0  0  0  0  0  3  0  0  0  0  0  0
   20.3440   78.0490   10.3890 C   0  0  0  0  0  3  0  0  0  0  0  0
   19.7300   76.9590   11.0130 C   0  0  0  0  0  3  0  0  0  0  0  0
   19.5600   75.7630   13.1780 N   0  0  0  0  0  0  0  0  0  0  0  0
   20.1000   75.9480   14.3530 N   0  0  0  0  0  0  0  0  0  0  0  0
   18.5850   74.7150   12.8270 C   0  0  0  0  0  1  0  0  0  0  0  0
   19.4460   80.5300   18.2320 C   0  0  0  0  0  2  0  0  0  0  0  0
   20.1970   81.4500   19.0270 N   0  0  0  0  0  0  0  0  0  0  0  0
   20.3560   82.7440   18.3970 C   0  0  0  0  0  2  0  0  0  0  0  0
   19.8070   83.8880   19.2170 C   0  0  0  0  0  2  0  0  0  0  0  0
   20.2910   83.9380   20.5040 O   0  0  0  0  0  0  0  0  0  0  0  0
   20.4960   82.6760   21.0540 C   0  0  0  0  0  2  0  0  0  0  0  0
   19.6370   81.6780   20.3390 C   0  0  0  0  0  2  0  0  0  0  0  0
   19.9330   77.9840   19.6940 C   0  0  0  0  0  2  0  0  0  0  0  0
   20.4670   76.7650   20.1890 O   0  0  0  0  0  0  0  0  0  0  0  0
   21.2660   76.5500   19.5700 H   0  0  0  0  0  0  0  0  0  0  0  0
  1  2  1  0  0  0  0
  1  5  1  0  0  0  0
  2  3  1  0  0  0  0
  3 18  1  1  0  0  0
  3  4  1  0  0  0  0
  4 25  1  1  0  0  0
  5  4  1  0  0  0  0
  6  1  1  0  0  0  0
  7  6  1  0  0  0  0
  8  7  1  0  0  0  0
  9  8  1  0  0  0  0
  9 11  1  0  0  0  0
 10  8  2  0  0  0  0
 10 15  1  0  0  0  0
 12  9  2  0  0  0  0
 13 14  2  0  0  0  0
 13 12  1  0  0  0  0
 14 10  1  0  0  0  0
 15 16  1  0  0  0  0
 16  7  2  0  0  0  0
 17 15  1  0  0  0  0
 18 19  1  0  0  0  0
 19 24  1  0  0  0  0
 20 19  1  0  0  0  0
 20 21  1  0  0  0  0
 21 22  1  0  0  0  0
 22 23  1  0  0  0  0
 24 23  1  0  0  0  0
 25 26  1  0  0  0  0
 27 26  1  0  0  0  0
M  END
>  <Pose>
1

>  <Score>
-8.781

$$$$
