MODEL 1
REMARK VINA RESULT:   -10.164      0.000      0.000
REMARK INTER + INTRA:         -14.720
REMARK INTER:                 -13.728
REMARK INTRA:                  -0.991
REMARK UNBOUND:                -0.991
REMARK  6 active torsions:
REMARK  status: ('A' for Active; 'I' for Inactive)
REMARK    1  A    between atoms: C_5  and  C_8 
REMARK    2  A    between atoms: N_15  and  C_16 
REMARK    3  A    between atoms: C_16  and  C_17 
REMARK    4  A    between atoms: C_17  and  C_18 
REMARK    5  A    between atoms: C_18  and  N_19 
REMARK    6  A    between atoms: N_19  and  C_20 
ROOT
ATOM      1  C   UNK d   1      21.635  79.235  15.231  0.00  0.00     0.078 A 
ATOM      2  C   UNK d   1      21.479  80.483  15.855  0.00  0.00     0.146 A 
ATOM      3  N   UNK d   1      20.818  80.264  16.985  0.00  0.00    -0.153 N 
ATOM      4  C   UNK d   1      20.326  80.968  18.050  0.00  0.00     0.083 A 
ATOM      5  C   UNK d   1      19.729  80.032  18.857  0.00  0.00     0.077 A 
ATOM      6  N   UNK d   1      19.878  78.853  18.272  0.00  0.00    -0.189 N 
ATOM      7  C   UNK d   1      20.560  78.983  17.098  0.00  0.00     0.692 A 
ATOM      8  N   UNK d   1      21.060  78.317  16.015  0.00  0.00    -0.180 N 
ATOM      9  C   UNK d   1      19.108  80.394  20.056  0.00  0.00     0.032 A 
ATOM     10  C   UNK d   1      19.093  81.716  20.444  0.00  0.00     0.002 A 
ATOM     11  C   UNK d   1      19.699  82.635  19.617  0.00  0.00     0.002 A 
ATOM     12  C   UNK d   1      20.317  82.284  18.423  0.00  0.00     0.033 A 
ATOM     13  H   UNK d   1      19.504  77.973  18.675  0.00  0.00     0.184 HD
ENDROOT
BRANCH   8  14
ATOM     14  C   UNK d   1      20.904  76.902  15.875  0.00  0.00     0.149 C 
BRANCH  14  15
ATOM     15  C   UNK d   1      19.666  76.415  15.237  0.00  0.00     0.048 C 
BRANCH  15  16
ATOM     16  C   UNK d   1      19.763  75.688  13.944  0.00  0.00     0.234 C 
BRANCH  16  17
ATOM     17  N   UNK d   1      20.120  74.299  14.128  0.00  0.00    -0.071 N 
ATOM     18  H   UNK d   1      21.051  74.026  13.826  0.00  0.00     0.277 HD
ATOM     19  H   UNK d   1      20.151  74.158  15.203  0.00  0.00     0.277 HD
BRANCH  17  20
ATOM     20  C   UNK d   1      19.110  73.390  13.672  0.00  0.00     0.185 C 
ATOM     21  C   UNK d   1      18.056  73.999  12.793  0.00  0.00     0.033 C 
ATOM     22  C   UNK d   1      16.861  73.034  12.829  0.00  0.00     0.002 C 
ATOM     23  C   UNK d   1      17.291  71.727  12.259  0.00  0.00     0.000 C 
ATOM     24  C   UNK d   1      18.535  71.160  12.903  0.00  0.00     0.002 C 
ATOM     25  C   UNK d   1      19.663  72.198  12.900  0.00  0.00     0.033 C 
ENDBRANCH  17  20
ENDBRANCH  16  17
ENDBRANCH  15  16
ENDBRANCH  14  15
ENDBRANCH   8  14
BRANCH   1  26
ATOM     26  C   UNK d   1      22.300  79.074  13.956  0.00  0.00    -0.007 A 
ATOM     27  C   UNK d   1      21.554  79.196  12.801  0.00  0.00     0.015 A 
ATOM     28  C   UNK d   1      22.111  79.068  11.561  0.00  0.00     0.020 A 
ATOM     29  C   UNK d   1      23.438  78.812  11.403  0.00  0.00     0.011 A 
ATOM     30 Br   UNK d   1      24.231  78.629   9.657  0.00  0.00    -0.051 Br
ATOM     31  C   UNK d   1      24.213  78.684  12.522  0.00  0.00     0.020 A 
ATOM     32  C   UNK d   1      23.620  78.819  13.800  0.00  0.00     0.015 A 
ENDBRANCH   1  26
TORSDOF 6
ENDMDL
