MODEL 1
REMARK VINA RESULT:    -9.117      0.000      0.000
REMARK INTER + INTRA:         -12.378
REMARK INTER:                 -11.782
REMARK INTRA:                  -0.596
REMARK UNBOUND:                -0.596
REMARK  5 active torsions:
REMARK  status: ('A' for Active; 'I' for Inactive)
REMARK    1  A    between atoms: C_7  and  N_11 
REMARK    2  A    between atoms: C_13  and  C_17 
REMARK       I    between atoms: C_17  and  N_19 
REMARK    3  A    between atoms: N_19  and  C_20 
REMARK    4  A    between atoms: C_20  and  C_21 
REMARK    5  A    between atoms: C_21  and  N_22 
ROOT
ATOM      1  N   UNK d   1      22.668  78.161  15.194  0.00  0.00    -0.299 N 
ATOM      2  C   UNK d   1      22.798  79.550  15.629  0.00  0.00     0.148 C 
ATOM      3  C   UNK d   1      23.254  79.414  17.065  0.00  0.00     0.105 C 
ATOM      4  C   UNK d   1      24.285  78.296  16.969  0.00  0.00     0.119 C 
ATOM      5  C   UNK d   1      23.783  77.498  15.796  0.00  0.00     0.226 C 
ATOM      6  O   UNK d   1      24.268  76.399  15.393  0.00  0.00    -0.273 OA
ENDROOT
BRANCH   3   7
ATOM      7  C   UNK d   1      22.143  79.015  17.962  0.00  0.00     0.223 C 
ATOM      8  O   UNK d   1      22.185  77.874  18.486  0.00  0.00    -0.273 OA
ATOM      9  N   UNK d   1      21.050  79.865  18.245  0.00  0.00    -0.359 N 
ATOM     10  H   UNK d   1      21.048  80.812  17.787  0.00  0.00     0.162 HD
BRANCH   9  11
ATOM     11  C   UNK d   1      19.968  79.483  19.117  0.00  0.00     0.152 C 
BRANCH  11  12
ATOM     12  C   UNK d   1      19.260  80.725  19.617  0.00  0.00     0.292 C 
BRANCH  12  13
ATOM     13  N   UNK d   1      20.169  81.796  19.946  0.00  0.00     0.094 N 
ATOM     14  C   UNK d   1      19.446  83.050  19.770  0.00  0.00     0.298 C 
ATOM     15  C   UNK d   1      18.636  83.375  21.022  0.00  0.00     0.198 C 
ATOM     16  O   UNK d   1      19.430  83.675  22.104  0.00  0.00    -0.388 OA
ATOM     17  C   UNK d   1      20.679  83.126  21.923  0.00  0.00     0.198 C 
ATOM     18  C   UNK d   1      20.612  81.737  21.320  0.00  0.00     0.298 C 
ENDBRANCH  12  13
ENDBRANCH  11  12
ENDBRANCH   9  11
ENDBRANCH   3   7
BRANCH   1  19
ATOM     19  C   UNK d   1      21.659  77.614  14.360  0.00  0.00     0.165 A 
ATOM     20  N   UNK d   1      20.737  76.676  14.613  0.00  0.00    -0.155 NA
ATOM     21  N   UNK d   1      19.990  76.460  13.541  0.00  0.00    -0.275 N 
ATOM     22  C   UNK d   1      20.408  77.267  12.525  0.00  0.00     0.065 A 
ATOM     23  H   UNK d   1      19.187  75.800  13.391  0.00  0.00     0.189 HD
ATOM     24  C   UNK d   1      20.024  77.471  11.233  0.00  0.00     0.051 A 
ATOM     25  C   UNK d   1      21.455  77.992  13.038  0.00  0.00     0.040 A 
ATOM     26  C   UNK d   1      20.661  78.387  10.427  0.00  0.00     0.013 A 
ATOM     27 Br   UNK d   1      20.107  78.653   8.626  0.00  0.00    -0.051 Br
ATOM     28  C   UNK d   1      21.727  79.127  10.942  0.00  0.00     0.020 A 
ATOM     29  C   UNK d   1      22.116  78.923  12.247  0.00  0.00     0.019 A 
ENDBRANCH   1  19
TORSDOF 5
ENDMDL
