/Users/jonathanwahrer/Desktop/Msc/3_Semester/Drug_Design_Praktikum/waehrer_HTS_screening/HTS_experiment/out/docking_results/vina_output/6e43/2420_docked.pdbqt
 OpenBabel03212221123D

 29 32  0  0  1  0  0  0  0  0999 V2000
   22.6680   78.1610   15.1940 N   0  0  0  0  0  0  0  0  0  0  0  0
   22.7980   79.5500   15.6290 C   0  0  0  0  0  2  0  0  0  0  0  0
   23.2540   79.4140   17.0650 C   0  0  2  0  0  3  0  0  0  0  0  0
   24.2850   78.2960   16.9690 C   0  0  0  0  0  2  0  0  0  0  0  0
   23.7830   77.4980   15.7960 C   0  0  0  0  0  0  0  0  0  0  0  0
   24.2680   76.3990   15.3930 O   0  0  0  0  0  0  0  0  0  0  0  0
   22.1430   79.0150   17.9620 C   0  0  0  0  0  0  0  0  0  0  0  0
   22.1850   77.8740   18.4860 O   0  0  0  0  0  0  0  0  0  0  0  0
   21.0500   79.8650   18.2450 N   0  0  0  0  0  0  0  0  0  0  0  0
   21.0480   80.8120   17.7870 H   0  0  0  0  0  0  0  0  0  0  0  0
   19.9680   79.4830   19.1170 C   0  0  0  0  0  2  0  0  0  0  0  0
   19.2600   80.7250   19.6170 C   0  0  0  0  0  2  0  0  0  0  0  0
   20.1690   81.7960   19.9460 N   0  0  0  0  0  0  0  0  0  0  0  0
   19.4460   83.0500   19.7700 C   0  0  0  0  0  2  0  0  0  0  0  0
   18.6360   83.3750   21.0220 C   0  0  0  0  0  2  0  0  0  0  0  0
   19.4300   83.6750   22.1040 O   0  0  0  0  0  0  0  0  0  0  0  0
   20.6790   83.1260   21.9230 C   0  0  0  0  0  2  0  0  0  0  0  0
   20.6120   81.7370   21.3200 C   0  0  0  0  0  2  0  0  0  0  0  0
   21.6590   77.6140   14.3600 C   0  0  0  0  0  0  0  0  0  0  0  0
   20.7370   76.6760   14.6130 N   0  0  0  0  0  0  0  0  0  0  0  0
   19.9900   76.4600   13.5410 N   0  0  0  0  0  0  0  0  0  0  0  0
   20.4080   77.2670   12.5250 C   0  0  0  0  0  0  0  0  0  0  0  0
   19.1870   75.8000   13.3910 H   0  0  0  0  0  0  0  0  0  0  0  0
   20.0240   77.4710   11.2330 C   0  0  0  0  0  3  0  0  0  0  0  0
   21.4550   77.9920   13.0380 C   0  0  0  0  0  0  0  0  0  0  0  0
   20.6610   78.3870   10.4270 C   0  0  0  0  0  0  0  0  0  0  0  0
   20.1070   78.6530    8.6260 Br  0  0  0  0  0  0  0  0  0  0  0  0
   21.7270   79.1270   10.9420 C   0  0  0  0  0  3  0  0  0  0  0  0
   22.1160   78.9230   12.2470 C   0  0  0  0  0  3  0  0  0  0  0  0
  1  2  1  0  0  0  0
  1  5  1  0  0  0  0
  2  3  1  0  0  0  0
  3  7  1  1  0  0  0
  4  3  1  0  0  0  0
  5  4  1  0  0  0  0
  6  5  2  0  0  0  0
  7  9  1  0  0  0  0
  7  8  2  0  0  0  0
  9 11  1  0  0  0  0
 10  9  1  0  0  0  0
 11 12  1  0  0  0  0
 12 13  1  0  0  0  0
 13 18  1  0  0  0  0
 14 13  1  0  0  0  0
 14 15  1  0  0  0  0
 15 16  1  0  0  0  0
 17 16  1  0  0  0  0
 18 17  1  0  0  0  0
 19 20  2  0  0  0  0
 19  1  1  0  0  0  0
 21 20  1  0  0  0  0
 22 25  1  0  0  0  0
 22 21  1  0  0  0  0
 23 21  1  0  0  0  0
 24 22  2  0  0  0  0
 25 19  1  0  0  0  0
 26 28  2  0  0  0  0
 26 24  1  0  0  0  0
 27 26  1  0  0  0  0
 28 29  1  0  0  0  0
 29 25  2  0  0  0  0
M  END
>  <Pose>
1

>  <Score>
-9.117

$$$$
