MODEL 1
REMARK VINA RESULT:    -8.749      0.000      0.000
REMARK INTER + INTRA:         -10.358
REMARK INTER:                  -9.772
REMARK INTRA:                  -0.586
REMARK UNBOUND:                -0.586
REMARK  2 active torsions:
REMARK  status: ('A' for Active; 'I' for Inactive)
REMARK    1  A    between atoms: C_4  and  C_8 
REMARK       I    between atoms: C_8  and  N_10 
REMARK    2  A    between atoms: N_13  and  C_16 
ROOT
ATOM      1  C   UNK d   1      21.278  78.205  16.404  0.00  0.00     0.204 C 
ATOM      2  O   UNK d   1      20.649  78.258  15.244  0.00  0.00    -0.170 OA
ATOM      3  N   UNK d   1      20.506  78.362  17.544  0.00  0.00    -0.355 N 
ATOM      4  C   UNK d   1      19.056  78.620  17.368  0.00  0.00     0.145 C 
ATOM      5  C   UNK d   1      18.796  79.965  17.991  0.00  0.00     0.144 C 
ATOM      6  N   UNK d   1      19.912  80.531  18.680  0.00  0.00    -0.362 N 
ATOM      7  C   UNK d   1      20.928  79.752  19.373  0.00  0.00     0.144 C 
ATOM      8  C   UNK d   1      20.888  78.305  18.906  0.00  0.00     0.145 C 
ENDROOT
BRANCH   1   9
ATOM      9  C   UNK d   1      22.692  77.987  16.248  0.00  0.00     0.089 A 
ATOM     10  N   UNK d   1      23.369  76.967  15.718  0.00  0.00    -0.342 N 
ATOM     11  C   UNK d   1      24.714  77.177  15.755  0.00  0.00     0.126 A 
ATOM     12  H   UNK d   1      23.017  76.076  15.313  0.00  0.00     0.167 HD
ATOM     13 Cl   UNK d   1      25.994  76.130  15.182  0.00  0.00    -0.063 Cl
ATOM     14  C   UNK d   1      24.940  78.394  16.338  0.00  0.00     0.074 A 
ATOM     15  C   UNK d   1      23.692  78.886  16.639  0.00  0.00     0.061 A 
ATOM     16 Cl   UNK d   1      26.496  79.143  16.628  0.00  0.00    -0.081 Cl
ENDBRANCH   1   9
BRANCH   6  17
ATOM     17  C   UNK d   1      20.081  81.943  18.713  0.00  0.00     0.142 A 
ATOM     18  N   UNK d   1      20.728  82.589  17.725  0.00  0.00    -0.224 NA
ATOM     19  C   UNK d   1      20.900  83.932  17.741  0.00  0.00     0.237 A 
ATOM     20  N   UNK d   1      20.420  84.667  18.760  0.00  0.00    -0.222 NA
ATOM     21  C   UNK d   1      19.762  84.097  19.783  0.00  0.00     0.162 A 
ATOM     22  N   UNK d   1      19.195  84.595  20.897  0.00  0.00    -0.256 N 
ATOM     23  C   UNK d   1      19.594  82.708  19.750  0.00  0.00     0.076 A 
ATOM     24  N   UNK d   1      18.682  83.577  21.558  0.00  0.00    -0.182 NA
ATOM     25  C   UNK d   1      19.138  85.993  21.326  0.00  0.00     0.182 C 
ATOM     26  C   UNK d   1      18.902  82.417  20.896  0.00  0.00     0.158 A 
ENDBRANCH   6  17
TORSDOF 2
ENDMDL
