/Users/jonathanwahrer/Desktop/Msc/3_Semester/Drug_Design_Praktikum/waehrer_HTS_screening/HTS_experiment/out/docking_results/vina_output/6e43/2439_docked.pdbqt
 OpenBabel03212221123D

 30 34  0  0  1  0  0  0  0  0999 V2000
   21.1180   77.9210   12.8710 C   0  0  0  0  0  0  0  0  0  0  0  0
   22.3520   78.5600   13.0900 C   0  0  0  0  0  3  0  0  0  0  0  0
   22.7970   78.2390   14.3030 N   0  0  0  0  0  0  0  0  0  0  0  0
   23.8260   78.4500   15.1640 C   0  0  0  0  0  0  0  0  0  0  0  0
   23.5480   77.7420   16.2830 C   0  0  0  0  0  0  0  0  0  0  0  0
   22.3740   77.1260   16.0800 N   0  0  0  0  0  0  0  0  0  0  0  0
   21.8940   77.4240   14.8520 C   0  0  1  0  0  3  0  0  0  0  0  0
   20.8530   77.2180   13.9810 N   0  0  0  0  0  0  0  0  0  0  0  0
   24.4180   77.7540   17.3580 C   0  0  0  0  0  3  0  0  0  0  0  0
   25.5910   78.4900   17.3110 C   0  0  0  0  0  3  0  0  0  0  0  0
   25.8770   79.2160   16.1630 C   0  0  0  0  0  3  0  0  0  0  0  0
   24.9880   79.1810   15.1120 C   0  0  0  0  0  3  0  0  0  0  0  0
   21.8820   76.5060   16.7740 H   0  0  0  0  0  0  0  0  0  0  0  0
   19.7150   76.4130   14.2800 C   0  0  0  0  0  2  0  0  0  0  0  0
   19.8610   74.9430   13.9850 C   0  0  0  0  0  2  0  0  0  0  0  0
   18.7740   74.3010   13.2450 C   0  0  0  0  0  2  0  0  0  0  0  0
   19.0770   73.3090   12.2550 N   0  0  0  0  0  4  0  0  0  0  0  0
   19.5910   72.0820   12.8380 C   0  0  0  0  0  3  0  0  0  0  0  0
   18.5920   71.0800   13.2330 C   0  0  0  0  0  3  0  0  0  0  0  0
   17.2020   71.2980   12.7620 C   0  0  0  0  0  2  0  0  0  0  0  0
   17.1820   71.9480   11.4240 C   0  0  0  0  0  3  0  0  0  0  0  0
   18.0800   73.1180   11.2630 C   0  0  0  0  0  3  0  0  0  0  0  0
   19.9190   73.6830   11.7620 H   0  0  0  0  0  0  0  0  0  0  0  0
   20.3670   78.1020   11.6240 C   0  0  0  0  0  0  0  0  0  0  0  0
   19.9740   76.9650   10.9180 C   0  0  0  0  0  3  0  0  0  0  0  0
   19.2540   77.0050    9.7410 C   0  0  0  0  0  3  0  0  0  0  0  0
   18.8850   78.2030    9.2010 C   0  0  0  0  0  0  0  0  0  0  0  0
   17.8960   78.3090    7.5860 Br  0  0  0  0  0  0  0  0  0  0  0  0
   19.2540   79.3370    9.8700 C   0  0  0  0  0  3  0  0  0  0  0  0
   19.9940   79.2900   11.0760 C   0  0  0  0  0  3  0  0  0  0  0  0
  1  2  2  0  0  0  0
  1  8  1  0  0  0  0
  2  3  1  0  0  0  0
  3  7  1  0  0  0  0
  3  4  1  0  0  0  0
  4  5  1  0  0  0  0
  5  9  2  0  0  0  0
  6  5  1  0  0  0  0
  6 13  1  0  0  0  0
  7  8  1  1  0  0  0
  7  6  1  0  0  0  0
  8 14  1  0  0  0  0
 10  9  1  0  0  0  0
 11 10  2  0  0  0  0
 12  4  2  0  0  0  0
 12 11  1  0  0  0  0
 15 14  1  0  0  0  0
 16 15  1  0  0  0  0
 17 18  1  0  0  0  0
 17 16  1  0  0  0  0
 18 19  2  0  0  0  0
 20 19  1  0  0  0  0
 21 20  1  0  0  0  0
 22 21  2  0  0  0  0
 22 17  1  0  0  0  0
 23 17  1  0  0  0  0
 24  1  1  0  0  0  0
 25 24  2  0  0  0  0
 26 25  1  0  0  0  0
 27 26  2  0  0  0  0
 27 29  1  0  0  0  0
 28 27  1  0  0  0  0
 29 30  2  0  0  0  0
 30 24  1  0  0  0  0
M  END
>  <Pose>
1

>  <Score>
-10.087

$$$$
