MODEL 1
REMARK VINA RESULT:   -10.087      0.000      0.000
REMARK INTER + INTRA:         -13.921
REMARK INTER:                 -13.036
REMARK INTRA:                  -0.885
REMARK UNBOUND:                -0.885
REMARK  5 active torsions:
REMARK  status: ('A' for Active; 'I' for Inactive)
REMARK    1  A    between atoms: C_5  and  C_8 
REMARK    2  A    between atoms: N_15  and  C_16 
REMARK    3  A    between atoms: C_16  and  C_17 
REMARK    4  A    between atoms: C_17  and  C_18 
REMARK    5  A    between atoms: C_18  and  N_19 
ROOT
ATOM      1  C   UNK d   1      21.118  77.921  12.871  0.00  0.00     0.078 A 
ATOM      2  C   UNK d   1      22.352  78.560  13.090  0.00  0.00     0.146 A 
ATOM      3  N   UNK d   1      22.797  78.239  14.303  0.00  0.00    -0.153 N 
ATOM      4  C   UNK d   1      23.826  78.450  15.164  0.00  0.00     0.083 A 
ATOM      5  C   UNK d   1      23.548  77.742  16.283  0.00  0.00     0.077 A 
ATOM      6  N   UNK d   1      22.374  77.126  16.080  0.00  0.00    -0.189 N 
ATOM      7  C   UNK d   1      21.894  77.424  14.852  0.00  0.00     0.692 A 
ATOM      8  N   UNK d   1      20.853  77.218  13.981  0.00  0.00    -0.180 N 
ATOM      9  C   UNK d   1      24.418  77.754  17.358  0.00  0.00     0.032 A 
ATOM     10  C   UNK d   1      25.591  78.490  17.311  0.00  0.00     0.002 A 
ATOM     11  C   UNK d   1      25.877  79.216  16.163  0.00  0.00     0.002 A 
ATOM     12  C   UNK d   1      24.988  79.181  15.112  0.00  0.00     0.033 A 
ATOM     13  H   UNK d   1      21.882  76.506  16.774  0.00  0.00     0.184 HD
ENDROOT
BRANCH   8  14
ATOM     14  C   UNK d   1      19.715  76.413  14.280  0.00  0.00     0.149 C 
BRANCH  14  15
ATOM     15  C   UNK d   1      19.861  74.943  13.985  0.00  0.00     0.048 C 
BRANCH  15  16
ATOM     16  C   UNK d   1      18.774  74.301  13.245  0.00  0.00     0.236 C 
BRANCH  16  17
ATOM     17  N   UNK d   1      19.077  73.309  12.255  0.00  0.00    -0.071 N 
ATOM     18  C   UNK d   1      19.591  72.082  12.838  0.00  0.00     0.235 C 
ATOM     19  C   UNK d   1      18.592  71.080  13.233  0.00  0.00     0.028 C 
ATOM     20  C   UNK d   1      17.202  71.298  12.762  0.00  0.00     0.003 C 
ATOM     21  C   UNK d   1      17.182  71.948  11.424  0.00  0.00     0.028 C 
ATOM     22  C   UNK d   1      18.080  73.118  11.263  0.00  0.00     0.235 C 
ATOM     23  H   UNK d   1      19.919  73.683  11.762  0.00  0.00     0.279 HD
ENDBRANCH  16  17
ENDBRANCH  15  16
ENDBRANCH  14  15
ENDBRANCH   8  14
BRANCH   1  24
ATOM     24  C   UNK d   1      20.367  78.102  11.624  0.00  0.00    -0.007 A 
ATOM     25  C   UNK d   1      19.974  76.965  10.918  0.00  0.00     0.015 A 
ATOM     26  C   UNK d   1      19.254  77.005   9.741  0.00  0.00     0.020 A 
ATOM     27  C   UNK d   1      18.885  78.203   9.201  0.00  0.00     0.011 A 
ATOM     28 Br   UNK d   1      17.896  78.309   7.586  0.00  0.00    -0.051 Br
ATOM     29  C   UNK d   1      19.254  79.337   9.870  0.00  0.00     0.020 A 
ATOM     30  C   UNK d   1      19.994  79.290  11.076  0.00  0.00     0.015 A 
ENDBRANCH   1  24
TORSDOF 5
ENDMDL
