MODEL 1
REMARK VINA RESULT:    -8.099      0.000      0.000
REMARK INTER + INTRA:         -11.606
REMARK INTER:                 -10.940
REMARK INTRA:                  -0.666
REMARK UNBOUND:                -0.666
REMARK  6 active torsions:
REMARK  status: ('A' for Active; 'I' for Inactive)
REMARK    1  A    between atoms: C_10  and  C_22 
REMARK    2  A    between atoms: N_15  and  C_18 
REMARK    3  A    between atoms: C_18  and  C_19 
REMARK    4  A    between atoms: C_19  and  C_20 
REMARK    5  A    between atoms: C_22  and  C_23 
REMARK    6  A    between atoms: C_23  and  C_24 
REMARK       I    between atoms: C_24  and  N_26 
ROOT
ATOM      1 Cl   UNK d   1      23.691  80.762   9.059  0.00  0.00    -0.082 Cl
ATOM      2  C   UNK d   1      22.228  80.361   9.953  0.00  0.00     0.061 A 
ATOM      3  C   UNK d   1      22.377  79.579  11.108  0.00  0.00     0.066 A 
ATOM      4  C   UNK d   1      21.238  79.271  11.800  0.00  0.00     0.008 A 
ATOM      5  C   UNK d   1      19.971  79.718  11.370  0.00  0.00     0.012 A 
ATOM      6  C   UNK d   1      19.838  80.482  10.238  0.00  0.00     0.002 A 
ATOM      7  C   UNK d   1      20.988  80.790   9.546  0.00  0.00     0.026 A 
ATOM      8  C   UNK d   1      21.624  78.466  12.967  0.00  0.00     0.151 A 
ATOM      9  N   UNK d   1      20.918  77.242  13.102  0.00  0.00    -0.395 N 
ATOM     10  C   UNK d   1      20.812  76.853  14.439  0.00  0.00     0.092 C 
ATOM     11  C   UNK d   1      21.105  78.106  15.237  0.00  0.00     0.117 C 
ATOM     12  C   UNK d   1      21.323  79.217  14.262  0.00  0.00     0.135 C 
ATOM     13  C   UNK d   1      22.488  80.009  14.737  0.00  0.00     0.234 C 
ATOM     14  O   UNK d   1      22.873  81.075  14.203  0.00  0.00    -0.272 OA
ATOM     15  N   UNK d   1      23.045  79.336  15.866  0.00  0.00    -0.288 N 
ATOM     16  C   UNK d   1      22.407  78.052  15.938  0.00  0.00     0.233 C 
ATOM     17  O   UNK d   1      22.890  77.060  16.506  0.00  0.00    -0.272 OA
ATOM     18  C   UNK d   1      23.078  78.304  12.865  0.00  0.00     0.256 A 
ATOM     19  O   UNK d   1      23.865  77.661  13.627  0.00  0.00    -0.270 OA
ATOM     20  N   UNK d   1      23.526  79.010  11.724  0.00  0.00    -0.323 N 
ATOM     21  H   UNK d   1      21.134  76.513  12.402  0.00  0.00     0.155 HD
ATOM     22  H   UNK d   1      24.503  79.122  11.362  0.00  0.00     0.169 HD
ENDROOT
BRANCH  10  23
ATOM     23  C   UNK d   1      19.596  76.142  14.893  0.00  0.00     0.035 C 
BRANCH  23  24
ATOM     24  C   UNK d   1      18.863  75.313  13.916  0.00  0.00     0.104 C 
BRANCH  24  25
ATOM     25  C   UNK d   1      19.394  73.978  13.624  0.00  0.00     0.215 C 
ATOM     26  O   UNK d   1      20.354  73.523  14.274  0.00  0.00    -0.274 OA
ATOM     27  N   UNK d   1      18.858  73.138  12.606  0.00  0.00    -0.370 N 
ATOM     28  H   UNK d   1      17.917  72.708  12.655  0.00  0.00     0.159 HD
ATOM     29  H   UNK d   1      19.435  72.944  11.770  0.00  0.00     0.159 HD
ENDBRANCH  24  25
ENDBRANCH  23  24
ENDBRANCH  10  23
BRANCH  15  30
ATOM     30  C   UNK d   1      24.039  79.815  16.777  0.00  0.00     0.135 C 
BRANCH  30  31
ATOM     31  C   UNK d   1      25.442  79.787  16.286  0.00  0.00     0.020 C 
BRANCH  31  32
ATOM     32  C   UNK d   1      26.305  78.690  16.799  0.00  0.00    -0.003 C 
ATOM     33  C   UNK d   1      26.099  77.395  16.020  0.00  0.00     0.005 C 
ENDBRANCH  31  32
ENDBRANCH  30  31
ENDBRANCH  15  30
TORSDOF 6
ENDMDL
