/Users/jonathanwahrer/Desktop/Msc/3_Semester/Drug_Design_Praktikum/waehrer_HTS_screening/HTS_experiment/out/docking_results/vina_output/6e43/2440_docked.pdbqt
 OpenBabel03212221123D

 33 36  0  0  1  0  0  0  0  0999 V2000
   23.6910   80.7620    9.0590 Cl  0  0  0  0  0  0  0  0  0  0  0  0
   22.2280   80.3610    9.9530 C   0  0  0  0  0  0  0  0  0  0  0  0
   22.3770   79.5790   11.1080 C   0  0  0  0  0  0  0  0  0  0  0  0
   21.2380   79.2710   11.8000 C   0  0  0  0  0  0  0  0  0  0  0  0
   19.9710   79.7180   11.3700 C   0  0  0  0  0  3  0  0  0  0  0  0
   19.8380   80.4820   10.2380 C   0  0  0  0  0  3  0  0  0  0  0  0
   20.9880   80.7900    9.5460 C   0  0  0  0  0  3  0  0  0  0  0  0
   21.6240   78.4660   12.9670 C   0  0  2  0  0  0  0  0  0  0  0  0
   20.9180   77.2420   13.1020 N   0  0  0  0  0  0  0  0  0  0  0  0
   20.8120   76.8530   14.4390 C   0  0  1  0  0  3  0  0  0  0  0  0
   21.1050   78.1060   15.2370 C   0  0  2  0  0  3  0  0  0  0  0  0
   21.3230   79.2170   14.2620 C   0  0  1  0  0  3  0  0  0  0  0  0
   22.4880   80.0090   14.7370 C   0  0  0  0  0  0  0  0  0  0  0  0
   22.8730   81.0750   14.2030 O   0  0  0  0  0  0  0  0  0  0  0  0
   23.0450   79.3360   15.8660 N   0  0  0  0  0  0  0  0  0  0  0  0
   22.4070   78.0520   15.9380 C   0  0  0  0  0  0  0  0  0  0  0  0
   22.8900   77.0600   16.5060 O   0  0  0  0  0  0  0  0  0  0  0  0
   23.0780   78.3040   12.8650 C   0  0  0  0  0  0  0  0  0  0  0  0
   23.8650   77.6610   13.6270 O   0  0  0  0  0  0  0  0  0  0  0  0
   23.5260   79.0100   11.7240 N   0  0  0  0  0  0  0  0  0  0  0  0
   21.1340   76.5130   12.4020 H   0  0  0  0  0  0  0  0  0  0  0  0
   24.5030   79.1220   11.3620 H   0  0  0  0  0  0  0  0  0  0  0  0
   19.5960   76.1420   14.8930 C   0  0  0  0  0  2  0  0  0  0  0  0
   18.8630   75.3130   13.9160 C   0  0  0  0  0  2  0  0  0  0  0  0
   19.3940   73.9780   13.6240 C   0  0  0  0  0  0  0  0  0  0  0  0
   20.3540   73.5230   14.2740 O   0  0  0  0  0  0  0  0  0  0  0  0
   18.8580   73.1380   12.6060 N   0  0  0  0  0  0  0  0  0  0  0  0
   17.9170   72.7080   12.6550 H   0  0  0  0  0  0  0  0  0  0  0  0
   19.4350   72.9440   11.7700 H   0  0  0  0  0  0  0  0  0  0  0  0
   24.0390   79.8150   16.7770 C   0  0  0  0  0  2  0  0  0  0  0  0
   25.4420   79.7870   16.2860 C   0  0  0  0  0  2  0  0  0  0  0  0
   26.3050   78.6900   16.7990 C   0  0  0  0  0  2  0  0  0  0  0  0
   26.0990   77.3950   16.0200 C   0  0  0  0  0  1  0  0  0  0  0  0
  1  2  1  0  0  0  0
  2  3  1  0  0  0  0
  3 20  1  0  0  0  0
  3  4  2  0  0  0  0
  5  4  1  0  0  0  0
  6  5  2  0  0  0  0
  7  2  2  0  0  0  0
  7  6  1  0  0  0  0
  8  4  1  6  0  0  0
  8  9  1  0  0  0  0
  8 12  1  0  0  0  0
  9 10  1  0  0  0  0
 10 23  1  6  0  0  0
 10 11  1  0  0  0  0
 11 16  1  6  0  0  0
 12 13  1  1  0  0  0
 12 11  1  0  0  0  0
 13 15  1  0  0  0  0
 14 13  2  0  0  0  0
 15 16  1  0  0  0  0
 15 30  1  0  0  0  0
 16 17  2  0  0  0  0
 18  8  1  0  0  0  0
 18 19  2  0  0  0  0
 20 18  1  0  0  0  0
 21  9  1  0  0  0  0
 22 20  1  0  0  0  0
 24 23  1  0  0  0  0
 25 24  1  0  0  0  0
 25 26  2  0  0  0  0
 27 28  1  0  0  0  0
 27 25  1  0  0  0  0
 29 27  1  0  0  0  0
 31 30  1  0  0  0  0
 31 32  1  0  0  0  0
 33 32  1  0  0  0  0
M  END
>  <Pose>
1

>  <Score>
-8.099

$$$$
