
 OpenBabel03202210083D

 52 55  0  0  0  0  0  0  0  0999 V2000
   56.6940   79.9710   18.2520 B   0  0  0  0  0  0  0  0  0  0  0  0
   55.5430   80.9720   17.1000 C   0  0  0  0  0  0  0  0  0  0  0  0
   55.5100   80.6210   15.7650 C   0  0  0  0  0  0  0  0  0  0  0  0
   54.6820   81.3390   14.9300 C   0  0  0  0  0  0  0  0  0  0  0  0
   53.9040   82.3800   15.4050 C   0  0  0  0  0  0  0  0  0  0  0  0
   53.9310   82.7360   16.7330 C   0  0  0  0  0  0  0  0  0  0  0  0
   54.7600   82.0160   17.5670 C   0  0  0  0  0  0  0  0  0  0  0  0
   54.8020   82.3550   18.8990 O   0  0  0  0  0  0  0  0  0  0  0  0
   53.1030   83.8340   17.2050 C   0  0  0  0  0  0  0  0  0  0  0  0
   52.7000   83.9610   18.4070 N   0  0  0  0  0  0  0  0  0  0  0  0
   51.8980   85.0340   18.8410 N   0  0  0  0  0  0  0  0  0  0  0  0
   52.5220   86.1810   19.4040 C   0  0  0  0  0  0  0  0  0  0  0  0
   53.1940   86.1010   20.5500 N   0  0  0  0  0  4  0  0  0  0  0  0
   53.8060   87.1780   21.1210 C   0  0  0  0  0  0  0  0  0  0  0  0
   53.6970   88.3310   20.4650 N   0  0  0  0  0  0  0  0  0  0  0  0
   53.0340   88.5000   19.2980 C   0  0  0  0  0  0  0  0  0  0  0  0
   52.4510   87.3710   18.7950 N   0  0  0  0  0  0  0  0  0  0  0  0
   52.9450   89.7400   18.6390 N   0  0  0  0  0  0  0  0  0  0  0  0
   54.0790   90.6070   18.5520 C   0  0  0  0  0  0  0  0  0  0  0  0
   53.6290   91.9880   19.0370 C   0  0  0  0  0  0  0  0  0  0  0  0
   52.3240   91.9800   19.4800 O   0  0  0  0  0  0  0  0  0  0  0  0
   51.4100   91.5570   18.5480 C   0  0  0  0  0  0  0  0  0  0  0  0
   51.7110   90.1510   18.0430 C   0  0  0  0  0  0  0  0  0  0  0  0
   54.5130   87.0720   22.3380 N   0  0  0  0  0  0  0  0  0  0  0  0
   54.4080   85.8820   23.1360 C   0  0  0  0  0  0  0  0  0  0  0  0
   54.1670   86.3210   24.5720 C   0  0  0  0  0  0  0  0  0  0  0  0
   55.0360   87.3340   24.9590 O   0  0  0  0  0  0  0  0  0  0  0  0
   54.9040   88.4850   24.2140 C   0  0  0  0  0  0  0  0  0  0  0  0
   55.3410   88.1570   22.7810 C   0  0  0  0  0  0  0  0  0  0  0  0
   54.6280   80.8630   13.0760 B   0  0  0  0  0  0  0  0  0  0  0  0
   56.3010   79.5700   15.3040 O   0  0  0  0  0  0  0  0  0  0  0  0
   53.2520   82.9400   14.7260 H   0  0  0  0  0  0  0  0  0  0  0  0
   55.6470   82.1920   19.4540 H   0  0  0  0  0  0  0  0  0  0  0  0
   52.8090   84.5910   16.4970 H   0  0  0  0  0  0  0  0  0  0  0  0
   50.8850   84.9270   18.7240 H   0  0  0  0  0  0  0  0  0  0  0  0
   54.3310   90.7320   17.4730 H   0  0  0  0  0  0  0  0  0  0  0  0
   54.9340   90.2260   19.1390 H   0  0  0  0  0  0  0  0  0  0  0  0
   53.8150   92.7680   18.2930 H   0  0  0  0  0  0  0  0  0  0  0  0
   54.2700   92.2340   19.9220 H   0  0  0  0  0  0  0  0  0  0  0  0
   51.2990   92.2680   17.7030 H   0  0  0  0  0  0  0  0  0  0  0  0
   50.4180   91.5080   19.0450 H   0  0  0  0  0  0  0  0  0  0  0  0
   50.8980   89.4390   18.2910 H   0  0  0  0  0  0  0  0  0  0  0  0
   51.7520   90.1960   16.9360 H   0  0  0  0  0  0  0  0  0  0  0  0
   53.5270   85.2470   22.8610 H   0  0  0  0  0  0  0  0  0  0  0  0
   55.3500   85.2960   23.1310 H   0  0  0  0  0  0  0  0  0  0  0  0
   53.1110   86.6130   24.6980 H   0  0  0  0  0  0  0  0  0  0  0  0
   54.3650   85.4510   25.2340 H   0  0  0  0  0  0  0  0  0  0  0  0
   53.8370   88.7600   24.1540 H   0  0  0  0  0  0  0  0  0  0  0  0
   55.5340   89.2640   24.6570 H   0  0  0  0  0  0  0  0  0  0  0  0
   56.3880   87.7640   22.8800 H   0  0  0  0  0  0  0  0  0  0  0  0
   55.2830   89.0450   22.1320 H   0  0  0  0  0  0  0  0  0  0  0  0
   57.3020   79.6320   15.3840 H   0  0  0  0  0  0  0  0  0  0  0  0
  2  7  1  0  0  0  0
  2  1  1  0  0  0  0
  3  2  2  0  0  0  0
  4  5  2  0  0  0  0
  4  3  1  0  0  0  0
  5  6  1  0  0  0  0
  6  9  1  0  0  0  0
  6  7  2  0  0  0  0
  7  8  1  0  0  0  0
  8 33  1  0  0  0  0
  9 10  2  0  0  0  0
 10 11  1  0  0  0  0
 11 12  1  0  0  0  0
 12 13  2  0  0  0  0
 13 14  2  0  0  0  0
 14 24  1  0  0  0  0
 15 14  1  0  0  0  0
 16 15  2  0  0  0  0
 17 16  1  0  0  0  0
 17 12  1  0  0  0  0
 18 16  1  0  0  0  0
 19 18  1  0  0  0  0
 19 20  1  0  0  0  0
 19 37  1  0  0  0  0
 20 21  1  0  0  0  0
 20 39  1  0  0  0  0
 22 41  1  0  0  0  0
 22 21  1  0  0  0  0
 23 42  1  0  0  0  0
 23 22  1  0  0  0  0
 23 18  1  0  0  0  0
 24 29  1  0  0  0  0
 24 25  1  0  0  0  0
 25 26  1  0  0  0  0
 26 46  1  0  0  0  0
 26 27  1  0  0  0  0
 26 47  1  0  0  0  0
 28 49  1  0  0  0  0
 28 27  1  0  0  0  0
 29 50  1  0  0  0  0
 29 28  1  0  0  0  0
 30  4  1  0  0  0  0
 31 52  1  0  0  0  0
 31  3  1  0  0  0  0
 32  5  1  0  0  0  0
 34  9  1  0  0  0  0
 35 11  1  0  0  0  0
 36 19  1  0  0  0  0
 38 20  1  0  0  0  0
 40 22  1  0  0  0  0
 43 23  1  0  0  0  0
 44 25  1  0  0  0  0
 45 25  1  0  0  0  0
 48 28  1  0  0  0  0
 51 29  1  0  0  0  0
M  END
>  <Pose>
1

>  <Score>
-8.46

$$$$
