
 OpenBabel03202210083D

 39 42  0  0  1  0  0  0  0  0999 V2000
   51.7320   88.2060   18.6720 B   0  0  0  0  0  0  0  0  0  0  0  0
   52.8970   86.9500   19.4960 C   0  0  0  0  0  0  0  0  0  0  0  0
   52.7470   85.6070   19.2440 C   0  0  0  0  0  0  0  0  0  0  0  0
   53.6070   84.7190   19.8550 C   0  0  0  0  0  0  0  0  0  0  0  0
   54.6170   85.0960   20.7120 C   0  0  0  0  0  0  0  0  0  0  0  0
   54.7620   86.4450   20.9590 C   0  0  0  0  0  0  0  0  0  0  0  0
   53.9160   87.3540   20.3620 C   0  0  0  0  0  0  0  0  0  0  0  0
   55.8190   86.9800   21.8630 C   0  0  2  0  0  0  0  0  0  0  0  0
   55.8060   86.2620   23.0690 N   0  0  0  0  0  4  0  0  0  0  0  0
   55.9100   86.9560   24.2960 C   0  0  1  0  0  0  0  0  0  0  0  0
   56.4950   88.3400   24.2100 C   0  0  0  0  0  0  0  0  0  0  0  0
   55.9260   89.1140   23.0820 C   0  0  0  0  0  0  0  0  0  0  0  0
   55.6380   90.4430   22.9250 C   0  0  0  0  0  0  0  0  0  0  0  0
   55.1230   90.5500   21.6450 C   0  0  0  0  0  0  0  0  0  0  0  0
   55.1090   89.3190   21.0680 N   0  0  0  0  0  0  0  0  0  0  0  0
   55.6020   88.4350   21.9470 C   0  0  0  0  0  0  0  0  0  0  0  0
   54.7470   91.8090   21.2300 C   0  0  0  0  0  0  0  0  0  0  0  0
   54.8760   92.9110   22.0480 C   0  0  0  0  0  0  0  0  0  0  0  0
   55.3900   92.8030   23.3240 C   0  0  0  0  0  0  0  0  0  0  0  0
   55.7740   91.5450   23.7570 C   0  0  0  0  0  0  0  0  0  0  0  0
   54.6060   87.0740   25.0050 C   0  0  0  0  0  0  0  0  0  0  0  0
   54.1170   86.0480   25.5900 O   0  0  0  0  0  0  0  0  0  0  0  0
   53.9390   88.2880   25.0180 O   0  0  0  0  0  0  0  0  0  0  0  0
   53.3800   82.8610   19.4910 B   0  0  0  0  0  0  0  0  0  0  0  0
   51.7370   85.1390   18.3790 O   0  0  0  0  0  0  0  0  0  0  0  0
   55.2950   84.4310   21.1970 H   0  0  0  0  0  0  0  0  0  0  0  0
   53.9700   88.4290   20.5060 H   0  0  0  0  0  0  0  0  0  0  0  0
   56.7870   86.8390   21.3080 H   0  0  0  0  0  0  0  0  0  0  0  0
   54.9720   85.6110   23.1320 H   0  0  0  0  0  0  0  0  0  0  0  0
   56.6130   85.5600   23.0350 H   0  0  0  0  0  0  0  0  0  0  0  0
   56.5750   86.4000   25.0260 H   0  0  0  0  0  0  0  0  0  0  0  0
   57.5990   88.3450   24.1010 H   0  0  0  0  0  0  0  0  0  0  0  0
   56.2590   88.8900   25.1440 H   0  0  0  0  0  0  0  0  0  0  0  0
   54.7560   89.1840   20.0960 H   0  0  0  0  0  0  0  0  0  0  0  0
   54.3430   91.9220   20.2380 H   0  0  0  0  0  0  0  0  0  0  0  0
   54.5740   93.9160   21.7100 H   0  0  0  0  0  0  0  0  0  0  0  0
   55.4770   93.6900   23.9370 H   0  0  0  0  0  0  0  0  0  0  0  0
   56.1790   91.4320   24.7540 H   0  0  0  0  0  0  0  0  0  0  0  0
   50.7890   85.1280   18.7270 H   0  0  0  0  0  0  0  0  0  0  0  0
  1  2  1  0  0  0  0
  2  7  1  0  0  0  0
  3  2  2  0  0  0  0
  3  4  1  0  0  0  0
  4  5  2  0  0  0  0
  5  6  1  0  0  0  0
  5 26  1  0  0  0  0
  6  8  1  0  0  0  0
  7 27  1  0  0  0  0
  7  6  2  0  0  0  0
  8 28  1  6  0  0  0
  8 16  1  0  0  0  0
  8  9  1  0  0  0  0
  9 29  1  0  0  0  0
  9 10  1  0  0  0  0
 10 21  1  0  0  0  0
 10 31  1  1  0  0  0
 11 10  1  0  0  0  0
 11 33  1  0  0  0  0
 12 11  1  0  0  0  0
 13 12  1  0  0  0  0
 13 20  1  0  0  0  0
 14 13  2  0  0  0  0
 15 14  1  0  0  0  0
 15 16  1  0  0  0  0
 16 12  2  0  0  0  0
 17 14  1  0  0  0  0
 17 18  2  0  0  0  0
 18 19  1  0  0  0  0
 19 20  2  0  0  0  0
 19 37  1  0  0  0  0
 20 38  1  0  0  0  0
 21 23  2  0  0  0  0
 21 22  1  0  0  0  0
 24  4  1  0  0  0  0
 25 39  1  0  0  0  0
 25  3  1  0  0  0  0
 30  9  1  0  0  0  0
 32 11  1  0  0  0  0
 34 15  1  0  0  0  0
 35 17  1  0  0  0  0
 36 18  1  0  0  0  0
M  END
>  <Pose>
1

>  <Score>
-4.88

$$$$
