
 OpenBabel03202210083D

 52 55  0  0  0  0  0  0  0  0999 V2000
   53.4990   83.1420   20.6990 B   0  0  0  0  0  0  0  0  0  0  0  0
   53.1130   84.8150   19.8810 C   0  0  0  0  0  0  0  0  0  0  0  0
   52.3920   84.8140   18.6980 C   0  0  0  0  0  0  0  0  0  0  0  0
   52.1290   86.0410   18.1200 C   0  0  0  0  0  0  0  0  0  0  0  0
   52.5660   87.2060   18.6970 C   0  0  0  0  0  0  0  0  0  0  0  0
   53.2920   87.2320   19.8870 C   0  0  0  0  0  0  0  0  0  0  0  0
   53.5450   85.9990   20.4490 C   0  0  0  0  0  0  0  0  0  0  0  0
   53.7050   88.4980   20.4550 C   0  0  0  0  0  0  0  0  0  0  0  0
   54.6680   89.1920   19.9530 N   0  0  0  0  0  0  0  0  0  0  0  0
   55.1000   90.4050   20.4630 N   0  0  0  0  0  0  0  0  0  0  0  0
   55.3450   90.5580   21.8550 C   0  0  0  0  0  0  0  0  0  0  0  0
   55.2940   91.7560   22.4160 N   0  0  0  0  0  4  0  0  0  0  0  0
   55.4820   91.9880   23.7260 C   0  0  0  0  0  0  0  0  0  0  0  0
   55.7390   90.9110   24.5010 N   0  0  0  0  0  0  0  0  0  0  0  0
   55.8040   89.6550   23.9840 C   0  0  0  0  0  0  0  0  0  0  0  0
   55.6040   89.4990   22.6520 N   0  0  0  0  0  0  0  0  0  0  0  0
   56.0570   88.5390   24.8070 N   0  0  0  0  0  0  0  0  0  0  0  0
   54.9820   87.7510   25.3520 C   0  0  0  0  0  0  0  0  0  0  0  0
   55.3010   86.3020   24.9540 C   0  0  0  0  0  0  0  0  0  0  0  0
   56.5850   85.9980   25.3590 O   0  0  0  0  0  0  0  0  0  0  0  0
   57.5170   86.6960   24.5930 C   0  0  0  0  0  0  0  0  0  0  0  0
   57.4130   88.1500   25.1000 C   0  0  0  0  0  0  0  0  0  0  0  0
   55.4130   93.3080   24.2900 N   0  0  0  0  0  0  0  0  0  0  0  0
   54.5050   93.6180   25.3570 C   0  0  0  0  0  0  0  0  0  0  0  0
   54.6910   94.9220   26.0300 C   0  0  0  0  0  0  0  0  0  0  0  0
   55.4670   95.8310   25.3250 O   0  0  0  0  0  0  0  0  0  0  0  0
   56.6510   95.2660   24.8720 C   0  0  0  0  0  0  0  0  0  0  0  0
   56.2810   94.3170   23.7580 C   0  0  0  0  0  0  0  0  0  0  0  0
   52.2980   88.4450   18.1050 O   0  0  0  0  0  0  0  0  0  0  0  0
   51.9430   83.6370   18.1030 O   0  0  0  0  0  0  0  0  0  0  0  0
   51.5590   86.0210   17.1860 H   0  0  0  0  0  0  0  0  0  0  0  0
   54.1180   86.0030   21.3880 H   0  0  0  0  0  0  0  0  0  0  0  0
   53.1970   88.8830   21.3250 H   0  0  0  0  0  0  0  0  0  0  0  0
   55.2450   91.2050   19.8350 H   0  0  0  0  0  0  0  0  0  0  0  0
   54.9790   87.8320   26.4580 H   0  0  0  0  0  0  0  0  0  0  0  0
   53.9940   88.0440   24.9150 H   0  0  0  0  0  0  0  0  0  0  0  0
   54.5390   85.6510   25.4170 H   0  0  0  0  0  0  0  0  0  0  0  0
   55.2070   86.2650   23.8400 H   0  0  0  0  0  0  0  0  0  0  0  0
   57.1270   86.7270   23.5320 H   0  0  0  0  0  0  0  0  0  0  0  0
   58.5240   86.2930   24.6700 H   0  0  0  0  0  0  0  0  0  0  0  0
   57.4960   88.0670   26.2220 H   0  0  0  0  0  0  0  0  0  0  0  0
   58.1800   88.7960   24.6620 H   0  0  0  0  0  0  0  0  0  0  0  0
   53.4670   93.5210   24.9340 H   0  0  0  0  0  0  0  0  0  0  0  0
   54.6290   92.8000   26.1330 H   0  0  0  0  0  0  0  0  0  0  0  0
   55.1070   94.7830   27.0610 H   0  0  0  0  0  0  0  0  0  0  0  0
   53.6850   95.3970   26.1690 H   0  0  0  0  0  0  0  0  0  0  0  0
   57.3120   96.0770   24.5550 H   0  0  0  0  0  0  0  0  0  0  0  0
   57.1500   94.6310   25.6520 H   0  0  0  0  0  0  0  0  0  0  0  0
   57.2560   93.8850   23.4080 H   0  0  0  0  0  0  0  0  0  0  0  0
   55.8310   94.8430   22.8890 H   0  0  0  0  0  0  0  0  0  0  0  0
   51.4360   88.9200   18.3560 H   0  0  0  0  0  0  0  0  0  0  0  0
   51.0250   83.5270   17.7010 H   0  0  0  0  0  0  0  0  0  0  0  0
  2  7  1  0  0  0  0
  2  1  1  0  0  0  0
  3  2  2  0  0  0  0
  4  5  2  0  0  0  0
  4  3  1  0  0  0  0
  5  6  1  0  0  0  0
  6  7  2  0  0  0  0
  6  8  1  0  0  0  0
  7 32  1  0  0  0  0
  8 33  1  0  0  0  0
  9  8  2  0  0  0  0
  9 10  1  0  0  0  0
 10 11  1  0  0  0  0
 11 12  2  0  0  0  0
 11 16  1  0  0  0  0
 12 13  2  0  0  0  0
 13 23  1  0  0  0  0
 13 14  1  0  0  0  0
 15 14  2  0  0  0  0
 15 17  1  0  0  0  0
 16 15  1  0  0  0  0
 17 22  1  0  0  0  0
 17 18  1  0  0  0  0
 18 35  1  0  0  0  0
 19 18  1  0  0  0  0
 19 20  1  0  0  0  0
 19 37  1  0  0  0  0
 21 40  1  0  0  0  0
 21 22  1  0  0  0  0
 21 20  1  0  0  0  0
 22 41  1  0  0  0  0
 23 24  1  0  0  0  0
 24 25  1  0  0  0  0
 24 44  1  0  0  0  0
 25 46  1  0  0  0  0
 25 45  1  0  0  0  0
 26 25  1  0  0  0  0
 27 26  1  0  0  0  0
 27 48  1  0  0  0  0
 28 23  1  0  0  0  0
 28 27  1  0  0  0  0
 29 51  1  0  0  0  0
 29  5  1  0  0  0  0
 30  3  1  0  0  0  0
 31  4  1  0  0  0  0
 34 10  1  0  0  0  0
 36 18  1  0  0  0  0
 38 19  1  0  0  0  0
 39 21  1  0  0  0  0
 42 22  1  0  0  0  0
 43 24  1  0  0  0  0
 47 27  1  0  0  0  0
 49 28  1  0  0  0  0
 50 28  1  0  0  0  0
 52 30  1  0  0  0  0
M  END
>  <Pose>
1

>  <Score>
-6.84

$$$$
