
 OpenBabel03202210083D

 46 49  0  0  1  0  0  0  0  0999 V2000
   55.8750   83.8350   26.1430 B   0  0  0  0  0  0  0  0  0  0  0  0
   55.6550   85.3890   25.0620 C   0  0  0  0  0  0  0  0  0  0  0  0
   54.4500   85.5670   24.3920 C   0  0  0  0  0  0  0  0  0  0  0  0
   54.3160   86.6910   23.6240 C   0  0  0  0  0  0  0  0  0  0  0  0
   55.2850   87.6580   23.4650 C   0  0  0  0  0  0  0  0  0  0  0  0
   56.4800   87.4420   24.1560 C   0  0  0  0  0  0  0  0  0  0  0  0
   56.6640   86.3230   24.9430 C   0  0  0  0  0  0  0  0  0  0  0  0
   55.1290   88.8200   22.6610 N   0  0  0  0  0  0  0  0  0  0  0  0
   54.8280   90.1300   23.1870 C   0  0  0  0  0  0  0  0  0  0  0  0
   55.5310   91.0310   22.1940 C   0  0  1  0  0  0  0  0  0  0  0  0
   55.1140   90.3980   20.8780 C   0  0  0  0  0  0  0  0  0  0  0  0
   55.2160   88.9630   21.2550 C   0  0  0  0  0  0  0  0  0  0  0  0
   55.3570   88.0290   20.4380 O   0  0  0  0  0  0  0  0  0  0  0  0
   55.0800   92.4340   22.2990 C   0  0  0  0  0  0  0  0  0  0  0  0
   53.9150   92.7700   21.9760 O   0  0  0  0  0  0  0  0  0  0  0  0
   55.9820   93.4090   22.7730 N   0  0  0  0  0  0  0  0  0  0  0  0
   55.9850   93.8020   24.1610 C   0  0  0  0  0  0  0  0  0  0  0  0
   56.7810   95.0440   24.3670 C   0  0  0  0  0  0  0  0  0  0  0  0
   56.5760   96.0200   25.2870 N   0  0  0  0  0  0  0  0  0  0  0  0
   57.5160   96.9700   25.1480 C   0  0  0  0  0  0  0  0  0  0  0  0
   58.2990   96.5500   24.1220 N   0  0  0  0  0  0  0  0  0  0  0  0
   57.8620   95.3990   23.6530 N   0  0  0  0  0  0  0  0  0  0  0  0
   57.3190   98.0670   26.1510 C   0  0  0  0  0  0  0  0  0  0  0  0
   55.9110   97.8030   26.6390 C   0  0  0  0  0  0  0  0  0  0  0  0
   55.6520   96.3380   26.3610 C   0  0  0  0  0  0  0  0  0  0  0  0
   53.3820   84.5410   24.5390 C   0  0  0  0  0  0  0  0  0  0  0  0
   53.3600   86.8170   23.1020 H   0  0  0  0  0  0  0  0  0  0  0  0
   57.3060   88.1330   24.1050 H   0  0  0  0  0  0  0  0  0  0  0  0
   57.5800   86.1410   25.4840 H   0  0  0  0  0  0  0  0  0  0  0  0
   53.7200   90.2520   23.1520 H   0  0  0  0  0  0  0  0  0  0  0  0
   55.2130   90.2760   24.2170 H   0  0  0  0  0  0  0  0  0  0  0  0
   56.6150   90.8970   22.3470 H   0  0  0  0  0  0  0  0  0  0  0  0
   55.8900   90.6840   20.1380 H   0  0  0  0  0  0  0  0  0  0  0  0
   54.1060   90.6930   20.5860 H   0  0  0  0  0  0  0  0  0  0  0  0
   56.6560   93.8550   22.1250 H   0  0  0  0  0  0  0  0  0  0  0  0
   54.9670   93.9600   24.5590 H   0  0  0  0  0  0  0  0  0  0  0  0
   56.4340   92.9880   24.7940 H   0  0  0  0  0  0  0  0  0  0  0  0
   58.0720   97.9720   26.9460 H   0  0  0  0  0  0  0  0  0  0  0  0
   57.3000   99.0640   25.6640 H   0  0  0  0  0  0  0  0  0  0  0  0
   55.1650   98.4600   26.1430 H   0  0  0  0  0  0  0  0  0  0  0  0
   55.8810   98.0470   27.7140 H   0  0  0  0  0  0  0  0  0  0  0  0
   54.6100   96.1400   26.0610 H   0  0  0  0  0  0  0  0  0  0  0  0
   55.8600   95.7730   27.2920 H   0  0  0  0  0  0  0  0  0  0  0  0
   52.5380   84.7820   23.8670 H   0  0  0  0  0  0  0  0  0  0  0  0
   53.7770   83.5190   24.3820 H   0  0  0  0  0  0  0  0  0  0  0  0
   52.9830   84.6700   25.5800 H   0  0  0  0  0  0  0  0  0  0  0  0
  2  1  1  0  0  0  0
  3 26  1  0  0  0  0
  3  2  2  0  0  0  0
  4  3  1  0  0  0  0
  5  4  2  0  0  0  0
  5  6  1  0  0  0  0
  6  7  2  0  0  0  0
  7  2  1  0  0  0  0
  7 29  1  0  0  0  0
  8  9  1  0  0  0  0
  8  5  1  0  0  0  0
  9 31  1  0  0  0  0
 10 14  1  0  0  0  0
 10 32  1  1  0  0  0
 10  9  1  0  0  0  0
 11 12  1  0  0  0  0
 11 10  1  0  0  0  0
 12  8  1  0  0  0  0
 13 12  2  0  0  0  0
 14 16  1  0  0  0  0
 15 14  2  0  0  0  0
 16 17  1  0  0  0  0
 17 18  1  0  0  0  0
 17 36  1  0  0  0  0
 17 37  1  0  0  0  0
 18 19  1  0  0  0  0
 19 25  1  0  0  0  0
 20 19  1  0  0  0  0
 20 23  1  0  0  0  0
 21 20  2  0  0  0  0
 22 21  1  0  0  0  0
 22 18  2  0  0  0  0
 23 24  1  0  0  0  0
 23 38  1  0  0  0  0
 24 41  1  0  0  0  0
 25 24  1  0  0  0  0
 25 43  1  0  0  0  0
 26 46  1  0  0  0  0
 27  4  1  0  0  0  0
 28  6  1  0  0  0  0
 30  9  1  0  0  0  0
 33 11  1  0  0  0  0
 34 11  1  0  0  0  0
 35 16  1  0  0  0  0
 39 23  1  0  0  0  0
 40 24  1  0  0  0  0
 42 25  1  0  0  0  0
 44 26  1  0  0  0  0
 45 26  1  0  0  0  0
M  END
>  <Pose>
1

>  <Score>
-6.45

$$$$
