
 OpenBabel03202210083D

 54 57  0  0  0  0  0  0  0  0999 V2000
   52.5930   92.4780   18.1600 B   0  0  0  0  0  0  0  0  0  0  0  0
   53.8230   91.6700   19.3710 C   0  0  0  0  0  0  0  0  0  0  0  0
   53.9150   92.0940   20.6780 C   0  0  0  0  0  0  0  0  0  0  0  0
   54.8020   91.5110   21.5520 C   0  0  0  0  0  0  0  0  0  0  0  0
   55.5980   90.4890   21.0820 C   0  0  0  0  0  0  0  0  0  0  0  0
   55.5150   90.0500   19.7590 C   0  0  0  0  0  0  0  0  0  0  0  0
   54.6190   90.6410   18.8830 C   0  0  0  0  0  0  0  0  0  0  0  0
   56.4860   89.9180   21.9860 O   0  0  0  0  0  0  0  0  0  0  0  0
   56.0890   89.1220   23.0790 C   0  0  0  0  0  0  0  0  0  0  0  0
   54.9080   91.9510   22.9380 C   0  0  0  0  0  0  0  0  0  0  0  0
   54.2940   92.9750   23.3980 N   0  0  0  0  0  0  0  0  0  0  0  0
   54.3850   93.4090   24.7220 N   0  0  0  0  0  0  0  0  0  0  0  0
   54.7680   94.7330   25.0720 C   0  0  0  0  0  0  0  0  0  0  0  0
   55.9110   95.3090   24.6400 N   0  0  0  0  0  4  0  0  0  0  0  0
   56.2430   96.5570   24.9880 C   0  0  0  0  0  0  0  0  0  0  0  0
   55.4100   97.2410   25.7870 N   0  0  0  0  0  0  0  0  0  0  0  0
   54.2450   96.7240   26.2600 C   0  0  0  0  0  0  0  0  0  0  0  0
   53.9710   95.4500   25.8640 N   0  0  0  0  0  0  0  0  0  0  0  0
   53.3750   97.4460   27.0970 N   0  0  0  0  0  0  0  0  0  0  0  0
   52.3850   96.7850   27.8930 C   0  0  0  0  0  0  0  0  0  0  0  0
   51.0450   97.4480   27.5800 C   0  0  0  0  0  0  0  0  0  0  0  0
   51.1940   98.8000   27.8320 O   0  0  0  0  0  0  0  0  0  0  0  0
   52.0550   99.4200   26.9570 C   0  0  0  0  0  0  0  0  0  0  0  0
   53.4690   98.8750   27.1650 C   0  0  0  0  0  0  0  0  0  0  0  0
   57.4450   97.1640   24.5330 N   0  0  0  0  0  0  0  0  0  0  0  0
   58.0920   96.7710   23.3010 C   0  0  0  0  0  0  0  0  0  0  0  0
   59.6010   96.6860   23.4740 C   0  0  0  0  0  0  0  0  0  0  0  0
   60.0780   97.8010   24.1730 O   0  0  0  0  0  0  0  0  0  0  0  0
   59.5400   97.8790   25.4350 C   0  0  0  0  0  0  0  0  0  0  0  0
   58.0700   98.2150   25.3040 C   0  0  0  0  0  0  0  0  0  0  0  0
   53.2900   92.9060   21.0680 H   0  0  0  0  0  0  0  0  0  0  0  0
   56.1550   89.2380   19.4060 H   0  0  0  0  0  0  0  0  0  0  0  0
   54.5710   90.2860   17.8680 H   0  0  0  0  0  0  0  0  0  0  0  0
   55.9460   89.8140   23.9480 H   0  0  0  0  0  0  0  0  0  0  0  0
   55.2040   88.5010   22.8720 H   0  0  0  0  0  0  0  0  0  0  0  0
   56.9340   88.4510   23.3530 H   0  0  0  0  0  0  0  0  0  0  0  0
   55.5300   91.3970   23.6270 H   0  0  0  0  0  0  0  0  0  0  0  0
   54.1510   92.6960   25.4650 H   0  0  0  0  0  0  0  0  0  0  0  0
   52.3440   95.6860   27.6760 H   0  0  0  0  0  0  0  0  0  0  0  0
   52.5940   96.9690   28.9710 H   0  0  0  0  0  0  0  0  0  0  0  0
   50.3260   97.0330   28.3140 H   0  0  0  0  0  0  0  0  0  0  0  0
   50.7190   97.2220   26.5620 H   0  0  0  0  0  0  0  0  0  0  0  0
   51.7990   99.2050   25.8920 H   0  0  0  0  0  0  0  0  0  0  0  0
   52.0590  100.4960   27.1570 H   0  0  0  0  0  0  0  0  0  0  0  0
   54.1700   99.3020   26.4270 H   0  0  0  0  0  0  0  0  0  0  0  0
   53.7440   99.1680   28.2070 H   0  0  0  0  0  0  0  0  0  0  0  0
   57.9290   97.6270   22.5850 H   0  0  0  0  0  0  0  0  0  0  0  0
   57.7210   95.8230   22.9000 H   0  0  0  0  0  0  0  0  0  0  0  0
   59.8270   95.7390   23.9810 H   0  0  0  0  0  0  0  0  0  0  0  0
   60.0550   96.7600   22.4530 H   0  0  0  0  0  0  0  0  0  0  0  0
   59.6980   96.9070   25.9450 H   0  0  0  0  0  0  0  0  0  0  0  0
   60.0880   98.6380   26.0010 H   0  0  0  0  0  0  0  0  0  0  0  0
   57.9950   99.1480   24.7380 H   0  0  0  0  0  0  0  0  0  0  0  0
   57.5820   98.3370   26.2850 H   0  0  0  0  0  0  0  0  0  0  0  0
  1  2  1  0  0  0  0
  2  3  1  0  0  0  0
  3 31  1  0  0  0  0
  3  4  2  0  0  0  0
  4 10  1  0  0  0  0
  5  4  1  0  0  0  0
  5  8  1  0  0  0  0
  6  5  2  0  0  0  0
  7  2  2  0  0  0  0
  7  6  1  0  0  0  0
  8  9  1  0  0  0  0
  9 36  1  0  0  0  0
  9 34  1  0  0  0  0
 10 11  2  0  0  0  0
 10 37  1  0  0  0  0
 11 12  1  0  0  0  0
 12 13  1  0  0  0  0
 12 38  1  0  0  0  0
 13 18  1  0  0  0  0
 14 15  2  0  0  0  0
 14 13  2  0  0  0  0
 15 16  1  0  0  0  0
 16 17  2  0  0  0  0
 17 19  1  0  0  0  0
 18 17  1  0  0  0  0
 19 24  1  0  0  0  0
 19 20  1  0  0  0  0
 20 40  1  0  0  0  0
 21 22  1  0  0  0  0
 21 20  1  0  0  0  0
 21 41  1  0  0  0  0
 23 44  1  0  0  0  0
 23 24  1  0  0  0  0
 23 22  1  0  0  0  0
 24 46  1  0  0  0  0
 25 15  1  0  0  0  0
 25 30  1  0  0  0  0
 26 27  1  0  0  0  0
 26 25  1  0  0  0  0
 27 49  1  0  0  0  0
 27 28  1  0  0  0  0
 28 29  1  0  0  0  0
 29 51  1  0  0  0  0
 29 52  1  0  0  0  0
 30 29  1  0  0  0  0
 30 54  1  0  0  0  0
 32  6  1  0  0  0  0
 33  7  1  0  0  0  0
 35  9  1  0  0  0  0
 39 20  1  0  0  0  0
 42 21  1  0  0  0  0
 43 23  1  0  0  0  0
 45 24  1  0  0  0  0
 47 26  1  0  0  0  0
 48 26  1  0  0  0  0
 50 27  1  0  0  0  0
 53 30  1  0  0  0  0
M  END
>  <Pose>
1

>  <Score>
-6.83

$$$$
