
 OpenBabel03202210083D

 45 48  0  0  0  0  0  0  0  0999 V2000
   50.9360  101.1270   26.7060 B   0  0  0  0  0  0  0  0  0  0  0  0
   51.7800   99.6620   27.5900 C   0  0  0  0  0  0  0  0  0  0  0  0
   52.3070   98.6420   26.8530 C   0  0  0  0  0  0  0  0  0  0  0  0
   52.9370   97.5360   27.3390 C   0  0  0  0  0  0  0  0  0  0  0  0
   53.0080   97.5190   28.7510 C   0  0  0  0  0  0  0  0  0  0  0  0
   52.4910   98.5250   29.5320 C   0  0  0  0  0  0  0  0  0  0  0  0
   51.8660   99.6160   28.9500 C   0  0  0  0  0  0  0  0  0  0  0  0
   53.6250   96.4480   29.3730 O   0  0  0  0  0  0  0  0  0  0  0  0
   54.8530   96.5170   30.0290 C   0  0  0  0  0  0  0  0  0  0  0  0
   53.5240   96.4410   26.6200 C   0  0  0  0  0  0  0  0  0  0  0  0
   54.6220   96.1630   25.9520 N   0  0  0  0  0  0  0  0  0  0  0  0
   54.5810   94.8790   25.4740 C   0  0  0  0  0  0  0  0  0  0  0  0
   53.4020   94.3580   25.8820 N   0  0  0  0  0  0  0  0  0  0  0  0
   52.7720   95.2600   26.5550 N   0  0  0  0  0  0  0  0  0  0  0  0
   55.7020   94.6130   24.8000 N   0  0  0  0  0  0  0  0  0  0  0  0
   56.4610   95.7200   24.8490 C   0  0  0  0  0  0  0  0  0  0  0  0
   55.8060   96.7090   25.5720 C   0  0  0  0  0  0  0  0  0  0  0  0
   56.3340   97.8970   25.7980 N   0  0  0  0  0  0  0  0  0  0  0  0
   57.5790   98.1270   25.2740 C   0  0  0  0  0  0  0  0  0  0  0  0
   58.1740   99.2240   25.4270 O   0  0  0  0  0  0  0  0  0  0  0  0
   58.2440   97.1920   24.5640 N   0  0  0  0  0  0  0  0  0  0  0  0
   57.7160   95.9950   24.3390 C   0  0  0  0  0  0  0  0  0  0  0  0
   58.2840   95.0830   23.6860 O   0  0  0  0  0  0  0  0  0  0  0  0
   55.8190   98.9780   26.5830 C   0  0  0  0  0  0  0  0  0  0  0  0
   56.0550   93.3910   24.1390 C   0  0  0  0  0  0  0  0  0  0  0  0
   55.0240   93.0770   23.0750 C   0  0  0  0  0  0  0  0  0  0  0  0
   55.6910   92.7060   21.9230 O   0  0  0  0  0  0  0  0  0  0  0  0
   55.4870   91.3480   21.6220 C   0  0  0  0  0  0  0  0  0  0  0  0
   52.2250   98.6750   25.7770 H   0  0  0  0  0  0  0  0  0  0  0  0
   52.5360   98.5320   30.6070 H   0  0  0  0  0  0  0  0  0  0  0  0
   51.4570  100.4100   29.5470 H   0  0  0  0  0  0  0  0  0  0  0  0
   55.0010   97.4570   30.5970 H   0  0  0  0  0  0  0  0  0  0  0  0
   54.9860   95.6920   30.7760 H   0  0  0  0  0  0  0  0  0  0  0  0
   55.6670   96.3890   29.2810 H   0  0  0  0  0  0  0  0  0  0  0  0
   59.1890   97.3840   24.1710 H   0  0  0  0  0  0  0  0  0  0  0  0
   55.3820   98.6550   27.5380 H   0  0  0  0  0  0  0  0  0  0  0  0
   56.6980   99.6710   26.8260 H   0  0  0  0  0  0  0  0  0  0  0  0
   55.1330   99.5970   26.0150 H   0  0  0  0  0  0  0  0  0  0  0  0
   56.2280   92.5490   24.8330 H   0  0  0  0  0  0  0  0  0  0  0  0
   57.0130   93.5900   23.5740 H   0  0  0  0  0  0  0  0  0  0  0  0
   54.4200   93.9830   22.8190 H   0  0  0  0  0  0  0  0  0  0  0  0
   54.3780   92.2680   23.4680 H   0  0  0  0  0  0  0  0  0  0  0  0
   55.8710   90.7510   22.4780 H   0  0  0  0  0  0  0  0  0  0  0  0
   56.0870   91.0630   20.7470 H   0  0  0  0  0  0  0  0  0  0  0  0
   54.4350   91.1130   21.4500 H   0  0  0  0  0  0  0  0  0  0  0  0
  1  2  1  0  0  0  0
  2  7  1  0  0  0  0
  3  4  1  0  0  0  0
  3  2  2  0  0  0  0
  4  5  2  0  0  0  0
  5  8  1  0  0  0  0
  5  6  1  0  0  0  0
  6 30  1  0  0  0  0
  7  6  2  0  0  0  0
  7 31  1  0  0  0  0
  8  9  1  0  0  0  0
  9 32  1  0  0  0  0
  9 33  1  0  0  0  0
 10  4  1  0  0  0  0
 11 10  1  0  0  0  0
 12 13  2  0  0  0  0
 12 11  1  0  0  0  0
 13 14  1  0  0  0  0
 14 10  2  0  0  0  0
 15 16  1  0  0  0  0
 15 12  1  0  0  0  0
 16 17  2  0  0  0  0
 17 18  1  0  0  0  0
 17 11  1  0  0  0  0
 18 24  1  0  0  0  0
 19 20  2  0  0  0  0
 19 18  1  0  0  0  0
 21 19  1  0  0  0  0
 22 21  1  0  0  0  0
 22 16  1  0  0  0  0
 23 22  2  0  0  0  0
 24 37  1  0  0  0  0
 24 36  1  0  0  0  0
 25 15  1  0  0  0  0
 25 39  1  0  0  0  0
 26 42  1  0  0  0  0
 26 25  1  0  0  0  0
 27 26  1  0  0  0  0
 28 27  1  0  0  0  0
 28 43  1  0  0  0  0
 29  3  1  0  0  0  0
 34  9  1  0  0  0  0
 35 21  1  0  0  0  0
 38 24  1  0  0  0  0
 40 25  1  0  0  0  0
 41 26  1  0  0  0  0
 44 28  1  0  0  0  0
 45 28  1  0  0  0  0
M  END
>  <Pose>
1

>  <Score>
-6.68

$$$$
