
 OpenBabel03202210083D

 50 53  0  0  0  0  0  0  0  0999 V2000
   51.9060   85.7510   19.4910 B   0  0  0  0  0  0  0  0  0  0  0  0
   52.4060   87.5490   19.1210 C   0  0  0  0  0  0  0  0  0  0  0  0
   53.6530   88.0530   19.4670 C   0  0  0  0  0  0  0  0  0  0  0  0
   54.0150   89.3480   19.2020 C   0  0  0  0  0  0  0  0  0  0  0  0
   53.1160   90.1760   18.5720 C   0  0  0  0  0  0  0  0  0  0  0  0
   51.8820   89.6840   18.2270 C   0  0  0  0  0  0  0  0  0  0  0  0
   51.5020   88.3740   18.4890 C   0  0  0  0  0  0  0  0  0  0  0  0
   55.3350   89.8440   19.5790 C   0  0  0  0  0  0  0  0  0  0  0  0
   56.0820   90.4340   18.7580 O   0  0  0  0  0  0  0  0  0  0  0  0
   55.8010   89.6490   20.9530 C   0  0  0  0  0  0  0  0  0  0  0  0
   55.2440   90.5490   21.8860 N   0  0  0  0  0  0  0  0  0  0  0  0
   55.0130   91.8710   21.4360 C   0  0  0  0  0  0  0  0  0  0  0  0
   54.5350   92.8320   22.4550 C   0  0  0  0  0  0  0  0  0  0  0  0
   55.3780   92.8260   23.6070 N   0  0  0  0  0  0  0  0  0  0  0  0
   56.1960   91.6730   23.8510 C   0  0  0  0  0  0  0  0  0  0  0  0
   55.6610   90.4010   23.2360 C   0  0  0  0  0  0  0  0  0  0  0  0
   55.4130   93.9070   24.5280 C   0  0  0  0  0  0  0  0  0  0  0  0
   56.4170   94.7770   24.4330 C   0  0  0  0  0  0  0  0  0  0  0  0
   57.5470   94.9180   23.5900 N   0  0  0  0  0  0  0  0  0  0  0  0
   58.2060   96.0820   24.0470 N   0  0  0  0  0  0  0  0  0  0  0  0
   57.4840   96.6200   25.1380 C   0  0  0  0  0  0  0  0  0  0  0  0
   56.4150   95.8880   25.4100 C   0  0  0  0  0  0  0  0  0  0  0  0
   55.3770   95.9800   26.3790 N   0  0  0  0  0  0  0  0  0  0  0  0
   54.4280   95.1120   26.4280 C   0  0  0  0  0  0  0  0  0  0  0  0
   54.3780   94.0330   25.5240 N   0  0  0  0  0  0  0  0  0  0  0  0
   57.8270   97.8410   25.9160 C   0  0  0  0  0  0  0  0  0  0  0  0
   57.9360   94.0560   22.5010 C   0  0  0  0  0  0  0  0  0  0  0  0
   54.3130   87.3530   19.9590 H   0  0  0  0  0  0  0  0  0  0  0  0
   53.4300   91.2020   18.3730 H   0  0  0  0  0  0  0  0  0  0  0  0
   51.1610   90.3180   17.7330 H   0  0  0  0  0  0  0  0  0  0  0  0
   50.5040   88.0140   18.1980 H   0  0  0  0  0  0  0  0  0  0  0  0
   56.9220   89.7100   20.9870 H   0  0  0  0  0  0  0  0  0  0  0  0
   55.5840   88.5980   21.3070 H   0  0  0  0  0  0  0  0  0  0  0  0
   55.8880   92.2410   20.8700 H   0  0  0  0  0  0  0  0  0  0  0  0
   54.1940   91.7960   20.6530 H   0  0  0  0  0  0  0  0  0  0  0  0
   53.5090   92.5080   22.7810 H   0  0  0  0  0  0  0  0  0  0  0  0
   54.3830   93.8390   22.0190 H   0  0  0  0  0  0  0  0  0  0  0  0
   57.2700   91.8070   23.6840 H   0  0  0  0  0  0  0  0  0  0  0  0
   56.1150   91.5000   24.9720 H   0  0  0  0  0  0  0  0  0  0  0  0
   56.4820   89.6540   23.2750 H   0  0  0  0  0  0  0  0  0  0  0  0
   54.8180   89.9670   23.8170 H   0  0  0  0  0  0  0  0  0  0  0  0
   59.0810   96.4280   23.6010 H   0  0  0  0  0  0  0  0  0  0  0  0
   53.6500   95.2390   27.2060 H   0  0  0  0  0  0  0  0  0  0  0  0
   53.6360   93.3120   25.5250 H   0  0  0  0  0  0  0  0  0  0  0  0
   58.8850   98.1070   25.7300 H   0  0  0  0  0  0  0  0  0  0  0  0
   57.5640   97.7540   26.9730 H   0  0  0  0  0  0  0  0  0  0  0  0
   57.2150   98.6820   25.4870 H   0  0  0  0  0  0  0  0  0  0  0  0
   57.9090   92.9920   22.7170 H   0  0  0  0  0  0  0  0  0  0  0  0
   57.4150   94.3730   21.5730 H   0  0  0  0  0  0  0  0  0  0  0  0
   59.0410   94.2810   22.3330 H   0  0  0  0  0  0  0  0  0  0  0  0
  2  3  1  0  0  0  0
  2  1  1  0  0  0  0
  3 28  1  0  0  0  0
  4  3  2  0  0  0  0
  4  8  1  0  0  0  0
  5  4  1  0  0  0  0
  6  7  1  0  0  0  0
  6  5  2  0  0  0  0
  7  2  2  0  0  0  0
  8 10  1  0  0  0  0
  9  8  2  0  0  0  0
 10 32  1  0  0  0  0
 10 33  1  0  0  0  0
 10 11  1  0  0  0  0
 11 16  1  0  0  0  0
 12 11  1  0  0  0  0
 12 13  1  0  0  0  0
 13 36  1  0  0  0  0
 13 14  1  0  0  0  0
 14 15  1  0  0  0  0
 14 17  1  0  0  0  0
 15 39  1  0  0  0  0
 16 40  1  0  0  0  0
 16 41  1  0  0  0  0
 16 15  1  0  0  0  0
 17 25  1  0  0  0  0
 18 17  2  0  0  0  0
 18 22  1  0  0  0  0
 19 20  1  0  0  0  0
 19 18  1  0  0  0  0
 20 21  1  0  0  0  0
 21 22  2  0  0  0  0
 21 26  1  0  0  0  0
 22 23  1  0  0  0  0
 23 24  2  0  0  0  0
 24 43  1  0  0  0  0
 25 44  1  0  0  0  0
 25 24  1  0  0  0  0
 26 46  1  0  0  0  0
 27 48  1  0  0  0  0
 27 19  1  0  0  0  0
 29  5  1  0  0  0  0
 30  6  1  0  0  0  0
 31  7  1  0  0  0  0
 34 12  1  0  0  0  0
 35 12  1  0  0  0  0
 37 13  1  0  0  0  0
 38 15  1  0  0  0  0
 42 20  1  0  0  0  0
 45 26  1  0  0  0  0
 47 26  1  0  0  0  0
 49 27  1  0  0  0  0
 50 27  1  0  0  0  0
M  END
>  <Pose>
1

>  <Score>
-6.99

$$$$
