
 OpenBabel03202210083D

 42 45  0  0  1  0  0  0  0  0999 V2000
   58.0170   98.1220   24.7630 B   0  0  0  0  0  0  0  0  0  0  0  0
   56.7320   96.9660   25.5530 C   0  0  0  0  0  0  0  0  0  0  0  0
   56.5680   95.6620   25.1530 C   0  0  0  0  0  0  0  0  0  0  0  0
   55.6240   94.8330   25.7090 C   0  0  0  0  0  0  0  0  0  0  0  0
   54.8130   95.3190   26.7030 C   0  0  0  0  0  0  0  0  0  0  0  0
   54.9460   96.6320   27.1380 C   0  0  0  0  0  0  0  0  0  0  0  0
   55.8950   97.4300   26.5630 C   0  0  0  0  0  0  0  0  0  0  0  0
   55.4680   93.4030   25.2420 C   0  0  0  0  0  0  0  0  0  0  0  0
   55.4830   92.6000   26.2260 O   0  0  0  0  0  0  0  0  0  0  0  0
   55.3370   93.1490   23.8990 N   0  0  0  0  0  0  0  0  0  0  0  0
   55.2160   92.9010   22.6000 C   0  0  2  0  0  0  0  0  0  0  0  0
   53.7200   92.7810   22.1280 C   0  0  0  0  0  0  0  0  0  0  0  0
   53.8240   92.1930   20.8360 N   0  0  0  0  0  0  0  0  0  0  0  0
   55.1130   91.5260   20.7170 C   0  0  1  0  0  0  0  0  0  0  0  0
   55.6450   91.4910   22.0910 C   0  0  0  0  0  0  0  0  0  0  0  0
   54.9590   90.2410   20.0170 C   0  0  0  0  0  0  0  0  0  0  0  0
   55.6030   89.2510   20.4070 O   0  0  0  0  0  0  0  0  0  0  0  0
   54.0890   90.1320   18.9090 N   0  0  0  0  0  0  0  0  0  0  0  0
   52.8930   90.9430   18.8570 C   0  0  2  0  0  0  0  0  0  0  0  0
   52.6630   91.2340   17.3880 C   0  0  0  0  0  0  0  0  0  0  0  0
   53.7080   90.4530   16.6720 C   0  0  0  0  0  0  0  0  0  0  0  0
   54.0690   89.3490   17.6780 C   0  0  0  0  0  0  0  0  0  0  0  0
   52.9650   92.1300   19.7030 C   0  0  0  0  0  0  0  0  0  0  0  0
   52.2430   93.1520   19.4340 O   0  0  0  0  0  0  0  0  0  0  0  0
   57.1970   95.2510   24.3730 H   0  0  0  0  0  0  0  0  0  0  0  0
   54.0550   94.7320   27.1730 H   0  0  0  0  0  0  0  0  0  0  0  0
   54.2830   96.9900   27.9350 H   0  0  0  0  0  0  0  0  0  0  0  0
   56.0170   98.4640   26.8900 H   0  0  0  0  0  0  0  0  0  0  0  0
   56.7090   93.0850   23.7980 H   0  0  0  0  0  0  0  0  0  0  0  0
   55.6240   93.5780   21.7970 H   0  0  0  0  0  0  0  0  0  0  0  0
   53.2350   92.1780   22.8930 H   0  0  0  0  0  0  0  0  0  0  0  0
   53.3060   93.8000   22.1420 H   0  0  0  0  0  0  0  0  0  0  0  0
   55.8050   92.1420   20.0890 H   0  0  0  0  0  0  0  0  0  0  0  0
   56.7450   91.4090   22.1770 H   0  0  0  0  0  0  0  0  0  0  0  0
   55.1330   90.7790   22.7570 H   0  0  0  0  0  0  0  0  0  0  0  0
   51.9860   90.3370   19.1650 H   0  0  0  0  0  0  0  0  0  0  0  0
   52.7770   92.3470   17.2040 H   0  0  0  0  0  0  0  0  0  0  0  0
   51.6700   90.9060   17.0290 H   0  0  0  0  0  0  0  0  0  0  0  0
   54.5880   91.1180   16.5000 H   0  0  0  0  0  0  0  0  0  0  0  0
   53.3740   90.0200   15.7070 H   0  0  0  0  0  0  0  0  0  0  0  0
   53.2970   88.5850   17.6610 H   0  0  0  0  0  0  0  0  0  0  0  0
   55.0290   88.9400   17.3800 H   0  0  0  0  0  0  0  0  0  0  0  0
  1  2  1  0  0  0  0
  2  7  1  0  0  0  0
  3  2  2  0  0  0  0
  3  4  1  0  0  0  0
  4  5  2  0  0  0  0
  5  6  1  0  0  0  0
  5 26  1  0  0  0  0
  6 27  1  0  0  0  0
  7 28  1  0  0  0  0
  7  6  2  0  0  0  0
  8  4  1  0  0  0  0
  8  9  2  0  0  0  0
 10  8  1  0  0  0  0
 11 30  1  6  0  0  0
 11 10  1  0  0  0  0
 12 32  1  0  0  0  0
 12 11  1  0  0  0  0
 12 31  1  0  0  0  0
 13 12  1  0  0  0  0
 14 33  1  6  0  0  0
 14 13  1  0  0  0  0
 14 15  1  0  0  0  0
 15 34  1  0  0  0  0
 15 11  1  0  0  0  0
 15 35  1  0  0  0  0
 16 17  2  0  0  0  0
 16 14  1  0  0  0  0
 18 16  1  0  0  0  0
 19 18  1  0  0  0  0
 19 36  1  1  0  0  0
 19 23  1  0  0  0  0
 20 19  1  0  0  0  0
 21 20  1  0  0  0  0
 21 22  1  0  0  0  0
 22 18  1  0  0  0  0
 23 13  1  0  0  0  0
 24 23  2  0  0  0  0
 25  3  1  0  0  0  0
 29 10  1  0  0  0  0
 37 20  1  0  0  0  0
 38 20  1  0  0  0  0
 39 21  1  0  0  0  0
 40 21  1  0  0  0  0
 41 22  1  0  0  0  0
 42 22  1  0  0  0  0
M  END
>  <Pose>
1

>  <Score>
-6.84

$$$$
