
 OpenBabel03202210083D

 63 66  0  0  1  0  0  0  0  0999 V2000
   50.6640   82.6900   22.4270 B   0  0  0  0  0  0  0  0  0  0  0  0
   51.9620   83.4670   23.5890 C   0  0  0  0  0  0  0  0  0  0  0  0
   52.9450   84.2820   23.0700 C   0  0  0  0  0  0  0  0  0  0  0  0
   53.9120   84.8710   23.8750 C   0  0  0  0  0  0  0  0  0  0  0  0
   53.8210   84.5860   25.2290 C   0  0  0  0  0  0  0  0  0  0  0  0
   52.8410   83.7730   25.7570 C   0  0  0  0  0  0  0  0  0  0  0  0
   51.8930   83.1990   24.9390 C   0  0  0  0  0  0  0  0  0  0  0  0
   54.9610   85.7540   23.3110 C   0  0  2  0  0  0  0  0  0  0  0  0
   55.4760   86.5910   24.3770 N   0  0  0  0  0  0  0  0  0  0  0  0
   54.5020   87.6020   24.5930 C   0  0  0  0  0  0  0  0  0  0  0  0
   54.2980   88.2500   25.6440 O   0  0  0  0  0  0  0  0  0  0  0  0
   53.7520   87.7510   23.3260 C   0  0  0  0  0  0  0  0  0  0  0  0
   52.8120   88.5410   23.0890 O   0  0  0  0  0  0  0  0  0  0  0  0
   54.3440   86.7880   22.4080 C   0  0  0  0  0  0  0  0  0  0  0  0
   54.3510   86.8760   21.1130 C   0  0  0  0  0  0  0  0  0  0  0  0
   55.0310   85.8770   20.3840 O   0  0  0  0  0  0  0  0  0  0  0  0
   53.7100   87.9220   20.3290 C   0  0  0  0  0  0  0  0  0  0  0  0
   52.5100   88.0210   19.7090 C   0  0  0  0  0  0  0  0  0  0  0  0
   52.4160   89.2530   19.1680 N   0  0  0  0  0  0  0  0  0  0  0  0
   53.5180   89.9740   19.4080 C   0  0  0  0  0  0  0  0  0  0  0  0
   54.3480   89.1630   20.1350 C   0  0  0  0  0  0  0  0  0  0  0  0
   55.7040   89.5410   20.6360 C   0  0  0  0  0  0  0  0  0  0  0  0
   53.7860   91.3610   18.9770 C   0  0  0  0  0  0  0  0  0  0  0  0
   54.9320   91.6740   18.6210 O   0  0  0  0  0  0  0  0  0  0  0  0
   52.7760   92.3050   18.9680 O   0  0  0  0  0  0  0  0  0  0  0  0
   51.4930   92.0740   18.4330 C   0  0  0  0  0  0  0  0  0  0  0  0
   51.4540   86.9630   19.5690 C   0  0  0  0  0  0  0  0  0  0  0  0
   56.7450   86.4390   25.0940 C   0  0  0  0  0  0  0  0  0  0  0  0
   57.9210   86.7180   24.1850 C   0  0  0  0  0  0  0  0  0  0  0  0
   59.0610   87.2490   24.8580 N   0  0  0  0  0  4  0  0  0  0  0  0
   58.7440   88.3070   25.8100 C   0  0  0  0  0  0  0  0  0  0  0  0
   59.9160   88.4420   26.7450 C   0  0  0  0  0  0  0  0  0  0  0  0
   61.0450   87.9600   26.1310 O   0  0  0  0  0  0  0  0  0  0  0  0
   61.1820   88.3380   24.8070 C   0  0  0  0  0  0  0  0  0  0  0  0
   60.0280   87.8360   23.9400 C   0  0  0  0  0  0  0  0  0  0  0  0
   53.0000   84.4840   22.0060 H   0  0  0  0  0  0  0  0  0  0  0  0
   54.5690   85.0370   25.8790 H   0  0  0  0  0  0  0  0  0  0  0  0
   52.7840   83.5590   26.8230 H   0  0  0  0  0  0  0  0  0  0  0  0
   51.1070   82.5500   25.3510 H   0  0  0  0  0  0  0  0  0  0  0  0
   55.7520   85.1890   22.7860 H   0  0  0  0  0  0  0  0  0  0  0  0
   51.5740   89.5970   18.6210 H   0  0  0  0  0  0  0  0  0  0  0  0
   56.3180   89.9710   19.8180 H   0  0  0  0  0  0  0  0  0  0  0  0
   56.2260   88.6320   20.9760 H   0  0  0  0  0  0  0  0  0  0  0  0
   55.6600   90.2890   21.4410 H   0  0  0  0  0  0  0  0  0  0  0  0
   51.1000   91.0620   18.6820 H   0  0  0  0  0  0  0  0  0  0  0  0
   51.4700   92.2550   17.3250 H   0  0  0  0  0  0  0  0  0  0  0  0
   50.8200   92.8450   18.8900 H   0  0  0  0  0  0  0  0  0  0  0  0
   50.5860   87.1710   20.2180 H   0  0  0  0  0  0  0  0  0  0  0  0
   51.8790   85.9720   19.7820 H   0  0  0  0  0  0  0  0  0  0  0  0
   51.1430   87.0190   18.4780 H   0  0  0  0  0  0  0  0  0  0  0  0
   56.7940   87.1310   25.9600 H   0  0  0  0  0  0  0  0  0  0  0  0
   56.8640   85.3890   25.4400 H   0  0  0  0  0  0  0  0  0  0  0  0
   57.5680   87.4120   23.3650 H   0  0  0  0  0  0  0  0  0  0  0  0
   58.2370   85.8020   23.6560 H   0  0  0  0  0  0  0  0  0  0  0  0
   59.5650   86.4810   25.3380 H   0  0  0  0  0  0  0  0  0  0  0  0
   58.7000   89.2610   25.2100 H   0  0  0  0  0  0  0  0  0  0  0  0
   57.7770   88.1920   26.2970 H   0  0  0  0  0  0  0  0  0  0  0  0
   60.0890   89.4760   27.0900 H   0  0  0  0  0  0  0  0  0  0  0  0
   59.7480   87.8250   27.6670 H   0  0  0  0  0  0  0  0  0  0  0  0
   62.1050   87.8100   24.4330 H   0  0  0  0  0  0  0  0  0  0  0  0
   61.3550   89.4240   24.6710 H   0  0  0  0  0  0  0  0  0  0  0  0
   60.3620   87.1400   23.1690 H   0  0  0  0  0  0  0  0  0  0  0  0
   59.5640   88.7470   23.4790 H   0  0  0  0  0  0  0  0  0  0  0  0
  1  2  1  0  0  0  0
  2  7  1  0  0  0  0
  3  2  2  0  0  0  0
  3  4  1  0  0  0  0
  4  5  2  0  0  0  0
  5  6  1  0  0  0  0
  5 37  1  0  0  0  0
  6 38  1  0  0  0  0
  7 39  1  0  0  0  0
  7  6  2  0  0  0  0
  8 40  1  6  0  0  0
  8  4  1  0  0  0  0
  8  9  1  0  0  0  0
  9 10  1  0  0  0  0
  9 28  1  0  0  0  0
 10 11  2  0  0  0  0
 12 10  1  0  0  0  0
 13 12  2  0  0  0  0
 14  8  1  0  0  0  0
 14 12  1  0  0  0  0
 15 14  2  0  0  0  0
 16 15  1  0  0  0  0
 17 15  1  0  0  0  0
 18 17  2  0  0  0  0
 19 20  1  0  0  0  0
 19 18  1  0  0  0  0
 20 21  2  0  0  0  0
 21 17  1  0  0  0  0
 21 22  1  0  0  0  0
 22 43  1  0  0  0  0
 22 44  1  0  0  0  0
 23 20  1  0  0  0  0
 24 23  2  0  0  0  0
 25 23  1  0  0  0  0
 26 45  1  0  0  0  0
 26 47  1  0  0  0  0
 26 25  1  0  0  0  0
 27 18  1  0  0  0  0
 27 49  1  0  0  0  0
 27 48  1  0  0  0  0
 28 52  1  0  0  0  0
 28 51  1  0  0  0  0
 29 30  1  0  0  0  0
 29 28  1  0  0  0  0
 30 55  1  0  0  0  0
 30 31  1  0  0  0  0
 31 57  1  0  0  0  0
 31 32  1  0  0  0  0
 32 58  1  0  0  0  0
 32 59  1  0  0  0  0
 33 32  1  0  0  0  0
 34 33  1  0  0  0  0
 35 34  1  0  0  0  0
 35 30  1  0  0  0  0
 36  3  1  0  0  0  0
 41 19  1  0  0  0  0
 42 22  1  0  0  0  0
 46 26  1  0  0  0  0
 50 27  1  0  0  0  0
 53 29  1  0  0  0  0
 54 29  1  0  0  0  0
 56 31  1  0  0  0  0
 60 34  1  0  0  0  0
 61 34  1  0  0  0  0
 62 35  1  0  0  0  0
 63 35  1  0  0  0  0
M  END
>  <Pose>
1

>  <Score>
-5.53

$$$$
