
 OpenBabel03202210083D

 56 59  0  0  1  0  0  0  0  0999 V2000
   54.4770   83.4710   15.4020 B   0  0  0  0  0  0  0  0  0  0  0  0
   54.1380   83.2240   17.2660 C   0  0  0  0  0  0  0  0  0  0  0  0
   53.4730   84.1930   18.0100 C   0  0  0  0  0  0  0  0  0  0  0  0
   53.2130   84.0440   19.3560 C   0  0  0  0  0  0  0  0  0  0  0  0
   53.6530   82.8670   19.9440 C   0  0  0  0  0  0  0  0  0  0  0  0
   54.3150   81.8940   19.2240 C   0  0  0  0  0  0  0  0  0  0  0  0
   54.5510   82.0870   17.8870 C   0  0  0  0  0  0  0  0  0  0  0  0
   52.4990   85.0830   20.1510 C   0  0  2  0  0  0  0  0  0  0  0  0
   52.9330   86.4130   19.8450 N   0  0  0  0  0  0  0  0  0  0  0  0
   54.0040   86.6970   20.7320 C   0  0  0  0  0  0  0  0  0  0  0  0
   54.8650   87.6000   20.5800 O   0  0  0  0  0  0  0  0  0  0  0  0
   53.9500   85.7590   21.8780 C   0  0  0  0  0  0  0  0  0  0  0  0
   54.7180   85.7030   22.8530 O   0  0  0  0  0  0  0  0  0  0  0  0
   52.8010   84.9130   21.6170 C   0  0  0  0  0  0  0  0  0  0  0  0
   52.1210   84.1850   22.4750 C   0  0  0  0  0  0  0  0  0  0  0  0
   51.0060   83.4910   22.0550 O   0  0  0  0  0  0  0  0  0  0  0  0
   52.5110   84.0820   23.8580 C   0  0  0  0  0  0  0  0  0  0  0  0
   53.4520   83.2400   24.3780 C   0  0  0  0  0  0  0  0  0  0  0  0
   53.7560   83.2780   25.7260 C   0  0  0  0  0  0  0  0  0  0  0  0
   53.1540   84.1360   26.6180 C   0  0  0  0  0  0  0  0  0  0  0  0
   52.2040   84.9850   26.0910 C   0  0  0  0  0  0  0  0  0  0  0  0
   51.8860   84.9640   24.7560 C   0  0  0  0  0  0  0  0  0  0  0  0
   53.5000   84.1550   28.0660 C   0  0  0  0  0  0  0  0  0  0  0  0
   52.4040   87.3340   18.8190 C   0  0  0  0  0  0  0  0  0  0  0  0
   52.8520   88.7200   19.1900 C   0  0  0  0  0  0  0  0  0  0  0  0
   52.9230   89.6420   18.1150 N   0  0  0  0  0  4  0  0  0  0  0  0
   51.7000   90.3070   17.7730 C   0  0  0  0  0  0  0  0  0  0  0  0
   51.4870   91.6160   18.4830 C   0  0  0  0  0  0  0  0  0  0  0  0
   52.6220   92.3890   18.5760 O   0  0  0  0  0  0  0  0  0  0  0  0
   53.6590   91.7250   19.1890 C   0  0  0  0  0  0  0  0  0  0  0  0
   54.0250   90.5460   18.3280 C   0  0  0  0  0  0  0  0  0  0  0  0
   53.1610   85.0700   17.5020 H   0  0  0  0  0  0  0  0  0  0  0  0
   53.4770   82.7000   20.9900 H   0  0  0  0  0  0  0  0  0  0  0  0
   54.6450   80.9880   19.7130 H   0  0  0  0  0  0  0  0  0  0  0  0
   55.0740   81.3180   17.3150 H   0  0  0  0  0  0  0  0  0  0  0  0
   51.4320   85.0050   19.9430 H   0  0  0  0  0  0  0  0  0  0  0  0
   53.9220   82.5300   23.7050 H   0  0  0  0  0  0  0  0  0  0  0  0
   54.5070   82.5990   26.1120 H   0  0  0  0  0  0  0  0  0  0  0  0
   51.7180   85.6710   26.7940 H   0  0  0  0  0  0  0  0  0  0  0  0
   51.1280   85.6600   24.4070 H   0  0  0  0  0  0  0  0  0  0  0  0
   54.5750   83.8780   28.2370 H   0  0  0  0  0  0  0  0  0  0  0  0
   53.4330   85.2190   28.4410 H   0  0  0  0  0  0  0  0  0  0  0  0
   52.8240   83.5620   28.6810 H   0  0  0  0  0  0  0  0  0  0  0  0
   52.8750   87.0850   17.8410 H   0  0  0  0  0  0  0  0  0  0  0  0
   51.3220   87.1880   18.8380 H   0  0  0  0  0  0  0  0  0  0  0  0
   53.8360   88.5930   19.7300 H   0  0  0  0  0  0  0  0  0  0  0  0
   52.1530   89.0800   19.9850 H   0  0  0  0  0  0  0  0  0  0  0  0
   53.2060   89.0810   17.2570 H   0  0  0  0  0  0  0  0  0  0  0  0
   50.8070   89.6820   17.9770 H   0  0  0  0  0  0  0  0  0  0  0  0
   51.6630   90.5300   16.6830 H   0  0  0  0  0  0  0  0  0  0  0  0
   50.7350   92.2120   17.9020 H   0  0  0  0  0  0  0  0  0  0  0  0
   51.0530   91.5060   19.4910 H   0  0  0  0  0  0  0  0  0  0  0  0
   53.4480   91.4440   20.2390 H   0  0  0  0  0  0  0  0  0  0  0  0
   54.5380   92.4010   19.2120 H   0  0  0  0  0  0  0  0  0  0  0  0
   54.8520   89.9400   18.7710 H   0  0  0  0  0  0  0  0  0  0  0  0
   54.4120   90.9370   17.3630 H   0  0  0  0  0  0  0  0  0  0  0  0
  1  2  1  0  0  0  0
  2  7  2  0  0  0  0
  2  3  1  0  0  0  0
  3  4  2  0  0  0  0
  4  5  1  0  0  0  0
  4  8  1  0  0  0  0
  5 33  1  0  0  0  0
  6 34  1  0  0  0  0
  6  5  2  0  0  0  0
  7  6  1  0  0  0  0
  8 36  1  6  0  0  0
  8 14  1  0  0  0  0
  9  8  1  0  0  0  0
  9 10  1  0  0  0  0
 10 12  1  0  0  0  0
 11 10  2  0  0  0  0
 12 13  2  0  0  0  0
 14 12  1  0  0  0  0
 14 15  2  0  0  0  0
 15 17  1  0  0  0  0
 16 15  1  0  0  0  0
 17 18  2  0  0  0  0
 17 22  1  0  0  0  0
 18 19  1  0  0  0  0
 19 38  1  0  0  0  0
 19 20  2  0  0  0  0
 20 23  1  0  0  0  0
 21 20  1  0  0  0  0
 21 39  1  0  0  0  0
 22 21  2  0  0  0  0
 23 41  1  0  0  0  0
 23 42  1  0  0  0  0
 23 43  1  0  0  0  0
 24 45  1  0  0  0  0
 24 25  1  0  0  0  0
 24  9  1  0  0  0  0
 25 46  1  0  0  0  0
 25 47  1  0  0  0  0
 26 31  1  0  0  0  0
 26 25  1  0  0  0  0
 27 49  1  0  0  0  0
 27 26  1  0  0  0  0
 27 28  1  0  0  0  0
 28 29  1  0  0  0  0
 28 52  1  0  0  0  0
 29 30  1  0  0  0  0
 30 54  1  0  0  0  0
 30 53  1  0  0  0  0
 31 55  1  0  0  0  0
 31 30  1  0  0  0  0
 32  3  1  0  0  0  0
 35  7  1  0  0  0  0
 37 18  1  0  0  0  0
 40 22  1  0  0  0  0
 44 24  1  0  0  0  0
 48 26  1  0  0  0  0
 50 27  1  0  0  0  0
 51 28  1  0  0  0  0
 56 31  1  0  0  0  0
M  END
>  <Pose>
1

>  <Score>
-6.07

$$$$
