
 OpenBabel03202210083D

 57 60  0  0  1  0  0  0  0  0999 V2000
   52.9310   83.5380   17.9090 B   0  0  0  0  0  0  0  0  0  0  0  0
   52.9940   84.0140   19.7470 C   0  0  0  0  0  0  0  0  0  0  0  0
   53.9500   84.9320   20.1820 C   0  0  0  0  0  0  0  0  0  0  0  0
   54.0190   85.2910   21.4870 C   0  0  0  0  0  0  0  0  0  0  0  0
   53.1070   84.7130   22.3770 C   0  0  0  0  0  0  0  0  0  0  0  0
   52.1750   83.8170   21.9470 C   0  0  0  0  0  0  0  0  0  0  0  0
   52.0870   83.4390   20.6250 C   0  0  0  0  0  0  0  0  0  0  0  0
   54.9850   86.2530   22.0300 C   0  0  2  0  0  0  0  0  0  0  0  0
   54.8550   86.5090   23.4510 N   0  0  0  0  0  0  0  0  0  0  0  0
   55.5120   87.7650   23.6660 C   0  0  0  0  0  0  0  0  0  0  0  0
   56.0270   88.1820   24.7190 O   0  0  0  0  0  0  0  0  0  0  0  0
   55.4700   88.4880   22.4010 C   0  0  1  0  0  0  0  0  0  0  0  0
   55.9190   89.6320   22.0910 O   0  0  0  0  0  0  0  0  0  0  0  0
   54.7750   87.6210   21.4620 C   0  0  0  0  0  0  0  0  0  0  0  0
   54.1620   88.0070   20.3600 C   0  0  0  0  0  0  0  0  0  0  0  0
   53.6140   86.9850   19.5710 O   0  0  0  0  0  0  0  0  0  0  0  0
   54.0140   89.3860   19.9210 C   0  0  0  0  0  0  0  0  0  0  0  0
   52.9430   89.9500   19.3420 N   0  0  0  0  0  0  0  0  0  0  0  0
   53.1580   91.2710   19.1120 C   0  0  0  0  0  0  0  0  0  0  0  0
   54.4160   91.5090   19.5750 N   0  0  0  0  0  0  0  0  0  0  0  0
   54.9630   90.4100   20.0660 C   0  0  0  0  0  0  0  0  0  0  0  0
   56.2900   90.1640   20.6720 C   0  0  0  0  0  0  0  0  0  0  0  0
   52.2180   92.0930   18.5110 C   0  0  0  0  0  0  0  0  0  0  0  0
   51.0030   91.5710   18.1170 C   0  0  0  0  0  0  0  0  0  0  0  0
   50.7930   90.2170   18.3540 C   0  0  0  0  0  0  0  0  0  0  0  0
   51.7390   89.4410   18.9480 C   0  0  0  0  0  0  0  0  0  0  0  0
   54.2130   85.6770   24.4720 C   0  0  0  0  0  0  0  0  0  0  0  0
   55.1750   84.9830   25.3650 C   0  0  0  0  0  0  0  0  0  0  0  0
   54.7280   83.7750   26.0780 C   0  0  0  0  0  0  0  0  0  0  0  0
   54.9750   83.7310   27.4770 N   0  0  0  0  0  4  0  0  0  0  0  0
   54.6570   82.4230   27.9970 C   0  0  0  0  0  0  0  0  0  0  0  0
   54.0610   84.6650   28.1610 C   0  0  0  0  0  0  0  0  0  0  0  0
   54.6180   85.3300   19.4550 H   0  0  0  0  0  0  0  0  0  0  0  0
   53.1530   84.9910   23.4200 H   0  0  0  0  0  0  0  0  0  0  0  0
   51.4570   83.3610   22.6400 H   0  0  0  0  0  0  0  0  0  0  0  0
   51.3370   82.7160   20.2730 H   0  0  0  0  0  0  0  0  0  0  0  0
   56.0170   85.9600   21.8440 H   0  0  0  0  0  0  0  0  0  0  0  0
   56.9360   91.0240   20.3820 H   0  0  0  0  0  0  0  0  0  0  0  0
   56.7730   89.2680   20.2160 H   0  0  0  0  0  0  0  0  0  0  0  0
   56.2680   90.0960   21.7710 H   0  0  0  0  0  0  0  0  0  0  0  0
   52.4390   93.1390   18.3520 H   0  0  0  0  0  0  0  0  0  0  0  0
   50.2270   92.1580   17.6430 H   0  0  0  0  0  0  0  0  0  0  0  0
   49.8350   89.7790   18.0510 H   0  0  0  0  0  0  0  0  0  0  0  0
   51.5960   88.3680   19.1360 H   0  0  0  0  0  0  0  0  0  0  0  0
   53.4390   86.2660   25.0090 H   0  0  0  0  0  0  0  0  0  0  0  0
   53.6510   84.8880   23.9340 H   0  0  0  0  0  0  0  0  0  0  0  0
   56.1520   84.7800   24.8570 H   0  0  0  0  0  0  0  0  0  0  0  0
   55.4620   85.7400   26.1580 H   0  0  0  0  0  0  0  0  0  0  0  0
   53.6150   83.6990   25.9320 H   0  0  0  0  0  0  0  0  0  0  0  0
   55.1230   82.8510   25.5610 H   0  0  0  0  0  0  0  0  0  0  0  0
   55.9240   84.0600   27.7600 H   0  0  0  0  0  0  0  0  0  0  0  0
   53.8490   82.4340   28.7580 H   0  0  0  0  0  0  0  0  0  0  0  0
   54.2970   81.8000   27.1550 H   0  0  0  0  0  0  0  0  0  0  0  0
   55.5360   81.8970   28.4120 H   0  0  0  0  0  0  0  0  0  0  0  0
   54.2760   85.7130   27.8490 H   0  0  0  0  0  0  0  0  0  0  0  0
   53.0040   84.3710   27.9500 H   0  0  0  0  0  0  0  0  0  0  0  0
   54.2060   84.6360   29.2560 H   0  0  0  0  0  0  0  0  0  0  0  0
  1  2  1  0  0  0  0
  2  3  2  0  0  0  0
  2  7  1  0  0  0  0
  3  4  1  0  0  0  0
  4  8  1  0  0  0  0
  4  5  2  0  0  0  0
  5 34  1  0  0  0  0
  6  5  1  0  0  0  0
  6 35  1  0  0  0  0
  7  6  2  0  0  0  0
  8 37  1  6  0  0  0
  8  9  1  0  0  0  0
  9 10  1  0  0  0  0
  9 27  1  0  0  0  0
 10 11  2  0  0  0  0
 12 13  1  6  0  0  0
 12 10  1  0  0  0  0
 14  8  1  0  0  0  0
 14 12  1  0  0  0  0
 15 14  2  0  0  0  0
 16 15  1  0  0  0  0
 17 21  2  0  0  0  0
 17 15  1  0  0  0  0
 18 17  1  0  0  0  0
 19 18  1  0  0  0  0
 19 20  2  0  0  0  0
 20 21  1  0  0  0  0
 21 22  1  0  0  0  0
 23 19  1  0  0  0  0
 24 25  1  0  0  0  0
 24 23  2  0  0  0  0
 25 26  2  0  0  0  0
 26 44  1  0  0  0  0
 26 18  1  0  0  0  0
 27 45  1  0  0  0  0
 27 28  1  0  0  0  0
 28 29  1  0  0  0  0
 28 48  1  0  0  0  0
 29 30  1  0  0  0  0
 30 51  1  0  0  0  0
 30 31  1  0  0  0  0
 30 32  1  0  0  0  0
 31 54  1  0  0  0  0
 31 52  1  0  0  0  0
 32 57  1  0  0  0  0
 33  3  1  0  0  0  0
 36  7  1  0  0  0  0
 38 22  1  0  0  0  0
 39 22  1  0  0  0  0
 40 13  1  0  0  0  0
 41 23  1  0  0  0  0
 42 24  1  0  0  0  0
 43 25  1  0  0  0  0
 46 27  1  0  0  0  0
 47 28  1  0  0  0  0
 49 29  1  0  0  0  0
 50 29  1  0  0  0  0
 53 31  1  0  0  0  0
 55 32  1  0  0  0  0
 56 32  1  0  0  0  0
M  END
>  <Pose>
1

>  <Score>
-5.74

$$$$
