
 OpenBabel03202210083D

 53 56  0  0  1  0  0  0  0  0999 V2000
   51.6760   83.2000   21.5120 B   0  0  0  0  0  0  0  0  0  0  0  0
   53.1210   84.4400   21.7440 C   0  0  0  0  0  0  0  0  0  0  0  0
   53.3030   85.1230   22.9370 C   0  0  0  0  0  0  0  0  0  0  0  0
   54.3280   86.0210   23.1360 C   0  0  0  0  0  0  0  0  0  0  0  0
   55.2000   86.2340   22.0850 C   0  0  0  0  0  0  0  0  0  0  0  0
   55.0300   85.5560   20.8760 C   0  0  0  0  0  0  0  0  0  0  0  0
   53.9940   84.6580   20.6990 C   0  0  0  0  0  0  0  0  0  0  0  0
   54.4750   86.7260   24.4440 C   0  0  2  0  0  0  0  0  0  0  0  0
   55.7810   87.3580   24.5580 N   0  0  0  0  0  0  0  0  0  0  0  0
   56.6680   86.2390   24.7940 C   0  0  0  0  0  0  0  0  0  0  0  0
   57.8910   86.1920   24.5430 O   0  0  0  0  0  0  0  0  0  0  0  0
   55.8990   85.1490   25.3800 C   0  0  0  0  0  0  0  0  0  0  0  0
   56.2440   83.9950   25.7430 O   0  0  0  0  0  0  0  0  0  0  0  0
   54.5270   85.6430   25.4920 C   0  0  0  0  0  0  0  0  0  0  0  0
   53.5650   85.2460   26.2740 C   0  0  0  0  0  0  0  0  0  0  0  0
   52.3090   85.8790   26.1520 O   0  0  0  0  0  0  0  0  0  0  0  0
   53.7840   84.1880   27.2420 C   0  0  0  0  0  0  0  0  0  0  0  0
   54.3150   84.3880   28.4190 O   0  0  0  0  0  0  0  0  0  0  0  0
   54.4050   83.2740   29.0930 C   0  0  0  0  0  0  0  0  0  0  0  0
   53.9050   82.2700   28.3210 C   0  0  0  0  0  0  0  0  0  0  0  0
   53.5010   82.8560   27.1160 C   0  0  0  0  0  0  0  0  0  0  0  0
   56.1870   88.7350   24.4560 C   0  0  0  0  0  0  0  0  0  0  0  0
   55.3050   89.5680   23.5550 C   0  0  0  0  0  0  0  0  0  0  0  0
   55.5840   89.2370   22.1430 C   0  0  0  0  0  0  0  0  0  0  0  0
   56.0320   90.3440   21.3300 N   0  0  0  0  0  4  0  0  0  0  0  0
   55.7780   90.1370   19.9230 C   0  0  0  0  0  0  0  0  0  0  0  0
   54.5230   90.7540   19.4160 C   0  0  0  0  0  0  0  0  0  0  0  0
   54.2480   92.0190   19.8910 O   0  0  0  0  0  0  0  0  0  0  0  0
   54.3380   92.1280   21.2730 C   0  0  0  0  0  0  0  0  0  0  0  0
   55.6630   91.6380   21.7950 C   0  0  0  0  0  0  0  0  0  0  0  0
   52.6110   84.9470   23.7590 H   0  0  0  0  0  0  0  0  0  0  0  0
   56.0070   86.9350   22.2280 H   0  0  0  0  0  0  0  0  0  0  0  0
   55.7150   85.7320   20.0690 H   0  0  0  0  0  0  0  0  0  0  0  0
   53.8390   84.1190   19.7730 H   0  0  0  0  0  0  0  0  0  0  0  0
   53.6310   87.3600   24.6870 H   0  0  0  0  0  0  0  0  0  0  0  0
   54.8170   83.2010   30.1020 H   0  0  0  0  0  0  0  0  0  0  0  0
   53.8330   81.2320   28.5810 H   0  0  0  0  0  0  0  0  0  0  0  0
   53.0720   82.3030   26.2980 H   0  0  0  0  0  0  0  0  0  0  0  0
   56.1370   89.2110   25.4810 H   0  0  0  0  0  0  0  0  0  0  0  0
   57.2650   88.8370   24.1800 H   0  0  0  0  0  0  0  0  0  0  0  0
   55.5480   90.6430   23.7190 H   0  0  0  0  0  0  0  0  0  0  0  0
   54.2690   89.3270   23.8860 H   0  0  0  0  0  0  0  0  0  0  0  0
   54.6840   88.8380   21.6070 H   0  0  0  0  0  0  0  0  0  0  0  0
   56.3410   88.4290   22.1060 H   0  0  0  0  0  0  0  0  0  0  0  0
   57.0980   90.3040   21.4100 H   0  0  0  0  0  0  0  0  0  0  0  0
   56.6280   90.5000   19.3010 H   0  0  0  0  0  0  0  0  0  0  0  0
   55.7240   89.0400   19.7490 H   0  0  0  0  0  0  0  0  0  0  0  0
   54.6370   90.8640   18.2950 H   0  0  0  0  0  0  0  0  0  0  0  0
   53.6270   90.0720   19.5090 H   0  0  0  0  0  0  0  0  0  0  0  0
   54.2940   93.2240   21.5040 H   0  0  0  0  0  0  0  0  0  0  0  0
   53.5160   91.6600   21.8200 H   0  0  0  0  0  0  0  0  0  0  0  0
   56.4210   92.3960   21.4260 H   0  0  0  0  0  0  0  0  0  0  0  0
   55.6950   91.7150   22.8780 H   0  0  0  0  0  0  0  0  0  0  0  0
  1  2  1  0  0  0  0
  2  3  1  0  0  0  0
  3  4  2  0  0  0  0
  3 31  1  0  0  0  0
  4  8  1  0  0  0  0
  5 32  1  0  0  0  0
  5  4  1  0  0  0  0
  6  5  2  0  0  0  0
  7  6  1  0  0  0  0
  7  2  2  0  0  0  0
  8  9  1  0  0  0  0
  8 35  1  1  0  0  0
  8 14  1  0  0  0  0
  9 10  1  0  0  0  0
 10 12  1  0  0  0  0
 11 10  2  0  0  0  0
 12 14  1  0  0  0  0
 12 13  2  0  0  0  0
 14 15  2  0  0  0  0
 15 17  1  0  0  0  0
 16 15  1  0  0  0  0
 17 18  1  0  0  0  0
 18 19  1  0  0  0  0
 19 36  1  0  0  0  0
 20 37  1  0  0  0  0
 20 19  2  0  0  0  0
 21 17  2  0  0  0  0
 21 20  1  0  0  0  0
 22  9  1  0  0  0  0
 22 39  1  0  0  0  0
 23 41  1  0  0  0  0
 23 42  1  0  0  0  0
 23 22  1  0  0  0  0
 24 23  1  0  0  0  0
 25 45  1  0  0  0  0
 25 30  1  0  0  0  0
 25 24  1  0  0  0  0
 26 25  1  0  0  0  0
 27 49  1  0  0  0  0
 27 28  1  0  0  0  0
 27 26  1  0  0  0  0
 28 29  1  0  0  0  0
 29 50  1  0  0  0  0
 29 30  1  0  0  0  0
 29 51  1  0  0  0  0
 30 53  1  0  0  0  0
 33  6  1  0  0  0  0
 34  7  1  0  0  0  0
 38 21  1  0  0  0  0
 40 22  1  0  0  0  0
 43 24  1  0  0  0  0
 44 24  1  0  0  0  0
 46 26  1  0  0  0  0
 47 26  1  0  0  0  0
 48 27  1  0  0  0  0
 52 30  1  0  0  0  0
M  END
>  <Pose>
1

>  <Score>
-6.07

$$$$
