
 OpenBabel03202210083D

 25 28  0  0  1  0  0  0  0  0999 V2000
   50.9590  100.8820   25.9600 B   0  0  0  0  0  0  0  0  0  0  0  0
   51.4560   99.6760   27.3510 C   0  0  0  0  0  0  0  0  0  0  0  0
   52.4250   98.7050   27.1620 C   0  0  0  0  0  0  0  0  0  0  0  0
   52.8330   97.8080   28.1110 C   0  0  0  0  0  0  0  0  0  0  0  0
   52.1730   97.9400   29.3520 C   0  0  0  0  0  0  0  0  0  0  0  0
   51.2080   98.8900   29.5750 C   0  0  0  0  0  0  0  0  0  0  0  0
   50.8440   99.7650   28.5750 C   0  0  0  0  0  0  0  0  0  0  0  0
   53.8140   96.8060   27.9610 N   0  0  0  0  0  0  0  0  0  0  0  0
   54.9600   96.9190   27.1380 C   0  0  1  0  0  0  0  0  0  0  0  0
   55.8130   97.9360   27.0840 N   0  0  0  0  0  0  0  0  0  0  0  0
   56.8920   98.0010   26.2860 C   0  0  0  0  0  0  0  0  0  0  0  0
   57.8760   98.8860   26.0500 N   0  0  0  0  0  0  0  0  0  0  0  0
   58.6980   98.4470   25.1500 O   0  0  0  0  0  0  0  0  0  0  0  0
   58.2850   97.2870   24.7800 N   0  0  0  0  0  0  0  0  0  0  0  0
   57.1670   96.9370   25.4380 C   0  0  0  0  0  0  0  0  0  0  0  0
   56.3340   95.8860   25.4580 N   0  0  0  0  0  0  0  0  0  0  0  0
   56.3860   94.7610   24.7480 N   0  0  0  0  0  0  0  0  0  0  0  0
   55.3360   94.0120   25.1180 N   0  0  0  0  0  0  0  0  0  0  0  0
   54.6560   94.6870   26.0460 N   0  0  0  0  0  0  0  0  0  0  0  0
   55.2650   95.8540   26.2680 C   0  0  0  0  0  0  0  0  0  0  0  0
   52.8650   98.6880   26.1900 H   0  0  0  0  0  0  0  0  0  0  0  0
   52.4330   97.2740   30.1520 H   0  0  0  0  0  0  0  0  0  0  0  0
   50.7090   98.9780   30.5370 H   0  0  0  0  0  0  0  0  0  0  0  0
   50.0880  100.5120   28.7440 H   0  0  0  0  0  0  0  0  0  0  0  0
   53.6540   95.9170   28.5150 H   0  0  0  0  0  0  0  0  0  0  0  0
  1  2  1  0  0  0  0
  2  7  1  0  0  0  0
  3  2  2  0  0  0  0
  3  4  1  0  0  0  0
  4  5  2  0  0  0  0
  5  6  1  0  0  0  0
  5 22  1  0  0  0  0
  6 23  1  0  0  0  0
  7 24  1  0  0  0  0
  7  6  2  0  0  0  0
  8  4  1  0  0  0  0
  8 25  1  0  0  0  0
  9  8  1  1  0  0  0
 10  9  1  0  0  0  0
 11 10  2  0  0  0  0
 12 11  1  0  0  0  0
 13 12  1  0  0  0  0
 14 13  1  0  0  0  0
 14 15  2  0  0  0  0
 15 16  1  0  0  0  0
 15 11  1  0  0  0  0
 16 20  1  0  0  0  0
 17 18  2  0  0  0  0
 17 16  1  0  0  0  0
 18 19  1  0  0  0  0
 19 20  2  0  0  0  0
 20  9  1  0  0  0  0
 21  3  1  0  0  0  0
M  END
>  <Pose>
1

>  <Score>
-7.39

$$$$
