
 OpenBabel03202210083D

 33 36  0  0  1  0  0  0  0  0999 V2000
   51.8970   91.3360   18.7370 B   0  0  0  0  0  0  0  0  0  0  0  0
   52.3200   89.4860   18.9500 C   0  0  0  0  0  0  0  0  0  0  0  0
   53.3570   89.1160   19.7450 C   0  0  0  0  0  0  0  0  0  0  0  0
   53.7490   87.8050   19.9700 C   0  0  0  0  0  0  0  0  0  0  0  0
   53.0150   86.8340   19.3280 C   0  0  0  0  0  0  0  0  0  0  0  0
   51.9420   87.1810   18.5040 C   0  0  0  0  0  0  0  0  0  0  0  0
   51.5910   88.5010   18.3130 C   0  0  0  0  0  0  0  0  0  0  0  0
   54.8660   87.4760   20.8270 N   0  0  0  0  0  0  0  0  0  0  0  0
   55.9330   88.3370   21.1980 C   0  0  0  0  0  0  0  0  0  0  0  0
   56.3400   89.3390   20.5010 O   0  0  0  0  0  0  0  0  0  0  0  0
   56.4790   87.8940   22.4890 C   0  0  1  0  0  0  0  0  0  0  0  0
   55.7890   88.6550   23.5780 C   0  0  1  0  0  0  0  0  0  0  0  0
   54.5010   88.0670   23.5010 O   0  0  0  0  0  0  0  0  0  0  0  0
   54.9180   86.7420   23.7970 C   0  0  1  0  0  0  0  0  0  0  0  0
   55.9090   86.5150   22.6710 C   0  0  1  0  0  0  0  0  0  0  0  0
   55.1120   86.2320   21.4600 C   0  0  0  0  0  0  0  0  0  0  0  0
   54.7310   85.0940   21.0790 O   0  0  0  0  0  0  0  0  0  0  0  0
   55.6230   86.9780   25.0770 C   0  0  0  0  0  0  0  0  0  0  0  0
   56.1610   88.2060   24.9470 C   0  0  0  0  0  0  0  0  0  0  0  0
   55.7710   90.1270   23.4130 C   0  0  0  0  0  0  0  0  0  0  0  0
   55.7680   90.7190   24.6770 O   0  0  0  0  0  0  0  0  0  0  0  0
   53.9340   89.8990   20.2500 H   0  0  0  0  0  0  0  0  0  0  0  0
   53.2540   85.7940   19.4500 H   0  0  0  0  0  0  0  0  0  0  0  0
   51.3460   86.4420   17.9880 H   0  0  0  0  0  0  0  0  0  0  0  0
   50.7780   88.8230   17.6910 H   0  0  0  0  0  0  0  0  0  0  0  0
   57.5810   87.9300   22.5520 H   0  0  0  0  0  0  0  0  0  0  0  0
   54.1060   86.0390   23.8330 H   0  0  0  0  0  0  0  0  0  0  0  0
   56.6590   85.7450   22.8980 H   0  0  0  0  0  0  0  0  0  0  0  0
   55.7100   86.3370   25.9440 H   0  0  0  0  0  0  0  0  0  0  0  0
   56.7390   88.7250   25.7070 H   0  0  0  0  0  0  0  0  0  0  0  0
   56.6720   90.5170   22.8970 H   0  0  0  0  0  0  0  0  0  0  0  0
   54.8920   90.4760   22.8650 H   0  0  0  0  0  0  0  0  0  0  0  0
   56.3220   91.5400   24.6730 H   0  0  0  0  0  0  0  0  0  0  0  0
  1  2  1  0  0  0  0
  2  3  1  0  0  0  0
  3  4  2  0  0  0  0
  3 22  1  0  0  0  0
  4  8  1  0  0  0  0
  5 23  1  0  0  0  0
  5  4  1  0  0  0  0
  6  5  2  0  0  0  0
  7  6  1  0  0  0  0
  7  2  2  0  0  0  0
  8  9  1  0  0  0  0
  8 16  1  0  0  0  0
  9 11  1  0  0  0  0
 10  9  2  0  0  0  0
 11 26  1  1  0  0  0
 11 15  1  0  0  0  0
 11 12  1  0  0  0  0
 12 20  1  6  0  0  0
 12 19  1  0  0  0  0
 13 12  1  0  0  0  0
 13 14  1  0  0  0  0
 14 27  1  1  0  0  0
 14 18  1  0  0  0  0
 15 28  1  1  0  0  0
 15 14  1  0  0  0  0
 16 15  1  0  0  0  0
 17 16  2  0  0  0  0
 18 29  1  0  0  0  0
 19 18  2  0  0  0  0
 19 30  1  0  0  0  0
 20 21  1  0  0  0  0
 24  6  1  0  0  0  0
 25  7  1  0  0  0  0
 31 20  1  0  0  0  0
 32 20  1  0  0  0  0
 33 21  1  0  0  0  0
M  END
>  <Pose>
1

>  <Score>
-5.70

$$$$
