
 OpenBabel03202210083D

 37 40  0  0  1  0  0  0  0  0999 V2000
   52.4910   91.8480   18.2650 B   0  0  0  0  0  0  0  0  0  0  0  0
   53.8640   91.3270   19.4760 C   0  0  0  0  0  0  0  0  0  0  0  0
   53.9400   91.9000   20.7490 C   0  0  0  0  0  0  0  0  0  0  0  0
   54.9240   91.5360   21.6400 C   0  0  0  0  0  0  0  0  0  0  0  0
   55.8300   90.5890   21.2340 C   0  0  0  0  0  0  0  0  0  0  0  0
   55.7570   90.0120   19.9580 C   0  0  0  0  0  0  0  0  0  0  0  0
   54.7710   90.3770   19.0670 C   0  0  0  0  0  0  0  0  0  0  0  0
   54.9740   92.1270   22.9240 N   0  0  0  0  0  0  0  0  0  0  0  0
   55.1630   91.4280   24.1740 C   0  0  0  0  0  0  0  0  0  0  0  0
   55.7010   90.3310   24.3600 O   0  0  0  0  0  0  0  0  0  0  0  0
   54.5820   92.2770   25.2540 C   0  0  1  0  0  0  0  0  0  0  0  0
   55.2750   92.2300   26.4490 O   0  0  0  0  0  0  0  0  0  0  0  0
   55.0480   93.4910   26.9490 N   0  0  0  0  0  0  0  0  0  0  0  0
   55.2470   94.3630   25.8220 C   0  0  0  0  0  0  0  0  0  0  0  0
   54.9710   93.6540   24.7540 C   0  0  0  0  0  0  0  0  0  0  0  0
   54.8550   93.5180   23.2980 C   0  0  0  0  0  0  0  0  0  0  0  0
   54.6810   94.4860   22.5500 O   0  0  0  0  0  0  0  0  0  0  0  0
   55.6710   95.7360   25.8150 C   0  0  0  0  0  0  0  0  0  0  0  0
   56.8230   96.1600   25.1540 C   0  0  0  0  0  0  0  0  0  0  0  0
   56.9630   97.4900   25.3030 N   0  0  0  0  0  0  0  0  0  0  0  0
   55.9320   97.8800   26.0330 N   0  0  0  0  0  0  0  0  0  0  0  0
   55.1270   96.8730   26.3670 C   0  0  0  0  0  0  0  0  0  0  0  0
   53.8630   96.9240   27.1760 C   0  0  0  0  0  0  0  0  0  0  0  0
   58.0470   98.3240   24.7610 C   0  0  0  0  0  0  0  0  0  0  0  0
   53.2150   92.6320   21.0170 H   0  0  0  0  0  0  0  0  0  0  0  0
   56.6050   90.2880   21.9050 H   0  0  0  0  0  0  0  0  0  0  0  0
   56.4920   89.2620   19.6650 H   0  0  0  0  0  0  0  0  0  0  0  0
   54.7290   89.9170   18.0800 H   0  0  0  0  0  0  0  0  0  0  0  0
   53.4950   92.1610   25.3370 H   0  0  0  0  0  0  0  0  0  0  0  0
   54.7940   93.7760   27.9020 H   0  0  0  0  0  0  0  0  0  0  0  0
   57.5120   95.5280   24.5990 H   0  0  0  0  0  0  0  0  0  0  0  0
   54.0660   97.0470   28.2410 H   0  0  0  0  0  0  0  0  0  0  0  0
   53.2230   96.0830   26.9150 H   0  0  0  0  0  0  0  0  0  0  0  0
   53.3450   97.8590   26.8380 H   0  0  0  0  0  0  0  0  0  0  0  0
   57.6640   98.6420   23.7490 H   0  0  0  0  0  0  0  0  0  0  0  0
   58.9710   97.7460   24.6670 H   0  0  0  0  0  0  0  0  0  0  0  0
   58.1080   99.2250   25.3660 H   0  0  0  0  0  0  0  0  0  0  0  0
  1  2  1  0  0  0  0
  2  3  1  0  0  0  0
  3 25  1  0  0  0  0
  3  4  2  0  0  0  0
  4  8  1  0  0  0  0
  5  4  1  0  0  0  0
  5 26  1  0  0  0  0
  6  5  2  0  0  0  0
  7  2  2  0  0  0  0
  7  6  1  0  0  0  0
  8 16  1  0  0  0  0
  8  9  1  0  0  0  0
  9 10  2  0  0  0  0
  9 11  1  0  0  0  0
 11 29  1  1  0  0  0
 11 12  1  0  0  0  0
 12 13  1  0  0  0  0
 13 30  1  0  0  0  0
 14 13  1  0  0  0  0
 15 11  1  0  0  0  0
 15 14  2  0  0  0  0
 16 15  1  0  0  0  0
 17 16  2  0  0  0  0
 18 14  1  0  0  0  0
 18 22  1  0  0  0  0
 19 20  1  0  0  0  0
 19 18  2  0  0  0  0
 20 21  1  0  0  0  0
 21 22  2  0  0  0  0
 22 23  1  0  0  0  0
 23 32  1  0  0  0  0
 24 20  1  0  0  0  0
 24 37  1  0  0  0  0
 27  6  1  0  0  0  0
 28  7  1  0  0  0  0
 31 19  1  0  0  0  0
 33 23  1  0  0  0  0
 34 23  1  0  0  0  0
 35 24  1  0  0  0  0
 36 24  1  0  0  0  0
M  END
>  <Pose>
1

>  <Score>
-6.00

$$$$
