
 OpenBabel03202210083D

 50 53  0  0  0  0  0  0  0  0999 V2000
   49.6570   81.8770   23.5320 B   0  0  0  0  0  0  0  0  0  0  0  0
   51.0750   83.1390   23.6470 C   0  0  0  0  0  0  0  0  0  0  0  0
   51.0170   84.3230   22.9260 C   0  0  0  0  0  0  0  0  0  0  0  0
   52.0340   85.2610   22.9900 C   0  0  0  0  0  0  0  0  0  0  0  0
   53.1470   85.0610   23.7690 C   0  0  0  0  0  0  0  0  0  0  0  0
   53.1930   83.8770   24.4830 C   0  0  0  0  0  0  0  0  0  0  0  0
   52.1900   82.9370   24.4300 C   0  0  0  0  0  0  0  0  0  0  0  0
   54.2210   86.0500   23.8400 C   0  0  0  0  0  0  0  0  0  0  0  0
   54.3030   86.7630   24.8540 O   0  0  0  0  0  0  0  0  0  0  0  0
   55.1980   86.2010   22.7180 C   0  0  0  0  0  0  0  0  0  0  0  0
   54.8250   87.2200   21.7780 N   0  0  0  0  0  0  0  0  0  0  0  0
   55.1370   88.5260   21.8260 C   0  0  0  0  0  0  0  0  0  0  0  0
   54.5830   89.1780   20.7410 C   0  0  0  0  0  0  0  0  0  0  0  0
   53.9370   88.2250   20.0570 N   0  0  0  0  0  0  0  0  0  0  0  0
   54.0660   87.0300   20.6610 C   0  0  0  0  0  0  0  0  0  0  0  0
   53.5380   85.7760   20.2730 N   0  0  0  0  0  0  0  0  0  0  0  0
   52.1620   85.6890   19.9020 C   0  0  0  0  0  0  0  0  0  0  0  0
   51.7330   84.4700   19.1740 C   0  0  0  0  0  0  0  0  0  0  0  0
   52.5340   83.3000   19.3870 N   0  0  0  0  0  0  0  0  0  0  0  0
   53.9190   83.6580   19.1530 C   0  0  0  0  0  0  0  0  0  0  0  0
   54.3790   84.6190   20.2510 C   0  0  0  0  0  0  0  0  0  0  0  0
   52.3250   82.6840   20.6660 C   0  0  0  0  0  0  0  0  0  0  0  0
   54.7640   90.5010   20.5830 N   0  0  0  0  0  0  0  0  0  0  0  0
   55.4850   91.2060   21.4720 C   0  0  0  0  0  0  0  0  0  0  0  0
   55.6790   92.4420   21.3630 O   0  0  0  0  0  0  0  0  0  0  0  0
   56.0370   90.5760   22.5460 N   0  0  0  0  0  0  0  0  0  0  0  0
   55.8840   89.2550   22.7480 C   0  0  0  0  0  0  0  0  0  0  0  0
   56.4180   88.7020   23.7640 O   0  0  0  0  0  0  0  0  0  0  0  0
   54.1970   91.2130   19.4560 C   0  0  0  0  0  0  0  0  0  0  0  0
   50.1350   84.4850   22.3090 H   0  0  0  0  0  0  0  0  0  0  0  0
   51.9580   86.1900   22.4070 H   0  0  0  0  0  0  0  0  0  0  0  0
   54.0680   83.7010   25.1070 H   0  0  0  0  0  0  0  0  0  0  0  0
   52.2520   82.0230   24.9940 H   0  0  0  0  0  0  0  0  0  0  0  0
   56.2200   86.3460   23.1290 H   0  0  0  0  0  0  0  0  0  0  0  0
   55.2300   85.2250   22.1980 H   0  0  0  0  0  0  0  0  0  0  0  0
   51.5840   85.7660   20.8620 H   0  0  0  0  0  0  0  0  0  0  0  0
   51.8720   86.5770   19.2900 H   0  0  0  0  0  0  0  0  0  0  0  0
   51.6450   84.6470   18.0740 H   0  0  0  0  0  0  0  0  0  0  0  0
   50.7020   84.1910   19.5560 H   0  0  0  0  0  0  0  0  0  0  0  0
   53.9340   84.2550   18.2090 H   0  0  0  0  0  0  0  0  0  0  0  0
   54.6100   82.8270   19.0740 H   0  0  0  0  0  0  0  0  0  0  0  0
   54.4120   84.0900   21.2360 H   0  0  0  0  0  0  0  0  0  0  0  0
   55.4380   84.8440   20.0030 H   0  0  0  0  0  0  0  0  0  0  0  0
   52.0220   83.4770   21.4080 H   0  0  0  0  0  0  0  0  0  0  0  0
   53.2200   82.1520   21.0430 H   0  0  0  0  0  0  0  0  0  0  0  0
   51.4830   81.9640   20.6610 H   0  0  0  0  0  0  0  0  0  0  0  0
   56.5900   91.1620   23.2150 H   0  0  0  0  0  0  0  0  0  0  0  0
   54.8490   90.9900   18.5850 H   0  0  0  0  0  0  0  0  0  0  0  0
   53.1960   90.7960   19.2320 H   0  0  0  0  0  0  0  0  0  0  0  0
   54.1610   92.3030   19.6490 H   0  0  0  0  0  0  0  0  0  0  0  0
  1  2  1  0  0  0  0
  2  7  1  0  0  0  0
  3  4  1  0  0  0  0
  3  2  2  0  0  0  0
  4  5  2  0  0  0  0
  5  8  1  0  0  0  0
  5  6  1  0  0  0  0
  6 32  1  0  0  0  0
  7  6  2  0  0  0  0
  7 33  1  0  0  0  0
  8  9  2  0  0  0  0
 10 34  1  0  0  0  0
 10  8  1  0  0  0  0
 11 12  1  0  0  0  0
 11 10  1  0  0  0  0
 12 27  1  0  0  0  0
 13 12  2  0  0  0  0
 14 15  2  0  0  0  0
 14 13  1  0  0  0  0
 15 11  1  0  0  0  0
 16 15  1  0  0  0  0
 17 16  1  0  0  0  0
 17 36  1  0  0  0  0
 18 19  1  0  0  0  0
 18 39  1  0  0  0  0
 18 17  1  0  0  0  0
 19 22  1  0  0  0  0
 20 19  1  0  0  0  0
 20 21  1  0  0  0  0
 21 16  1  0  0  0  0
 21 42  1  0  0  0  0
 22 45  1  0  0  0  0
 22 44  1  0  0  0  0
 23 13  1  0  0  0  0
 23 24  1  0  0  0  0
 24 26  1  0  0  0  0
 25 24  2  0  0  0  0
 26 27  1  0  0  0  0
 26 47  1  0  0  0  0
 27 28  2  0  0  0  0
 29 50  1  0  0  0  0
 29 23  1  0  0  0  0
 30  3  1  0  0  0  0
 31  4  1  0  0  0  0
 35 10  1  0  0  0  0
 37 17  1  0  0  0  0
 38 18  1  0  0  0  0
 40 20  1  0  0  0  0
 41 20  1  0  0  0  0
 43 21  1  0  0  0  0
 46 22  1  0  0  0  0
 48 29  1  0  0  0  0
 49 29  1  0  0  0  0
M  END
>  <Pose>
1

>  <Score>
-6.09

$$$$
