
 OpenBabel03202210083D

 48 51  0  0  1  0  0  0  0  0999 V2000
   49.2610   81.8750   22.7650 B   0  0  0  0  0  0  0  0  0  0  0  0
   50.7840   82.9860   22.5260 C   0  0  0  0  0  0  0  0  0  0  0  0
   51.4870   83.5420   23.5750 C   0  0  0  0  0  0  0  0  0  0  0  0
   52.5900   84.3460   23.3680 C   0  0  0  0  0  0  0  0  0  0  0  0
   53.0480   84.6370   22.1000 C   0  0  0  0  0  0  0  0  0  0  0  0
   52.3470   84.0820   21.0540 C   0  0  0  0  0  0  0  0  0  0  0  0
   51.2480   83.2810   21.2490 C   0  0  0  0  0  0  0  0  0  0  0  0
   54.2220   85.4930   21.8790 C   0  0  0  0  0  0  0  0  0  0  0  0
   55.0260   85.1070   20.9640 O   0  0  0  0  0  0  0  0  0  0  0  0
   54.4730   86.6600   22.6060 N   0  0  0  0  0  0  0  0  0  0  0  0
   55.8210   87.0820   22.8860 C   0  0  2  0  0  0  0  0  0  0  0  0
   55.8850   88.1110   23.9890 C   0  0  0  0  0  0  0  0  0  0  0  0
   55.8540   89.3800   23.2950 N   0  0  0  0  0  0  0  0  0  0  0  0
   56.2130   89.1920   21.8990 C   0  0  1  0  0  0  0  0  0  0  0  0
   56.3720   87.7330   21.6480 C   0  0  0  0  0  0  0  0  0  0  0  0
   55.1260   89.8140   21.1100 C   0  0  0  0  0  0  0  0  0  0  0  0
   54.6110   89.1750   20.1650 O   0  0  0  0  0  0  0  0  0  0  0  0
   54.7080   91.1200   21.4610 N   0  0  0  0  0  0  0  0  0  0  0  0
   54.9840   91.7340   22.7400 C   0  0  1  0  0  0  0  0  0  0  0  0
   55.5580   90.7190   23.6700 C   0  0  0  0  0  0  0  0  0  0  0  0
   55.8090   91.0440   24.8860 O   0  0  0  0  0  0  0  0  0  0  0  0
   55.8740   92.9430   22.5870 C   0  0  0  0  0  0  0  0  0  0  0  0
   55.6420   93.9320   23.6780 C   0  0  0  0  0  0  0  0  0  0  0  0
   56.7020   94.6780   24.1940 C   0  0  0  0  0  0  0  0  0  0  0  0
   56.4290   95.5770   25.2010 C   0  0  0  0  0  0  0  0  0  0  0  0
   55.1600   95.7700   25.7170 C   0  0  0  0  0  0  0  0  0  0  0  0
   54.1480   95.0120   25.1760 C   0  0  0  0  0  0  0  0  0  0  0  0
   54.3600   94.0970   24.1690 C   0  0  0  0  0  0  0  0  0  0  0  0
   51.1170   83.3070   24.5780 H   0  0  0  0  0  0  0  0  0  0  0  0
   53.0780   84.7360   24.2280 H   0  0  0  0  0  0  0  0  0  0  0  0
   52.6670   84.2810   20.0460 H   0  0  0  0  0  0  0  0  0  0  0  0
   50.6940   82.8430   20.4100 H   0  0  0  0  0  0  0  0  0  0  0  0
   53.6920   87.2400   22.9550 H   0  0  0  0  0  0  0  0  0  0  0  0
   56.4060   86.2150   23.2200 H   0  0  0  0  0  0  0  0  0  0  0  0
   55.0260   87.9470   24.6450 H   0  0  0  0  0  0  0  0  0  0  0  0
   56.8000   88.0600   24.5910 H   0  0  0  0  0  0  0  0  0  0  0  0
   57.1830   89.6980   21.7100 H   0  0  0  0  0  0  0  0  0  0  0  0
   55.8790   87.4070   20.7230 H   0  0  0  0  0  0  0  0  0  0  0  0
   57.4450   87.4710   21.5730 H   0  0  0  0  0  0  0  0  0  0  0  0
   54.1670   91.6480   20.7260 H   0  0  0  0  0  0  0  0  0  0  0  0
   54.0100   92.0290   23.1810 H   0  0  0  0  0  0  0  0  0  0  0  0
   55.7260   93.4310   21.6060 H   0  0  0  0  0  0  0  0  0  0  0  0
   56.9170   92.5850   22.6940 H   0  0  0  0  0  0  0  0  0  0  0  0
   57.6860   94.5160   23.7820 H   0  0  0  0  0  0  0  0  0  0  0  0
   57.2520   96.1740   25.6200 H   0  0  0  0  0  0  0  0  0  0  0  0
   55.0040   96.4920   26.5100 H   0  0  0  0  0  0  0  0  0  0  0  0
   53.1380   95.1550   25.5750 H   0  0  0  0  0  0  0  0  0  0  0  0
   53.5610   93.5060   23.7510 H   0  0  0  0  0  0  0  0  0  0  0  0
  2  1  1  0  0  0  0
  2  3  1  0  0  0  0
  3 29  1  0  0  0  0
  4  3  2  0  0  0  0
  4 30  1  0  0  0  0
  5  4  1  0  0  0  0
  6  7  1  0  0  0  0
  6  5  2  0  0  0  0
  7  2  2  0  0  0  0
  8  5  1  0  0  0  0
  8 10  1  0  0  0  0
  9  8  2  0  0  0  0
 10 11  1  0  0  0  0
 10 33  1  0  0  0  0
 11 34  1  1  0  0  0
 11 12  1  0  0  0  0
 12 36  1  0  0  0  0
 12 35  1  0  0  0  0
 13 20  1  0  0  0  0
 13 12  1  0  0  0  0
 14 37  1  6  0  0  0
 14 13  1  0  0  0  0
 15 14  1  0  0  0  0
 15 11  1  0  0  0  0
 16 18  1  0  0  0  0
 16 14  1  0  0  0  0
 17 16  2  0  0  0  0
 18 19  1  0  0  0  0
 19 41  1  1  0  0  0
 19 20  1  0  0  0  0
 20 21  2  0  0  0  0
 22 43  1  0  0  0  0
 22 19  1  0  0  0  0
 22 23  1  0  0  0  0
 23 28  2  0  0  0  0
 23 24  1  0  0  0  0
 24 25  2  0  0  0  0
 25 45  1  0  0  0  0
 25 26  1  0  0  0  0
 26 46  1  0  0  0  0
 27 47  1  0  0  0  0
 27 26  2  0  0  0  0
 28 27  1  0  0  0  0
 31  6  1  0  0  0  0
 32  7  1  0  0  0  0
 38 15  1  0  0  0  0
 39 15  1  0  0  0  0
 40 18  1  0  0  0  0
 42 22  1  0  0  0  0
 44 24  1  0  0  0  0
 48 28  1  0  0  0  0
M  END
>  <Pose>
1

>  <Score>
-6.86

$$$$
