
 OpenBabel03202210083D

 49 52  0  0  1  0  0  0  0  0999 V2000
   50.7560   82.9740   22.0630 B   0  0  0  0  0  0  0  0  0  0  0  0
   51.6430   84.4980   21.3420 C   0  0  0  0  0  0  0  0  0  0  0  0
   52.0500   84.5820   20.0270 C   0  0  0  0  0  0  0  0  0  0  0  0
   52.6910   85.6920   19.5230 C   0  0  0  0  0  0  0  0  0  0  0  0
   52.9600   86.7990   20.3390 C   0  0  0  0  0  0  0  0  0  0  0  0
   52.5470   86.6990   21.6500 C   0  0  0  0  0  0  0  0  0  0  0  0
   51.8990   85.5760   22.1620 C   0  0  0  0  0  0  0  0  0  0  0  0
   53.6100   87.9670   19.7700 C   0  0  0  0  0  0  0  0  0  0  0  0
   54.6440   88.4990   20.3680 C   0  0  0  0  0  0  0  0  0  0  0  0
   55.4470   89.6950   19.9570 C   0  0  2  0  0  0  0  0  0  0  0  0
   55.7010   90.3130   21.2530 N   0  0  0  0  0  0  0  0  0  0  0  0
   55.9660   89.2020   22.1320 C   0  0  0  0  0  0  0  0  0  0  0  0
   56.6490   89.2720   23.1670 O   0  0  0  0  0  0  0  0  0  0  0  0
   55.2930   88.0170   21.5780 C   0  0  0  0  0  0  0  0  0  0  0  0
   55.2810   86.8460   22.0400 O   0  0  0  0  0  0  0  0  0  0  0  0
   55.6960   91.7130   21.5620 C   0  0  0  0  0  0  0  0  0  0  0  0
   55.0240   92.0020   22.8950 C   0  0  0  0  0  0  0  0  0  0  0  0
   54.7490   93.5040   22.9590 C   0  0  0  0  0  0  0  0  0  0  0  0
   54.8810   94.0140   24.3100 N   0  0  0  0  0  0  0  0  0  0  0  0
   55.9620   94.6140   24.8620 C   0  0  0  0  0  0  0  0  0  0  0  0
   55.6770   94.9400   26.1340 N   0  0  0  0  0  0  0  0  0  0  0  0
   54.4230   94.5620   26.4250 C   0  0  0  0  0  0  0  0  0  0  0  0
   53.9420   93.9840   25.2680 C   0  0  0  0  0  0  0  0  0  0  0  0
   54.6660   90.5650   19.0430 C   0  0  0  0  0  0  0  0  0  0  0  0
   55.1460   90.7680   17.8060 N   0  0  0  0  0  0  0  0  0  0  0  0
   54.5260   91.5210   16.8940 C   0  0  0  0  0  0  0  0  0  0  0  0
   53.3370   92.1160   17.2470 C   0  0  0  0  0  0  0  0  0  0  0  0
   52.8070   91.9340   18.5030 C   0  0  0  0  0  0  0  0  0  0  0  0
   53.4840   91.1510   19.4020 C   0  0  0  0  0  0  0  0  0  0  0  0
   53.1480   88.5510   18.5740 O   0  0  0  0  0  0  0  0  0  0  0  0
   51.8400   83.7240   19.3970 H   0  0  0  0  0  0  0  0  0  0  0  0
   53.0110   85.7550   18.4870 H   0  0  0  0  0  0  0  0  0  0  0  0
   52.7140   87.5350   22.3160 H   0  0  0  0  0  0  0  0  0  0  0  0
   51.5930   85.5550   23.2170 H   0  0  0  0  0  0  0  0  0  0  0  0
   56.3850   89.3930   19.4640 H   0  0  0  0  0  0  0  0  0  0  0  0
   55.0480   92.2270   20.8020 H   0  0  0  0  0  0  0  0  0  0  0  0
   56.6640   92.2090   21.5600 H   0  0  0  0  0  0  0  0  0  0  0  0
   54.0560   91.5000   23.0040 H   0  0  0  0  0  0  0  0  0  0  0  0
   55.7050   91.7780   23.7350 H   0  0  0  0  0  0  0  0  0  0  0  0
   55.4810   93.9910   22.2760 H   0  0  0  0  0  0  0  0  0  0  0  0
   53.7330   93.7280   22.5340 H   0  0  0  0  0  0  0  0  0  0  0  0
   56.9100   94.8110   24.3820 H   0  0  0  0  0  0  0  0  0  0  0  0
   56.3260   95.4200   26.8190 H   0  0  0  0  0  0  0  0  0  0  0  0
   53.8740   94.6690   27.3480 H   0  0  0  0  0  0  0  0  0  0  0  0
   52.9430   93.5610   25.1390 H   0  0  0  0  0  0  0  0  0  0  0  0
   54.9260   91.6810   15.8870 H   0  0  0  0  0  0  0  0  0  0  0  0
   52.8180   92.7360   16.5080 H   0  0  0  0  0  0  0  0  0  0  0  0
   51.8730   92.3960   18.7900 H   0  0  0  0  0  0  0  0  0  0  0  0
   53.1130   90.9630   20.4100 H   0  0  0  0  0  0  0  0  0  0  0  0
  2  1  1  0  0  0  0
  2  7  1  0  0  0  0
  3  2  2  0  0  0  0
  4  3  1  0  0  0  0
  4  5  2  0  0  0  0
  5  6  1  0  0  0  0
  6  7  2  0  0  0  0
  6 33  1  0  0  0  0
  7 34  1  0  0  0  0
  8  5  1  0  0  0  0
  8  9  2  0  0  0  0
  9 14  1  0  0  0  0
 10 35  1  6  0  0  0
 10  9  1  0  0  0  0
 10 11  1  0  0  0  0
 11 16  1  0  0  0  0
 11 12  1  0  0  0  0
 12 13  2  0  0  0  0
 14 15  2  0  0  0  0
 14 12  1  0  0  0  0
 16 17  1  0  0  0  0
 17 18  1  0  0  0  0
 17 38  1  0  0  0  0
 17 39  1  0  0  0  0
 18 19  1  0  0  0  0
 19 20  1  0  0  0  0
 19 23  1  0  0  0  0
 20 21  1  0  0  0  0
 21 22  1  0  0  0  0
 21 43  1  0  0  0  0
 22 44  1  0  0  0  0
 23 22  2  0  0  0  0
 24 29  1  0  0  0  0
 24 10  1  0  0  0  0
 25 24  2  0  0  0  0
 26 27  2  0  0  0  0
 26 25  1  0  0  0  0
 27 28  1  0  0  0  0
 28 48  1  0  0  0  0
 28 29  2  0  0  0  0
 29 49  1  0  0  0  0
 30  8  1  0  0  0  0
 31  3  1  0  0  0  0
 32  4  1  0  0  0  0
 36 16  1  0  0  0  0
 37 16  1  0  0  0  0
 40 18  1  0  0  0  0
 41 18  1  0  0  0  0
 42 20  1  0  0  0  0
 45 23  1  0  0  0  0
 46 26  1  0  0  0  0
 47 27  1  0  0  0  0
M  END
>  <Pose>
1

>  <Score>
-6.71

$$$$
