
 OpenBabel03202210083D

 55 58  0  0  1  0  0  0  0  0999 V2000
   51.6450   82.3380   21.3660 B   0  0  0  0  0  0  0  0  0  0  0  0
   52.4470   84.0290   20.9240 C   0  0  0  0  0  0  0  0  0  0  0  0
   51.6080   85.0650   20.5810 C   0  0  0  0  0  0  0  0  0  0  0  0
   52.1540   86.2770   20.2630 C   0  0  0  0  0  0  0  0  0  0  0  0
   53.5350   86.4660   20.2860 C   0  0  0  0  0  0  0  0  0  0  0  0
   54.3520   85.4380   20.6250 C   0  0  0  0  0  0  0  0  0  0  0  0
   53.8140   84.2090   20.9480 C   0  0  0  0  0  0  0  0  0  0  0  0
   53.9980   87.7830   19.8800 C   0  0  0  0  0  0  0  0  0  0  0  0
   54.7530   88.5060   20.6640 C   0  0  0  0  0  0  0  0  0  0  0  0
   55.3120   89.8760   20.3800 C   0  0  2  0  0  0  0  0  0  0  0  0
   55.3560   90.4850   21.6650 N   0  0  0  0  0  0  0  0  0  0  0  0
   55.5540   89.4250   22.6310 C   0  0  0  0  0  0  0  0  0  0  0  0
   55.9790   89.5340   23.8070 O   0  0  0  0  0  0  0  0  0  0  0  0
   55.1720   88.1640   22.0040 C   0  0  0  0  0  0  0  0  0  0  0  0
   55.2140   87.0180   22.5670 O   0  0  0  0  0  0  0  0  0  0  0  0
   55.2940   91.8600   22.1220 C   0  0  0  0  0  0  0  0  0  0  0  0
   54.0760   92.2230   22.9090 C   0  0  0  0  0  0  0  0  0  0  0  0
   54.2540   93.4280   23.7030 N   0  0  0  0  0  4  0  0  0  0  0  0
   55.6390   93.5420   24.1700 C   0  0  0  0  0  0  0  0  0  0  0  0
   55.7150   94.9190   24.8440 C   0  0  0  0  0  0  0  0  0  0  0  0
   54.8460   95.0310   25.9010 O   0  0  0  0  0  0  0  0  0  0  0  0
   53.5340   94.7020   25.5960 C   0  0  0  0  0  0  0  0  0  0  0  0
   53.4330   93.3740   24.8860 C   0  0  0  0  0  0  0  0  0  0  0  0
   54.5620   90.5500   19.3280 C   0  0  0  0  0  0  0  0  0  0  0  0
   53.2390   90.8990   19.3810 C   0  0  0  0  0  0  0  0  0  0  0  0
   52.6070   91.5420   18.3490 C   0  0  0  0  0  0  0  0  0  0  0  0
   53.3110   91.8510   17.2160 C   0  0  0  0  0  0  0  0  0  0  0  0
   54.6580   91.5210   17.1030 C   0  0  0  0  0  0  0  0  0  0  0  0
   55.2590   90.8790   18.1540 C   0  0  0  0  0  0  0  0  0  0  0  0
   51.2430   91.8720   18.4720 N   0  0  0  0  0  0  0  0  0  0  0  0
   50.5950   91.6650   19.5300 O   0  0  0  0  0  0  0  0  0  0  0  0
   50.6060   92.4400   17.3930 O   0  0  0  0  0  0  0  0  0  0  0  0
   53.6390   88.3170   18.6230 O   0  0  0  0  0  0  0  0  0  0  0  0
   50.5200   84.9560   20.5510 H   0  0  0  0  0  0  0  0  0  0  0  0
   51.4880   87.1140   19.9860 H   0  0  0  0  0  0  0  0  0  0  0  0
   55.4420   85.5770   20.6150 H   0  0  0  0  0  0  0  0  0  0  0  0
   54.4730   83.3830   21.2220 H   0  0  0  0  0  0  0  0  0  0  0  0
   56.3750   89.7160   20.0630 H   0  0  0  0  0  0  0  0  0  0  0  0
   55.3010   92.5000   21.2110 H   0  0  0  0  0  0  0  0  0  0  0  0
   56.1840   92.1260   22.7310 H   0  0  0  0  0  0  0  0  0  0  0  0
   53.6230   91.4540   23.5170 H   0  0  0  0  0  0  0  0  0  0  0  0
   53.2840   92.4570   22.1100 H   0  0  0  0  0  0  0  0  0  0  0  0
   54.0580   94.2980   23.2000 H   0  0  0  0  0  0  0  0  0  0  0  0
   56.3550   93.5750   23.3270 H   0  0  0  0  0  0  0  0  0  0  0  0
   55.8860   92.8070   24.9390 H   0  0  0  0  0  0  0  0  0  0  0  0
   56.7250   95.1420   25.1910 H   0  0  0  0  0  0  0  0  0  0  0  0
   55.4620   95.6540   24.0320 H   0  0  0  0  0  0  0  0  0  0  0  0
   53.0150   94.5620   26.5900 H   0  0  0  0  0  0  0  0  0  0  0  0
   52.9900   95.4850   25.0510 H   0  0  0  0  0  0  0  0  0  0  0  0
   52.3860   93.2190   24.5710 H   0  0  0  0  0  0  0  0  0  0  0  0
   53.7720   92.5540   25.5600 H   0  0  0  0  0  0  0  0  0  0  0  0
   52.6790   90.6520   20.2630 H   0  0  0  0  0  0  0  0  0  0  0  0
   52.8730   92.3570   16.3670 H   0  0  0  0  0  0  0  0  0  0  0  0
   55.2190   91.7690   16.1980 H   0  0  0  0  0  0  0  0  0  0  0  0
   56.3240   90.6200   18.0620 H   0  0  0  0  0  0  0  0  0  0  0  0
  2  7  1  0  0  0  0
  2  1  1  0  0  0  0
  3  2  2  0  0  0  0
  4  5  2  0  0  0  0
  4  3  1  0  0  0  0
  5  6  1  0  0  0  0
  6  7  2  0  0  0  0
  7 37  1  0  0  0  0
  8  5  1  0  0  0  0
  8  9  2  0  0  0  0
  9 14  1  0  0  0  0
 10 38  1  6  0  0  0
 10  9  1  0  0  0  0
 10 11  1  0  0  0  0
 11 16  1  0  0  0  0
 11 12  1  0  0  0  0
 12 13  2  0  0  0  0
 14 15  2  0  0  0  0
 14 12  1  0  0  0  0
 16 40  1  0  0  0  0
 16 17  1  0  0  0  0
 17 41  1  0  0  0  0
 17 18  1  0  0  0  0
 18 19  1  0  0  0  0
 18 23  1  0  0  0  0
 19 20  1  0  0  0  0
 19 45  1  0  0  0  0
 20 46  1  0  0  0  0
 20 21  1  0  0  0  0
 22 21  1  0  0  0  0
 22 48  1  0  0  0  0
 23 51  1  0  0  0  0
 23 22  1  0  0  0  0
 24 25  1  0  0  0  0
 24 10  1  0  0  0  0
 25 52  1  0  0  0  0
 26 30  1  0  0  0  0
 26 25  2  0  0  0  0
 27 26  1  0  0  0  0
 28 27  2  0  0  0  0
 28 29  1  0  0  0  0
 29 24  2  0  0  0  0
 30 31  2  0  0  0  0
 32 30  2  0  0  0  0
 33  8  1  0  0  0  0
 34  3  1  0  0  0  0
 35  4  1  0  0  0  0
 36  6  1  0  0  0  0
 39 16  1  0  0  0  0
 42 17  1  0  0  0  0
 43 18  1  0  0  0  0
 44 19  1  0  0  0  0
 47 20  1  0  0  0  0
 49 22  1  0  0  0  0
 50 23  1  0  0  0  0
 53 27  1  0  0  0  0
 54 28  1  0  0  0  0
 55 29  1  0  0  0  0
M  END
>  <Pose>
1

>  <Score>
-6.70

$$$$
