
 OpenBabel03202210083D

 59 62  0  0  1  0  0  0  0  0999 V2000
   56.0960   97.5970   26.5640 B   0  0  0  0  0  0  0  0  0  0  0  0
   56.2650   95.9940   25.5350 C   0  0  0  0  0  0  0  0  0  0  0  0
   57.2540   95.8950   24.5800 C   0  0  0  0  0  0  0  0  0  0  0  0
   57.3930   94.7470   23.8300 C   0  0  0  0  0  0  0  0  0  0  0  0
   56.5580   93.6320   23.9850 C   0  0  0  0  0  0  0  0  0  0  0  0
   55.5760   93.7490   24.9410 C   0  0  0  0  0  0  0  0  0  0  0  0
   55.4320   94.9140   25.7060 C   0  0  0  0  0  0  0  0  0  0  0  0
   56.7310   92.4630   23.1370 C   0  0  0  0  0  0  0  0  0  0  0  0
   55.8540   92.0740   22.2380 C   0  0  0  0  0  0  0  0  0  0  0  0
   55.9880   90.8760   21.3330 C   0  0  2  0  0  0  0  0  0  0  0  0
   54.8510   90.8970   20.4800 N   0  0  0  0  0  0  0  0  0  0  0  0
   53.9300   91.9390   20.8660 C   0  0  0  0  0  0  0  0  0  0  0  0
   52.8170   92.2030   20.3920 O   0  0  0  0  0  0  0  0  0  0  0  0
   54.5680   92.6790   21.9780 C   0  0  0  0  0  0  0  0  0  0  0  0
   54.0490   93.6710   22.5840 O   0  0  0  0  0  0  0  0  0  0  0  0
   54.5620   90.0330   19.3670 C   0  0  0  0  0  0  0  0  0  0  0  0
   53.2170   89.3920   19.3910 C   0  0  0  0  0  0  0  0  0  0  0  0
   53.2140   87.9640   19.2790 N   0  0  0  0  0  4  0  0  0  0  0  0
   51.9200   87.4000   18.9550 C   0  0  0  0  0  0  0  0  0  0  0  0
   52.1320   85.9250   18.6840 C   0  0  0  0  0  0  0  0  0  0  0  0
   52.4910   85.3540   19.9280 O   0  0  0  0  0  0  0  0  0  0  0  0
   53.7660   85.8510   20.2170 C   0  0  0  0  0  0  0  0  0  0  0  0
   53.6190   87.3270   20.5480 C   0  0  0  0  0  0  0  0  0  0  0  0
   55.9600   89.7030   22.2590 C   0  0  0  0  0  0  0  0  0  0  0  0
   56.2840   88.4810   21.7590 C   0  0  0  0  0  0  0  0  0  0  0  0
   56.2700   87.3630   22.5670 C   0  0  0  0  0  0  0  0  0  0  0  0
   55.9270   87.4800   23.8870 C   0  0  0  0  0  0  0  0  0  0  0  0
   55.6020   88.7130   24.3900 C   0  0  0  0  0  0  0  0  0  0  0  0
   55.6150   89.8390   23.5830 C   0  0  0  0  0  0  0  0  0  0  0  0
   55.9050   86.3000   24.7550 C   0  0  0  0  0  0  0  0  0  0  0  0
   56.4970   85.2530   24.3900 O   0  0  0  0  0  0  0  0  0  0  0  0
   55.2640   86.2730   25.9630 O   0  0  0  0  0  0  0  0  0  0  0  0
   54.5520   85.1490   26.4310 C   0  0  0  0  0  0  0  0  0  0  0  0
   57.8930   91.6630   23.2440 O   0  0  0  0  0  0  0  0  0  0  0  0
   57.9200   96.7540   24.4420 H   0  0  0  0  0  0  0  0  0  0  0  0
   58.1680   94.6910   23.0910 H   0  0  0  0  0  0  0  0  0  0  0  0
   54.8760   92.9200   25.0920 H   0  0  0  0  0  0  0  0  0  0  0  0
   54.6510   94.9760   26.4500 H   0  0  0  0  0  0  0  0  0  0  0  0
   56.9670   90.9890   20.8450 H   0  0  0  0  0  0  0  0  0  0  0  0
   54.6910   90.5740   18.3850 H   0  0  0  0  0  0  0  0  0  0  0  0
   55.3120   89.1930   19.3090 H   0  0  0  0  0  0  0  0  0  0  0  0
   52.6600   89.7730   18.4850 H   0  0  0  0  0  0  0  0  0  0  0  0
   52.5920   89.7150   20.2470 H   0  0  0  0  0  0  0  0  0  0  0  0
   53.9460   87.6190   18.6030 H   0  0  0  0  0  0  0  0  0  0  0  0
   51.4160   87.9090   18.1100 H   0  0  0  0  0  0  0  0  0  0  0  0
   51.2760   87.4630   19.8670 H   0  0  0  0  0  0  0  0  0  0  0  0
   51.1810   85.4610   18.3410 H   0  0  0  0  0  0  0  0  0  0  0  0
   52.9650   85.7710   17.9440 H   0  0  0  0  0  0  0  0  0  0  0  0
   54.3540   85.8110   19.2590 H   0  0  0  0  0  0  0  0  0  0  0  0
   54.2480   85.2920   21.0410 H   0  0  0  0  0  0  0  0  0  0  0  0
   52.7790   87.5060   21.2670 H   0  0  0  0  0  0  0  0  0  0  0  0
   54.5670   87.7590   20.9280 H   0  0  0  0  0  0  0  0  0  0  0  0
   56.5560   88.3460   20.7350 H   0  0  0  0  0  0  0  0  0  0  0  0
   56.5250   86.4110   22.1620 H   0  0  0  0  0  0  0  0  0  0  0  0
   55.3320   88.7780   25.4520 H   0  0  0  0  0  0  0  0  0  0  0  0
   55.3620   90.7940   23.9750 H   0  0  0  0  0  0  0  0  0  0  0  0
   53.4720   85.2380   26.3070 H   0  0  0  0  0  0  0  0  0  0  0  0
   54.8990   84.2180   25.9160 H   0  0  0  0  0  0  0  0  0  0  0  0
   54.7490   84.9970   27.5290 H   0  0  0  0  0  0  0  0  0  0  0  0
  2  7  1  0  0  0  0
  2  1  1  0  0  0  0
  3  2  2  0  0  0  0
  4  5  2  0  0  0  0
  4  3  1  0  0  0  0
  5  6  1  0  0  0  0
  6 37  1  0  0  0  0
  6  7  2  0  0  0  0
  7 38  1  0  0  0  0
  8 34  1  0  0  0  0
  8  5  1  0  0  0  0
  9  8  2  0  0  0  0
 10 39  1  6  0  0  0
 10  9  1  0  0  0  0
 10 24  1  0  0  0  0
 11 12  1  0  0  0  0
 11 10  1  0  0  0  0
 12 14  1  0  0  0  0
 13 12  2  0  0  0  0
 14  9  1  0  0  0  0
 14 15  2  0  0  0  0
 16 17  1  0  0  0  0
 16 11  1  0  0  0  0
 17 43  1  0  0  0  0
 18 17  1  0  0  0  0
 18 23  1  0  0  0  0
 19 18  1  0  0  0  0
 19 46  1  0  0  0  0
 20 19  1  0  0  0  0
 20 21  1  0  0  0  0
 21 22  1  0  0  0  0
 22 23  1  0  0  0  0
 22 50  1  0  0  0  0
 23 52  1  0  0  0  0
 23 51  1  0  0  0  0
 24 29  1  0  0  0  0
 25 24  2  0  0  0  0
 25 26  1  0  0  0  0
 26 27  2  0  0  0  0
 27 28  1  0  0  0  0
 27 30  1  0  0  0  0
 28 55  1  0  0  0  0
 29 56  1  0  0  0  0
 29 28  2  0  0  0  0
 30 32  1  0  0  0  0
 31 30  2  0  0  0  0
 32 33  1  0  0  0  0
 33 59  1  0  0  0  0
 35  3  1  0  0  0  0
 36  4  1  0  0  0  0
 40 16  1  0  0  0  0
 41 16  1  0  0  0  0
 42 17  1  0  0  0  0
 44 18  1  0  0  0  0
 45 19  1  0  0  0  0
 47 20  1  0  0  0  0
 48 20  1  0  0  0  0
 49 22  1  0  0  0  0
 53 25  1  0  0  0  0
 54 26  1  0  0  0  0
 57 33  1  0  0  0  0
 58 33  1  0  0  0  0
M  END
>  <Pose>
1

>  <Score>
-6.83

$$$$
