
 OpenBabel03202210083D

 53 56  0  0  1  0  0  0  0  0999 V2000
   48.2480  101.1510   28.7790 B   0  0  0  0  0  0  0  0  0  0  0  0
   49.7170   99.9640   28.4490 C   0  0  0  0  0  0  0  0  0  0  0  0
   50.9590  100.4450   28.1020 C   0  0  0  0  0  0  0  0  0  0  0  0
   52.0160   99.5800   27.8640 C   0  0  0  0  0  0  0  0  0  0  0  0
   51.8720   98.2140   27.9640 C   0  0  0  0  0  0  0  0  0  0  0  0
   50.6300   97.7360   28.3130 C   0  0  0  0  0  0  0  0  0  0  0  0
   49.5590   98.6020   28.5540 C   0  0  0  0  0  0  0  0  0  0  0  0
   52.9900   97.3140   27.7440 C   0  0  0  0  0  0  0  0  0  0  0  0
   53.4100   96.9080   26.5610 C   0  0  0  0  0  0  0  0  0  0  0  0
   54.5310   95.9920   26.2060 C   0  0  1  0  0  0  0  0  0  0  0  0
   54.0250   95.3040   25.0060 N   0  0  0  0  0  0  0  0  0  0  0  0
   53.2670   96.2830   24.3210 C   0  0  0  0  0  0  0  0  0  0  0  0
   53.0020   96.2530   23.1130 O   0  0  0  0  0  0  0  0  0  0  0  0
   52.8630   97.3150   25.2690 C   0  0  0  0  0  0  0  0  0  0  0  0
   52.1900   98.3620   25.0990 O   0  0  0  0  0  0  0  0  0  0  0  0
   54.3180   93.9480   24.7210 C   0  0  0  0  0  0  0  0  0  0  0  0
   54.5770   93.5560   23.3240 C   0  0  0  0  0  0  0  0  0  0  0  0
   54.5040   92.1570   23.0310 N   0  0  0  0  0  4  0  0  0  0  0  0
   55.4740   91.6600   22.1200 C   0  0  0  0  0  0  0  0  0  0  0  0
   54.8040   91.3860   20.7920 C   0  0  0  0  0  0  0  0  0  0  0  0
   53.8740   92.3660   20.4560 O   0  0  0  0  0  0  0  0  0  0  0  0
   52.7770   92.3640   21.2970 C   0  0  0  0  0  0  0  0  0  0  0  0
   53.1860   91.7340   22.6100 C   0  0  0  0  0  0  0  0  0  0  0  0
   55.8110   96.6670   25.9810 C   0  0  0  0  0  0  0  0  0  0  0  0
   56.1260   97.8530   26.6530 C   0  0  0  0  0  0  0  0  0  0  0  0
   57.2960   98.5280   26.4890 C   0  0  0  0  0  0  0  0  0  0  0  0
   58.2530   98.0430   25.6160 C   0  0  0  0  0  0  0  0  0  0  0  0
   57.9750   96.8870   24.9450 C   0  0  0  0  0  0  0  0  0  0  0  0
   56.7720   96.1960   25.1140 C   0  0  0  0  0  0  0  0  0  0  0  0
   53.6810   96.8370   28.8750 O   0  0  0  0  0  0  0  0  0  0  0  0
   51.0880  101.5120   28.0190 H   0  0  0  0  0  0  0  0  0  0  0  0
   53.0010   99.9410   27.5890 H   0  0  0  0  0  0  0  0  0  0  0  0
   50.3950   96.6890   28.4410 H   0  0  0  0  0  0  0  0  0  0  0  0
   48.5820   98.2160   28.8280 H   0  0  0  0  0  0  0  0  0  0  0  0
   54.6700   95.2670   27.0350 H   0  0  0  0  0  0  0  0  0  0  0  0
   55.1830   93.6480   25.3740 H   0  0  0  0  0  0  0  0  0  0  0  0
   53.4700   93.3340   25.1520 H   0  0  0  0  0  0  0  0  0  0  0  0
   55.6490   93.8520   23.1030 H   0  0  0  0  0  0  0  0  0  0  0  0
   53.9850   94.0930   22.5670 H   0  0  0  0  0  0  0  0  0  0  0  0
   54.6720   91.6730   23.9660 H   0  0  0  0  0  0  0  0  0  0  0  0
   56.3660   92.3120   22.0080 H   0  0  0  0  0  0  0  0  0  0  0  0
   55.8650   90.6650   22.4850 H   0  0  0  0  0  0  0  0  0  0  0  0
   54.3510   90.3730   20.8630 H   0  0  0  0  0  0  0  0  0  0  0  0
   55.6110   91.3220   20.0280 H   0  0  0  0  0  0  0  0  0  0  0  0
   51.9520   91.7670   20.8610 H   0  0  0  0  0  0  0  0  0  0  0  0
   52.3810   93.3910   21.4330 H   0  0  0  0  0  0  0  0  0  0  0  0
   52.4190   91.9380   23.4120 H   0  0  0  0  0  0  0  0  0  0  0  0
   53.1420   90.6370   22.4640 H   0  0  0  0  0  0  0  0  0  0  0  0
   55.3910   98.2540   27.3450 H   0  0  0  0  0  0  0  0  0  0  0  0
   57.4960   99.4400   27.0300 H   0  0  0  0  0  0  0  0  0  0  0  0
   59.1840   98.5870   25.4910 H   0  0  0  0  0  0  0  0  0  0  0  0
   58.6820   96.4680   24.2560 H   0  0  0  0  0  0  0  0  0  0  0  0
   56.6150   95.3020   24.5620 H   0  0  0  0  0  0  0  0  0  0  0  0
  2  7  1  0  0  0  0
  2  1  1  0  0  0  0
  3  2  2  0  0  0  0
  4  5  2  0  0  0  0
  4  3  1  0  0  0  0
  5  6  1  0  0  0  0
  6 33  1  0  0  0  0
  6  7  2  0  0  0  0
  7 34  1  0  0  0  0
  8  5  1  0  0  0  0
  8 30  1  0  0  0  0
  9  8  2  0  0  0  0
 10  9  1  0  0  0  0
 10 35  1  1  0  0  0
 11 10  1  0  0  0  0
 12 11  1  0  0  0  0
 12 14  1  0  0  0  0
 13 12  2  0  0  0  0
 14  9  1  0  0  0  0
 15 14  2  0  0  0  0
 16 11  1  0  0  0  0
 16 37  1  0  0  0  0
 16 36  1  0  0  0  0
 17 16  1  0  0  0  0
 18 17  1  0  0  0  0
 18 40  1  0  0  0  0
 19 42  1  0  0  0  0
 19 18  1  0  0  0  0
 20 43  1  0  0  0  0
 20 19  1  0  0  0  0
 21 20  1  0  0  0  0
 21 22  1  0  0  0  0
 22 46  1  0  0  0  0
 22 23  1  0  0  0  0
 23 18  1  0  0  0  0
 23 47  1  0  0  0  0
 24 10  1  0  0  0  0
 24 25  1  0  0  0  0
 25 49  1  0  0  0  0
 26 25  2  0  0  0  0
 26 50  1  0  0  0  0
 27 26  1  0  0  0  0
 28 29  1  0  0  0  0
 28 27  2  0  0  0  0
 29 24  2  0  0  0  0
 31  3  1  0  0  0  0
 32  4  1  0  0  0  0
 38 17  1  0  0  0  0
 39 17  1  0  0  0  0
 41 19  1  0  0  0  0
 44 20  1  0  0  0  0
 45 22  1  0  0  0  0
 48 23  1  0  0  0  0
 51 27  1  0  0  0  0
 52 28  1  0  0  0  0
 53 29  1  0  0  0  0
M  END
>  <Pose>
1

>  <Score>
-5.50

$$$$
