
 OpenBabel03202210083D

 55 58  0  0  0  0  0  0  0  0999 V2000
   54.8010   90.2320   18.5690 B   0  0  0  0  0  0  0  0  0  0  0  0
   54.5970   91.2660   20.1770 C   0  0  0  0  0  0  0  0  0  0  0  0
   53.5080   92.0960   20.3460 C   0  0  0  0  0  0  0  0  0  0  0  0
   53.3590   92.8440   21.5030 C   0  0  0  0  0  0  0  0  0  0  0  0
   54.3000   92.7680   22.4990 C   0  0  0  0  0  0  0  0  0  0  0  0
   55.3930   91.9420   22.3470 C   0  0  0  0  0  0  0  0  0  0  0  0
   55.5280   91.2030   21.1890 C   0  0  0  0  0  0  0  0  0  0  0  0
   54.1050   93.5950   23.7060 C   0  0  0  0  0  0  0  0  0  0  0  0
   55.2260   93.6360   24.5850 N   0  0  0  0  0  0  0  0  0  0  0  0
   56.1290   94.6900   24.3870 C   0  0  0  0  0  0  0  0  0  0  0  0
   56.1460   95.6730   25.5530 C   0  0  0  0  0  0  0  0  0  0  0  0
   55.1220   95.2720   26.4540 N   0  0  0  0  0  0  0  0  0  0  0  0
   55.2490   93.9530   27.0250 C   0  0  0  0  0  0  0  0  0  0  0  0
   55.1090   93.0000   25.8320 C   0  0  0  0  0  0  0  0  0  0  0  0
   54.0170   96.0760   26.7850 C   0  0  0  0  0  0  0  0  0  0  0  0
   53.9590   97.4150   26.8710 N   0  0  0  0  0  0  0  0  0  0  0  0
   52.7180   97.7840   27.2650 C   0  0  0  0  0  0  0  0  0  0  0  0
   51.9560   96.6480   27.4360 C   0  0  0  0  0  0  0  0  0  0  0  0
   52.7640   95.6310   27.1390 N   0  0  0  0  0  0  0  0  0  0  0  0
   50.6750   96.7630   27.8320 N   0  0  0  0  0  0  0  0  0  0  0  0
   50.1110   97.9550   28.0660 C   0  0  0  0  0  0  0  0  0  0  0  0
   48.8970   98.0230   28.4410 O   0  0  0  0  0  0  0  0  0  0  0  0
   50.8370   99.0750   27.9060 N   0  0  0  0  0  0  0  0  0  0  0  0
   52.1160   98.9970   27.5130 C   0  0  0  0  0  0  0  0  0  0  0  0
   52.7920  100.0440   27.3640 O   0  0  0  0  0  0  0  0  0  0  0  0
   49.8960   95.5320   28.0080 C   0  0  0  0  0  0  0  0  0  0  0  0
   54.9840   98.3760   26.5640 C   0  0  0  0  0  0  0  0  0  0  0  0
   56.3310   97.9720   27.1200 C   0  0  0  0  0  0  0  0  0  0  0  0
   57.3730   98.7760   26.7070 O   0  0  0  0  0  0  0  0  0  0  0  0
   57.8350   98.2140   25.4940 C   0  0  0  0  0  0  0  0  0  0  0  0
   52.7830   92.1470   19.5570 H   0  0  0  0  0  0  0  0  0  0  0  0
   52.4760   93.4710   21.5580 H   0  0  0  0  0  0  0  0  0  0  0  0
   56.1640   91.8570   23.1300 H   0  0  0  0  0  0  0  0  0  0  0  0
   56.4030   90.5590   21.0900 H   0  0  0  0  0  0  0  0  0  0  0  0
   53.1700   93.3270   24.2300 H   0  0  0  0  0  0  0  0  0  0  0  0
   53.9590   94.6530   23.3330 H   0  0  0  0  0  0  0  0  0  0  0  0
   55.7470   95.3130   23.5160 H   0  0  0  0  0  0  0  0  0  0  0  0
   57.1660   94.4010   24.0840 H   0  0  0  0  0  0  0  0  0  0  0  0
   57.1780   95.5500   26.0160 H   0  0  0  0  0  0  0  0  0  0  0  0
   56.1310   96.7170   25.2130 H   0  0  0  0  0  0  0  0  0  0  0  0
   54.4760   93.7790   27.7770 H   0  0  0  0  0  0  0  0  0  0  0  0
   56.2690   93.7870   27.4770 H   0  0  0  0  0  0  0  0  0  0  0  0
   54.0840   92.5740   25.9150 H   0  0  0  0  0  0  0  0  0  0  0  0
   55.7910   92.1370   25.9670 H   0  0  0  0  0  0  0  0  0  0  0  0
   50.3960  100.0230   28.0900 H   0  0  0  0  0  0  0  0  0  0  0  0
   50.1730   95.1180   29.0060 H   0  0  0  0  0  0  0  0  0  0  0  0
   48.8260   95.6880   27.9040 H   0  0  0  0  0  0  0  0  0  0  0  0
   50.2830   94.8040   27.2550 H   0  0  0  0  0  0  0  0  0  0  0  0
   55.1180   98.5620   25.4790 H   0  0  0  0  0  0  0  0  0  0  0  0
   54.7210   99.3880   26.9990 H   0  0  0  0  0  0  0  0  0  0  0  0
   56.5150   96.8910   26.8930 H   0  0  0  0  0  0  0  0  0  0  0  0
   56.3010   98.0250   28.2220 H   0  0  0  0  0  0  0  0  0  0  0  0
   56.9780   98.2340   24.7660 H   0  0  0  0  0  0  0  0  0  0  0  0
   58.1010   97.1550   25.5980 H   0  0  0  0  0  0  0  0  0  0  0  0
   58.6750   98.8300   25.1200 H   0  0  0  0  0  0  0  0  0  0  0  0
  1  2  1  0  0  0  0
  2  3  2  0  0  0  0
  2  7  1  0  0  0  0
  3  4  1  0  0  0  0
  4 32  1  0  0  0  0
  4  5  2  0  0  0  0
  5  8  1  0  0  0  0
  6  5  1  0  0  0  0
  6 33  1  0  0  0  0
  7  6  2  0  0  0  0
  8 35  1  0  0  0  0
  8  9  1  0  0  0  0
  9 14  1  0  0  0  0
 10  9  1  0  0  0  0
 10 11  1  0  0  0  0
 11 39  1  0  0  0  0
 11 12  1  0  0  0  0
 12 15  1  0  0  0  0
 12 13  1  0  0  0  0
 13 42  1  0  0  0  0
 13 41  1  0  0  0  0
 14 43  1  0  0  0  0
 14 44  1  0  0  0  0
 14 13  1  0  0  0  0
 15 16  1  0  0  0  0
 15 19  2  0  0  0  0
 16 17  1  0  0  0  0
 17 18  2  0  0  0  0
 17 24  1  0  0  0  0
 18 20  1  0  0  0  0
 19 18  1  0  0  0  0
 20 26  1  0  0  0  0
 20 21  1  0  0  0  0
 21 22  2  0  0  0  0
 23 21  1  0  0  0  0
 23 45  1  0  0  0  0
 24 23  1  0  0  0  0
 25 24  2  0  0  0  0
 26 46  1  0  0  0  0
 27 16  1  0  0  0  0
 27 50  1  0  0  0  0
 27 28  1  0  0  0  0
 28 52  1  0  0  0  0
 29 28  1  0  0  0  0
 30 54  1  0  0  0  0
 30 29  1  0  0  0  0
 31  3  1  0  0  0  0
 34  7  1  0  0  0  0
 36  8  1  0  0  0  0
 37 10  1  0  0  0  0
 38 10  1  0  0  0  0
 40 11  1  0  0  0  0
 47 26  1  0  0  0  0
 48 26  1  0  0  0  0
 49 27  1  0  0  0  0
 51 28  1  0  0  0  0
 53 30  1  0  0  0  0
 55 30  1  0  0  0  0
M  END
>  <Pose>
1

>  <Score>
-6.38

$$$$
