
 OpenBabel03202210083D

 44 47  0  0  0  0  0  0  0  0999 V2000
   54.7930   81.1240   20.0730 B   0  0  0  0  0  0  0  0  0  0  0  0
   53.9100   82.7510   19.5530 C   0  0  0  0  0  0  0  0  0  0  0  0
   53.9150   83.1730   18.2430 C   0  0  0  0  0  0  0  0  0  0  0  0
   53.2830   84.3440   17.8690 C   0  0  0  0  0  0  0  0  0  0  0  0
   52.6190   85.1420   18.7850 C   0  0  0  0  0  0  0  0  0  0  0  0
   52.6160   84.7150   20.0940 C   0  0  0  0  0  0  0  0  0  0  0  0
   53.2530   83.5330   20.4800 C   0  0  0  0  0  0  0  0  0  0  0  0
   51.9580   86.3700   18.3540 C   0  0  0  0  0  0  0  0  0  0  0  0
   52.4690   87.5540   18.7100 C   0  0  0  0  0  0  0  0  0  0  0  0
   53.6120   87.6930   19.4810 O   0  0  0  0  0  0  0  0  0  0  0  0
   53.9220   89.0310   19.7030 C   0  0  0  0  0  0  0  0  0  0  0  0
   52.9800   89.7910   19.0780 C   0  0  0  0  0  0  0  0  0  0  0  0
   53.0510   91.1670   19.1390 C   0  0  0  0  0  0  0  0  0  0  0  0
   54.0900   91.7170   19.8440 C   0  0  0  0  0  0  0  0  0  0  0  0
   55.0600   90.9380   20.4870 C   0  0  0  0  0  0  0  0  0  0  0  0
   55.0060   89.5670   20.4380 C   0  0  0  0  0  0  0  0  0  0  0  0
   55.9430   88.6230   21.0600 C   0  0  0  0  0  0  0  0  0  0  0  0
   55.5530   87.9750   22.2510 N   0  0  0  0  0  4  0  0  0  0  0  0
   55.9080   86.5710   22.2590 C   0  0  0  0  0  0  0  0  0  0  0  0
   57.3280   86.4110   22.7690 C   0  0  0  0  0  0  0  0  0  0  0  0
   57.3020   86.5260   24.1500 O   0  0  0  0  0  0  0  0  0  0  0  0
   56.3230   87.4690   24.4830 C   0  0  0  0  0  0  0  0  0  0  0  0
   56.2540   88.5470   23.4140 C   0  0  0  0  0  0  0  0  0  0  0  0
   56.0870   91.5770   21.1840 O   0  0  0  0  0  0  0  0  0  0  0  0
   52.0200   88.8900   18.4240 C   0  0  0  0  0  0  0  0  0  0  0  0
   51.0050   89.1860   17.7440 O   0  0  0  0  0  0  0  0  0  0  0  0
   54.4380   82.5430   17.5330 H   0  0  0  0  0  0  0  0  0  0  0  0
   53.2920   84.6720   16.8310 H   0  0  0  0  0  0  0  0  0  0  0  0
   52.1150   85.2950   20.8440 H   0  0  0  0  0  0  0  0  0  0  0  0
   53.2600   83.1870   21.5060 H   0  0  0  0  0  0  0  0  0  0  0  0
   51.0550   86.3890   17.7460 H   0  0  0  0  0  0  0  0  0  0  0  0
   52.3100   91.7870   18.6470 H   0  0  0  0  0  0  0  0  0  0  0  0
   54.1730   92.7860   19.9090 H   0  0  0  0  0  0  0  0  0  0  0  0
   56.9430   89.1110   21.1440 H   0  0  0  0  0  0  0  0  0  0  0  0
   56.1010   87.8060   20.2890 H   0  0  0  0  0  0  0  0  0  0  0  0
   54.5450   88.1170   22.4650 H   0  0  0  0  0  0  0  0  0  0  0  0
   55.1980   85.9300   22.8130 H   0  0  0  0  0  0  0  0  0  0  0  0
   55.9260   86.2040   21.2110 H   0  0  0  0  0  0  0  0  0  0  0  0
   57.9580   87.1860   22.2950 H   0  0  0  0  0  0  0  0  0  0  0  0
   57.6610   85.3940   22.4310 H   0  0  0  0  0  0  0  0  0  0  0  0
   56.6080   87.8830   25.4680 H   0  0  0  0  0  0  0  0  0  0  0  0
   55.3240   86.9880   24.6140 H   0  0  0  0  0  0  0  0  0  0  0  0
   55.6560   89.3890   23.8220 H   0  0  0  0  0  0  0  0  0  0  0  0
   57.2640   88.8840   23.1820 H   0  0  0  0  0  0  0  0  0  0  0  0
  2  1  1  0  0  0  0
  2  7  1  0  0  0  0
  3  2  2  0  0  0  0
  4  3  1  0  0  0  0
  4  5  2  0  0  0  0
  5  6  1  0  0  0  0
  6  7  2  0  0  0  0
  6 29  1  0  0  0  0
  7 30  1  0  0  0  0
  8  9  2  0  0  0  0
  8  5  1  0  0  0  0
  9 10  1  0  0  0  0
 10 11  1  0  0  0  0
 11 16  1  0  0  0  0
 12 13  1  0  0  0  0
 12 11  2  0  0  0  0
 13 14  2  0  0  0  0
 14 33  1  0  0  0  0
 14 15  1  0  0  0  0
 15 24  1  0  0  0  0
 16 15  2  0  0  0  0
 16 17  1  0  0  0  0
 17 34  1  0  0  0  0
 17 18  1  0  0  0  0
 18 19  1  0  0  0  0
 18 36  1  0  0  0  0
 18 23  1  0  0  0  0
 19 20  1  0  0  0  0
 19 37  1  0  0  0  0
 20 21  1  0  0  0  0
 21 22  1  0  0  0  0
 22 42  1  0  0  0  0
 22 41  1  0  0  0  0
 23 43  1  0  0  0  0
 23 22  1  0  0  0  0
 25  9  1  0  0  0  0
 25 12  1  0  0  0  0
 26 25  2  0  0  0  0
 27  3  1  0  0  0  0
 28  4  1  0  0  0  0
 31  8  1  0  0  0  0
 32 13  1  0  0  0  0
 35 17  1  0  0  0  0
 38 19  1  0  0  0  0
 39 20  1  0  0  0  0
 40 20  1  0  0  0  0
 44 23  1  0  0  0  0
M  END
>  <Pose>
1

>  <Score>
-6.16

$$$$
