
 OpenBabel03202210083D

 61 65  0  0  1  0  0  0  0  0999 V2000
   55.8990   97.4070   27.1510 B   0  0  0  0  0  0  0  0  0  0  0  0
   55.6910   96.0170   25.8460 C   0  0  0  0  0  0  0  0  0  0  0  0
   56.7630   95.5650   25.1200 C   0  0  0  0  0  0  0  0  0  0  0  0
   56.6080   94.5470   24.1640 C   0  0  0  0  0  0  0  0  0  0  0  0
   55.4140   93.9570   23.9020 C   0  0  0  0  0  0  0  0  0  0  0  0
   54.3370   94.4300   24.6530 C   0  0  0  0  0  0  0  0  0  0  0  0
   54.4800   95.4340   25.5980 C   0  0  0  0  0  0  0  0  0  0  0  0
   55.1630   92.9270   22.8940 C   0  0  0  0  0  0  0  0  0  0  0  0
   54.3100   93.1110   21.7900 C   0  0  0  0  0  0  0  0  0  0  0  0
   54.2950   92.0220   21.0140 N   0  0  0  0  0  0  0  0  0  0  0  0
   53.7710   91.4870   19.8840 C   0  0  0  0  0  0  0  0  0  0  0  0
   54.3020   90.2250   19.7760 C   0  0  0  0  0  0  0  0  0  0  0  0
   55.1310   90.0260   20.8390 N   0  0  0  0  0  0  0  0  0  0  0  0
   55.1120   91.1440   21.5890 C   0  0  1  0  0  0  0  0  0  0  0  0
   55.6460   91.6920   22.7380 N   0  0  0  0  0  0  0  0  0  0  0  0
   56.5920   90.9850   23.5750 C   0  0  0  0  0  0  0  0  0  0  0  0
   56.1130   90.7610   24.9900 C   0  0  0  0  0  0  0  0  0  0  0  0
   56.0990   89.2930   25.3360 C   0  0  0  0  0  0  0  0  0  0  0  0
   55.3800   88.4600   24.4120 N   0  0  0  0  0  0  0  0  0  0  0  0
   54.4730   87.6600   25.2200 C   0  0  0  0  0  0  0  0  0  0  0  0
   54.4370   86.2200   24.8710 C   0  0  0  0  0  0  0  0  0  0  0  0
   55.7110   85.5900   24.6560 N   0  0  0  0  0  4  0  0  0  0  0  0
   56.7690   86.5210   24.3290 C   0  0  0  0  0  0  0  0  0  0  0  0
   56.1700   87.6630   23.5340 C   0  0  0  0  0  0  0  0  0  0  0  0
   56.0300   84.6570   25.6890 C   0  0  0  0  0  0  0  0  0  0  0  0
   54.8870   84.1760   26.5160 C   0  0  0  0  0  0  0  0  0  0  0  0
   54.6180   84.9790   27.6230 O   0  0  0  0  0  0  0  0  0  0  0  0
   53.9270   89.4530   18.6970 C   0  0  0  0  0  0  0  0  0  0  0  0
   53.0400   89.9220   17.7360 C   0  0  0  0  0  0  0  0  0  0  0  0
   52.5110   91.1830   17.8440 C   0  0  0  0  0  0  0  0  0  0  0  0
   52.8930   91.9650   18.9410 C   0  0  0  0  0  0  0  0  0  0  0  0
   57.7370   96.0000   25.2870 H   0  0  0  0  0  0  0  0  0  0  0  0
   57.5030   94.2590   23.6700 H   0  0  0  0  0  0  0  0  0  0  0  0
   53.3720   93.9890   24.4710 H   0  0  0  0  0  0  0  0  0  0  0  0
   53.6210   95.7670   26.1510 H   0  0  0  0  0  0  0  0  0  0  0  0
   53.7390   94.0270   21.6060 H   0  0  0  0  0  0  0  0  0  0  0  0
   55.6700   89.1490   21.0120 H   0  0  0  0  0  0  0  0  0  0  0  0
   56.6960   89.9130   23.1530 H   0  0  0  0  0  0  0  0  0  0  0  0
   57.5980   91.3550   23.5530 H   0  0  0  0  0  0  0  0  0  0  0  0
   56.9230   91.2060   25.6400 H   0  0  0  0  0  0  0  0  0  0  0  0
   55.1990   91.2770   25.2610 H   0  0  0  0  0  0  0  0  0  0  0  0
   55.6430   89.1310   26.3350 H   0  0  0  0  0  0  0  0  0  0  0  0
   57.1670   88.9470   25.4580 H   0  0  0  0  0  0  0  0  0  0  0  0
   54.6040   87.8030   26.3060 H   0  0  0  0  0  0  0  0  0  0  0  0
   53.4480   88.0790   24.9980 H   0  0  0  0  0  0  0  0  0  0  0  0
   53.7240   86.0680   24.0070 H   0  0  0  0  0  0  0  0  0  0  0  0
   53.9180   85.6960   25.7270 H   0  0  0  0  0  0  0  0  0  0  0  0
   55.5940   85.0020   23.7720 H   0  0  0  0  0  0  0  0  0  0  0  0
   57.5100   86.0160   23.6640 H   0  0  0  0  0  0  0  0  0  0  0  0
   57.2980   86.9380   25.1800 H   0  0  0  0  0  0  0  0  0  0  0  0
   55.5160   87.2750   22.7090 H   0  0  0  0  0  0  0  0  0  0  0  0
   56.9770   88.2080   23.0530 H   0  0  0  0  0  0  0  0  0  0  0  0
   56.8080   85.0390   26.4120 H   0  0  0  0  0  0  0  0  0  0  0  0
   56.5150   83.7510   25.2300 H   0  0  0  0  0  0  0  0  0  0  0  0
   53.9690   84.2680   25.8610 H   0  0  0  0  0  0  0  0  0  0  0  0
   54.9400   83.1040   26.7790 H   0  0  0  0  0  0  0  0  0  0  0  0
   55.4020   85.0220   28.1970 H   0  0  0  0  0  0  0  0  0  0  0  0
   54.3210   88.4560   18.5760 H   0  0  0  0  0  0  0  0  0  0  0  0
   52.7440   89.3260   16.8930 H   0  0  0  0  0  0  0  0  0  0  0  0
   51.8210   91.5520   17.0990 H   0  0  0  0  0  0  0  0  0  0  0  0
   52.4870   92.9580   19.0440 H   0  0  0  0  0  0  0  0  0  0  0  0
  2  1  1  0  0  0  0
  3 32  1  0  0  0  0
  3  2  2  0  0  0  0
  4  3  1  0  0  0  0
  5  4  2  0  0  0  0
  5  6  1  0  0  0  0
  6  7  2  0  0  0  0
  7  2  1  0  0  0  0
  7 35  1  0  0  0  0
  8  5  1  0  0  0  0
  9  8  2  0  0  0  0
 10 14  1  0  0  0  0
 10  9  1  0  0  0  0
 11 10  1  0  0  0  0
 12 11  1  0  0  0  0
 12 13  1  0  0  0  0
 13 37  1  0  0  0  0
 14 13  1  6  0  0  0
 14 15  1  0  0  0  0
 15  8  1  0  0  0  0
 15 16  1  0  0  0  0
 16 17  1  0  0  0  0
 17 41  1  0  0  0  0
 17 18  1  0  0  0  0
 17 40  1  0  0  0  0
 18 43  1  0  0  0  0
 18 42  1  0  0  0  0
 19 20  1  0  0  0  0
 19 18  1  0  0  0  0
 20 44  1  0  0  0  0
 21 20  1  0  0  0  0
 21 47  1  0  0  0  0
 22 21  1  0  0  0  0
 22 25  1  0  0  0  0
 23 22  1  0  0  0  0
 23 50  1  0  0  0  0
 24 23  1  0  0  0  0
 24 19  1  0  0  0  0
 25 53  1  0  0  0  0
 25 26  1  0  0  0  0
 26 56  1  0  0  0  0
 26 27  1  0  0  0  0
 27 57  1  0  0  0  0
 28 12  2  0  0  0  0
 29 30  2  0  0  0  0
 29 28  1  0  0  0  0
 30 31  1  0  0  0  0
 31 61  1  0  0  0  0
 31 11  2  0  0  0  0
 33  4  1  0  0  0  0
 34  6  1  0  0  0  0
 36  9  1  0  0  0  0
 38 16  1  0  0  0  0
 39 16  1  0  0  0  0
 45 20  1  0  0  0  0
 46 21  1  0  0  0  0
 48 22  1  0  0  0  0
 49 23  1  0  0  0  0
 51 24  1  0  0  0  0
 52 24  1  0  0  0  0
 54 25  1  0  0  0  0
 55 26  1  0  0  0  0
 58 28  1  0  0  0  0
 59 29  1  0  0  0  0
 60 30  1  0  0  0  0
M  END
>  <Pose>
1

>  <Score>
-6.90

$$$$
