
 OpenBabel03202210083D

 56 59  0  0  1  0  0  0  0  0999 V2000
   51.9980   91.1500   18.9000 B   0  0  0  0  0  0  0  0  0  0  0  0
   52.2390   89.3020   19.3430 C   0  0  0  0  0  0  0  0  0  0  0  0
   53.4920   88.7450   19.4710 C   0  0  0  0  0  0  0  0  0  0  0  0
   53.6400   87.4250   19.7860 C   0  0  0  0  0  0  0  0  0  0  0  0
   52.5430   86.5750   19.9950 C   0  0  0  0  0  0  0  0  0  0  0  0
   51.3170   87.1270   19.8700 C   0  0  0  0  0  0  0  0  0  0  0  0
   51.1610   88.4750   19.5470 C   0  0  0  0  0  0  0  0  0  0  0  0
   52.8170   85.2310   20.3280 C   0  0  1  0  0  0  0  0  0  0  0  0
   52.1300   84.4000   21.2200 N   0  0  0  0  0  0  0  0  0  0  0  0
   53.0090   83.2180   21.3360 C   0  0  0  0  0  0  0  0  0  0  0  0
   53.1400   82.4620   22.3380 O   0  0  0  0  0  0  0  0  0  0  0  0
   53.6780   83.1330   20.0340 C   0  0  0  0  0  0  0  0  0  0  0  0
   54.5240   82.2730   19.6400 O   0  0  0  0  0  0  0  0  0  0  0  0
   53.1610   84.2670   19.2450 C   0  0  0  0  0  0  0  0  0  0  0  0
   53.0130   84.3390   17.9420 C   0  0  0  0  0  0  0  0  0  0  0  0
   52.4400   85.4630   17.3590 O   0  0  0  0  0  0  0  0  0  0  0  0
   53.4340   83.2810   17.0360 C   0  0  0  0  0  0  0  0  0  0  0  0
   54.7170   82.9640   16.7150 C   0  0  0  0  0  0  0  0  0  0  0  0
   54.9860   81.8980   15.8690 C   0  0  0  0  0  0  0  0  0  0  0  0
   53.9590   81.1480   15.3430 C   0  0  0  0  0  0  0  0  0  0  0  0
   52.6480   81.4360   15.6420 C   0  0  0  0  0  0  0  0  0  0  0  0
   52.4030   82.5070   16.4910 C   0  0  0  0  0  0  0  0  0  0  0  0
   54.2090   79.9940   14.4290 C   0  0  0  0  0  0  0  0  0  0  0  0
   50.9080   84.4240   22.0110 C   0  0  0  0  0  0  0  0  0  0  0  0
   50.4480   83.0650   22.4700 C   0  0  0  0  0  0  0  0  0  0  0  0
   49.9990   83.0340   23.8230 N   0  0  0  0  0  4  0  0  0  0  0  0
   51.0510   82.5350   24.6890 C   0  0  0  0  0  0  0  0  0  0  0  0
   50.5550   82.5570   26.1110 C   0  0  0  0  0  0  0  0  0  0  0  0
   49.5660   81.5650   26.1990 O   0  0  0  0  0  0  0  0  0  0  0  0
   48.5220   81.9410   25.3860 C   0  0  0  0  0  0  0  0  0  0  0  0
   48.9140   82.0390   23.9340 C   0  0  0  0  0  0  0  0  0  0  0  0
   54.3410   89.4120   19.3050 H   0  0  0  0  0  0  0  0  0  0  0  0
   54.6640   87.0250   19.8770 H   0  0  0  0  0  0  0  0  0  0  0  0
   50.3720   86.6150   20.0060 H   0  0  0  0  0  0  0  0  0  0  0  0
   50.1780   88.9330   19.4420 H   0  0  0  0  0  0  0  0  0  0  0  0
   53.8840   85.3160   20.8660 H   0  0  0  0  0  0  0  0  0  0  0  0
   55.5320   83.5770   17.1050 H   0  0  0  0  0  0  0  0  0  0  0  0
   56.0110   81.6560   15.6230 H   0  0  0  0  0  0  0  0  0  0  0  0
   51.8140   80.8530   15.2330 H   0  0  0  0  0  0  0  0  0  0  0  0
   51.3830   82.7750   16.7570 H   0  0  0  0  0  0  0  0  0  0  0  0
   53.8410   80.1890   13.4020 H   0  0  0  0  0  0  0  0  0  0  0  0
   55.3160   79.7990   14.3700 H   0  0  0  0  0  0  0  0  0  0  0  0
   53.7500   79.0630   14.8190 H   0  0  0  0  0  0  0  0  0  0  0  0
   51.1260   84.9920   22.9620 H   0  0  0  0  0  0  0  0  0  0  0  0
   50.0830   84.8920   21.4830 H   0  0  0  0  0  0  0  0  0  0  0  0
   49.5650   82.7350   21.8270 H   0  0  0  0  0  0  0  0  0  0  0  0
   51.2620   82.3050   22.2990 H   0  0  0  0  0  0  0  0  0  0  0  0
   49.6430   83.9410   24.1560 H   0  0  0  0  0  0  0  0  0  0  0  0
   51.9920   83.0840   24.6390 H   0  0  0  0  0  0  0  0  0  0  0  0
   51.2850   81.4870   24.3940 H   0  0  0  0  0  0  0  0  0  0  0  0
   50.1380   83.5350   26.3820 H   0  0  0  0  0  0  0  0  0  0  0  0
   51.3690   82.3060   26.8170 H   0  0  0  0  0  0  0  0  0  0  0  0
   47.7360   81.1440   25.4750 H   0  0  0  0  0  0  0  0  0  0  0  0
   48.0970   82.8910   25.7260 H   0  0  0  0  0  0  0  0  0  0  0  0
   49.3380   81.0850   23.5750 H   0  0  0  0  0  0  0  0  0  0  0  0
   48.0330   82.3170   23.3500 H   0  0  0  0  0  0  0  0  0  0  0  0
  1  2  1  0  0  0  0
  2  3  2  0  0  0  0
  2  7  1  0  0  0  0
  3  4  1  0  0  0  0
  4 33  1  0  0  0  0
  4  5  2  0  0  0  0
  5  8  1  0  0  0  0
  6  5  1  0  0  0  0
  6 34  1  0  0  0  0
  7  6  2  0  0  0  0
  8 36  1  1  0  0  0
  8  9  1  0  0  0  0
  9 10  1  0  0  0  0
  9 24  1  0  0  0  0
 10 11  2  0  0  0  0
 12 10  1  0  0  0  0
 13 12  2  0  0  0  0
 14 12  1  0  0  0  0
 14  8  1  0  0  0  0
 15 14  2  0  0  0  0
 16 15  1  0  0  0  0
 17 15  1  0  0  0  0
 18 17  1  0  0  0  0
 18 37  1  0  0  0  0
 19 18  2  0  0  0  0
 20 21  2  0  0  0  0
 20 19  1  0  0  0  0
 21 22  1  0  0  0  0
 22 40  1  0  0  0  0
 22 17  2  0  0  0  0
 23 43  1  0  0  0  0
 23 20  1  0  0  0  0
 24 25  1  0  0  0  0
 24 44  1  0  0  0  0
 25 26  1  0  0  0  0
 26 31  1  0  0  0  0
 26 48  1  0  0  0  0
 26 27  1  0  0  0  0
 27 28  1  0  0  0  0
 28 29  1  0  0  0  0
 28 51  1  0  0  0  0
 28 52  1  0  0  0  0
 30 53  1  0  0  0  0
 30 54  1  0  0  0  0
 30 29  1  0  0  0  0
 31 30  1  0  0  0  0
 32  3  1  0  0  0  0
 35  7  1  0  0  0  0
 38 19  1  0  0  0  0
 39 21  1  0  0  0  0
 41 23  1  0  0  0  0
 42 23  1  0  0  0  0
 45 24  1  0  0  0  0
 46 25  1  0  0  0  0
 47 25  1  0  0  0  0
 49 27  1  0  0  0  0
 50 27  1  0  0  0  0
 55 31  1  0  0  0  0
 56 31  1  0  0  0  0
M  END
>  <Pose>
1

>  <Score>
-6.17

$$$$
