
 OpenBabel03202210083D

 54 57  0  0  1  0  0  0  0  0999 V2000
   54.7250   85.5980   24.7970 B   0  0  0  0  0  0  0  0  0  0  0  0
   55.1400   87.2870   24.0040 C   0  0  0  0  0  0  0  0  0  0  0  0
   55.3790   87.3430   22.6610 C   0  0  0  0  0  0  0  0  0  0  0  0
   55.6800   88.5510   22.0770 C   0  0  0  0  0  0  0  0  0  0  0  0
   55.7580   89.7430   22.7620 C   0  0  0  0  0  0  0  0  0  0  0  0
   55.5080   89.6510   24.1320 C   0  0  0  0  0  0  0  0  0  0  0  0
   55.2060   88.4510   24.7320 C   0  0  0  0  0  0  0  0  0  0  0  0
   56.0860   91.0320   22.0960 C   0  0  1  0  0  0  0  0  0  0  0  0
   55.4250   91.1700   20.8280 N   0  0  0  0  0  0  0  0  0  0  0  0
   54.3670   92.0980   20.9980 C   0  0  0  0  0  0  0  0  0  0  0  0
   53.4450   92.3240   20.1640 O   0  0  0  0  0  0  0  0  0  0  0  0
   54.5100   92.7550   22.3000 C   0  0  0  0  0  0  0  0  0  0  0  0
   53.7670   93.6370   22.7980 O   0  0  0  0  0  0  0  0  0  0  0  0
   55.6950   92.1940   22.9230 C   0  0  0  0  0  0  0  0  0  0  0  0
   56.3140   92.6830   23.9850 C   0  0  0  0  0  0  0  0  0  0  0  0
   57.4970   92.0370   24.3930 O   0  0  0  0  0  0  0  0  0  0  0  0
   55.8910   93.8120   24.7770 C   0  0  0  0  0  0  0  0  0  0  0  0
   56.3760   95.0490   24.9390 N   0  0  0  0  0  0  0  0  0  0  0  0
   55.6440   95.7380   25.8320 C   0  0  0  0  0  0  0  0  0  0  0  0
   54.6640   94.9190   26.2500 N   0  0  0  0  0  0  0  0  0  0  0  0
   54.7830   93.7430   25.6320 C   0  0  0  0  0  0  0  0  0  0  0  0
   53.8810   92.5740   25.8300 C   0  0  0  0  0  0  0  0  0  0  0  0
   55.9060   97.0570   26.1860 C   0  0  0  0  0  0  0  0  0  0  0  0
   56.9650   97.6880   25.5940 C   0  0  0  0  0  0  0  0  0  0  0  0
   57.7190   96.9830   24.6740 C   0  0  0  0  0  0  0  0  0  0  0  0
   57.4190   95.6780   24.3570 C   0  0  0  0  0  0  0  0  0  0  0  0
   55.7760   90.4790   19.5680 C   0  0  0  0  0  0  0  0  0  0  0  0
   54.6560   89.5460   19.1620 C   0  0  0  0  0  0  0  0  0  0  0  0
   54.1330   89.8180   17.8690 N   0  0  0  0  0  4  0  0  0  0  0  0
   52.6780   89.6800   17.9390 C   0  0  0  0  0  0  0  0  0  0  0  0
   54.4450   91.1120   17.3440 C   0  0  0  0  0  0  0  0  0  0  0  0
   55.3390   86.4420   22.0300 H   0  0  0  0  0  0  0  0  0  0  0  0
   55.8630   88.5540   21.0140 H   0  0  0  0  0  0  0  0  0  0  0  0
   55.5500   90.5420   24.7430 H   0  0  0  0  0  0  0  0  0  0  0  0
   55.0150   88.3940   25.7940 H   0  0  0  0  0  0  0  0  0  0  0  0
   57.1830   91.0010   21.9050 H   0  0  0  0  0  0  0  0  0  0  0  0
   53.2420   92.4020   24.9340 H   0  0  0  0  0  0  0  0  0  0  0  0
   54.5580   91.6910   25.9790 H   0  0  0  0  0  0  0  0  0  0  0  0
   53.3060   92.7010   26.7460 H   0  0  0  0  0  0  0  0  0  0  0  0
   55.2550   97.5300   26.9220 H   0  0  0  0  0  0  0  0  0  0  0  0
   57.1720   98.7150   25.8660 H   0  0  0  0  0  0  0  0  0  0  0  0
   58.5690   97.4610   24.1850 H   0  0  0  0  0  0  0  0  0  0  0  0
   57.9930   95.1010   23.6400 H   0  0  0  0  0  0  0  0  0  0  0  0
   56.7250   89.9240   19.6910 H   0  0  0  0  0  0  0  0  0  0  0  0
   55.9050   91.2720   18.8210 H   0  0  0  0  0  0  0  0  0  0  0  0
   53.8640   89.6490   19.9480 H   0  0  0  0  0  0  0  0  0  0  0  0
   55.0340   88.4940   19.2760 H   0  0  0  0  0  0  0  0  0  0  0  0
   54.4540   89.1070   17.1530 H   0  0  0  0  0  0  0  0  0  0  0  0
   52.2370   90.4600   18.5750 H   0  0  0  0  0  0  0  0  0  0  0  0
   52.2380   89.6890   16.9030 H   0  0  0  0  0  0  0  0  0  0  0  0
   52.3780   88.7020   18.3730 H   0  0  0  0  0  0  0  0  0  0  0  0
   53.5810   91.4430   16.7170 H   0  0  0  0  0  0  0  0  0  0  0  0
   54.5700   91.8880   18.1270 H   0  0  0  0  0  0  0  0  0  0  0  0
   55.3130   91.0720   16.6390 H   0  0  0  0  0  0  0  0  0  0  0  0
  2  7  1  0  0  0  0
  2  1  1  0  0  0  0
  3  2  2  0  0  0  0
  4  3  1  0  0  0  0
  4  5  2  0  0  0  0
  5  6  1  0  0  0  0
  6  7  2  0  0  0  0
  6 34  1  0  0  0  0
  7 35  1  0  0  0  0
  8 36  1  6  0  0  0
  8  5  1  0  0  0  0
  8 14  1  0  0  0  0
  9 10  1  0  0  0  0
  9  8  1  0  0  0  0
 10 12  1  0  0  0  0
 11 10  2  0  0  0  0
 12 13  2  0  0  0  0
 12 14  1  0  0  0  0
 14 15  2  0  0  0  0
 15 16  1  0  0  0  0
 15 17  1  0  0  0  0
 17 18  1  0  0  0  0
 17 21  2  0  0  0  0
 18 19  1  0  0  0  0
 19 23  1  0  0  0  0
 19 20  2  0  0  0  0
 21 22  1  0  0  0  0
 21 20  1  0  0  0  0
 22 38  1  0  0  0  0
 22 39  1  0  0  0  0
 23 40  1  0  0  0  0
 24 41  1  0  0  0  0
 24 23  2  0  0  0  0
 25 24  1  0  0  0  0
 26 25  2  0  0  0  0
 26 18  1  0  0  0  0
 27 44  1  0  0  0  0
 27  9  1  0  0  0  0
 28 47  1  0  0  0  0
 28 27  1  0  0  0  0
 28 46  1  0  0  0  0
 29 30  1  0  0  0  0
 29 28  1  0  0  0  0
 30 51  1  0  0  0  0
 30 49  1  0  0  0  0
 31 29  1  0  0  0  0
 31 53  1  0  0  0  0
 32  3  1  0  0  0  0
 33  4  1  0  0  0  0
 37 22  1  0  0  0  0
 42 25  1  0  0  0  0
 43 26  1  0  0  0  0
 45 27  1  0  0  0  0
 48 29  1  0  0  0  0
 50 30  1  0  0  0  0
 52 31  1  0  0  0  0
 54 31  1  0  0  0  0
M  END
>  <Pose>
1

>  <Score>
-6.49

$$$$
