
 OpenBabel03202210083D

 47 50  0  0  1  0  0  0  0  0999 V2000
   55.8810   97.3970   26.9070 B   0  0  0  0  0  0  0  0  0  0  0  0
   55.5460   95.9190   25.7290 C   0  0  0  0  0  0  0  0  0  0  0  0
   56.5330   95.4290   24.9110 C   0  0  0  0  0  0  0  0  0  0  0  0
   56.3090   94.3940   24.0760 C   0  0  0  0  0  0  0  0  0  0  0  0
   55.0300   93.7560   23.9990 C   0  0  0  0  0  0  0  0  0  0  0  0
   54.0690   94.2790   24.8360 C   0  0  0  0  0  0  0  0  0  0  0  0
   54.3000   95.3320   25.6870 C   0  0  0  0  0  0  0  0  0  0  0  0
   54.8990   92.7650   23.0580 N   0  0  0  0  0  0  0  0  0  0  0  0
   54.7720   91.8100   22.1530 C   0  0  0  0  0  0  0  0  0  0  0  0
   53.8190   91.5640   21.3130 O   0  0  0  0  0  0  0  0  0  0  0  0
   55.8890   90.7560   21.9890 C   0  0  2  0  0  0  0  0  0  0  0  0
   56.1910   90.7310   20.5200 C   0  0  0  0  0  0  0  0  0  0  0  0
   55.4590   89.7080   19.7630 C   0  0  0  0  0  0  0  0  0  0  0  0
   55.1770   89.9540   18.5590 O   0  0  0  0  0  0  0  0  0  0  0  0
   55.0880   88.4900   20.3840 N   0  0  0  0  0  0  0  0  0  0  0  0
   55.1160   88.3770   21.7910 C   0  0  0  0  0  0  0  0  0  0  0  0
   54.7660   87.1860   22.3680 N   0  0  0  0  0  0  0  0  0  0  0  0
   54.7830   87.0050   23.6900 C   0  0  0  0  0  0  0  0  0  0  0  0
   55.1580   88.0390   24.4550 N   0  0  0  0  0  0  0  0  0  0  0  0
   55.5150   89.2480   23.9300 C   0  0  0  0  0  0  0  0  0  0  0  0
   55.5060   89.4610   22.5660 C   0  0  0  0  0  0  0  0  0  0  0  0
   55.8940   90.3210   24.7860 N   0  0  0  0  0  0  0  0  0  0  0  0
   54.4060   85.7390   24.2780 N   0  0  0  0  0  0  0  0  0  0  0  0
   53.1270   85.2220   23.9360 C   0  0  0  0  0  0  0  0  0  0  0  0
   52.9660   83.7510   24.1900 C   0  0  0  0  0  0  0  0  0  0  0  0
   54.1430   83.1550   24.6300 O   0  0  0  0  0  0  0  0  0  0  0  0
   54.7010   83.8400   25.7010 C   0  0  0  0  0  0  0  0  0  0  0  0
   55.3510   85.0870   25.1610 C   0  0  0  0  0  0  0  0  0  0  0  0
   57.5220   95.9040   24.9470 H   0  0  0  0  0  0  0  0  0  0  0  0
   57.0890   94.0040   23.4190 H   0  0  0  0  0  0  0  0  0  0  0  0
   53.0520   93.8420   24.8230 H   0  0  0  0  0  0  0  0  0  0  0  0
   53.5110   95.7200   26.3420 H   0  0  0  0  0  0  0  0  0  0  0  0
   54.0260   92.1130   23.8750 H   0  0  0  0  0  0  0  0  0  0  0  0
   56.8000   91.1930   22.5080 H   0  0  0  0  0  0  0  0  0  0  0  0
   57.2990   90.5710   20.4040 H   0  0  0  0  0  0  0  0  0  0  0  0
   55.9470   91.7410   20.0970 H   0  0  0  0  0  0  0  0  0  0  0  0
   54.7840   87.6460   19.8180 H   0  0  0  0  0  0  0  0  0  0  0  0
   56.8090   90.7790   24.7410 H   0  0  0  0  0  0  0  0  0  0  0  0
   55.2030   90.6560   25.5040 H   0  0  0  0  0  0  0  0  0  0  0  0
   52.3830   85.7730   24.5820 H   0  0  0  0  0  0  0  0  0  0  0  0
   52.8880   85.5240   22.8830 H   0  0  0  0  0  0  0  0  0  0  0  0
   52.1560   83.5430   24.9330 H   0  0  0  0  0  0  0  0  0  0  0  0
   52.6730   83.2560   23.2490 H   0  0  0  0  0  0  0  0  0  0  0  0
   55.4730   83.1400   26.1360 H   0  0  0  0  0  0  0  0  0  0  0  0
   53.9380   84.0600   26.4720 H   0  0  0  0  0  0  0  0  0  0  0  0
   55.6840   85.7720   25.9720 H   0  0  0  0  0  0  0  0  0  0  0  0
   56.2830   84.7790   24.6160 H   0  0  0  0  0  0  0  0  0  0  0  0
  2  1  1  0  0  0  0
  3 29  1  0  0  0  0
  3  2  2  0  0  0  0
  4  3  1  0  0  0  0
  5  4  2  0  0  0  0
  5  6  1  0  0  0  0
  6  7  2  0  0  0  0
  7  2  1  0  0  0  0
  7 32  1  0  0  0  0
  8 33  1  0  0  0  0
  8  5  1  0  0  0  0
  9  8  1  0  0  0  0
 10  9  2  0  0  0  0
 11  9  1  0  0  0  0
 11 34  1  1  0  0  0
 11 21  1  0  0  0  0
 12 11  1  0  0  0  0
 13 15  1  0  0  0  0
 13 12  1  0  0  0  0
 14 13  2  0  0  0  0
 15 16  1  0  0  0  0
 16 17  1  0  0  0  0
 16 21  2  0  0  0  0
 17 18  2  0  0  0  0
 18 23  1  0  0  0  0
 18 19  1  0  0  0  0
 20 19  2  0  0  0  0
 20 22  1  0  0  0  0
 21 20  1  0  0  0  0
 22 39  1  0  0  0  0
 23 28  1  0  0  0  0
 24 25  1  0  0  0  0
 24 23  1  0  0  0  0
 24 40  1  0  0  0  0
 25 26  1  0  0  0  0
 25 42  1  0  0  0  0
 26 27  1  0  0  0  0
 27 44  1  0  0  0  0
 27 45  1  0  0  0  0
 28 27  1  0  0  0  0
 28 46  1  0  0  0  0
 30  4  1  0  0  0  0
 31  6  1  0  0  0  0
 35 12  1  0  0  0  0
 36 12  1  0  0  0  0
 37 15  1  0  0  0  0
 38 22  1  0  0  0  0
 41 24  1  0  0  0  0
 43 25  1  0  0  0  0
 47 28  1  0  0  0  0
M  END
>  <Pose>
1

>  <Score>
-8.03

$$$$
