
 OpenBabel03202210083D

 49 52  0  0  0  0  0  0  0  0999 V2000
   53.9510   81.5720   20.4140 B   0  0  0  0  0  0  0  0  0  0  0  0
   53.8360   83.4930   20.2940 C   0  0  0  0  0  0  0  0  0  0  0  0
   53.7620   84.1250   19.0760 C   0  0  0  0  0  0  0  0  0  0  0  0
   53.6800   85.5240   18.9910 C   0  0  0  0  0  0  0  0  0  0  0  0
   53.6730   86.2930   20.1290 C   0  0  0  0  0  0  0  0  0  0  0  0
   53.7470   85.6360   21.3380 C   0  0  0  0  0  0  0  0  0  0  0  0
   53.8290   84.2660   21.4320 C   0  0  0  0  0  0  0  0  0  0  0  0
   53.5930   87.7190   20.0500 N   0  0  0  0  0  0  0  0  0  0  0  0
   54.3720   88.6540   20.6000 C   0  0  0  0  0  0  0  0  0  0  0  0
   55.3790   88.4000   21.3410 O   0  0  0  0  0  0  0  0  0  0  0  0
   53.9840   89.9390   20.2960 C   0  0  0  0  0  0  0  0  0  0  0  0
   52.9020   89.7760   19.5100 C   0  0  0  0  0  0  0  0  0  0  0  0
   52.4990   91.0300   19.1940 N   0  0  0  0  0  0  0  0  0  0  0  0
   53.2970   91.9190   19.7580 N   0  0  0  0  0  0  0  0  0  0  0  0
   54.2110   91.2540   20.4350 N   0  0  0  0  0  0  0  0  0  0  0  0
   55.2700   91.8590   21.1890 C   0  0  0  0  0  0  0  0  0  0  0  0
   54.8050   92.7290   22.2670 C   0  0  0  0  0  0  0  0  0  0  0  0
   53.7490   93.4210   22.1760 O   0  0  0  0  0  0  0  0  0  0  0  0
   55.5750   92.7950   23.4500 N   0  0  0  0  0  0  0  0  0  0  0  0
   55.3380   93.8520   24.3650 C   0  0  0  0  0  0  0  0  0  0  0  0
   56.3740   94.7280   24.5730 C   0  0  0  0  0  0  0  0  0  0  0  0
   56.2300   95.7810   25.4840 C   0  0  0  0  0  0  0  0  0  0  0  0
   55.0530   95.9340   26.1680 C   0  0  0  0  0  0  0  0  0  0  0  0
   53.9930   95.0520   25.9690 C   0  0  0  0  0  0  0  0  0  0  0  0
   54.1680   94.0210   25.0590 C   0  0  0  0  0  0  0  0  0  0  0  0
   52.8410   95.2660   26.6970 O   0  0  0  0  0  0  0  0  0  0  0  0
   52.5060   96.4050   27.4260 C   0  0  0  0  0  0  0  0  0  0  0  0
   57.3280   96.5980   25.6090 O   0  0  0  0  0  0  0  0  0  0  0  0
   57.6070   97.6690   24.7840 C   0  0  0  0  0  0  0  0  0  0  0  0
   52.6540   88.4320   19.3540 C   0  0  0  0  0  0  0  0  0  0  0  0
   51.7390   87.8780   18.6980 O   0  0  0  0  0  0  0  0  0  0  0  0
   53.7660   83.5280   18.1810 H   0  0  0  0  0  0  0  0  0  0  0  0
   53.6270   85.9980   18.0210 H   0  0  0  0  0  0  0  0  0  0  0  0
   53.7410   86.2690   22.2270 H   0  0  0  0  0  0  0  0  0  0  0  0
   53.8850   83.7600   22.3920 H   0  0  0  0  0  0  0  0  0  0  0  0
   51.6690   91.2370   18.5900 H   0  0  0  0  0  0  0  0  0  0  0  0
   53.1680   92.9610   19.6470 H   0  0  0  0  0  0  0  0  0  0  0  0
   55.9620   91.0930   21.6280 H   0  0  0  0  0  0  0  0  0  0  0  0
   55.9480   92.4800   20.5340 H   0  0  0  0  0  0  0  0  0  0  0  0
   56.3250   92.0640   23.6500 H   0  0  0  0  0  0  0  0  0  0  0  0
   57.3140   94.6000   24.0200 H   0  0  0  0  0  0  0  0  0  0  0  0
   54.9660   96.7560   26.8660 H   0  0  0  0  0  0  0  0  0  0  0  0
   53.3440   93.3350   24.8970 H   0  0  0  0  0  0  0  0  0  0  0  0
   51.8870   96.1220   28.3090 H   0  0  0  0  0  0  0  0  0  0  0  0
   51.8370   97.0940   26.8300 H   0  0  0  0  0  0  0  0  0  0  0  0
   53.3720   96.9880   27.7890 H   0  0  0  0  0  0  0  0  0  0  0  0
   58.0300   98.5110   25.3830 H   0  0  0  0  0  0  0  0  0  0  0  0
   56.7470   98.0440   24.2340 H   0  0  0  0  0  0  0  0  0  0  0  0
   58.4380   97.3520   24.0850 H   0  0  0  0  0  0  0  0  0  0  0  0
  2  1  1  0  0  0  0
  2  7  1  0  0  0  0
  3  2  2  0  0  0  0
  4  3  1  0  0  0  0
  4  5  2  0  0  0  0
  5  6  1  0  0  0  0
  6  7  2  0  0  0  0
  6 34  1  0  0  0  0
  7 35  1  0  0  0  0
  8  5  1  0  0  0  0
  8  9  1  0  0  0  0
  9 10  2  0  0  0  0
 11 15  1  0  0  0  0
 11  9  1  0  0  0  0
 12 11  2  0  0  0  0
 13 12  1  0  0  0  0
 13 14  1  0  0  0  0
 14 15  1  0  0  0  0
 15 16  1  0  0  0  0
 16 38  1  0  0  0  0
 16 17  1  0  0  0  0
 17 19  1  0  0  0  0
 18 17  2  0  0  0  0
 19 40  1  0  0  0  0
 19 20  1  0  0  0  0
 20 21  2  0  0  0  0
 20 25  1  0  0  0  0
 21 22  1  0  0  0  0
 22 28  1  0  0  0  0
 22 23  2  0  0  0  0
 23 42  1  0  0  0  0
 24 23  1  0  0  0  0
 24 26  1  0  0  0  0
 25 24  2  0  0  0  0
 26 27  1  0  0  0  0
 27 46  1  0  0  0  0
 27 44  1  0  0  0  0
 29 47  1  0  0  0  0
 29 28  1  0  0  0  0
 30 12  1  0  0  0  0
 30  8  1  0  0  0  0
 31 30  2  0  0  0  0
 32  3  1  0  0  0  0
 33  4  1  0  0  0  0
 36 13  1  0  0  0  0
 37 14  1  0  0  0  0
 39 16  1  0  0  0  0
 41 21  1  0  0  0  0
 43 25  1  0  0  0  0
 45 27  1  0  0  0  0
 48 29  1  0  0  0  0
 49 29  1  0  0  0  0
M  END
>  <Pose>
1

>  <Score>
-8.34

$$$$
