
 OpenBabel03202210083D

 38 42  0  0  1  0  0  0  0  0999 V2000
   52.8100   82.8210   20.5460 B   0  0  0  0  0  0  0  0  0  0  0  0
   52.8430   84.6100   19.9140 C   0  0  0  0  0  0  0  0  0  0  0  0
   52.3080   84.9020   18.6830 C   0  0  0  0  0  0  0  0  0  0  0  0
   52.3450   86.2090   18.2490 C   0  0  0  0  0  0  0  0  0  0  0  0
   52.8980   87.2180   19.0060 C   0  0  0  0  0  0  0  0  0  0  0  0
   53.4380   86.9240   20.2510 C   0  0  0  0  0  0  0  0  0  0  0  0
   53.3980   85.5980   20.6870 C   0  0  0  0  0  0  0  0  0  0  0  0
   52.9270   88.5750   18.5440 N   0  0  0  0  0  0  0  0  0  0  0  0
   54.0850   89.3910   18.6290 C   0  0  0  0  0  0  0  0  0  0  0  0
   55.2490   88.9490   18.7770 O   0  0  0  0  0  0  0  0  0  0  0  0
   53.6830   90.8190   18.5130 C   0  0  2  0  0  0  0  0  0  0  0  0
   53.4850   91.4610   19.8510 C   0  0  1  0  0  0  0  0  0  0  0  0
   52.4720   92.3940   19.5390 O   0  0  0  0  0  0  0  0  0  0  0  0
   51.5040   91.4550   19.1030 C   0  0  1  0  0  0  0  0  0  0  0  0
   52.2420   90.7740   18.0020 C   0  0  2  0  0  0  0  0  0  0  0  0
   51.8750   89.3330   17.9480 C   0  0  0  0  0  0  0  0  0  0  0  0
   50.8310   88.8910   17.4630 O   0  0  0  0  0  0  0  0  0  0  0  0
   51.4890   90.5560   20.2860 C   0  0  0  0  0  0  0  0  0  0  0  0
   52.7490   90.5180   20.7080 C   0  0  0  0  0  0  0  0  0  0  0  0
   54.6770   92.0860   20.4380 C   0  0  0  0  0  0  0  0  0  0  0  0
   55.6700   91.2000   20.7580 O   0  0  0  0  0  0  0  0  0  0  0  0
   55.7720   91.1250   22.1240 C   0  0  0  0  0  0  0  0  0  0  0  0
   54.7480   92.0610   22.6760 C   0  0  0  0  0  0  0  0  0  0  0  0
   54.3710   92.8170   21.5720 O   0  0  0  0  0  0  0  0  0  0  0  0
   51.8580   84.1380   18.0420 H   0  0  0  0  0  0  0  0  0  0  0  0
   51.9250   86.4770   17.2680 H   0  0  0  0  0  0  0  0  0  0  0  0
   53.8660   87.7230   20.8320 H   0  0  0  0  0  0  0  0  0  0  0  0
   53.8190   85.3700   21.6560 H   0  0  0  0  0  0  0  0  0  0  0  0
   54.3580   91.3580   17.8500 H   0  0  0  0  0  0  0  0  0  0  0  0
   50.5580   91.9010   18.8500 H   0  0  0  0  0  0  0  0  0  0  0  0
   52.1540   91.2490   17.0250 H   0  0  0  0  0  0  0  0  0  0  0  0
   50.5960   90.0730   20.6610 H   0  0  0  0  0  0  0  0  0  0  0  0
   53.0590   89.8790   21.5280 H   0  0  0  0  0  0  0  0  0  0  0  0
   55.0840   92.8160   19.6880 H   0  0  0  0  0  0  0  0  0  0  0  0
   56.7750   91.3930   22.5090 H   0  0  0  0  0  0  0  0  0  0  0  0
   55.4920   90.0830   22.4290 H   0  0  0  0  0  0  0  0  0  0  0  0
   55.1980   92.7190   23.4760 H   0  0  0  0  0  0  0  0  0  0  0  0
   53.8440   91.5400   23.0830 H   0  0  0  0  0  0  0  0  0  0  0  0
  2  1  1  0  0  0  0
  2  7  1  0  0  0  0
  3  2  2  0  0  0  0
  4  3  1  0  0  0  0
  4  5  2  0  0  0  0
  5  6  1  0  0  0  0
  6  7  2  0  0  0  0
  6 27  1  0  0  0  0
  7 28  1  0  0  0  0
  8  9  1  0  0  0  0
  8  5  1  0  0  0  0
  9 10  2  0  0  0  0
 11 29  1  6  0  0  0
 11  9  1  0  0  0  0
 11 12  1  0  0  0  0
 12 20  1  1  0  0  0
 12 19  1  0  0  0  0
 13 12  1  0  0  0  0
 14 30  1  6  0  0  0
 14 13  1  0  0  0  0
 14 18  1  0  0  0  0
 15 31  1  6  0  0  0
 15 11  1  0  0  0  0
 15 14  1  0  0  0  0
 16 15  1  0  0  0  0
 16  8  1  0  0  0  0
 17 16  2  0  0  0  0
 18 32  1  0  0  0  0
 18 19  2  0  0  0  0
 19 33  1  0  0  0  0
 20 21  1  0  0  0  0
 20 24  1  0  0  0  0
 21 22  1  0  0  0  0
 22 36  1  0  0  0  0
 22 35  1  0  0  0  0
 22 23  1  0  0  0  0
 23 38  1  0  0  0  0
 23 37  1  0  0  0  0
 24 23  1  0  0  0  0
 25  3  1  0  0  0  0
 26  4  1  0  0  0  0
 34 20  1  0  0  0  0
M  END
>  <Pose>
1

>  <Score>
-4.29

$$$$
