
 OpenBabel03202210083D

 41 44  0  0  1  0  0  0  0  0999 V2000
   45.8060  103.6340   32.3680 B   0  0  0  0  0  0  0  0  0  0  0  0
   47.0060  102.6560   31.2210 C   0  0  0  0  0  0  0  0  0  0  0  0
   48.3490  102.9330   31.2530 C   0  0  0  0  0  0  0  0  0  0  0  0
   49.1800  102.2340   30.4370 C   0  0  0  0  0  0  0  0  0  0  0  0
   48.7510  101.2370   29.5520 C   0  0  0  0  0  0  0  0  0  0  0  0
   47.4070  100.9790   29.5400 C   0  0  0  0  0  0  0  0  0  0  0  0
   46.5440  101.6780   30.3620 C   0  0  0  0  0  0  0  0  0  0  0  0
   49.6860  100.5590   28.7390 N   0  0  0  0  0  0  0  0  0  0  0  0
   50.3430  101.0270   27.5450 C   0  0  0  0  0  0  0  0  0  0  0  0
   50.5560  102.2340   27.2360 O   0  0  0  0  0  0  0  0  0  0  0  0
   50.7160   99.8280   26.7610 C   0  0  1  0  0  0  0  0  0  0  0  0
   51.9540   99.9570   26.0190 N   0  0  0  0  0  0  0  0  0  0  0  0
   52.4350   98.6190   26.1660 N   0  0  0  0  0  0  0  0  0  0  0  0
   52.1750   98.1880   27.5020 C   0  0  0  0  0  0  0  0  0  0  0  0
   51.1310   98.9110   27.8900 C   0  0  0  0  0  0  0  0  0  0  0  0
   50.1830   99.2320   28.9500 C   0  0  0  0  0  0  0  0  0  0  0  0
   49.9110   98.4060   29.8650 O   0  0  0  0  0  0  0  0  0  0  0  0
   52.8840   97.1770   28.2790 C   0  0  0  0  0  0  0  0  0  0  0  0
   52.3110   96.5080   29.1700 O   0  0  0  0  0  0  0  0  0  0  0  0
   54.2280   96.8990   28.0780 O   0  0  0  0  0  0  0  0  0  0  0  0
   54.6640   96.0270   27.0440 C   0  0  0  0  0  0  0  0  0  0  0  0
   55.8330   96.6460   26.3340 C   0  0  0  0  0  0  0  0  0  0  0  0
   56.5150   95.9350   25.3490 C   0  0  0  0  0  0  0  0  0  0  0  0
   57.5820   96.4640   24.6740 C   0  0  0  0  0  0  0  0  0  0  0  0
   58.0020   97.7550   24.9830 C   0  0  0  0  0  0  0  0  0  0  0  0
   57.3250   98.4540   25.9580 C   0  0  0  0  0  0  0  0  0  0  0  0
   56.2370   97.9050   26.6390 C   0  0  0  0  0  0  0  0  0  0  0  0
   48.7190  103.7030   31.9300 H   0  0  0  0  0  0  0  0  0  0  0  0
   50.2390  102.4490   30.4590 H   0  0  0  0  0  0  0  0  0  0  0  0
   46.9990  100.2210   28.8830 H   0  0  0  0  0  0  0  0  0  0  0  0
   45.4810  101.4810   30.3580 H   0  0  0  0  0  0  0  0  0  0  0  0
   49.9010   99.4090   26.1680 H   0  0  0  0  0  0  0  0  0  0  0  0
   52.5870  100.5360   26.6400 H   0  0  0  0  0  0  0  0  0  0  0  0
   52.8970   98.0480   25.4320 H   0  0  0  0  0  0  0  0  0  0  0  0
   54.8990   95.0250   27.4010 H   0  0  0  0  0  0  0  0  0  0  0  0
   53.8490   95.9520   26.2980 H   0  0  0  0  0  0  0  0  0  0  0  0
   56.2010   94.9450   25.1030 H   0  0  0  0  0  0  0  0  0  0  0  0
   58.1160   95.9190   23.9110 H   0  0  0  0  0  0  0  0  0  0  0  0
   58.8490   98.2060   24.4670 H   0  0  0  0  0  0  0  0  0  0  0  0
   57.6010   99.4500   26.2390 H   0  0  0  0  0  0  0  0  0  0  0  0
   55.7290   98.4800   27.3960 H   0  0  0  0  0  0  0  0  0  0  0  0
  2  3  1  0  0  0  0
  2  1  1  0  0  0  0
  3 28  1  0  0  0  0
  4 29  1  0  0  0  0
  4  3  2  0  0  0  0
  5  4  1  0  0  0  0
  6  5  2  0  0  0  0
  6  7  1  0  0  0  0
  7  2  2  0  0  0  0
  8 16  1  0  0  0  0
  8  5  1  0  0  0  0
  9  8  1  0  0  0  0
 10  9  2  0  0  0  0
 11 32  1  6  0  0  0
 11  9  1  0  0  0  0
 11 15  1  0  0  0  0
 12 13  1  0  0  0  0
 12 33  1  0  0  0  0
 12 11  1  0  0  0  0
 13 14  1  0  0  0  0
 14 15  2  0  0  0  0
 14 18  1  0  0  0  0
 15 16  1  0  0  0  0
 16 17  2  0  0  0  0
 18 19  2  0  0  0  0
 20 18  1  0  0  0  0
 21 35  1  0  0  0  0
 21 20  1  0  0  0  0
 22 27  1  0  0  0  0
 22 21  1  0  0  0  0
 23 22  2  0  0  0  0
 24 25  2  0  0  0  0
 24 23  1  0  0  0  0
 25 26  1  0  0  0  0
 26 40  1  0  0  0  0
 26 27  2  0  0  0  0
 27 41  1  0  0  0  0
 30  6  1  0  0  0  0
 31  7  1  0  0  0  0
 34 13  1  0  0  0  0
 36 21  1  0  0  0  0
 37 23  1  0  0  0  0
 38 24  1  0  0  0  0
 39 25  1  0  0  0  0
M  END
>  <Pose>
1

>  <Score>
-6.81

$$$$
