
 OpenBabel03202210083D

 44 47  0  0  0  0  0  0  0  0999 V2000
   57.1140   98.0860   25.7800 B   0  0  0  0  0  0  0  0  0  0  0  0
   56.5600   96.3660   25.2420 C   0  0  0  0  0  0  0  0  0  0  0  0
   55.3210   95.8550   25.5690 C   0  0  0  0  0  0  0  0  0  0  0  0
   54.9340   94.5790   25.1590 C   0  0  0  0  0  0  0  0  0  0  0  0
   55.7960   93.8070   24.4130 C   0  0  0  0  0  0  0  0  0  0  0  0
   57.0220   94.3490   24.1060 C   0  0  0  0  0  0  0  0  0  0  0  0
   57.4290   95.5970   24.4940 C   0  0  0  0  0  0  0  0  0  0  0  0
   55.4960   92.5050   23.9530 N   0  0  0  0  0  0  0  0  0  0  0  0
   55.8220   91.3670   24.7900 C   0  0  0  0  0  0  0  0  0  0  0  0
   55.5040   90.0430   24.1350 C   0  0  0  0  0  0  0  0  0  0  0  0
   56.0090   90.1320   22.6870 C   0  0  0  0  0  0  0  0  0  0  0  0
   55.1170   91.0580   22.0380 N   0  0  0  0  0  0  0  0  0  0  0  0
   54.8840   92.2320   22.6990 C   0  0  0  0  0  0  0  0  0  0  0  0
   54.0370   92.9720   21.9640 N   0  0  0  0  0  0  0  0  0  0  0  0
   53.7560   92.2470   20.8530 C   0  0  0  0  0  0  0  0  0  0  0  0
   54.4330   91.0380   20.8910 C   0  0  0  0  0  0  0  0  0  0  0  0
   54.3030   90.1240   19.8630 C   0  0  0  0  0  0  0  0  0  0  0  0
   54.9440   89.0230   19.9370 O   0  0  0  0  0  0  0  0  0  0  0  0
   53.5100   90.4170   18.8170 N   0  0  0  0  0  0  0  0  0  0  0  0
   52.8650   91.5970   18.8050 C   0  0  0  0  0  0  0  0  0  0  0  0
   52.1330   91.8310   17.8060 O   0  0  0  0  0  0  0  0  0  0  0  0
   52.9750   92.4930   19.7860 N   0  0  0  0  0  0  0  0  0  0  0  0
   52.2610   93.7610   19.7400 C   0  0  0  0  0  0  0  0  0  0  0  0
   53.3680   89.4630   17.7310 C   0  0  0  0  0  0  0  0  0  0  0  0
   52.1830   88.5880   18.0170 C   0  0  0  0  0  0  0  0  0  0  0  0
   51.2530   88.4830   17.1840 O   0  0  0  0  0  0  0  0  0  0  0  0
   52.0810   87.8610   19.2240 N   0  0  0  0  0  0  0  0  0  0  0  0
   54.6250   96.4450   26.1570 H   0  0  0  0  0  0  0  0  0  0  0  0
   53.9540   94.2200   25.4370 H   0  0  0  0  0  0  0  0  0  0  0  0
   57.7470   93.7730   23.5100 H   0  0  0  0  0  0  0  0  0  0  0  0
   58.4050   95.9680   24.2210 H   0  0  0  0  0  0  0  0  0  0  0  0
   56.9350   91.3600   24.9740 H   0  0  0  0  0  0  0  0  0  0  0  0
   55.3460   91.4440   25.7950 H   0  0  0  0  0  0  0  0  0  0  0  0
   54.3920   89.8810   24.1260 H   0  0  0  0  0  0  0  0  0  0  0  0
   56.0300   89.2390   24.6430 H   0  0  0  0  0  0  0  0  0  0  0  0
   56.0520   89.1530   22.2070 H   0  0  0  0  0  0  0  0  0  0  0  0
   57.0140   90.6330   22.7670 H   0  0  0  0  0  0  0  0  0  0  0  0
   52.2270   94.2320   20.7200 H   0  0  0  0  0  0  0  0  0  0  0  0
   52.6590   94.3930   18.9290 H   0  0  0  0  0  0  0  0  0  0  0  0
   51.2090   93.4950   19.4380 H   0  0  0  0  0  0  0  0  0  0  0  0
   54.2790   88.8550   17.6300 H   0  0  0  0  0  0  0  0  0  0  0  0
   53.1680   90.0170   16.8020 H   0  0  0  0  0  0  0  0  0  0  0  0
   52.0860   88.3200   20.1630 H   0  0  0  0  0  0  0  0  0  0  0  0
   51.9930   86.8140   19.2250 H   0  0  0  0  0  0  0  0  0  0  0  0
  2  3  1  0  0  0  0
  2  1  1  0  0  0  0
  3 28  1  0  0  0  0
  4 29  1  0  0  0  0
  4  3  2  0  0  0  0
  5  4  1  0  0  0  0
  6  5  2  0  0  0  0
  6  7  1  0  0  0  0
  7  2  2  0  0  0  0
  8  5  1  0  0  0  0
  8  9  1  0  0  0  0
  9 32  1  0  0  0  0
  9 33  1  0  0  0  0
 10 35  1  0  0  0  0
 10  9  1  0  0  0  0
 11 37  1  0  0  0  0
 11 10  1  0  0  0  0
 12 11  1  0  0  0  0
 12 13  1  0  0  0  0
 13  8  1  0  0  0  0
 14 13  2  0  0  0  0
 15 16  2  0  0  0  0
 15 14  1  0  0  0  0
 16 12  1  0  0  0  0
 17 18  2  0  0  0  0
 17 16  1  0  0  0  0
 19 17  1  0  0  0  0
 20 19  1  0  0  0  0
 20 22  1  0  0  0  0
 21 20  2  0  0  0  0
 22 15  1  0  0  0  0
 23 22  1  0  0  0  0
 23 38  1  0  0  0  0
 24 25  1  0  0  0  0
 24 19  1  0  0  0  0
 25 27  1  0  0  0  0
 26 25  2  0  0  0  0
 27 44  1  0  0  0  0
 27 43  1  0  0  0  0
 30  6  1  0  0  0  0
 31  7  1  0  0  0  0
 34 10  1  0  0  0  0
 36 11  1  0  0  0  0
 39 23  1  0  0  0  0
 40 23  1  0  0  0  0
 41 24  1  0  0  0  0
 42 24  1  0  0  0  0
M  END
>  <Pose>
1

>  <Score>
-6.74

$$$$
