
 OpenBabel03202210083D

 49 52  0  0  1  0  0  0  0  0999 V2000
   51.2460   99.5490   27.6560 B   0  0  0  0  0  0  0  0  0  0  0  0
   52.6100   98.2480   27.2930 C   0  0  0  0  0  0  0  0  0  0  0  0
   52.3090   96.9060   27.3640 C   0  0  0  0  0  0  0  0  0  0  0  0
   53.3030   95.9590   27.0990 C   0  0  0  0  0  0  0  0  0  0  0  0
   54.5800   96.3470   26.7680 C   0  0  0  0  0  0  0  0  0  0  0  0
   54.8590   97.6890   26.7020 C   0  0  0  0  0  0  0  0  0  0  0  0
   53.8920   98.6330   26.9600 C   0  0  0  0  0  0  0  0  0  0  0  0
   55.5520   95.4060   26.5080 O   0  0  0  0  0  0  0  0  0  0  0  0
   55.9310   95.1500   25.1870 C   0  0  0  0  0  0  0  0  0  0  0  0
   55.4140   93.8700   24.6710 C   0  0  0  0  0  0  0  0  0  0  0  0
   55.4220   92.8590   25.3950 O   0  0  0  0  0  0  0  0  0  0  0  0
   54.9100   93.7990   23.3570 N   0  0  0  0  0  0  0  0  0  0  0  0
   55.0190   92.6280   22.5510 C   0  0  0  0  0  0  0  0  0  0  0  0
   55.4280   91.4570   23.0730 N   0  0  0  0  0  0  0  0  0  0  0  0
   55.5140   90.3890   22.2970 C   0  0  0  0  0  0  0  0  0  0  0  0
   55.8870   89.1340   22.5790 N   0  0  0  0  0  0  0  0  0  0  0  0
   55.7880   88.4530   21.4140 C   0  0  0  0  0  0  0  0  0  0  0  0
   55.3660   89.2650   20.4400 N   0  0  0  0  0  0  0  0  0  0  0  0
   55.1800   90.4880   20.9400 C   0  0  0  0  0  0  0  0  0  0  0  0
   54.7600   91.6880   20.3970 C   0  0  0  0  0  0  0  0  0  0  0  0
   54.6930   92.7310   21.2290 N   0  0  0  0  0  0  0  0  0  0  0  0
   54.4420   91.7290   19.0480 O   0  0  0  0  0  0  0  0  0  0  0  0
   56.3110   88.5360   23.7860 C   0  0  2  0  0  0  0  0  0  0  0  0
   56.7040   87.2040   23.6010 O   0  0  0  0  0  0  0  0  0  0  0  0
   55.5730   86.4940   23.9960 C   0  0  2  0  0  0  0  0  0  0  0  0
   55.3110   87.1350   25.3510 C   0  0  1  0  0  0  0  0  0  0  0  0
   55.4020   88.6020   24.9400 C   0  0  1  0  0  0  0  0  0  0  0  0
   55.9410   89.3650   26.0000 O   0  0  0  0  0  0  0  0  0  0  0  0
   54.1040   86.7950   25.8950 O   0  0  0  0  0  0  0  0  0  0  0  0
   55.8290   85.0190   24.1060 C   0  0  0  0  0  0  0  0  0  0  0  0
   56.6230   84.6710   25.1640 O   0  0  0  0  0  0  0  0  0  0  0  0
   51.3090   96.6110   27.6230 H   0  0  0  0  0  0  0  0  0  0  0  0
   52.9940   94.9310   27.1750 H   0  0  0  0  0  0  0  0  0  0  0  0
   55.8510   98.0750   26.4450 H   0  0  0  0  0  0  0  0  0  0  0  0
   54.0890   99.6980   26.9140 H   0  0  0  0  0  0  0  0  0  0  0  0
   57.0530   95.0680   25.1720 H   0  0  0  0  0  0  0  0  0  0  0  0
   55.6990   95.9910   24.5010 H   0  0  0  0  0  0  0  0  0  0  0  0
   54.4260   94.6370   22.9230 H   0  0  0  0  0  0  0  0  0  0  0  0
   56.0140   87.3890   21.2550 H   0  0  0  0  0  0  0  0  0  0  0  0
   54.6460   92.6140   18.5700 H   0  0  0  0  0  0  0  0  0  0  0  0
   57.2750   89.0440   24.0990 H   0  0  0  0  0  0  0  0  0  0  0  0
   54.6850   86.7250   23.3750 H   0  0  0  0  0  0  0  0  0  0  0  0
   56.1600   86.9330   26.0380 H   0  0  0  0  0  0  0  0  0  0  0  0
   54.4010   88.9660   24.7830 H   0  0  0  0  0  0  0  0  0  0  0  0
   55.2790   89.3010   26.7330 H   0  0  0  0  0  0  0  0  0  0  0  0
   53.3380   87.3500   25.5420 H   0  0  0  0  0  0  0  0  0  0  0  0
   56.2000   84.6780   23.1200 H   0  0  0  0  0  0  0  0  0  0  0  0
   54.8310   84.5300   24.2370 H   0  0  0  0  0  0  0  0  0  0  0  0
   56.2190   85.0350   25.9950 H   0  0  0  0  0  0  0  0  0  0  0  0
  2  3  1  0  0  0  0
  2  1  1  0  0  0  0
  3 32  1  0  0  0  0
  4 33  1  0  0  0  0
  4  3  2  0  0  0  0
  5  4  1  0  0  0  0
  6  5  2  0  0  0  0
  6  7  1  0  0  0  0
  7  2  2  0  0  0  0
  8  5  1  0  0  0  0
  9  8  1  0  0  0  0
 10  9  1  0  0  0  0
 10 11  2  0  0  0  0
 12 10  1  0  0  0  0
 13 14  2  0  0  0  0
 13 12  1  0  0  0  0
 15 16  1  0  0  0  0
 15 14  1  0  0  0  0
 16 23  1  0  0  0  0
 17 16  1  0  0  0  0
 18 19  1  0  0  0  0
 18 17  2  0  0  0  0
 19 15  2  0  0  0  0
 20 19  1  0  0  0  0
 20 21  2  0  0  0  0
 21 13  1  0  0  0  0
 22 20  1  0  0  0  0
 23 41  1  1  0  0  0
 23 27  1  0  0  0  0
 24 23  1  0  0  0  0
 24 25  1  0  0  0  0
 25 42  1  6  0  0  0
 25 30  1  0  0  0  0
 25 26  1  0  0  0  0
 26 29  1  0  0  0  0
 26 43  1  1  0  0  0
 27 44  1  6  0  0  0
 27 26  1  0  0  0  0
 27 28  1  0  0  0  0
 28 45  1  0  0  0  0
 30 48  1  0  0  0  0
 30 31  1  0  0  0  0
 31 49  1  0  0  0  0
 34  6  1  0  0  0  0
 35  7  1  0  0  0  0
 36  9  1  0  0  0  0
 37  9  1  0  0  0  0
 38 12  1  0  0  0  0
 39 17  1  0  0  0  0
 40 22  1  0  0  0  0
 46 29  1  0  0  0  0
 47 30  1  0  0  0  0
M  END
>  <Pose>
1

>  <Score>
-8.41

$$$$
