
 OpenBabel03202210083D

 56 59  0  0  1  0  0  0  0  0999 V2000
   51.6650   83.7520   23.1380 B   0  0  0  0  0  0  0  0  0  0  0  0
   53.1010   84.8920   23.6330 C   0  0  0  0  0  0  0  0  0  0  0  0
   53.3250   85.1370   24.9610 C   0  0  0  0  0  0  0  0  0  0  0  0
   54.3660   85.9640   25.3240 C   0  0  0  0  0  0  0  0  0  0  0  0
   55.1970   86.5570   24.3950 C   0  0  0  0  0  0  0  0  0  0  0  0
   54.9390   86.2840   23.0320 C   0  0  0  0  0  0  0  0  0  0  0  0
   53.9150   85.4710   22.6800 C   0  0  0  0  0  0  0  0  0  0  0  0
   56.2020   87.3480   24.6830 O   0  0  0  0  0  0  0  0  0  0  0  0
   56.7910   88.4840   24.9880 C   0  0  0  0  0  0  0  0  0  0  0  0
   55.9590   89.7140   24.8080 C   0  0  1  0  0  0  0  0  0  0  0  0
   55.5730   90.1510   26.0840 O   0  0  0  0  0  0  0  0  0  0  0  0
   56.5530   90.8200   23.9870 C   0  0  0  0  0  0  0  0  0  0  0  0
   55.6990   91.3540   22.9480 N   0  0  0  0  0  0  0  0  0  0  0  0
   55.3890   90.7410   21.7820 C   0  0  0  0  0  0  0  0  0  0  0  0
   54.6060   91.5950   21.0380 C   0  0  0  0  0  0  0  0  0  0  0  0
   54.4730   92.6770   21.7780 N   0  0  0  0  0  0  0  0  0  0  0  0
   55.1330   92.5700   22.9730 C   0  0  0  0  0  0  0  0  0  0  0  0
   55.0930   93.5800   24.0000 N   0  0  0  0  0  0  0  0  0  0  0  0
   56.4290   93.9380   24.5250 C   0  0  0  0  0  0  0  0  0  0  0  0
   56.4610   95.1630   25.3450 C   0  0  0  0  0  0  0  0  0  0  0  0
   55.2700   95.3580   26.1330 N   0  0  0  0  0  0  0  0  0  0  0  0
   54.2000   95.5250   25.2010 C   0  0  0  0  0  0  0  0  0  0  0  0
   53.9110   94.2310   24.4410 C   0  0  0  0  0  0  0  0  0  0  0  0
   55.0800   94.3360   27.1090 C   0  0  0  0  0  0  0  0  0  0  0  0
   54.1120   91.2950   19.8020 N   0  0  0  0  0  0  0  0  0  0  0  0
   54.4130   90.0990   19.2950 C   0  0  0  0  0  0  0  0  0  0  0  0
   53.9660   89.8050   18.1530 O   0  0  0  0  0  0  0  0  0  0  0  0
   55.1710   89.2460   19.9960 N   0  0  0  0  0  0  0  0  0  0  0  0
   55.6750   89.5150   21.2230 C   0  0  0  0  0  0  0  0  0  0  0  0
   56.3740   88.7050   21.8500 O   0  0  0  0  0  0  0  0  0  0  0  0
   53.2960   92.2760   19.0850 C   0  0  0  0  0  0  0  0  0  0  0  0
   52.6900   84.6810   25.7190 H   0  0  0  0  0  0  0  0  0  0  0  0
   54.4880   86.1300   26.3780 H   0  0  0  0  0  0  0  0  0  0  0  0
   55.5810   86.7430   22.2990 H   0  0  0  0  0  0  0  0  0  0  0  0
   53.7400   85.2710   21.6150 H   0  0  0  0  0  0  0  0  0  0  0  0
   57.2290   88.5040   26.0650 H   0  0  0  0  0  0  0  0  0  0  0  0
   57.7390   88.6910   24.3470 H   0  0  0  0  0  0  0  0  0  0  0  0
   55.0290   89.4030   24.2300 H   0  0  0  0  0  0  0  0  0  0  0  0
   54.6460   90.5490   26.0230 H   0  0  0  0  0  0  0  0  0  0  0  0
   57.5850   90.5990   23.6630 H   0  0  0  0  0  0  0  0  0  0  0  0
   56.7210   91.6570   24.7430 H   0  0  0  0  0  0  0  0  0  0  0  0
   56.8620   93.0390   25.0250 H   0  0  0  0  0  0  0  0  0  0  0  0
   57.0910   94.1060   23.6260 H   0  0  0  0  0  0  0  0  0  0  0  0
   57.3790   95.1630   25.9460 H   0  0  0  0  0  0  0  0  0  0  0  0
   56.5080   96.0570   24.6550 H   0  0  0  0  0  0  0  0  0  0  0  0
   53.2680   95.8210   25.7460 H   0  0  0  0  0  0  0  0  0  0  0  0
   54.4380   96.3340   24.5110 H   0  0  0  0  0  0  0  0  0  0  0  0
   53.3950   94.6150   23.5050 H   0  0  0  0  0  0  0  0  0  0  0  0
   53.2430   93.6780   25.1090 H   0  0  0  0  0  0  0  0  0  0  0  0
   55.3430   94.7560   28.1210 H   0  0  0  0  0  0  0  0  0  0  0  0
   54.0600   93.9170   27.1610 H   0  0  0  0  0  0  0  0  0  0  0  0
   55.7680   93.4590   26.9920 H   0  0  0  0  0  0  0  0  0  0  0  0
   55.3850   88.3210   19.5680 H   0  0  0  0  0  0  0  0  0  0  0  0
   53.2550   92.0670   18.0130 H   0  0  0  0  0  0  0  0  0  0  0  0
   53.8110   93.2550   19.1940 H   0  0  0  0  0  0  0  0  0  0  0  0
   52.2730   92.3100   19.4960 H   0  0  0  0  0  0  0  0  0  0  0  0
  1  2  1  0  0  0  0
  2  3  1  0  0  0  0
  3  4  2  0  0  0  0
  3 32  1  0  0  0  0
  4 33  1  0  0  0  0
  5  8  1  0  0  0  0
  5  4  1  0  0  0  0
  6  5  2  0  0  0  0
  7  6  1  0  0  0  0
  7  2  2  0  0  0  0
  8  9  1  0  0  0  0
  9 36  1  0  0  0  0
 10 38  1  6  0  0  0
 10  9  1  0  0  0  0
 10 11  1  0  0  0  0
 12 41  1  0  0  0  0
 12 10  1  0  0  0  0
 13 17  1  0  0  0  0
 13 12  1  0  0  0  0
 14 13  1  0  0  0  0
 15 16  1  0  0  0  0
 15 14  2  0  0  0  0
 16 17  2  0  0  0  0
 17 18  1  0  0  0  0
 18 23  1  0  0  0  0
 18 19  1  0  0  0  0
 19 42  1  0  0  0  0
 19 20  1  0  0  0  0
 20 44  1  0  0  0  0
 20 21  1  0  0  0  0
 21 24  1  0  0  0  0
 22 46  1  0  0  0  0
 22 21  1  0  0  0  0
 23 49  1  0  0  0  0
 23 22  1  0  0  0  0
 24 51  1  0  0  0  0
 24 50  1  0  0  0  0
 25 15  1  0  0  0  0
 26 25  1  0  0  0  0
 26 28  1  0  0  0  0
 27 26  2  0  0  0  0
 28 29  1  0  0  0  0
 29 14  1  0  0  0  0
 29 30  2  0  0  0  0
 31 55  1  0  0  0  0
 31 56  1  0  0  0  0
 31 25  1  0  0  0  0
 34  6  1  0  0  0  0
 35  7  1  0  0  0  0
 37  9  1  0  0  0  0
 39 11  1  0  0  0  0
 40 12  1  0  0  0  0
 43 19  1  0  0  0  0
 45 20  1  0  0  0  0
 47 22  1  0  0  0  0
 48 23  1  0  0  0  0
 52 24  1  0  0  0  0
 53 28  1  0  0  0  0
 54 31  1  0  0  0  0
M  END
>  <Pose>
1

>  <Score>
-7.42

$$$$
