
 OpenBabel03202210083D

 39 43  0  0  1  0  0  0  0  0999 V2000
   55.0570   92.3760   22.5030 B   0  0  0  0  0  0  0  0  0  0  0  0
   55.5720   90.5360   22.4110 C   0  0  0  0  0  0  0  0  0  0  0  0
   55.8800   89.8390   23.5640 C   0  0  0  0  0  0  0  0  0  0  0  0
   56.2590   88.5130   23.5140 C   0  0  0  0  0  0  0  0  0  0  0  0
   56.3700   87.7870   22.3510 C   0  0  0  0  0  0  0  0  0  0  0  0
   56.0650   88.4830   21.2130 C   0  0  0  0  0  0  0  0  0  0  0  0
   55.6740   89.8240   21.2040 C   0  0  0  0  0  0  0  0  0  0  0  0
   55.5000   90.5740   19.9590 C   0  0  0  0  0  0  0  0  0  0  0  0
   54.2360   90.6690   19.3590 N   0  0  2  0  0  4  0  0  0  0  0  0
   54.6120   90.6110   17.9010 C   0  0  0  0  0  0  0  0  0  0  0  0
   53.5900   90.9810   17.0160 N   0  0  2  0  0  0  0  0  0  0  0  0
   53.1630   92.3190   17.3830 C   0  0  0  0  0  0  0  0  0  0  0  0
   52.5840   92.2360   18.7020 N   0  0  2  0  0  0  0  0  0  0  0  0
   53.5730   91.9310   19.6850 C   0  0  0  0  0  0  0  0  0  0  0  0
   51.5060   91.2470   18.8100 C   0  0  0  0  0  0  0  0  0  0  0  0
   52.0980   89.9440   18.5510 N   0  0  2  0  0  0  0  0  0  0  0  0
   53.2210   89.6690   19.4720 C   0  0  0  0  0  0  0  0  0  0  0  0
   52.5320   89.9770   17.1750 C   0  0  0  0  0  0  0  0  0  0  0  0
   56.7820   86.5260   22.7500 O   0  0  0  0  0  0  0  0  0  0  0  0
   57.5210   86.6770   23.9940 C   0  0  0  0  0  0  0  0  0  0  0  0
   56.6120   87.6480   24.5940 O   0  0  0  0  0  0  0  0  0  0  0  0
   55.8090   90.4240   24.4500 H   0  0  0  0  0  0  0  0  0  0  0  0
   56.1420   87.9160   20.2400 H   0  0  0  0  0  0  0  0  0  0  0  0
   56.1490   90.0240   19.1630 H   0  0  0  0  0  0  0  0  0  0  0  0
   56.0750   91.5260   20.0920 H   0  0  0  0  0  0  0  0  0  0  0  0
   54.8400   89.5070   17.7870 H   0  0  0  0  0  0  0  0  0  0  0  0
   55.5430   91.1350   17.7150 H   0  0  0  0  0  0  0  0  0  0  0  0
   52.5060   92.8130   16.6610 H   0  0  0  0  0  0  0  0  0  0  0  0
   54.1250   92.9000   17.5050 H   0  0  0  0  0  0  0  0  0  0  0  0
   54.2140   92.7790   19.8080 H   0  0  0  0  0  0  0  0  0  0  0  0
   52.9960   91.6700   20.6270 H   0  0  0  0  0  0  0  0  0  0  0  0
   51.0500   91.3660   19.7830 H   0  0  0  0  0  0  0  0  0  0  0  0
   50.8310   91.4530   17.9580 H   0  0  0  0  0  0  0  0  0  0  0  0
   53.5460   88.6220   19.2520 H   0  0  0  0  0  0  0  0  0  0  0  0
   52.7750   89.7100   20.5050 H   0  0  0  0  0  0  0  0  0  0  0  0
   52.9140   89.0380   16.8070 H   0  0  0  0  0  0  0  0  0  0  0  0
   51.6650   90.3710   16.5990 H   0  0  0  0  0  0  0  0  0  0  0  0
   58.4490   87.3040   23.8530 H   0  0  0  0  0  0  0  0  0  0  0  0
   57.6200   85.7750   24.5530 H   0  0  0  0  0  0  0  0  0  0  0  0
  2  1  1  0  0  0  0
  2  3  1  0  0  0  0
  3 22  1  0  0  0  0
  4  3  2  0  0  0  0
  4 21  1  0  0  0  0
  5 19  1  0  0  0  0
  5  4  1  0  0  0  0
  6  5  2  0  0  0  0
  7  6  1  0  0  0  0
  7  2  2  0  0  0  0
  8 25  1  0  0  0  0
  8  7  1  0  0  0  0
  9 17  1  0  0  0  0
  9 14  1  0  0  0  0
  9  8  1  1  0  0  0
 10  9  1  0  0  0  0
 11 18  1  1  0  0  0
 11 12  1  0  0  0  0
 11 10  1  0  0  0  0
 12 29  1  0  0  0  0
 13 12  1  6  0  0  0
 13 15  1  0  0  0  0
 13 14  1  0  0  0  0
 14 30  1  0  0  0  0
 14 31  1  0  0  0  0
 15 32  1  0  0  0  0
 16 18  1  6  0  0  0
 16 15  1  0  0  0  0
 16 17  1  0  0  0  0
 17 35  1  0  0  0  0
 19 20  1  0  0  0  0
 20 39  1  0  0  0  0
 20 21  1  0  0  0  0
 23  6  1  0  0  0  0
 24  8  1  0  0  0  0
 26 10  1  0  0  0  0
 27 10  1  0  0  0  0
 28 12  1  0  0  0  0
 33 15  1  0  0  0  0
 34 17  1  0  0  0  0
 36 18  1  0  0  0  0
 37 18  1  0  0  0  0
 38 20  1  0  0  0  0
M  END
>  <Pose>
1

>  <Score>
-5.97

$$$$
