
 OpenBabel03202210083D

 49 52  0  0  0  0  0  0  0  0999 V2000
   48.1250  100.6290   28.5120 B   0  0  0  0  0  0  0  0  0  0  0  0
   49.8670   99.9870   28.0710 C   0  0  0  0  0  0  0  0  0  0  0  0
   50.1030   98.6270   28.0930 C   0  0  0  0  0  0  0  0  0  0  0  0
   51.3470   98.1100   27.7810 C   0  0  0  0  0  0  0  0  0  0  0  0
   52.3470   99.0020   27.4470 C   0  0  0  0  0  0  0  0  0  0  0  0
   52.0990  100.3590   27.4280 C   0  0  0  0  0  0  0  0  0  0  0  0
   50.8600  100.8830   27.7370 C   0  0  0  0  0  0  0  0  0  0  0  0
   53.5390   98.2210   27.1660 C   0  0  0  0  0  0  0  0  0  0  0  0
   54.6540   98.7310   26.8250 O   0  0  0  0  0  0  0  0  0  0  0  0
   53.2230   96.8480   27.3420 N   0  0  0  0  0  0  0  0  0  0  0  0
   51.8750   96.7380   27.7240 C   0  0  0  0  0  0  0  0  0  0  0  0
   51.2190   95.6890   27.9730 O   0  0  0  0  0  0  0  0  0  0  0  0
   54.1840   95.7850   27.1450 C   0  0  0  0  0  0  0  0  0  0  0  0
   54.4300   95.4620   25.7190 C   0  0  0  0  0  0  0  0  0  0  0  0
   55.3590   94.2860   25.6150 C   0  0  0  0  0  0  0  0  0  0  0  0
   56.3860   94.4110   24.5550 C   0  0  0  0  0  0  0  0  0  0  0  0
   57.4490   95.0700   24.6900 O   0  0  0  0  0  0  0  0  0  0  0  0
   56.2050   93.7600   23.2820 N   0  0  0  0  0  0  0  0  0  0  0  0
   57.3420   93.3940   22.4680 C   0  0  0  0  0  0  0  0  0  0  0  0
   57.2370   92.0270   21.8780 C   0  0  0  0  0  0  0  0  0  0  0  0
   56.0210   91.3250   22.2150 N   0  0  0  0  0  0  0  0  0  0  0  0
   54.7630   91.9610   22.5020 C   0  0  0  0  0  0  0  0  0  0  0  0
   54.8900   93.4420   22.7590 C   0  0  0  0  0  0  0  0  0  0  0  0
   56.0710   89.8960   22.2670 C   0  0  0  0  0  0  0  0  0  0  0  0
   56.2610   89.2310   23.4390 N   0  0  0  0  0  0  0  0  0  0  0  0
   56.3130   87.9030   23.5290 C   0  0  0  0  0  0  0  0  0  0  0  0
   56.1700   87.1480   22.3750 C   0  0  0  0  0  0  0  0  0  0  0  0
   55.9800   87.7780   21.1910 N   0  0  0  0  0  0  0  0  0  0  0  0
   55.9320   89.1190   21.1390 C   0  0  0  0  0  0  0  0  0  0  0  0
   49.3410   97.8930   28.3510 H   0  0  0  0  0  0  0  0  0  0  0  0
   52.9170  101.0190   27.1590 H   0  0  0  0  0  0  0  0  0  0  0  0
   50.7020  101.9500   27.7120 H   0  0  0  0  0  0  0  0  0  0  0  0
   53.8060   94.8960   27.6730 H   0  0  0  0  0  0  0  0  0  0  0  0
   55.1520   96.1380   27.6120 H   0  0  0  0  0  0  0  0  0  0  0  0
   54.7720   96.3190   25.1120 H   0  0  0  0  0  0  0  0  0  0  0  0
   53.4670   95.1440   25.2150 H   0  0  0  0  0  0  0  0  0  0  0  0
   55.8800   94.0810   26.5800 H   0  0  0  0  0  0  0  0  0  0  0  0
   54.7740   93.3670   25.3970 H   0  0  0  0  0  0  0  0  0  0  0  0
   58.2850   93.5480   23.0270 H   0  0  0  0  0  0  0  0  0  0  0  0
   57.3740   94.1470   21.6310 H   0  0  0  0  0  0  0  0  0  0  0  0
   57.2700   92.0670   20.7520 H   0  0  0  0  0  0  0  0  0  0  0  0
   58.1140   91.4030   22.1650 H   0  0  0  0  0  0  0  0  0  0  0  0
   54.0850   91.8110   21.6580 H   0  0  0  0  0  0  0  0  0  0  0  0
   54.3900   91.5050   23.4590 H   0  0  0  0  0  0  0  0  0  0  0  0
   54.0800   93.8250   23.4110 H   0  0  0  0  0  0  0  0  0  0  0  0
   54.8330   93.9610   21.7570 H   0  0  0  0  0  0  0  0  0  0  0  0
   56.4650   87.3910   24.4710 H   0  0  0  0  0  0  0  0  0  0  0  0
   56.2070   86.0810   22.4120 H   0  0  0  0  0  0  0  0  0  0  0  0
   55.7800   89.5880   20.1810 H   0  0  0  0  0  0  0  0  0  0  0  0
  2  3  1  0  0  0  0
  2  1  1  0  0  0  0
  3 30  1  0  0  0  0
  4  3  2  0  0  0  0
  5  4  1  0  0  0  0
  6  5  2  0  0  0  0
  6  7  1  0  0  0  0
  7  2  2  0  0  0  0
  8 10  1  0  0  0  0
  8  5  1  0  0  0  0
  9  8  2  0  0  0  0
 10 11  1  0  0  0  0
 11  4  1  0  0  0  0
 11 12  2  0  0  0  0
 13 10  1  0  0  0  0
 13 34  1  0  0  0  0
 13 33  1  0  0  0  0
 14 13  1  0  0  0  0
 15 14  1  0  0  0  0
 15 37  1  0  0  0  0
 16 17  2  0  0  0  0
 16 15  1  0  0  0  0
 18 16  1  0  0  0  0
 19 39  1  0  0  0  0
 19 18  1  0  0  0  0
 20 42  1  0  0  0  0
 20 21  1  0  0  0  0
 20 19  1  0  0  0  0
 21 24  1  0  0  0  0
 21 22  1  0  0  0  0
 22 23  1  0  0  0  0
 22 44  1  0  0  0  0
 23 18  1  0  0  0  0
 23 45  1  0  0  0  0
 24 25  1  0  0  0  0
 25 26  2  0  0  0  0
 26 47  1  0  0  0  0
 27 48  1  0  0  0  0
 27 26  1  0  0  0  0
 28 27  2  0  0  0  0
 29 28  1  0  0  0  0
 29 24  2  0  0  0  0
 31  6  1  0  0  0  0
 32  7  1  0  0  0  0
 35 14  1  0  0  0  0
 36 14  1  0  0  0  0
 38 15  1  0  0  0  0
 40 19  1  0  0  0  0
 41 20  1  0  0  0  0
 43 22  1  0  0  0  0
 46 23  1  0  0  0  0
 49 29  1  0  0  0  0
M  END
>  <Pose>
1

>  <Score>
-6.10

$$$$
