
 OpenBabel03202210083D

 58 61  0  0  0  0  0  0  0  0999 V2000
   52.3900   91.9750   18.8330 B   0  0  0  0  0  0  0  0  0  0  0  0
   53.5760   90.7430   19.6830 C   0  0  0  0  0  0  0  0  0  0  0  0
   54.1170   91.0010   20.9510 C   0  0  0  0  0  0  0  0  0  0  0  0
   54.9460   90.0460   21.4650 C   0  0  0  0  0  0  0  0  0  0  0  0
   55.2720   88.8730   20.8170 C   0  0  0  0  0  0  0  0  0  0  0  0
   54.7430   88.6250   19.5710 C   0  0  0  0  0  0  0  0  0  0  0  0
   53.8820   89.5800   19.0110 C   0  0  0  0  0  0  0  0  0  0  0  0
   56.1530   88.0670   21.5880 N   0  0  0  0  0  0  0  0  0  0  0  0
   56.4030   88.8040   22.8130 C   0  0  0  0  0  0  0  0  0  0  0  0
   57.1220   88.4110   23.7550 O   0  0  0  0  0  0  0  0  0  0  0  0
   55.6530   90.0370   22.7070 C   0  0  0  0  0  0  0  0  0  0  0  0
   55.6930   91.0590   23.4710 N   0  0  0  0  0  0  0  0  0  0  0  0
   55.3710   92.1660   23.6480 N   0  0  0  0  0  0  0  0  0  0  0  0
   54.9610   93.5020   23.8620 C   0  0  0  0  0  0  0  0  0  0  0  0
   53.9880   94.1280   23.5050 O   0  0  0  0  0  0  0  0  0  0  0  0
   56.0270   94.2300   24.7120 C   0  0  0  0  0  0  0  0  0  0  0  0
   55.6490   93.9320   26.0730 O   0  0  0  0  0  0  0  0  0  0  0  0
   54.5980   94.7460   26.5830 N   0  0  0  0  0  0  0  0  0  0  0  0
   54.6880   96.0190   26.5940 C   0  0  0  0  0  0  0  0  0  0  0  0
   53.6140   96.8230   27.1320 C   0  0  0  0  0  0  0  0  0  0  0  0
   52.3930   96.3630   27.4970 C   0  0  0  0  0  0  0  0  0  0  0  0
   51.4560   97.3340   27.9320 C   0  0  0  0  0  0  0  0  0  0  0  0
   51.6510   98.6480   28.0330 C   0  0  0  0  0  0  0  0  0  0  0  0
   52.8870   99.0570   27.6620 C   0  0  0  0  0  0  0  0  0  0  0  0
   53.8990   98.2960   27.2140 C   0  0  0  0  0  0  0  0  0  0  0  0
   50.6330   99.4930   28.4870 O   0  0  0  0  0  0  0  0  0  0  0  0
   50.1330  100.5370   27.6590 C   0  0  0  0  0  0  0  0  0  0  0  0
   56.7170   86.7460   21.3620 C   0  0  0  0  0  0  0  0  0  0  0  0
   55.8650   85.7410   21.7730 N   0  0  0  0  0  0  0  0  0  0  0  0
   54.8830   86.1960   22.6720 C   0  0  0  0  0  0  0  0  0  0  0  0
   53.5220   85.6160   22.2810 C   0  0  0  0  0  0  0  0  0  0  0  0
   53.4120   85.9490   20.9040 O   0  0  0  0  0  0  0  0  0  0  0  0
   54.2220   85.0830   20.1580 C   0  0  0  0  0  0  0  0  0  0  0  0
   55.5230   84.7600   20.8240 C   0  0  0  0  0  0  0  0  0  0  0  0
   53.8140   91.8790   21.3920 H   0  0  0  0  0  0  0  0  0  0  0  0
   54.9450   87.7210   19.0030 H   0  0  0  0  0  0  0  0  0  0  0  0
   53.4920   89.3990   18.0340 H   0  0  0  0  0  0  0  0  0  0  0  0
   54.0200   91.8590   23.5560 H   0  0  0  0  0  0  0  0  0  0  0  0
   56.8710   93.4180   24.5690 H   0  0  0  0  0  0  0  0  0  0  0  0
   56.3460   95.1350   24.4200 H   0  0  0  0  0  0  0  0  0  0  0  0
   55.5590   96.5280   26.1880 H   0  0  0  0  0  0  0  0  0  0  0  0
   52.1400   95.3310   27.4620 H   0  0  0  0  0  0  0  0  0  0  0  0
   50.4750   96.9140   28.2260 H   0  0  0  0  0  0  0  0  0  0  0  0
   53.0440  100.1670   27.7430 H   0  0  0  0  0  0  0  0  0  0  0  0
   54.8730   98.5600   26.9270 H   0  0  0  0  0  0  0  0  0  0  0  0
   49.4330  100.1210   26.8880 H   0  0  0  0  0  0  0  0  0  0  0  0
   49.4820  101.1890   28.3250 H   0  0  0  0  0  0  0  0  0  0  0  0
   50.9160  101.1790   27.2210 H   0  0  0  0  0  0  0  0  0  0  0  0
   57.7060   86.7770   21.8640 H   0  0  0  0  0  0  0  0  0  0  0  0
   56.9850   86.7140   20.2650 H   0  0  0  0  0  0  0  0  0  0  0  0
   55.1200   85.9570   23.7360 H   0  0  0  0  0  0  0  0  0  0  0  0
   54.8200   87.2940   22.6260 H   0  0  0  0  0  0  0  0  0  0  0  0
   52.7700   86.1720   22.8280 H   0  0  0  0  0  0  0  0  0  0  0  0
   53.4620   84.5420   22.4290 H   0  0  0  0  0  0  0  0  0  0  0  0
   54.4030   85.4980   19.1590 H   0  0  0  0  0  0  0  0  0  0  0  0
   53.6410   84.1350   20.0450 H   0  0  0  0  0  0  0  0  0  0  0  0
   55.4370   83.7210   21.3400 H   0  0  0  0  0  0  0  0  0  0  0  0
   56.3130   84.6180   20.0810 H   0  0  0  0  0  0  0  0  0  0  0  0
  1  2  1  0  0  0  0
  2  3  1  0  0  0  0
  3 35  1  0  0  0  0
  3  4  2  0  0  0  0
  4 11  1  0  0  0  0
  5  4  1  0  0  0  0
  5  8  1  0  0  0  0
  6  5  2  0  0  0  0
  7  6  1  0  0  0  0
  7  2  2  0  0  0  0
  8  9  1  0  0  0  0
  9 10  2  0  0  0  0
 11  9  1  0  0  0  0
 11 12  2  0  0  0  0
 12 13  1  0  0  0  0
 13 14  1  0  0  0  0
 14 16  1  0  0  0  0
 15 14  2  0  0  0  0
 16 17  1  0  0  0  0
 17 18  1  0  0  0  0
 18 19  2  0  0  0  0
 19 20  1  0  0  0  0
 20 25  2  0  0  0  0
 20 21  1  0  0  0  0
 21 22  2  0  0  0  0
 22 23  1  0  0  0  0
 22 43  1  0  0  0  0
 23 26  1  0  0  0  0
 24 44  1  0  0  0  0
 24 23  2  0  0  0  0
 25 24  1  0  0  0  0
 27 47  1  0  0  0  0
 27 26  1  0  0  0  0
 28  8  1  0  0  0  0
 28 29  1  0  0  0  0
 28 49  1  0  0  0  0
 29 30  1  0  0  0  0
 30 51  1  0  0  0  0
 31 54  1  0  0  0  0
 31 30  1  0  0  0  0
 31 53  1  0  0  0  0
 32 31  1  0  0  0  0
 33 34  1  0  0  0  0
 33 32  1  0  0  0  0
 34 57  1  0  0  0  0
 34 29  1  0  0  0  0
 36  6  1  0  0  0  0
 37  7  1  0  0  0  0
 38 13  1  0  0  0  0
 39 16  1  0  0  0  0
 40 16  1  0  0  0  0
 41 19  1  0  0  0  0
 42 21  1  0  0  0  0
 45 25  1  0  0  0  0
 46 27  1  0  0  0  0
 48 27  1  0  0  0  0
 50 28  1  0  0  0  0
 52 30  1  0  0  0  0
 55 33  1  0  0  0  0
 56 33  1  0  0  0  0
 58 34  1  0  0  0  0
M  END
>  <Pose>
1

>  <Score>
-7.48

$$$$
