
 OpenBabel03202210083D

 36 39  0  0  1  0  0  0  0  0999 V2000
   57.3430   86.7140   22.5570 B   0  0  0  0  0  0  0  0  0  0  0  0
   55.7020   86.9720   21.5790 C   0  0  0  0  0  0  0  0  0  0  0  0
   54.8110   85.9450   21.4110 C   0  0  0  0  0  0  0  0  0  0  0  0
   53.6430   86.1540   20.7080 C   0  0  0  0  0  0  0  0  0  0  0  0
   53.4220   87.4050   20.1990 C   0  0  0  0  0  0  0  0  0  0  0  0
   54.3400   88.4610   20.3740 C   0  0  0  0  0  0  0  0  0  0  0  0
   55.4950   88.2360   21.0750 C   0  0  0  0  0  0  0  0  0  0  0  0
   52.1810   87.4630   19.5020 N   0  0  0  0  0  0  0  0  0  0  0  0
   51.5890   86.1960   19.5710 C   0  0  0  0  0  0  0  0  0  0  0  0
   50.4720   85.8830   19.0570 O   0  0  0  0  0  0  0  0  0  0  0  0
   52.4970   85.2830   20.3500 C   0  0  2  0  0  0  0  0  0  0  0  0
   51.7260   84.8470   21.5090 C   0  0  0  0  0  0  0  0  0  0  0  0
   51.4020   83.5380   21.6890 C   0  0  0  0  0  0  0  0  0  0  0  0
   50.6890   83.4700   22.8520 N   0  0  0  0  0  0  0  0  0  0  0  0
   50.5660   84.6690   23.3820 N   0  0  0  0  0  0  0  0  0  0  0  0
   51.1860   85.5440   22.5930 C   0  0  0  0  0  0  0  0  0  0  0  0
   51.3310   87.0250   22.7540 C   0  0  0  0  0  0  0  0  0  0  0  0
   51.7790   82.5330   20.7920 O   0  0  0  0  0  0  0  0  0  0  0  0
   52.5140   82.9530   19.6880 C   0  0  0  0  0  0  0  0  0  0  0  0
   52.8560   84.1940   19.4600 C   0  0  0  0  0  0  0  0  0  0  0  0
   53.6370   84.4560   18.2390 C   0  0  0  0  0  0  0  0  0  0  0  0
   54.2680   84.6440   17.2740 N   0  0  0  0  0  0  0  0  0  0  0  0
   52.9360   81.9520   18.7190 N   0  0  0  0  0  0  0  0  0  0  0  0
   51.6110   88.6380   18.8260 C   0  0  0  0  0  0  0  0  0  0  0  0
   55.0010   84.9660   21.8190 H   0  0  0  0  0  0  0  0  0  0  0  0
   54.1620   89.4480   19.9710 H   0  0  0  0  0  0  0  0  0  0  0  0
   56.2290   89.0410   21.2270 H   0  0  0  0  0  0  0  0  0  0  0  0
   50.0750   84.9460   24.2710 H   0  0  0  0  0  0  0  0  0  0  0  0
   50.8000   87.2860   23.7050 H   0  0  0  0  0  0  0  0  0  0  0  0
   52.3960   87.3130   22.9330 H   0  0  0  0  0  0  0  0  0  0  0  0
   50.8450   87.5900   21.9600 H   0  0  0  0  0  0  0  0  0  0  0  0
   52.3830   81.9400   17.8390 H   0  0  0  0  0  0  0  0  0  0  0  0
   53.7080   81.3070   18.8770 H   0  0  0  0  0  0  0  0  0  0  0  0
   51.4910   88.3770   17.7570 H   0  0  0  0  0  0  0  0  0  0  0  0
   50.5840   88.7400   19.2480 H   0  0  0  0  0  0  0  0  0  0  0  0
   52.2060   89.5330   19.0040 H   0  0  0  0  0  0  0  0  0  0  0  0
  2  1  1  0  0  0  0
  3  2  1  0  0  0  0
  3 25  1  0  0  0  0
  4  3  2  0  0  0  0
  5  6  2  0  0  0  0
  5  4  1  0  0  0  0
  6  7  1  0  0  0  0
  7 27  1  0  0  0  0
  7  2  2  0  0  0  0
  8  9  1  0  0  0  0
  8  5  1  0  0  0  0
  9 11  1  0  0  0  0
 10  9  2  0  0  0  0
 11 20  1  6  0  0  0
 11  4  1  0  0  0  0
 11 12  1  0  0  0  0
 12 13  1  0  0  0  0
 12 16  2  0  0  0  0
 13 14  2  0  0  0  0
 14 15  1  0  0  0  0
 15 28  1  0  0  0  0
 16 17  1  0  0  0  0
 16 15  1  0  0  0  0
 17 30  1  0  0  0  0
 17 29  1  0  0  0  0
 18 13  1  0  0  0  0
 19 18  1  0  0  0  0
 20 19  2  0  0  0  0
 21 20  1  0  0  0  0
 22 21  3  0  0  0  0
 23 33  1  0  0  0  0
 23 19  1  0  0  0  0
 24 36  1  0  0  0  0
 24 35  1  0  0  0  0
 24  8  1  0  0  0  0
 26  6  1  0  0  0  0
 31 17  1  0  0  0  0
 32 23  1  0  0  0  0
 34 24  1  0  0  0  0
M  END
>  <Pose>
1

>  <Score>
-4.38

$$$$
