
 OpenBabel03202210083D

 39 42  0  0  1  0  0  0  0  0999 V2000
   51.7900   85.0810   20.9500 B   0  0  0  0  0  0  0  0  0  0  0  0
   53.6510   85.4780   20.9160 C   0  0  0  0  0  0  0  0  0  0  0  0
   54.1280   86.5830   21.5860 C   0  0  0  0  0  0  0  0  0  0  0  0
   55.4910   86.8970   21.5770 C   0  0  0  0  0  0  0  0  0  0  0  0
   56.3220   86.0760   20.8850 C   0  0  0  0  0  0  0  0  0  0  0  0
   55.8320   84.9450   20.1980 C   0  0  0  0  0  0  0  0  0  0  0  0
   54.4900   84.6430   20.2130 C   0  0  0  0  0  0  0  0  0  0  0  0
   57.6520   86.5650   20.9980 N   0  0  0  0  0  0  0  0  0  0  0  0
   57.6640   87.7300   21.7860 C   0  0  0  0  0  0  0  0  0  0  0  0
   58.6570   88.4330   22.1000 O   0  0  0  0  0  0  0  0  0  0  0  0
   56.2600   88.0120   22.2060 C   0  0  1  0  0  0  0  0  0  0  0  0
   55.8120   89.3150   21.7010 C   0  0  0  0  0  0  0  0  0  0  0  0
   55.3200   90.2690   22.5310 C   0  0  0  0  0  0  0  0  0  0  0  0
   55.2300   90.0290   23.9050 O   0  0  0  0  0  0  0  0  0  0  0  0
   55.6380   88.8190   24.4310 C   0  0  0  0  0  0  0  0  0  0  0  0
   56.1130   87.8890   23.6590 C   0  0  0  0  0  0  0  0  0  0  0  0
   56.5230   86.6330   24.3040 C   0  0  0  0  0  0  0  0  0  0  0  0
   56.8460   85.6580   24.7960 N   0  0  0  0  0  0  0  0  0  0  0  0
   55.5150   88.6440   25.8520 N   0  0  0  0  0  0  0  0  0  0  0  0
   54.9050   91.4960   22.0050 C   0  0  0  0  0  0  0  0  0  0  0  0
   54.4550   92.3660   22.7790 O   0  0  0  0  0  0  0  0  0  0  0  0
   55.0010   91.7180   20.6510 C   0  0  0  0  0  0  0  0  0  0  0  0
   55.5080   90.7110   19.8570 C   0  0  0  0  0  0  0  0  0  0  0  0
   55.8760   89.5990   20.3980 O   0  0  0  0  0  0  0  0  0  0  0  0
   55.6240   90.9320   18.3630 C   0  0  0  0  0  0  0  0  0  0  0  0
   54.6260   90.2020   17.7170 O   0  0  0  0  0  0  0  0  0  0  0  0
   58.8090   85.9050   20.3620 C   0  0  0  0  0  0  0  0  0  0  0  0
   53.4950   87.2600   22.1490 H   0  0  0  0  0  0  0  0  0  0  0  0
   56.5070   84.2920   19.6460 H   0  0  0  0  0  0  0  0  0  0  0  0
   54.1110   83.7670   19.6810 H   0  0  0  0  0  0  0  0  0  0  0  0
   56.0860   87.9360   26.3080 H   0  0  0  0  0  0  0  0  0  0  0  0
   54.8570   89.2360   26.3570 H   0  0  0  0  0  0  0  0  0  0  0  0
   54.6990   92.6400   20.1800 H   0  0  0  0  0  0  0  0  0  0  0  0
   55.5350   91.9880   18.1080 H   0  0  0  0  0  0  0  0  0  0  0  0
   56.5970   90.4990   17.9960 H   0  0  0  0  0  0  0  0  0  0  0  0
   54.9450   89.2590   17.5850 H   0  0  0  0  0  0  0  0  0  0  0  0
   58.5500   84.8660   20.0840 H   0  0  0  0  0  0  0  0  0  0  0  0
   59.0680   86.4770   19.4560 H   0  0  0  0  0  0  0  0  0  0  0  0
   59.6510   85.8540   21.0990 H   0  0  0  0  0  0  0  0  0  0  0  0
  2  1  1  0  0  0  0
  2  3  1  0  0  0  0
  3 28  1  0  0  0  0
  4  3  2  0  0  0  0
  5  8  1  0  0  0  0
  5  4  1  0  0  0  0
  6  7  1  0  0  0  0
  6  5  2  0  0  0  0
  7  2  2  0  0  0  0
  8  9  1  0  0  0  0
  9 10  2  0  0  0  0
  9 11  1  0  0  0  0
 11  4  1  6  0  0  0
 11 16  1  0  0  0  0
 12 11  1  0  0  0  0
 12 13  2  0  0  0  0
 13 14  1  0  0  0  0
 14 15  1  0  0  0  0
 15 19  1  0  0  0  0
 16 17  1  0  0  0  0
 16 15  2  0  0  0  0
 17 18  3  0  0  0  0
 19 31  1  0  0  0  0
 19 32  1  0  0  0  0
 20 13  1  0  0  0  0
 20 21  2  0  0  0  0
 22 20  1  0  0  0  0
 23 24  1  0  0  0  0
 23 22  2  0  0  0  0
 24 12  1  0  0  0  0
 25 23  1  0  0  0  0
 26 25  1  0  0  0  0
 27  8  1  0  0  0  0
 27 39  1  0  0  0  0
 29  6  1  0  0  0  0
 30  7  1  0  0  0  0
 33 22  1  0  0  0  0
 34 25  1  0  0  0  0
 35 25  1  0  0  0  0
 36 26  1  0  0  0  0
 37 27  1  0  0  0  0
 38 27  1  0  0  0  0
M  END
>  <Pose>
1

>  <Score>
-3.87

$$$$
