
 OpenBabel03202210083D

 51 56  0  0  1  0  0  0  0  0999 V2000
   52.2490   86.4070   18.7270 B   0  0  0  0  0  0  0  0  0  0  0  0
   52.5780   85.1460   20.1190 C   0  0  0  0  0  0  0  0  0  0  0  0
   53.1130   85.5230   21.3460 C   0  0  0  0  0  0  0  0  0  0  0  0
   53.3470   84.6120   22.3410 C   0  0  0  0  0  0  0  0  0  0  0  0
   53.0270   83.2890   22.0790 C   0  0  0  0  0  0  0  0  0  0  0  0
   52.4970   82.9080   20.8640 C   0  0  0  0  0  0  0  0  0  0  0  0
   52.2670   83.8320   19.8710 C   0  0  0  0  0  0  0  0  0  0  0  0
   53.3270   82.4750   23.2160 N   0  0  0  0  0  0  0  0  0  0  0  0
   53.8530   83.2990   24.2340 C   0  0  0  0  0  0  0  0  0  0  0  0
   54.2060   82.8910   25.3500 O   0  0  0  0  0  0  0  0  0  0  0  0
   53.8830   84.6770   23.6980 C   0  0  1  0  0  0  0  0  0  0  0  0
   55.2290   85.1490   23.8210 N   0  0  2  0  0  0  0  0  0  0  0  0
   55.3690   85.4540   25.2440 C   0  0  2  0  0  0  0  0  0  0  0  0
   54.0270   85.9140   25.7100 C   0  0  1  0  0  0  0  0  0  0  0  0
   53.1180   85.6490   24.5610 C   0  0  2  0  0  0  0  0  0  0  0  0
   51.9130   85.0790   25.1560 C   0  0  0  0  0  0  0  0  0  0  0  0
   50.8360   84.8420   24.5650 O   0  0  0  0  0  0  0  0  0  0  0  0
   52.1420   84.8250   26.5190 N   0  0  0  0  0  0  0  0  0  0  0  0
   53.5110   85.0980   26.8560 C   0  0  0  0  0  0  0  0  0  0  0  0
   54.1610   84.7450   27.8710 O   0  0  0  0  0  0  0  0  0  0  0  0
   51.1740   84.3630   27.4630 C   0  0  0  0  0  0  0  0  0  0  0  0
   50.0850   85.3230   27.7790 C   0  0  2  0  0  0  0  0  0  0  0  0
   50.2540   86.5750   27.1980 O   0  0  0  0  0  0  0  0  0  0  0  0
   49.2810   87.3540   27.8100 C   0  0  0  0  0  0  0  0  0  0  0  0
   49.1660   86.9210   29.2380 C   0  0  0  0  0  0  0  0  0  0  0  0
   49.8160   85.5380   29.2290 C   0  0  0  0  0  0  0  0  0  0  0  0
   56.3270   86.6350   25.3140 C   0  0  0  0  0  0  0  0  0  0  0  0
   56.7300   86.9300   23.8850 C   0  0  0  0  0  0  0  0  0  0  0  0
   55.4990   86.3980   23.1380 C   0  0  0  0  0  0  0  0  0  0  0  0
   53.3290   86.5870   21.4520 H   0  0  0  0  0  0  0  0  0  0  0  0
   52.2380   81.8630   20.6370 H   0  0  0  0  0  0  0  0  0  0  0  0
   51.8410   83.5160   18.9010 H   0  0  0  0  0  0  0  0  0  0  0  0
   53.1720   81.4250   23.2630 H   0  0  0  0  0  0  0  0  0  0  0  0
   55.7620   84.5880   25.7980 H   0  0  0  0  0  0  0  0  0  0  0  0
   54.0400   86.9950   26.0140 H   0  0  0  0  0  0  0  0  0  0  0  0
   52.9240   86.5520   23.9480 H   0  0  0  0  0  0  0  0  0  0  0  0
   50.7070   83.4450   27.0440 H   0  0  0  0  0  0  0  0  0  0  0  0
   51.6290   84.0410   28.4320 H   0  0  0  0  0  0  0  0  0  0  0  0
   49.1410   84.9090   27.3280 H   0  0  0  0  0  0  0  0  0  0  0  0
   49.6750   88.4100   27.8170 H   0  0  0  0  0  0  0  0  0  0  0  0
   48.3180   87.3520   27.2600 H   0  0  0  0  0  0  0  0  0  0  0  0
   48.1170   86.8480   29.5910 H   0  0  0  0  0  0  0  0  0  0  0  0
   49.7860   87.5560   29.9050 H   0  0  0  0  0  0  0  0  0  0  0  0
   50.6810   85.4850   29.8870 H   0  0  0  0  0  0  0  0  0  0  0  0
   49.0730   84.7790   29.6150 H   0  0  0  0  0  0  0  0  0  0  0  0
   57.1780   86.4500   25.9780 H   0  0  0  0  0  0  0  0  0  0  0  0
   55.8180   87.5530   25.7020 H   0  0  0  0  0  0  0  0  0  0  0  0
   57.6320   86.4060   23.5640 H   0  0  0  0  0  0  0  0  0  0  0  0
   56.8240   87.9930   23.6650 H   0  0  0  0  0  0  0  0  0  0  0  0
   55.7500   86.2790   22.0840 H   0  0  0  0  0  0  0  0  0  0  0  0
   54.7330   87.1680   23.2760 H   0  0  0  0  0  0  0  0  0  0  0  0
  1  2  1  0  0  0  0
  2  3  1  0  0  0  0
  3 30  1  0  0  0  0
  3  4  2  0  0  0  0
  5  4  1  0  0  0  0
  5  8  1  0  0  0  0
  6  5  2  0  0  0  0
  7  2  2  0  0  0  0
  7  6  1  0  0  0  0
  8 33  1  0  0  0  0
  8  9  1  0  0  0  0
  9 10  2  0  0  0  0
 11  4  1  6  0  0  0
 11 12  1  0  0  0  0
 11  9  1  0  0  0  0
 11 15  1  0  0  0  0
 12 29  1  6  0  0  0
 12 13  1  0  0  0  0
 13 27  1  0  0  0  0
 13 14  1  0  0  0  0
 13 34  1  1  0  0  0
 14 35  1  1  0  0  0
 14 19  1  0  0  0  0
 15 36  1  6  0  0  0
 15 16  1  0  0  0  0
 15 14  1  0  0  0  0
 16 18  1  0  0  0  0
 17 16  2  0  0  0  0
 18 19  1  0  0  0  0
 18 21  1  0  0  0  0
 19 20  2  0  0  0  0
 21 22  1  0  0  0  0
 21 38  1  0  0  0  0
 22 39  1  6  0  0  0
 22 26  1  0  0  0  0
 23 22  1  0  0  0  0
 23 24  1  0  0  0  0
 24 40  1  0  0  0  0
 24 25  1  0  0  0  0
 25 42  1  0  0  0  0
 25 43  1  0  0  0  0
 26 25  1  0  0  0  0
 26 45  1  0  0  0  0
 26 44  1  0  0  0  0
 27 47  1  0  0  0  0
 27 46  1  0  0  0  0
 28 27  1  0  0  0  0
 29 51  1  0  0  0  0
 29 28  1  0  0  0  0
 31  6  1  0  0  0  0
 32  7  1  0  0  0  0
 37 21  1  0  0  0  0
 41 24  1  0  0  0  0
 48 28  1  0  0  0  0
 49 28  1  0  0  0  0
 50 29  1  0  0  0  0
M  END
>  <Pose>
1

>  <Score>
-4.86

$$$$
