
 OpenBabel03202210083D

 38 41  0  0  1  0  0  0  0  0999 V2000
   54.0380   80.7170   22.3510 B   0  0  0  0  0  0  0  0  0  0  0  0
   53.1650   82.2320   23.0930 C   0  0  0  0  0  0  0  0  0  0  0  0
   53.0520   82.4220   24.4740 C   0  0  0  0  0  0  0  0  0  0  0  0
   52.4210   83.5180   25.0010 C   0  0  0  0  0  0  0  0  0  0  0  0
   51.8870   84.4490   24.1600 C   0  0  0  0  0  0  0  0  0  0  0  0
   51.9740   84.3040   22.7680 C   0  0  0  0  0  0  0  0  0  0  0  0
   52.6130   83.1950   22.2690 C   0  0  0  0  0  0  0  0  0  0  0  0
   51.2800   85.5010   24.8920 N   0  0  0  0  0  0  0  0  0  0  0  0
   51.4430   85.2110   26.2580 C   0  0  0  0  0  0  0  0  0  0  0  0
   51.0520   85.8880   27.2450 O   0  0  0  0  0  0  0  0  0  0  0  0
   52.1780   83.9340   26.3930 C   0  0  1  0  0  0  0  0  0  0  0  0
   51.3150   82.9360   27.1050 C   0  0  0  0  0  0  0  0  0  0  0  0
   51.6410   82.2930   28.1950 C   0  0  0  0  0  0  0  0  0  0  0  0
   52.9100   82.5480   28.7680 N   0  0  0  0  0  0  0  0  0  0  0  0
   53.7950   83.4780   28.1650 C   0  0  0  0  0  0  0  0  0  0  0  0
   53.4720   84.1240   27.0710 C   0  0  0  0  0  0  0  0  0  0  0  0
   54.4440   85.0680   26.5120 C   0  0  0  0  0  0  0  0  0  0  0  0
   55.2250   85.8010   26.0770 N   0  0  0  0  0  0  0  0  0  0  0  0
   55.0930   83.7230   28.7710 N   0  0  0  0  0  0  0  0  0  0  0  0
   50.5160   81.4040   28.5720 C   0  0  0  0  0  0  0  0  0  0  0  0
   49.5090   81.5820   27.6100 O   0  0  0  0  0  0  0  0  0  0  0  0
   49.9640   82.5130   26.6970 C   0  0  0  0  0  0  0  0  0  0  0  0
   49.3100   82.9250   25.6770 O   0  0  0  0  0  0  0  0  0  0  0  0
   49.9100   81.8320   29.9110 C   0  0  0  0  0  0  0  0  0  0  0  0
   50.9670   79.9520   28.6480 C   0  0  0  0  0  0  0  0  0  0  0  0
   53.4930   81.6520   25.0960 H   0  0  0  0  0  0  0  0  0  0  0  0
   51.5660   85.0160   22.0760 H   0  0  0  0  0  0  0  0  0  0  0  0
   52.6830   83.0800   21.1880 H   0  0  0  0  0  0  0  0  0  0  0  0
   50.7940   86.3500   24.4630 H   0  0  0  0  0  0  0  0  0  0  0  0
   53.2260   82.0600   29.6450 H   0  0  0  0  0  0  0  0  0  0  0  0
   55.8010   82.9850   28.9170 H   0  0  0  0  0  0  0  0  0  0  0  0
   55.3090   84.6890   29.0680 H   0  0  0  0  0  0  0  0  0  0  0  0
   48.8780   81.4220   29.9160 H   0  0  0  0  0  0  0  0  0  0  0  0
   50.4400   81.3850   30.7570 H   0  0  0  0  0  0  0  0  0  0  0  0
   49.8310   82.9230   29.9430 H   0  0  0  0  0  0  0  0  0  0  0  0
   50.9220   79.5750   29.6960 H   0  0  0  0  0  0  0  0  0  0  0  0
   50.2600   79.3640   28.0030 H   0  0  0  0  0  0  0  0  0  0  0  0
   51.9740   79.8500   28.2170 H   0  0  0  0  0  0  0  0  0  0  0  0
  1  2  1  0  0  0  0
  2  3  1  0  0  0  0
  3  4  2  0  0  0  0
  3 26  1  0  0  0  0
  5  8  1  0  0  0  0
  5  4  1  0  0  0  0
  6  5  2  0  0  0  0
  7  6  1  0  0  0  0
  7  2  2  0  0  0  0
  8  9  1  0  0  0  0
  9 11  1  0  0  0  0
  9 10  2  0  0  0  0
 11  4  1  6  0  0  0
 11 16  1  0  0  0  0
 11 12  1  0  0  0  0
 12 13  2  0  0  0  0
 13 20  1  0  0  0  0
 13 14  1  0  0  0  0
 14 30  1  0  0  0  0
 15 14  1  0  0  0  0
 15 19  1  0  0  0  0
 16 15  2  0  0  0  0
 17 16  1  0  0  0  0
 18 17  3  0  0  0  0
 19 31  1  0  0  0  0
 19 32  1  0  0  0  0
 20 25  1  0  0  0  0
 20 24  1  0  0  0  0
 21 20  1  0  0  0  0
 22 12  1  0  0  0  0
 22 21  1  0  0  0  0
 23 22  2  0  0  0  0
 24 33  1  0  0  0  0
 24 35  1  0  0  0  0
 24 34  1  0  0  0  0
 25 36  1  0  0  0  0
 27  6  1  0  0  0  0
 28  7  1  0  0  0  0
 29  8  1  0  0  0  0
 37 25  1  0  0  0  0
 38 25  1  0  0  0  0
M  END
>  <Pose>
1

>  <Score>
-4.57

$$$$
