
 OpenBabel03202210083D

 49 52  0  0  1  0  0  0  0  0999 V2000
   49.5750   87.4170   17.9710 B   0  0  0  0  0  0  0  0  0  0  0  0
   51.3070   88.1350   18.3840 C   0  0  0  0  0  0  0  0  0  0  0  0
   52.0770   87.6300   19.4150 C   0  0  0  0  0  0  0  0  0  0  0  0
   53.3220   88.1400   19.7200 C   0  0  0  0  0  0  0  0  0  0  0  0
   53.7630   89.1880   18.9390 C   0  0  0  0  0  0  0  0  0  0  0  0
   52.9910   89.7000   17.9010 C   0  0  0  0  0  0  0  0  0  0  0  0
   51.7660   89.1780   17.6210 C   0  0  0  0  0  0  0  0  0  0  0  0
   55.0630   89.5920   19.4000 N   0  0  0  0  0  0  0  0  0  0  0  0
   55.4390   88.7760   20.4960 C   0  0  0  0  0  0  0  0  0  0  0  0
   56.5190   88.8920   21.1200 O   0  0  0  0  0  0  0  0  0  0  0  0
   54.3480   87.8090   20.7360 C   0  0  1  0  0  0  0  0  0  0  0  0
   53.8480   87.9150   22.0800 N   0  0  0  0  0  0  0  0  0  0  0  0
   54.8040   87.1630   22.8670 C   0  0  2  0  0  0  0  0  0  0  0  0
   55.0680   85.9410   22.0290 C   0  0  2  0  0  0  0  0  0  0  0  0
   54.8840   86.4280   20.6110 C   0  0  1  0  0  0  0  0  0  0  0  0
   53.9870   85.4510   19.9780 C   0  0  0  0  0  0  0  0  0  0  0  0
   53.6650   85.4010   18.7640 O   0  0  0  0  0  0  0  0  0  0  0  0
   53.5030   84.5180   20.9710 N   0  0  0  0  0  0  0  0  0  0  0  0
   54.0620   84.8750   22.2250 C   0  0  0  0  0  0  0  0  0  0  0  0
   53.7330   84.3500   23.3150 O   0  0  0  0  0  0  0  0  0  0  0  0
   52.6080   83.4100   20.7480 C   0  0  0  0  0  0  0  0  0  0  0  0
   52.2430   82.7120   22.0360 C   0  0  0  0  0  0  0  0  0  0  0  0
   51.3380   83.9290   20.0670 C   0  0  0  0  0  0  0  0  0  0  0  0
   53.2430   82.3770   19.8440 C   0  0  0  0  0  0  0  0  0  0  0  0
   54.2370   86.8540   24.2260 C   0  0  0  0  0  0  0  0  0  0  0  0
   55.0000   87.5350   25.2840 C   0  0  0  0  0  0  0  0  0  0  0  0
   55.8900   86.8880   25.9010 O   0  0  0  0  0  0  0  0  0  0  0  0
   54.8130   88.8860   25.6720 N   0  0  0  0  0  0  0  0  0  0  0  0
   51.6500   86.8150   19.9710 H   0  0  0  0  0  0  0  0  0  0  0  0
   53.3470   90.5230   17.2930 H   0  0  0  0  0  0  0  0  0  0  0  0
   51.1830   89.6030   16.7970 H   0  0  0  0  0  0  0  0  0  0  0  0
   55.6040   90.3690   18.9650 H   0  0  0  0  0  0  0  0  0  0  0  0
   52.9330   87.4410   22.1360 H   0  0  0  0  0  0  0  0  0  0  0  0
   55.7460   87.7380   23.0400 H   0  0  0  0  0  0  0  0  0  0  0  0
   56.0850   85.5360   22.1350 H   0  0  0  0  0  0  0  0  0  0  0  0
   55.8560   86.4660   20.0700 H   0  0  0  0  0  0  0  0  0  0  0  0
   53.1750   82.3300   22.4990 H   0  0  0  0  0  0  0  0  0  0  0  0
   51.6300   81.8010   21.8220 H   0  0  0  0  0  0  0  0  0  0  0  0
   51.6450   83.3650   22.7070 H   0  0  0  0  0  0  0  0  0  0  0  0
   50.9470   84.7300   20.7260 H   0  0  0  0  0  0  0  0  0  0  0  0
   50.6000   83.1290   19.9470 H   0  0  0  0  0  0  0  0  0  0  0  0
   51.6760   84.3780   19.1030 H   0  0  0  0  0  0  0  0  0  0  0  0
   52.8120   81.3880   20.0920 H   0  0  0  0  0  0  0  0  0  0  0  0
   53.0680   82.5660   18.7750 H   0  0  0  0  0  0  0  0  0  0  0  0
   54.3310   82.3860   20.0300 H   0  0  0  0  0  0  0  0  0  0  0  0
   53.2120   87.3310   24.2320 H   0  0  0  0  0  0  0  0  0  0  0  0
   54.0520   85.7880   24.4050 H   0  0  0  0  0  0  0  0  0  0  0  0
   54.2640   89.5850   25.1510 H   0  0  0  0  0  0  0  0  0  0  0  0
   55.2750   89.1920   26.5690 H   0  0  0  0  0  0  0  0  0  0  0  0
  1  2  1  0  0  0  0
  2  3  1  0  0  0  0
  3  4  2  0  0  0  0
  3 29  1  0  0  0  0
  5  8  1  0  0  0  0
  5  4  1  0  0  0  0
  6  5  2  0  0  0  0
  7  6  1  0  0  0  0
  7  2  2  0  0  0  0
  8  9  1  0  0  0  0
  9 11  1  0  0  0  0
  9 10  2  0  0  0  0
 11  4  1  6  0  0  0
 11 12  1  0  0  0  0
 12 33  1  0  0  0  0
 12 13  1  0  0  0  0
 13 34  1  1  0  0  0
 13 25  1  0  0  0  0
 14 35  1  1  0  0  0
 14 19  1  0  0  0  0
 14 13  1  0  0  0  0
 15 36  1  6  0  0  0
 15 11  1  0  0  0  0
 15 14  1  0  0  0  0
 16 15  1  0  0  0  0
 16 18  1  0  0  0  0
 17 16  2  0  0  0  0
 18 19  1  0  0  0  0
 19 20  2  0  0  0  0
 21 18  1  0  0  0  0
 21 22  1  0  0  0  0
 22 37  1  0  0  0  0
 22 39  1  0  0  0  0
 23 40  1  0  0  0  0
 23 21  1  0  0  0  0
 24 45  1  0  0  0  0
 24 43  1  0  0  0  0
 24 21  1  0  0  0  0
 25 46  1  0  0  0  0
 25 47  1  0  0  0  0
 25 26  1  0  0  0  0
 26 28  1  0  0  0  0
 26 27  2  0  0  0  0
 28 49  1  0  0  0  0
 30  6  1  0  0  0  0
 31  7  1  0  0  0  0
 32  8  1  0  0  0  0
 38 22  1  0  0  0  0
 41 23  1  0  0  0  0
 42 23  1  0  0  0  0
 44 24  1  0  0  0  0
 48 28  1  0  0  0  0
M  END
>  <Pose>
1

>  <Score>
-5.88

$$$$
