
 OpenBabel03202210083D

 53 57  0  0  1  0  0  0  0  0999 V2000
   55.7140   87.5070   22.3250 B   0  0  0  0  0  0  0  0  0  0  0  0
   54.4610   86.7750   21.0850 C   0  0  0  0  0  0  0  0  0  0  0  0
   54.1150   85.4420   21.0790 C   0  0  0  0  0  0  0  0  0  0  0  0
   53.1980   84.9080   20.1610 C   0  0  0  0  0  0  0  0  0  0  0  0
   52.6430   85.7720   19.2500 C   0  0  0  0  0  0  0  0  0  0  0  0
   52.9860   87.1170   19.2490 C   0  0  0  0  0  0  0  0  0  0  0  0
   53.8880   87.6300   20.1550 C   0  0  0  0  0  0  0  0  0  0  0  0
   51.7540   85.0940   18.3840 N   0  0  0  0  0  0  0  0  0  0  0  0
   51.7460   83.7360   18.7650 C   0  0  0  0  0  0  0  0  0  0  0  0
   51.0440   82.8680   18.1740 O   0  0  0  0  0  0  0  0  0  0  0  0
   52.6650   83.5680   19.9110 C   0  0  1  0  0  0  0  0  0  0  0  0
   53.7400   82.6310   19.5710 N   0  0  0  0  0  0  0  0  0  0  0  0
   54.0650   81.9510   20.8050 C   0  0  1  0  0  0  0  0  0  0  0  0
   52.8710   81.9800   21.6760 C   0  0  2  0  0  0  0  0  0  0  0  0
   51.8990   82.9380   21.0130 C   0  0  1  0  0  0  0  0  0  0  0  0
   51.4060   83.7990   22.0820 C   0  0  0  0  0  0  0  0  0  0  0  0
   50.6750   84.8110   21.9490 O   0  0  0  0  0  0  0  0  0  0  0  0
   51.8810   83.3240   23.3600 N   0  0  0  0  0  0  0  0  0  0  0  0
   53.0560   82.5580   23.0220 C   0  0  0  0  0  0  0  0  0  0  0  0
   54.0460   82.4200   23.7560 O   0  0  0  0  0  0  0  0  0  0  0  0
   51.3260   83.5190   24.6610 C   0  0  0  0  0  0  0  0  0  0  0  0
   51.6710   84.8140   25.3390 C   0  0  0  0  0  0  0  0  0  0  0  0
   52.1440   84.6820   26.7280 C   0  0  0  0  0  0  0  0  0  0  0  0
   53.5090   84.6300   26.9810 C   0  0  0  0  0  0  0  0  0  0  0  0
   53.9570   84.5350   28.2550 C   0  0  0  0  0  0  0  0  0  0  0  0
   53.1170   84.4890   29.3300 C   0  0  0  0  0  0  0  0  0  0  0  0
   51.7560   84.5420   29.0660 C   0  0  0  0  0  0  0  0  0  0  0  0
   51.2800   84.6370   27.7900 C   0  0  0  0  0  0  0  0  0  0  0  0
   54.5770   80.5600   20.5160 C   0  0  1  0  0  0  0  0  0  0  0  0
   55.6030   80.6170   19.5930 O   0  0  0  0  0  0  0  0  0  0  0  0
   54.9700   79.8200   21.7720 C   0  0  0  0  0  0  0  0  0  0  0  0
   54.5740   84.8000   21.8140 H   0  0  0  0  0  0  0  0  0  0  0  0
   52.5520   87.8120   18.5310 H   0  0  0  0  0  0  0  0  0  0  0  0
   54.1700   88.6840   20.1710 H   0  0  0  0  0  0  0  0  0  0  0  0
   51.1980   85.5290   17.5970 H   0  0  0  0  0  0  0  0  0  0  0  0
   54.5720   83.1290   19.1800 H   0  0  0  0  0  0  0  0  0  0  0  0
   54.8950   82.5010   21.2850 H   0  0  0  0  0  0  0  0  0  0  0  0
   52.3960   80.9850   21.8310 H   0  0  0  0  0  0  0  0  0  0  0  0
   51.0320   82.3300   20.6550 H   0  0  0  0  0  0  0  0  0  0  0  0
   50.2020   83.4330   24.5480 H   0  0  0  0  0  0  0  0  0  0  0  0
   51.6510   82.6940   25.3510 H   0  0  0  0  0  0  0  0  0  0  0  0
   50.7910   85.5090   25.3300 H   0  0  0  0  0  0  0  0  0  0  0  0
   52.4330   85.3560   24.7060 H   0  0  0  0  0  0  0  0  0  0  0  0
   54.2150   84.6640   26.1480 H   0  0  0  0  0  0  0  0  0  0  0  0
   55.0490   84.4960   28.4010 H   0  0  0  0  0  0  0  0  0  0  0  0
   53.4640   84.4140   30.3460 H   0  0  0  0  0  0  0  0  0  0  0  0
   51.0830   84.5090   29.9240 H   0  0  0  0  0  0  0  0  0  0  0  0
   50.2280   84.6780   27.5840 H   0  0  0  0  0  0  0  0  0  0  0  0
   53.7320   79.9970   20.0580 H   0  0  0  0  0  0  0  0  0  0  0  0
   56.3130   81.2320   19.8590 H   0  0  0  0  0  0  0  0  0  0  0  0
   54.1120   79.3730   22.2930 H   0  0  0  0  0  0  0  0  0  0  0  0
   55.5570   80.4300   22.4670 H   0  0  0  0  0  0  0  0  0  0  0  0
   55.6260   78.9710   21.4550 H   0  0  0  0  0  0  0  0  0  0  0  0
  2  1  1  0  0  0  0
  3  2  1  0  0  0  0
  3 32  1  0  0  0  0
  4  3  2  0  0  0  0
  5  4  1  0  0  0  0
  6  5  2  0  0  0  0
  6  7  1  0  0  0  0
  7 34  1  0  0  0  0
  7  2  2  0  0  0  0
  8  9  1  0  0  0  0
  8  5  1  0  0  0  0
 10  9  2  0  0  0  0
 11  9  1  6  0  0  0
 11  4  1  0  0  0  0
 11 15  1  0  0  0  0
 12 11  1  0  0  0  0
 12 13  1  0  0  0  0
 13 37  1  1  0  0  0
 13 14  1  0  0  0  0
 14 38  1  1  0  0  0
 14 19  1  0  0  0  0
 15 39  1  6  0  0  0
 15 14  1  0  0  0  0
 15 16  1  0  0  0  0
 16 18  1  0  0  0  0
 17 16  2  0  0  0  0
 18 21  1  0  0  0  0
 19 18  1  0  0  0  0
 19 20  2  0  0  0  0
 21 22  1  0  0  0  0
 21 41  1  0  0  0  0
 22 23  1  0  0  0  0
 23 24  2  0  0  0  0
 23 28  1  0  0  0  0
 24 25  1  0  0  0  0
 25 45  1  0  0  0  0
 25 26  2  0  0  0  0
 26 46  1  0  0  0  0
 27 26  1  0  0  0  0
 27 47  1  0  0  0  0
 28 27  2  0  0  0  0
 29 49  1  6  0  0  0
 29 13  1  0  0  0  0
 29 31  1  0  0  0  0
 30 50  1  0  0  0  0
 30 29  1  0  0  0  0
 31 51  1  0  0  0  0
 31 52  1  0  0  0  0
 33  6  1  0  0  0  0
 35  8  1  0  0  0  0
 36 12  1  0  0  0  0
 40 21  1  0  0  0  0
 42 22  1  0  0  0  0
 43 22  1  0  0  0  0
 44 24  1  0  0  0  0
 48 28  1  0  0  0  0
 53 31  1  0  0  0  0
M  END
>  <Pose>
1

>  <Score>
-5.65

$$$$
