
 OpenBabel03202210083D

 37 40  0  0  0  0  0  0  0  0999 V2000
   51.3110   91.8830   18.1790 B   0  0  0  0  0  0  0  0  0  0  0  0
   52.2580   90.3480   18.8380 C   0  0  0  0  0  0  0  0  0  0  0  0
   53.4830   90.4940   19.4540 C   0  0  0  0  0  0  0  0  0  0  0  0
   54.1590   89.3880   19.9260 C   0  0  0  0  0  0  0  0  0  0  0  0
   53.6630   88.1040   19.8120 C   0  0  0  0  0  0  0  0  0  0  0  0
   52.4250   87.9740   19.1870 C   0  0  0  0  0  0  0  0  0  0  0  0
   51.7430   89.0750   18.7140 C   0  0  0  0  0  0  0  0  0  0  0  0
   54.2180   86.8800   20.2350 N   0  0  0  0  0  0  0  0  0  0  0  0
   53.7690   85.6990   19.8390 N   0  0  0  0  0  0  0  0  0  0  0  0
   54.5100   84.7700   20.4220 N   0  0  0  0  0  0  0  0  0  0  0  0
   55.4090   85.3610   21.1720 N   0  0  0  0  0  0  0  0  0  0  0  0
   55.2550   86.7050   21.0790 C   0  0  0  0  0  0  0  0  0  0  0  0
   56.1330   87.6100   21.8230 C   0  0  0  0  0  0  0  0  0  0  0  0
   56.3510   88.8970   21.2580 N   0  0  0  0  0  0  0  0  0  0  0  0
   55.4410   89.7230   20.5500 C   0  0  0  0  0  0  0  0  0  0  0  0
   55.7230   90.9420   20.4020 O   0  0  0  0  0  0  0  0  0  0  0  0
   55.6190   87.8460   23.2510 C   0  0  0  0  0  0  0  0  0  0  0  0
   56.8030   88.0240   24.1680 C   0  0  0  0  0  0  0  0  0  0  0  0
   57.3510   86.7120   24.4280 N   0  0  0  0  0  0  0  0  0  0  0  0
   57.5050   86.0110   23.1810 C   0  0  0  0  0  0  0  0  0  0  0  0
   57.4860   86.9250   21.9800 C   0  0  0  0  0  0  0  0  0  0  0  0
   56.4310   86.0190   25.3290 C   0  0  0  0  0  0  0  0  0  0  0  0
   53.9460   91.4670   19.5840 H   0  0  0  0  0  0  0  0  0  0  0  0
   52.0310   86.9710   19.0950 H   0  0  0  0  0  0  0  0  0  0  0  0
   50.7860   88.9440   18.2350 H   0  0  0  0  0  0  0  0  0  0  0  0
   57.3090   89.2830   21.3840 H   0  0  0  0  0  0  0  0  0  0  0  0
   55.0430   88.8110   23.2950 H   0  0  0  0  0  0  0  0  0  0  0  0
   54.9370   87.0520   23.5420 H   0  0  0  0  0  0  0  0  0  0  0  0
   57.5580   88.6320   23.6450 H   0  0  0  0  0  0  0  0  0  0  0  0
   56.5190   88.5450   25.0840 H   0  0  0  0  0  0  0  0  0  0  0  0
   56.7560   85.2160   23.1290 H   0  0  0  0  0  0  0  0  0  0  0  0
   58.5000   85.5240   23.1960 H   0  0  0  0  0  0  0  0  0  0  0  0
   58.3200   87.6240   22.0260 H   0  0  0  0  0  0  0  0  0  0  0  0
   57.6290   86.2840   21.0850 H   0  0  0  0  0  0  0  0  0  0  0  0
   56.0490   85.1340   24.7730 H   0  0  0  0  0  0  0  0  0  0  0  0
   56.9250   85.7220   26.2780 H   0  0  0  0  0  0  0  0  0  0  0  0
   55.5740   86.6760   25.6150 H   0  0  0  0  0  0  0  0  0  0  0  0
  1  2  1  0  0  0  0
  2  3  1  0  0  0  0
  3 23  1  0  0  0  0
  3  4  2  0  0  0  0
  4 15  1  0  0  0  0
  5  4  1  0  0  0  0
  5  8  1  0  0  0  0
  6  5  2  0  0  0  0
  7  2  2  0  0  0  0
  7  6  1  0  0  0  0
  8 12  1  0  0  0  0
  9  8  1  0  0  0  0
  9 10  2  0  0  0  0
 10 11  1  0  0  0  0
 12 11  2  0  0  0  0
 12 13  1  0  0  0  0
 13 21  1  0  0  0  0
 13 17  1  0  0  0  0
 14 26  1  0  0  0  0
 14 13  1  0  0  0  0
 15 14  1  0  0  0  0
 16 15  2  0  0  0  0
 17 27  1  0  0  0  0
 17 28  1  0  0  0  0
 17 18  1  0  0  0  0
 18 19  1  0  0  0  0
 18 30  1  0  0  0  0
 19 22  1  0  0  0  0
 20 32  1  0  0  0  0
 20 19  1  0  0  0  0
 21 33  1  0  0  0  0
 21 20  1  0  0  0  0
 22 37  1  0  0  0  0
 22 36  1  0  0  0  0
 24  6  1  0  0  0  0
 25  7  1  0  0  0  0
 29 18  1  0  0  0  0
 31 20  1  0  0  0  0
 34 21  1  0  0  0  0
 35 22  1  0  0  0  0
M  END
>  <Pose>
1

>  <Score>
-6.22

$$$$
