
 OpenBabel03202210083D

 51 54  0  0  0  0  0  0  0  0999 V2000
   57.1830   88.4020   25.0800 B   0  0  0  0  0  0  0  0  0  0  0  0
   56.4380   89.0310   23.4400 C   0  0  0  0  0  0  0  0  0  0  0  0
   55.8880   90.3070   23.3530 C   0  0  0  0  0  0  0  0  0  0  0  0
   55.3470   90.7660   22.1600 C   0  0  0  0  0  0  0  0  0  0  0  0
   55.3490   89.9550   21.0450 C   0  0  0  0  0  0  0  0  0  0  0  0
   54.8230   90.4040   19.8770 N   0  0  0  0  0  0  0  0  0  0  0  0
   54.2900   91.6340   19.7660 C   0  0  0  0  0  0  0  0  0  0  0  0
   54.2970   92.4070   20.8590 N   0  0  0  0  0  0  0  0  0  0  0  0
   54.8000   92.0280   22.0480 C   0  0  0  0  0  0  0  0  0  0  0  0
   54.7590   92.9460   23.1750 C   0  0  0  0  0  0  0  0  0  0  0  0
   53.5870   93.1170   23.8990 C   0  0  0  0  0  0  0  0  0  0  0  0
   53.5130   93.9670   24.9810 C   0  0  0  0  0  0  0  0  0  0  0  0
   54.6140   94.6900   25.3930 C   0  0  0  0  0  0  0  0  0  0  0  0
   55.7860   94.5180   24.6670 C   0  0  0  0  0  0  0  0  0  0  0  0
   55.8510   93.6660   23.5870 C   0  0  0  0  0  0  0  0  0  0  0  0
   52.1620   92.2050   23.3950 Cl  0  0  0  0  0  0  0  0  0  0  0  0
   53.7470   92.0740   18.5150 N   0  0  0  0  0  4  0  0  0  0  0  0
   52.3350   92.3110   18.6480 C   0  0  0  0  0  0  0  0  0  0  0  0
   51.5040   91.0740   18.7040 C   0  0  0  0  0  0  0  0  0  0  0  0
   52.2380   89.8940   18.3050 N   0  0  0  0  0  0  0  0  0  0  0  0
   53.1810   90.0510   17.2190 C   0  0  0  0  0  0  0  0  0  0  0  0
   54.0920   91.2230   17.4180 C   0  0  0  0  0  0  0  0  0  0  0  0
   51.9940   88.6780   18.9870 C   0  0  0  0  0  0  0  0  0  0  0  0
   50.8270   88.2980   19.2250 O   0  0  0  0  0  0  0  0  0  0  0  0
   53.1930   87.8910   19.3950 C   0  0  0  0  0  0  0  0  0  0  0  0
   52.8070   86.6120   20.0740 C   0  0  0  0  0  0  0  0  0  0  0  0
   53.8740   85.6000   20.0590 C   0  0  0  0  0  0  0  0  0  0  0  0
   54.2140   85.0250   19.0040 O   0  0  0  0  0  0  0  0  0  0  0  0
   54.5170   85.2770   21.2360 O   0  0  0  0  0  0  0  0  0  0  0  0
   55.9010   88.6860   21.1580 C   0  0  0  0  0  0  0  0  0  0  0  0
   56.4450   88.2110   22.3320 C   0  0  0  0  0  0  0  0  0  0  0  0
   55.8900   90.9390   24.2100 H   0  0  0  0  0  0  0  0  0  0  0  0
   52.6000   94.1000   25.5440 H   0  0  0  0  0  0  0  0  0  0  0  0
   54.5650   95.3620   26.2440 H   0  0  0  0  0  0  0  0  0  0  0  0
   56.6590   95.0750   24.9720 H   0  0  0  0  0  0  0  0  0  0  0  0
   56.7920   93.5780   23.0740 H   0  0  0  0  0  0  0  0  0  0  0  0
   54.1840   93.0310   18.3610 H   0  0  0  0  0  0  0  0  0  0  0  0
   52.1740   92.9330   19.5470 H   0  0  0  0  0  0  0  0  0  0  0  0
   52.0330   92.9300   17.7640 H   0  0  0  0  0  0  0  0  0  0  0  0
   50.6510   91.1660   17.9750 H   0  0  0  0  0  0  0  0  0  0  0  0
   51.0710   90.9770   19.7190 H   0  0  0  0  0  0  0  0  0  0  0  0
   53.7590   89.1230   17.0300 H   0  0  0  0  0  0  0  0  0  0  0  0
   52.5440   90.2790   16.3140 H   0  0  0  0  0  0  0  0  0  0  0  0
   54.1080   91.8680   16.4980 H   0  0  0  0  0  0  0  0  0  0  0  0
   55.1380   90.8710   17.5780 H   0  0  0  0  0  0  0  0  0  0  0  0
   53.7600   87.6310   18.4780 H   0  0  0  0  0  0  0  0  0  0  0  0
   53.8770   88.4880   20.0320 H   0  0  0  0  0  0  0  0  0  0  0  0
   51.9380   86.1850   19.5140 H   0  0  0  0  0  0  0  0  0  0  0  0
   52.4540   86.8140   21.1050 H   0  0  0  0  0  0  0  0  0  0  0  0
   55.9030   88.0550   20.2980 H   0  0  0  0  0  0  0  0  0  0  0  0
   56.8800   87.2250   22.4390 H   0  0  0  0  0  0  0  0  0  0  0  0
  2  1  1  0  0  0  0
  3  2  1  0  0  0  0
  3 32  1  0  0  0  0
  4  3  2  0  0  0  0
  5 30  2  0  0  0  0
  5  4  1  0  0  0  0
  6  5  1  0  0  0  0
  7  6  2  0  0  0  0
  7  8  1  0  0  0  0
  8  9  2  0  0  0  0
  9  4  1  0  0  0  0
  9 10  1  0  0  0  0
 10 15  2  0  0  0  0
 10 11  1  0  0  0  0
 11 12  2  0  0  0  0
 12 13  1  0  0  0  0
 12 33  1  0  0  0  0
 13 34  1  0  0  0  0
 14 35  1  0  0  0  0
 14 13  2  0  0  0  0
 15 14  1  0  0  0  0
 16 11  1  0  0  0  0
 17 18  1  0  0  0  0
 17  7  1  0  0  0  0
 18 19  1  0  0  0  0
 18 38  1  0  0  0  0
 19 41  1  0  0  0  0
 20 19  1  0  0  0  0
 20 23  1  0  0  0  0
 21 22  1  0  0  0  0
 21 20  1  0  0  0  0
 22 45  1  0  0  0  0
 22 17  1  0  0  0  0
 23 24  2  0  0  0  0
 23 25  1  0  0  0  0
 25 47  1  0  0  0  0
 25 26  1  0  0  0  0
 26 49  1  0  0  0  0
 27 26  1  0  0  0  0
 27 29  1  0  0  0  0
 28 27  2  0  0  0  0
 30 31  1  0  0  0  0
 31 51  1  0  0  0  0
 31  2  2  0  0  0  0
 36 15  1  0  0  0  0
 37 17  1  0  0  0  0
 39 18  1  0  0  0  0
 40 19  1  0  0  0  0
 42 21  1  0  0  0  0
 43 21  1  0  0  0  0
 44 22  1  0  0  0  0
 46 25  1  0  0  0  0
 48 26  1  0  0  0  0
 50 30  1  0  0  0  0
M  END
>  <Pose>
1

>  <Score>
-6.25

$$$$
