
 OpenBabel03202210083D

 41 44  0  0  0  0  0  0  0  0999 V2000
   48.2320  103.3260   34.7600 B   0  0  0  0  0  0  0  0  0  0  0  0
   48.6170  103.2860   32.8970 C   0  0  0  0  0  0  0  0  0  0  0  0
   49.1710  102.1720   32.3010 C   0  0  0  0  0  0  0  0  0  0  0  0
   49.4560  102.1280   30.9520 C   0  0  0  0  0  0  0  0  0  0  0  0
   49.1710  103.2450   30.1900 C   0  0  0  0  0  0  0  0  0  0  0  0
   49.5440  102.9300   28.9360 N   0  0  0  0  0  0  0  0  0  0  0  0
   50.0460  101.6710   28.8790 C   0  0  0  0  0  0  0  0  0  0  0  0
   49.9980  101.1450   30.1530 C   0  0  0  0  0  0  0  0  0  0  0  0
   50.4510   99.8900   30.3450 N   0  0  0  0  0  0  0  0  0  0  0  0
   50.9420   99.1450   29.3370 C   0  0  0  0  0  0  0  0  0  0  0  0
   51.0000   99.6300   28.0900 N   0  0  0  0  0  0  0  0  0  0  0  0
   50.5560  100.8770   27.8760 C   0  0  0  0  0  0  0  0  0  0  0  0
   50.6030  101.3490   26.7130 O   0  0  0  0  0  0  0  0  0  0  0  0
   51.5380   98.8210   26.9830 C   0  0  0  0  0  0  0  0  0  0  0  0
   52.9950   99.0430   26.8400 C   0  0  0  0  0  0  0  0  0  0  0  0
   53.8490   98.0320   27.3450 N   0  0  0  0  0  0  0  0  0  0  0  0
   55.2090   98.1210   26.9400 C   0  0  0  0  0  0  0  0  0  0  0  0
   55.5420   97.2530   25.7600 C   0  0  0  0  0  0  0  0  0  0  0  0
   54.8410   95.9870   25.7860 N   0  0  0  0  0  0  0  0  0  0  0  0
   54.3200   95.7010   27.1120 C   0  0  0  0  0  0  0  0  0  0  0  0
   53.2620   96.7410   27.3880 C   0  0  0  0  0  0  0  0  0  0  0  0
   48.6170  104.3550   30.8000 C   0  0  0  0  0  0  0  0  0  0  0  0
   48.3280  104.4090   32.1480 C   0  0  0  0  0  0  0  0  0  0  0  0
   49.3980  101.2910   32.8900 H   0  0  0  0  0  0  0  0  0  0  0  0
   49.4680  103.5470   28.1070 H   0  0  0  0  0  0  0  0  0  0  0  0
   51.3030   98.1320   29.5120 H   0  0  0  0  0  0  0  0  0  0  0  0
   50.9830   99.1720   26.0840 H   0  0  0  0  0  0  0  0  0  0  0  0
   51.2240   97.8000   27.1790 H   0  0  0  0  0  0  0  0  0  0  0  0
   53.2450   99.2320   25.7770 H   0  0  0  0  0  0  0  0  0  0  0  0
   53.2530   99.9990   27.3810 H   0  0  0  0  0  0  0  0  0  0  0  0
   55.5010   99.1680   26.7290 H   0  0  0  0  0  0  0  0  0  0  0  0
   55.8450   97.7710   27.7810 H   0  0  0  0  0  0  0  0  0  0  0  0
   56.6270   97.0420   25.6790 H   0  0  0  0  0  0  0  0  0  0  0  0
   55.2420   97.7730   24.8280 H   0  0  0  0  0  0  0  0  0  0  0  0
   54.0820   95.9390   25.0690 H   0  0  0  0  0  0  0  0  0  0  0  0
   55.1420   95.8180   27.8310 H   0  0  0  0  0  0  0  0  0  0  0  0
   53.9080   94.6730   27.0630 H   0  0  0  0  0  0  0  0  0  0  0  0
   52.8840   96.5900   28.4380 H   0  0  0  0  0  0  0  0  0  0  0  0
   52.4120   96.6030   26.6890 H   0  0  0  0  0  0  0  0  0  0  0  0
   48.3930  105.2350   30.1980 H   0  0  0  0  0  0  0  0  0  0  0  0
   47.8890  105.2870   32.6270 H   0  0  0  0  0  0  0  0  0  0  0  0
  2  1  1  0  0  0  0
  3 24  1  0  0  0  0
  3  2  1  0  0  0  0
  4  3  2  0  0  0  0
  5 22  2  0  0  0  0
  5  4  1  0  0  0  0
  6  5  1  0  0  0  0
  7  6  1  0  0  0  0
  7  8  2  0  0  0  0
  8  9  1  0  0  0  0
  8  4  1  0  0  0  0
 10 26  1  0  0  0  0
 10  9  2  0  0  0  0
 11 10  1  0  0  0  0
 12 11  1  0  0  0  0
 12  7  1  0  0  0  0
 13 12  2  0  0  0  0
 14 28  1  0  0  0  0
 14 11  1  0  0  0  0
 15 14  1  0  0  0  0
 15 16  1  0  0  0  0
 15 30  1  0  0  0  0
 16 21  1  0  0  0  0
 17 16  1  0  0  0  0
 17 32  1  0  0  0  0
 18 19  1  0  0  0  0
 18 17  1  0  0  0  0
 19 20  1  0  0  0  0
 20 21  1  0  0  0  0
 20 36  1  0  0  0  0
 21 38  1  0  0  0  0
 22 23  1  0  0  0  0
 23 41  1  0  0  0  0
 23  2  2  0  0  0  0
 25  6  1  0  0  0  0
 27 14  1  0  0  0  0
 29 15  1  0  0  0  0
 31 17  1  0  0  0  0
 33 18  1  0  0  0  0
 34 18  1  0  0  0  0
 35 19  1  0  0  0  0
 37 20  1  0  0  0  0
 39 21  1  0  0  0  0
 40 22  1  0  0  0  0
M  END
>  <Pose>
1

>  <Score>
-6.46

$$$$
