
 OpenBabel03202210083D

 51 54  0  0  0  0  0  0  0  0999 V2000
   52.8260   83.6990   22.1350 B   0  0  0  0  0  0  0  0  0  0  0  0
   53.5210   83.9820   23.9010 C   0  0  0  0  0  0  0  0  0  0  0  0
   53.4220   82.9670   24.8250 C   0  0  0  0  0  0  0  0  0  0  0  0
   53.9000   83.1360   26.1010 C   0  0  0  0  0  0  0  0  0  0  0  0
   53.9670   82.3850   27.2160 N   0  0  0  0  0  0  0  0  0  0  0  0
   54.5600   83.0720   28.2100 C   0  0  0  0  0  0  0  0  0  0  0  0
   54.8580   84.2710   27.6800 N   0  0  0  0  0  0  0  0  0  0  0  0
   54.4690   84.3440   26.3910 C   0  0  0  0  0  0  0  0  0  0  0  0
   54.5730   85.3810   25.4530 C   0  0  0  0  0  0  0  0  0  0  0  0
   54.0940   85.2140   24.1730 C   0  0  0  0  0  0  0  0  0  0  0  0
   54.1570   86.1830   23.1470 N   0  0  0  0  0  0  0  0  0  0  0  0
   55.2240   86.4360   22.2760 C   0  0  0  0  0  0  0  0  0  0  0  0
   55.5590   85.5780   21.4200 O   0  0  0  0  0  0  0  0  0  0  0  0
   56.0120   87.6730   22.2840 C   0  0  0  0  0  0  0  0  0  0  0  0
   55.4500   88.8230   21.6960 N   0  0  0  0  0  0  0  0  0  0  0  0
   56.2700   89.9710   21.5480 C   0  0  0  0  0  0  0  0  0  0  0  0
   55.4490   91.2450   21.3480 C   0  0  0  0  0  0  0  0  0  0  0  0
   54.5790   91.0350   20.2710 N   0  0  0  0  0  0  0  0  0  0  0  0
   54.5010   89.7470   19.7010 C   0  0  0  0  0  0  0  0  0  0  0  0
   54.5100   88.5900   20.6530 C   0  0  0  0  0  0  0  0  0  0  0  0
   53.5220   91.9320   20.1330 C   0  0  0  0  0  0  0  0  0  0  0  0
   52.5110   91.6740   19.1080 C   0  0  0  0  0  0  0  0  0  0  0  0
   51.5390   90.9070   19.4780 O   0  0  0  0  0  0  0  0  0  0  0  0
   52.4700   92.1510   17.8020 N   0  0  0  0  0  0  0  0  0  0  0  0
   53.5040   91.8640   16.8120 C   0  0  0  0  0  0  0  0  0  0  0  0
   54.8500   91.4390   17.2260 C   0  0  0  0  0  0  0  0  0  0  0  0
   53.9070   90.4180   16.6180 C   0  0  0  0  0  0  0  0  0  0  0  0
   54.8070   82.6160   29.5200 O   0  0  0  0  0  0  0  0  0  0  0  0
   52.9700   82.0160   24.5810 H   0  0  0  0  0  0  0  0  0  0  0  0
   55.3360   85.0620   28.1960 H   0  0  0  0  0  0  0  0  0  0  0  0
   55.0270   86.2960   25.7510 H   0  0  0  0  0  0  0  0  0  0  0  0
   53.2990   86.7950   22.9910 H   0  0  0  0  0  0  0  0  0  0  0  0
   56.1940   87.9050   23.3790 H   0  0  0  0  0  0  0  0  0  0  0  0
   57.0350   87.5320   21.8530 H   0  0  0  0  0  0  0  0  0  0  0  0
   56.7970   89.8450   20.5450 H   0  0  0  0  0  0  0  0  0  0  0  0
   57.0570   90.0580   22.2830 H   0  0  0  0  0  0  0  0  0  0  0  0
   56.1980   92.0300   21.0570 H   0  0  0  0  0  0  0  0  0  0  0  0
   54.9360   91.4820   22.2690 H   0  0  0  0  0  0  0  0  0  0  0  0
   53.6710   89.6740   18.9590 H   0  0  0  0  0  0  0  0  0  0  0  0
   55.4310   89.6170   19.0650 H   0  0  0  0  0  0  0  0  0  0  0  0
   53.4920   88.3340   21.0220 H   0  0  0  0  0  0  0  0  0  0  0  0
   54.8560   87.6930   20.0780 H   0  0  0  0  0  0  0  0  0  0  0  0
   53.0100   92.0040   21.1580 H   0  0  0  0  0  0  0  0  0  0  0  0
   53.9180   93.0080   20.0420 H   0  0  0  0  0  0  0  0  0  0  0  0
   51.6730   92.7360   17.4800 H   0  0  0  0  0  0  0  0  0  0  0  0
   53.4280   92.4230   15.8590 H   0  0  0  0  0  0  0  0  0  0  0  0
   55.7340   91.6840   16.5840 H   0  0  0  0  0  0  0  0  0  0  0  0
   55.1330   91.2470   18.2600 H   0  0  0  0  0  0  0  0  0  0  0  0
   53.4920   89.6330   17.2860 H   0  0  0  0  0  0  0  0  0  0  0  0
   54.1120   90.0460   15.5850 H   0  0  0  0  0  0  0  0  0  0  0  0
   54.9770   83.3560   30.2140 H   0  0  0  0  0  0  0  0  0  0  0  0
  1  2  1  0  0  0  0
  2 10  2  0  0  0  0
  2  3  1  0  0  0  0
  3  4  2  0  0  0  0
  4  8  1  0  0  0  0
  4  5  1  0  0  0  0
  5  6  2  0  0  0  0
  6 28  1  0  0  0  0
  7 30  1  0  0  0  0
  7  6  1  0  0  0  0
  8  7  1  0  0  0  0
  9 31  1  0  0  0  0
  9  8  2  0  0  0  0
 10  9  1  0  0  0  0
 11 10  1  0  0  0  0
 12 14  1  0  0  0  0
 12 11  1  0  0  0  0
 13 12  2  0  0  0  0
 14 33  1  0  0  0  0
 15 14  1  0  0  0  0
 16 15  1  0  0  0  0
 16 36  1  0  0  0  0
 17 16  1  0  0  0  0
 17 38  1  0  0  0  0
 18 17  1  0  0  0  0
 19 18  1  0  0  0  0
 19 20  1  0  0  0  0
 20 41  1  0  0  0  0
 20 15  1  0  0  0  0
 21 18  1  0  0  0  0
 21 43  1  0  0  0  0
 22 23  2  0  0  0  0
 22 21  1  0  0  0  0
 24 22  1  0  0  0  0
 25 26  1  0  0  0  0
 25 24  1  0  0  0  0
 26 48  1  0  0  0  0
 27 25  1  0  0  0  0
 27 26  1  0  0  0  0
 27 49  1  0  0  0  0
 28 51  1  0  0  0  0
 29  3  1  0  0  0  0
 32 11  1  0  0  0  0
 34 14  1  0  0  0  0
 35 16  1  0  0  0  0
 37 17  1  0  0  0  0
 39 19  1  0  0  0  0
 40 19  1  0  0  0  0
 42 20  1  0  0  0  0
 44 21  1  0  0  0  0
 45 24  1  0  0  0  0
 46 25  1  0  0  0  0
 47 26  1  0  0  0  0
 50 27  1  0  0  0  0
M  END
>  <Pose>
1

>  <Score>
-7.47

$$$$
