
 OpenBabel03202210083D

 43 46  0  0  0  0  0  0  0  0999 V2000
   54.1050   90.5750   17.9480 B   0  0  0  0  0  0  0  0  0  0  0  0
   54.8400   90.7250   19.7050 C   0  0  0  0  0  0  0  0  0  0  0  0
   55.7360   89.8100   20.1590 C   0  0  0  0  0  0  0  0  0  0  0  0
   56.2570   89.9020   21.3820 N   0  0  0  0  0  0  0  0  0  0  0  0
   55.8960   90.9140   22.1840 C   0  0  0  0  0  0  0  0  0  0  0  0
   54.9830   91.8780   21.7710 C   0  0  0  0  0  0  0  0  0  0  0  0
   54.4410   91.7910   20.5100 C   0  0  0  0  0  0  0  0  0  0  0  0
   54.6550   92.9360   22.6980 C   0  0  0  0  0  0  0  0  0  0  0  0
   53.7200   93.7200   22.4640 O   0  0  0  0  0  0  0  0  0  0  0  0
   55.4250   93.1120   23.9460 N   0  0  0  0  0  0  0  0  0  0  0  0
   54.8230   93.9150   24.9180 C   0  0  0  0  0  0  0  0  0  0  0  0
   55.2960   95.2110   25.3540 C   0  0  0  0  0  0  0  0  0  0  0  0
   54.4280   95.7770   26.3550 C   0  0  0  0  0  0  0  0  0  0  0  0
   54.7010   96.9880   26.8740 C   0  0  0  0  0  0  0  0  0  0  0  0
   55.8270   97.7210   26.4560 C   0  0  0  0  0  0  0  0  0  0  0  0
   56.6680   97.1960   25.5050 C   0  0  0  0  0  0  0  0  0  0  0  0
   56.3940   95.9320   24.9580 C   0  0  0  0  0  0  0  0  0  0  0  0
   57.3420   95.3090   23.9990 C   0  0  0  0  0  0  0  0  0  0  0  0
   58.7320   95.9360   24.0180 C   0  0  0  0  0  0  0  0  0  0  0  0
   58.6670   97.3780   24.0030 N   0  0  0  0  0  0  0  0  0  0  0  0
   57.8270   97.9400   25.0210 C   0  0  0  0  0  0  0  0  0  0  0  0
   58.1460   99.0690   25.4460 O   0  0  0  0  0  0  0  0  0  0  0  0
   59.3880   98.1860   23.0420 C   0  0  0  0  0  0  0  0  0  0  0  0
   56.0310   98.9240   27.0220 O   0  0  0  0  0  0  0  0  0  0  0  0
   53.6960   97.2730   27.8110 O   0  0  0  0  0  0  0  0  0  0  0  0
   52.6480   96.3360   27.6900 C   0  0  0  0  0  0  0  0  0  0  0  0
   53.2600   95.2960   26.9540 O   0  0  0  0  0  0  0  0  0  0  0  0
   56.0750   88.9550   19.5510 H   0  0  0  0  0  0  0  0  0  0  0  0
   56.3000   91.0210   23.1870 H   0  0  0  0  0  0  0  0  0  0  0  0
   53.7340   92.5230   20.1590 H   0  0  0  0  0  0  0  0  0  0  0  0
   56.3340   92.6290   23.8960 H   0  0  0  0  0  0  0  0  0  0  0  0
   53.7040   94.0330   24.5890 H   0  0  0  0  0  0  0  0  0  0  0  0
   54.6160   93.2460   25.8550 H   0  0  0  0  0  0  0  0  0  0  0  0
   57.0090   95.3490   22.9570 H   0  0  0  0  0  0  0  0  0  0  0  0
   57.5540   94.2510   24.2880 H   0  0  0  0  0  0  0  0  0  0  0  0
   59.2450   95.5370   23.1080 H   0  0  0  0  0  0  0  0  0  0  0  0
   59.2270   95.5730   24.9460 H   0  0  0  0  0  0  0  0  0  0  0  0
   58.8220   98.1120   22.0810 H   0  0  0  0  0  0  0  0  0  0  0  0
   60.3950   97.7660   22.8710 H   0  0  0  0  0  0  0  0  0  0  0  0
   59.3780   99.2360   23.3580 H   0  0  0  0  0  0  0  0  0  0  0  0
   56.7570   99.5510   26.9500 H   0  0  0  0  0  0  0  0  0  0  0  0
   52.2850   95.9880   28.6800 H   0  0  0  0  0  0  0  0  0  0  0  0
   51.8300   96.8270   27.1390 H   0  0  0  0  0  0  0  0  0  0  0  0
  1  2  1  0  0  0  0
  2  3  2  0  0  0  0
  2  7  1  0  0  0  0
  3  4  1  0  0  0  0
  4  5  2  0  0  0  0
  5 29  1  0  0  0  0
  6  5  1  0  0  0  0
  6  8  1  0  0  0  0
  7  6  2  0  0  0  0
  8 10  1  0  0  0  0
  9  8  2  0  0  0  0
 10 11  1  0  0  0  0
 11 12  1  0  0  0  0
 11 33  1  0  0  0  0
 12 13  1  0  0  0  0
 13 14  2  0  0  0  0
 13 27  1  0  0  0  0
 14 25  1  0  0  0  0
 15 14  1  0  0  0  0
 15 24  1  0  0  0  0
 16 15  2  0  0  0  0
 17 12  2  0  0  0  0
 17 16  1  0  0  0  0
 18 19  1  0  0  0  0
 18 35  1  0  0  0  0
 18 17  1  0  0  0  0
 19 37  1  0  0  0  0
 20 19  1  0  0  0  0
 20 21  1  0  0  0  0
 21 22  2  0  0  0  0
 21 16  1  0  0  0  0
 23 40  1  0  0  0  0
 23 20  1  0  0  0  0
 26 25  1  0  0  0  0
 26 42  1  0  0  0  0
 27 26  1  0  0  0  0
 28  3  1  0  0  0  0
 30  7  1  0  0  0  0
 31 10  1  0  0  0  0
 32 11  1  0  0  0  0
 34 18  1  0  0  0  0
 36 19  1  0  0  0  0
 38 23  1  0  0  0  0
 39 23  1  0  0  0  0
 41 24  1  0  0  0  0
 43 26  1  0  0  0  0
M  END
>  <Pose>
1

>  <Score>
-8.18

$$$$
