
 OpenBabel03202210083D

 45 40  0  0  1  0  0  0  0  0999 V2000
   52.0600   91.3360   18.2580 B   0  0  0  0  0  0  0  0  0  0  0  0
   52.8080   89.7040   18.8970 C   0  0  0  0  0  0  0  0  0  0  0  0
   52.2600   88.4780   18.5890 C   0  0  0  0  0  0  0  0  0  0  0  0
   52.7820   87.3220   19.0370 N   0  0  0  0  0  0  0  0  0  0  0  0
   53.8770   87.3670   19.8100 C   0  0  0  0  0  0  0  0  0  0  0  0
   54.4840   88.5510   20.1620 C   0  0  0  0  0  0  0  0  0  0  0  0
   53.9310   89.7140   19.6930 C   0  0  0  0  0  0  0  0  0  0  0  0
   55.6740   88.5830   21.0040 C   0  0  0  0  0  0  0  0  0  0  0  0
   56.2660   89.6730   21.2000 O   0  0  0  0  0  0  0  0  0  0  0  0
   56.1150   87.3940   21.5650 O   0  0  0  0  0  0  0  0  0  0  0  0
   53.6660   86.1060   21.1140 N   0  0  0  0  0  0  0  0  0  0  0  0
   53.8400   85.1190   20.0310 C   0  0  0  0  0  0  0  0  0  0  0  0
   52.4990   84.8060   19.4530 C   0  0  0  0  0  0  0  0  0  0  0  0
   51.9000   86.0620   18.8790 C   0  0  0  0  0  0  0  0  0  0  0  0
   52.5490   87.3070   19.3210 C   0  0  0  0  0  0  0  0  0  0  0  0
   53.4010   87.3320   20.4030 C   0  0  2  0  0  0  0  0  0  0  0  0
   53.9540   88.4920   20.7510 N   0  0  0  0  0  0  0  0  0  0  0  0
   53.7250   89.6540   20.1020 C   0  0  0  0  0  0  0  0  0  0  0  0
   52.8770   89.6660   19.0150 C   0  0  0  0  0  0  0  0  0  0  0  0
   52.2830   88.4890   18.6170 C   0  0  0  0  0  0  0  0  0  0  0  0
   51.4080   88.5070   17.4950 N   0  0  0  0  0  0  0  0  0  0  0  0
   52.6380   90.8660   18.3410 C   0  0  2  0  0  0  0  0  0  0  0  0
   53.2230   92.0540   18.7210 C   0  0  0  0  0  0  0  0  0  0  0  0
   54.0700   92.0350   19.8110 C   0  0  0  0  0  0  0  0  0  0  0  0
   54.3080   90.8440   20.4800 C   0  0  0  0  0  0  0  0  0  0  0  0
   54.9370   86.1620   21.8080 C   0  0  0  0  0  0  0  0  0  0  0  0
   51.3660   88.4850   17.9550 H   0  0  0  0  0  0  0  0  0  0  0  0
   54.2900   86.4340   20.1650 H   0  0  0  0  0  0  0  0  0  0  0  0
   54.3470   90.6880   19.9230 H   0  0  0  0  0  0  0  0  0  0  0  0
   52.8830   85.8360   21.7310 H   0  0  0  0  0  0  0  0  0  0  0  0
   54.2930   84.1880   20.4120 H   0  0  0  0  0  0  0  0  0  0  0  0
   54.4820   85.6220   19.2730 H   0  0  0  0  0  0  0  0  0  0  0  0
   52.6010   84.0030   18.6910 H   0  0  0  0  0  0  0  0  0  0  0  0
   51.8650   84.4000   20.2960 H   0  0  0  0  0  0  0  0  0  0  0  0
   51.9250   85.9460   17.7670 H   0  0  0  0  0  0  0  0  0  0  0  0
   50.8110   86.0420   19.1410 H   0  0  0  0  0  0  0  0  0  0  0  0
   50.4170   88.2280   17.6650 H   0  0  0  0  0  0  0  0  0  0  0  0
   51.6810   88.7710   16.5380 H   0  0  0  0  0  0  0  0  0  0  0  0
   51.9790   90.8800   17.4940 H   0  0  0  0  0  0  0  0  0  0  0  0
   53.0100   92.9660   18.1690 H   0  0  0  0  0  0  0  0  0  0  0  0
   54.5210   92.9750   20.0970 H   0  0  0  0  0  0  0  0  0  0  0  0
   54.9800   90.8640   21.3320 H   0  0  0  0  0  0  0  0  0  0  0  0
   55.6760   86.6340   21.1310 H   0  0  0  0  0  0  0  0  0  0  0  0
   54.8140   86.7420   22.7600 H   0  0  0  0  0  0  0  0  0  0  0  0
   55.2360   85.1130   22.0080 H   0  0  0  0  0  0  0  0  0  0  0  0
  1 22  1  0  0  0  0
  4  5  1  0  0  0  0
  5 28  1  0  0  0  0
  5 16  1  0  0  0  0
  6 17  1  0  0  0  0
  7 18  1  0  0  0  0
  8  9  2  0  0  0  0
  8 10  1  0  0  0  0
 11 30  1  0  0  0  0
 11 26  1  0  0  0  0
 12 31  1  0  0  0  0
 13 12  1  0  0  0  0
 13 34  1  0  0  0  0
 14 36  1  0  0  0  0
 14 15  1  0  0  0  0
 14 13  1  0  0  0  0
 16 15  1  6  0  0  0
 16 17  1  0  0  0  0
 17  8  1  0  0  0  0
 18  6  1  0  0  0  0
 19  7  1  0  0  0  0
 20  2  2  0  0  0  0
 20  4  1  0  0  0  0
 21 37  1  0  0  0  0
 21 27  1  0  0  0  0
 22 23  1  0  0  0  0
 22  2  1  1  0  0  0
 23 24  2  0  0  0  0
 24 41  1  0  0  0  0
 25 42  1  0  0  0  0
 26 45  1  0  0  0  0
 26 44  1  0  0  0  0
 29 25  1  0  0  0  0
 32 12  1  0  0  0  0
 33 13  1  0  0  0  0
 35 14  1  0  0  0  0
 38 21  1  0  0  0  0
 39  1  1  0  0  0  0
 40 23  1  0  0  0  0
 43 10  1  0  0  0  0
M  END
>  <Pose>
1

>  <Score>
-6.51

$$$$
