
 OpenBabel03202210083D

 57 60  0  0  0  0  0  0  0  0999 V2000
   51.5210   88.9490   17.8760 B   0  0  0  0  0  0  0  0  0  0  0  0
   52.8140   88.3510   19.1340 C   0  0  0  0  0  0  0  0  0  0  0  0
   52.8560   87.0150   19.4820 C   0  0  0  0  0  0  0  0  0  0  0  0
   53.7840   86.5080   20.4050 C   0  0  0  0  0  0  0  0  0  0  0  0
   54.6840   87.3660   20.9850 C   0  0  0  0  0  0  0  0  0  0  0  0
   54.6470   88.7040   20.6410 C   0  0  0  0  0  0  0  0  0  0  0  0
   53.7360   89.2020   19.7350 C   0  0  0  0  0  0  0  0  0  0  0  0
   55.8810   89.9220   21.4270 B   0  0  0  0  0  0  0  0  0  0  0  0
   53.7800   85.0920   20.7500 C   0  0  0  0  0  0  0  0  0  0  0  0
   54.3000   84.7960   21.8610 O   0  0  0  0  0  0  0  0  0  0  0  0
   53.2130   84.0730   19.8740 C   0  0  0  0  0  0  0  0  0  0  0  0
   52.5100   84.7790   18.6850 C   0  0  0  0  0  0  0  0  0  0  0  0
   52.0170   86.0340   18.9820 O   0  0  0  0  0  0  0  0  0  0  0  0
   54.1300   83.1360   19.2350 C   0  0  0  0  0  0  0  0  0  0  0  0
   54.3470   82.9810   17.8720 N   0  0  0  0  0  4  0  0  0  0  0  0
   53.2790   83.1440   16.9360 C   0  0  0  0  0  0  0  0  0  0  0  0
   53.9440   83.5220   15.5880 C   0  0  0  0  0  0  0  0  0  0  0  0
   54.5790   82.2410   15.0890 C   0  0  0  0  0  0  0  0  0  0  0  0
   54.7330   81.2230   16.1970 C   0  0  0  0  0  0  0  0  0  0  0  0
   55.1950   81.8610   17.4890 C   0  0  0  0  0  0  0  0  0  0  0  0
   52.1650   83.3080   20.6680 C   0  0  0  0  0  0  0  0  0  0  0  0
   52.6010   81.9880   21.0510 N   0  0  0  0  0  4  0  0  0  0  0  0
   51.4170   81.1580   21.2170 C   0  0  0  0  0  0  0  0  0  0  0  0
   50.4820   81.8260   22.1690 C   0  0  0  0  0  0  0  0  0  0  0  0
   51.0740   82.2050   23.4770 C   0  0  0  0  0  0  0  0  0  0  0  0
   52.4970   82.6430   23.4340 C   0  0  0  0  0  0  0  0  0  0  0  0
   53.2630   81.9310   22.3420 C   0  0  0  0  0  0  0  0  0  0  0  0
   55.4200   86.9920   21.7110 H   0  0  0  0  0  0  0  0  0  0  0  0
   53.7030   90.2490   19.4630 H   0  0  0  0  0  0  0  0  0  0  0  0
   51.7550   84.0850   18.2470 H   0  0  0  0  0  0  0  0  0  0  0  0
   53.2840   84.8640   17.8960 H   0  0  0  0  0  0  0  0  0  0  0  0
   53.9150   82.0850   19.6280 H   0  0  0  0  0  0  0  0  0  0  0  0
   55.1470   83.3220   19.7280 H   0  0  0  0  0  0  0  0  0  0  0  0
   54.9810   83.8260   17.6230 H   0  0  0  0  0  0  0  0  0  0  0  0
   52.6130   83.9750   17.1990 H   0  0  0  0  0  0  0  0  0  0  0  0
   52.7570   82.2060   16.6450 H   0  0  0  0  0  0  0  0  0  0  0  0
   54.6990   84.3140   15.7500 H   0  0  0  0  0  0  0  0  0  0  0  0
   53.1390   83.8740   14.9130 H   0  0  0  0  0  0  0  0  0  0  0  0
   53.8430   81.7950   14.3640 H   0  0  0  0  0  0  0  0  0  0  0  0
   55.5040   82.4110   14.5220 H   0  0  0  0  0  0  0  0  0  0  0  0
   55.5910   80.5620   15.8700 H   0  0  0  0  0  0  0  0  0  0  0  0
   53.8830   80.5470   16.3110 H   0  0  0  0  0  0  0  0  0  0  0  0
   56.2630   82.1780   17.2860 H   0  0  0  0  0  0  0  0  0  0  0  0
   55.2940   81.0860   18.2490 H   0  0  0  0  0  0  0  0  0  0  0  0
   51.7880   83.9020   21.5050 H   0  0  0  0  0  0  0  0  0  0  0  0
   51.3330   83.1580   19.9520 H   0  0  0  0  0  0  0  0  0  0  0  0
   53.2640   81.5900   20.3630 H   0  0  0  0  0  0  0  0  0  0  0  0
   50.9060   80.9580   20.2710 H   0  0  0  0  0  0  0  0  0  0  0  0
   51.7580   80.2090   21.7080 H   0  0  0  0  0  0  0  0  0  0  0  0
   49.6480   81.0890   22.3660 H   0  0  0  0  0  0  0  0  0  0  0  0
   49.9660   82.7130   21.7510 H   0  0  0  0  0  0  0  0  0  0  0  0
   50.4810   83.0590   23.9190 H   0  0  0  0  0  0  0  0  0  0  0  0
   50.9100   81.3650   24.2090 H   0  0  0  0  0  0  0  0  0  0  0  0
   52.9690   82.2890   24.4000 H   0  0  0  0  0  0  0  0  0  0  0  0
   52.6510   83.7360   23.4390 H   0  0  0  0  0  0  0  0  0  0  0  0
   54.3170   82.1900   22.3390 H   0  0  0  0  0  0  0  0  0  0  0  0
   53.2310   80.8370   22.6340 H   0  0  0  0  0  0  0  0  0  0  0  0
  1  2  1  0  0  0  0
  2  3  2  0  0  0  0
  2  7  1  0  0  0  0
  3  4  1  0  0  0  0
  4  9  1  0  0  0  0
  4  5  2  0  0  0  0
  5 28  1  0  0  0  0
  6  5  1  0  0  0  0
  6  8  1  0  0  0  0
  7  6  2  0  0  0  0
  9 10  2  0  0  0  0
 11 21  1  0  0  0  0
 11  9  1  0  0  0  0
 12 13  1  0  0  0  0
 12 11  1  0  0  0  0
 13  3  1  0  0  0  0
 14 32  1  0  0  0  0
 14 33  1  0  0  0  0
 14 11  1  0  0  0  0
 15 14  1  0  0  0  0
 16 35  1  0  0  0  0
 16 15  1  0  0  0  0
 17 37  1  0  0  0  0
 17 16  1  0  0  0  0
 18 17  1  0  0  0  0
 18 19  1  0  0  0  0
 19 42  1  0  0  0  0
 19 20  1  0  0  0  0
 20 15  1  0  0  0  0
 20 44  1  0  0  0  0
 21 22  1  0  0  0  0
 21 45  1  0  0  0  0
 22 23  1  0  0  0  0
 22 27  1  0  0  0  0
 23 49  1  0  0  0  0
 23 24  1  0  0  0  0
 24 50  1  0  0  0  0
 24 25  1  0  0  0  0
 25 52  1  0  0  0  0
 25 53  1  0  0  0  0
 26 55  1  0  0  0  0
 26 25  1  0  0  0  0
 26 54  1  0  0  0  0
 27 57  1  0  0  0  0
 27 26  1  0  0  0  0
 29  7  1  0  0  0  0
 30 12  1  0  0  0  0
 31 12  1  0  0  0  0
 34 15  1  0  0  0  0
 36 16  1  0  0  0  0
 38 17  1  0  0  0  0
 39 18  1  0  0  0  0
 40 18  1  0  0  0  0
 41 19  1  0  0  0  0
 43 20  1  0  0  0  0
 46 21  1  0  0  0  0
 47 22  1  0  0  0  0
 48 23  1  0  0  0  0
 51 24  1  0  0  0  0
 56 27  1  0  0  0  0
M  END
>  <Pose>
1

>  <Score>
-5.16

$$$$
