
 OpenBabel03202210083D

 56 59  0  0  1  0  0  0  0  0999 V2000
   57.7400   97.6110   24.8300 B   0  0  0  0  0  0  0  0  0  0  0  0
   56.1890   96.7740   25.5370 C   0  0  0  0  0  0  0  0  0  0  0  0
   55.9330   95.4330   25.2220 C   0  0  0  0  0  0  0  0  0  0  0  0
   54.8420   94.7780   25.7070 C   0  0  0  0  0  0  0  0  0  0  0  0
   53.9680   95.4660   26.5290 C   0  0  0  0  0  0  0  0  0  0  0  0
   54.2140   96.7970   26.8460 C   0  0  0  0  0  0  0  0  0  0  0  0
   55.3180   97.4560   26.3560 C   0  0  0  0  0  0  0  0  0  0  0  0
   53.2970   97.5740   27.7280 C   0  0  0  0  0  0  0  0  0  0  0  0
   54.6130   93.3410   25.3930 C   0  0  1  0  0  0  0  0  0  0  0  0
   55.1150   92.8560   24.0810 C   0  0  0  0  0  0  0  0  0  0  0  0
   56.0680   93.8890   23.4330 C   0  0  0  0  0  0  0  0  0  0  0  0
   56.7490   94.6660   24.4040 O   0  0  0  0  0  0  0  0  0  0  0  0
   54.0190   92.7190   23.0420 C   0  0  0  0  0  0  0  0  0  0  0  0
   54.4920   92.5450   21.6850 N   0  0  0  0  0  4  0  0  0  0  0  0
   53.4090   92.8430   20.7480 C   0  0  0  0  0  0  0  0  0  0  0  0
   53.6990   92.1290   19.4800 C   0  0  0  0  0  0  0  0  0  0  0  0
   54.8510   91.2440   19.8160 C   0  0  0  0  0  0  0  0  0  0  0  0
   54.7310   91.1530   21.3430 C   0  0  0  0  0  0  0  0  0  0  0  0
   55.9530   91.6410   24.2060 C   0  0  0  0  0  0  0  0  0  0  0  0
   55.5880   90.3220   24.2730 N   0  0  0  0  0  4  0  0  0  0  0  0
   55.8980   89.6400   22.9960 C   0  0  0  0  0  0  0  0  0  0  0  0
   56.2810   88.2530   23.3390 C   0  0  0  0  0  0  0  0  0  0  0  0
   56.7590   88.2790   24.7400 C   0  0  0  0  0  0  0  0  0  0  0  0
   56.0800   89.5200   25.3160 C   0  0  0  0  0  0  0  0  0  0  0  0
   55.2130   92.6880   26.5070 O   0  0  0  0  0  0  0  0  0  0  0  0
   53.0910   95.0180   26.9440 H   0  0  0  0  0  0  0  0  0  0  0  0
   55.5420   98.4860   26.5800 H   0  0  0  0  0  0  0  0  0  0  0  0
   52.2750   97.1550   27.7240 H   0  0  0  0  0  0  0  0  0  0  0  0
   53.7420   97.5790   28.7590 H   0  0  0  0  0  0  0  0  0  0  0  0
   53.2950   98.6570   27.4190 H   0  0  0  0  0  0  0  0  0  0  0  0
   53.5130   93.1340   25.5410 H   0  0  0  0  0  0  0  0  0  0  0  0
   55.5800   94.4680   22.6510 H   0  0  0  0  0  0  0  0  0  0  0  0
   56.8690   93.3050   22.9040 H   0  0  0  0  0  0  0  0  0  0  0  0
   53.4580   91.7540   23.2660 H   0  0  0  0  0  0  0  0  0  0  0  0
   53.2470   93.4660   23.0370 H   0  0  0  0  0  0  0  0  0  0  0  0
   55.3520   93.0600   21.4460 H   0  0  0  0  0  0  0  0  0  0  0  0
   53.2620   93.9040   20.5750 H   0  0  0  0  0  0  0  0  0  0  0  0
   52.4800   92.4480   21.2310 H   0  0  0  0  0  0  0  0  0  0  0  0
   53.8790   92.8240   18.6470 H   0  0  0  0  0  0  0  0  0  0  0  0
   52.8090   91.5080   19.1710 H   0  0  0  0  0  0  0  0  0  0  0  0
   55.8040   91.7910   19.5810 H   0  0  0  0  0  0  0  0  0  0  0  0
   54.8190   90.2470   19.3600 H   0  0  0  0  0  0  0  0  0  0  0  0
   53.8390   90.5280   21.5730 H   0  0  0  0  0  0  0  0  0  0  0  0
   55.6350   90.7220   21.7590 H   0  0  0  0  0  0  0  0  0  0  0  0
   56.7800   91.6850   23.3690 H   0  0  0  0  0  0  0  0  0  0  0  0
   56.6940   91.7950   25.0980 H   0  0  0  0  0  0  0  0  0  0  0  0
   54.4800   90.2100   24.2460 H   0  0  0  0  0  0  0  0  0  0  0  0
   54.9940   89.5720   22.3350 H   0  0  0  0  0  0  0  0  0  0  0  0
   56.6430   90.1640   22.4000 H   0  0  0  0  0  0  0  0  0  0  0  0
   55.4250   87.5440   23.2620 H   0  0  0  0  0  0  0  0  0  0  0  0
   57.1140   87.8730   22.6910 H   0  0  0  0  0  0  0  0  0  0  0  0
   56.4240   87.4090   25.3310 H   0  0  0  0  0  0  0  0  0  0  0  0
   57.8680   88.3420   24.8380 H   0  0  0  0  0  0  0  0  0  0  0  0
   56.8110   89.9400   25.9970 H   0  0  0  0  0  0  0  0  0  0  0  0
   55.2320   89.1640   26.0000 H   0  0  0  0  0  0  0  0  0  0  0  0
   54.8290   91.8050   26.6470 H   0  0  0  0  0  0  0  0  0  0  0  0
  1  2  1  0  0  0  0
  2  7  1  0  0  0  0
  3  2  2  0  0  0  0
  3  4  1  0  0  0  0
  4  5  2  0  0  0  0
  5  6  1  0  0  0  0
  5 26  1  0  0  0  0
  6  8  1  0  0  0  0
  7 27  1  0  0  0  0
  7  6  2  0  0  0  0
  8 29  1  0  0  0  0
  9 31  1  1  0  0  0
  9  4  1  0  0  0  0
  9 25  1  0  0  0  0
 10 19  1  0  0  0  0
 10  9  1  0  0  0  0
 11 10  1  0  0  0  0
 11 12  1  0  0  0  0
 12  3  1  0  0  0  0
 13 34  1  0  0  0  0
 13 10  1  0  0  0  0
 14 13  1  0  0  0  0
 15 38  1  0  0  0  0
 15 14  1  0  0  0  0
 16 17  1  0  0  0  0
 16 15  1  0  0  0  0
 17 18  1  0  0  0  0
 18 43  1  0  0  0  0
 18 14  1  0  0  0  0
 18 44  1  0  0  0  0
 19 20  1  0  0  0  0
 19 46  1  0  0  0  0
 20 24  1  0  0  0  0
 21 22  1  0  0  0  0
 21 20  1  0  0  0  0
 22 23  1  0  0  0  0
 23 53  1  0  0  0  0
 23 24  1  0  0  0  0
 23 52  1  0  0  0  0
 24 54  1  0  0  0  0
 24 55  1  0  0  0  0
 25 56  1  0  0  0  0
 28  8  1  0  0  0  0
 30  8  1  0  0  0  0
 32 11  1  0  0  0  0
 33 11  1  0  0  0  0
 35 13  1  0  0  0  0
 36 14  1  0  0  0  0
 37 15  1  0  0  0  0
 39 16  1  0  0  0  0
 40 16  1  0  0  0  0
 41 17  1  0  0  0  0
 42 17  1  0  0  0  0
 45 19  1  0  0  0  0
 47 20  1  0  0  0  0
 48 21  1  0  0  0  0
 49 21  1  0  0  0  0
 50 22  1  0  0  0  0
 51 22  1  0  0  0  0
M  END
>  <Pose>
1

>  <Score>
-5.94

$$$$
