
 OpenBabel03162216073D

 43 46  0  0  0  0  0  0  0  0999 V2000
   52.8670   93.3070   25.5500 B   0  0  0  0  0  0  0  0  0  0  0  0
   54.4040   94.4130   25.3430 C   0  0  0  0  0  0  0  0  0  0  0  0
   55.4280   94.1060   24.4900 N   0  0  0  0  0  0  0  0  0  0  0  0
   56.3060   95.1190   24.6320 C   0  0  0  0  0  0  0  0  0  0  0  0
   55.8470   96.0450   25.5560 C   0  0  0  0  0  0  0  0  0  0  0  0
   54.6560   95.5670   25.9770 N   0  0  0  0  0  0  0  0  0  0  0  0
   56.5100   97.1630   25.8980 N   0  0  0  0  0  0  0  0  0  0  0  0
   57.6900   97.3730   25.2880 C   0  0  0  0  0  0  0  0  0  0  0  0
   58.3580   98.4220   25.5800 O   0  0  0  0  0  0  0  0  0  0  0  0
   58.1720   96.5010   24.3840 N   0  0  0  0  0  0  0  0  0  0  0  0
   57.5030   95.3670   24.0350 C   0  0  0  0  0  0  0  0  0  0  0  0
   57.9640   94.5690   23.1930 O   0  0  0  0  0  0  0  0  0  0  0  0
   56.0240   98.1240   26.8660 C   0  0  0  0  0  0  0  0  0  0  0  0
   55.4730   92.9360   23.6370 C   0  0  0  0  0  0  0  0  0  0  0  0
   54.5460   93.0070   22.4590 C   0  0  0  0  0  0  0  0  0  0  0  0
   53.7500   91.7580   22.2130 C   0  0  0  0  0  0  0  0  0  0  0  0
   54.3560   90.9830   21.1390 N   0  0  0  0  0  0  0  0  0  0  0  0
   54.1300   91.0710   19.8090 C   0  0  0  0  0  0  0  0  0  0  0  0
   54.9080   90.1610   19.1320 C   0  0  0  0  0  0  0  0  0  0  0  0
   55.6150   89.5150   20.0780 N   0  0  0  0  0  0  0  0  0  0  0  0
   55.2760   90.0160   21.2850 C   0  0  0  0  0  0  0  0  0  0  0  0
   55.9670   89.4760   22.9820 B   0  0  0  0  0  0  0  0  0  0  0  0
   54.8950   90.0180   17.7930 N   0  0  0  0  0  0  0  0  0  0  0  0
   54.0580   90.8320   17.1060 C   0  0  0  0  0  0  0  0  0  0  0  0
   54.0440   90.7010   15.8440 O   0  0  0  0  0  0  0  0  0  0  0  0
   53.2770   91.7380   17.7310 N   0  0  0  0  0  0  0  0  0  0  0  0
   53.2980   91.8730   19.0730 C   0  0  0  0  0  0  0  0  0  0  0  0
   52.5850   92.7060   19.6840 O   0  0  0  0  0  0  0  0  0  0  0  0
   55.7400   89.0360   17.1170 C   0  0  0  0  0  0  0  0  0  0  0  0
   59.0850   96.6490   23.9030 H   0  0  0  0  0  0  0  0  0  0  0  0
   55.2060   97.7000   27.4860 H   0  0  0  0  0  0  0  0  0  0  0  0
   56.8590   98.3300   27.5940 H   0  0  0  0  0  0  0  0  0  0  0  0
   55.6480   99.0540   26.3950 H   0  0  0  0  0  0  0  0  0  0  0  0
   55.3200   92.0170   24.2440 H   0  0  0  0  0  0  0  0  0  0  0  0
   56.5150   92.9020   23.2050 H   0  0  0  0  0  0  0  0  0  0  0  0
   55.0720   93.3440   21.5380 H   0  0  0  0  0  0  0  0  0  0  0  0
   53.7890   93.8220   22.6680 H   0  0  0  0  0  0  0  0  0  0  0  0
   53.8320   91.0970   23.1260 H   0  0  0  0  0  0  0  0  0  0  0  0
   52.7050   91.9680   21.9900 H   0  0  0  0  0  0  0  0  0  0  0  0
   52.6550   92.3360   17.1520 H   0  0  0  0  0  0  0  0  0  0  0  0
   56.8160   89.2860   17.2340 H   0  0  0  0  0  0  0  0  0  0  0  0
   55.5870   88.0190   17.5260 H   0  0  0  0  0  0  0  0  0  0  0  0
   55.5020   89.0940   16.0440 H   0  0  0  0  0  0  0  0  0  0  0  0
  2  1  1  0  0  0  0
  2  6  2  0  0  0  0
  3  4  1  0  0  0  0
  3  2  1  0  0  0  0
  4  5  2  0  0  0  0
  5  7  1  0  0  0  0
  5  6  1  0  0  0  0
  7 13  1  0  0  0  0
  8  9  2  0  0  0  0
  8  7  1  0  0  0  0
 10  8  1  0  0  0  0
 11 10  1  0  0  0  0
 11  4  1  0  0  0  0
 12 11  2  0  0  0  0
 13 31  1  0  0  0  0
 13 32  1  0  0  0  0
 14 34  1  0  0  0  0
 14  3  1  0  0  0  0
 15 37  1  0  0  0  0
 15 14  1  0  0  0  0
 16 15  1  0  0  0  0
 16 38  1  0  0  0  0
 17 21  1  0  0  0  0
 17 16  1  0  0  0  0
 18 17  1  0  0  0  0
 19 18  2  0  0  0  0
 19 20  1  0  0  0  0
 20 21  2  0  0  0  0
 21 22  1  0  0  0  0
 23 19  1  0  0  0  0
 24 26  1  0  0  0  0
 24 23  1  0  0  0  0
 25 24  2  0  0  0  0
 26 27  1  0  0  0  0
 27 28  2  0  0  0  0
 27 18  1  0  0  0  0
 29 41  1  0  0  0  0
 29 42  1  0  0  0  0
 29 23  1  0  0  0  0
 30 10  1  0  0  0  0
 33 13  1  0  0  0  0
 35 14  1  0  0  0  0
 36 15  1  0  0  0  0
 39 16  1  0  0  0  0
 40 26  1  0  0  0  0
 43 29  1  0  0  0  0
M  END
>  <Pose>
1

>  <Score>
-6.94

$$$$
