
 OpenBabel03202210083D

 40 43  0  0  0  0  0  0  0  0999 V2000
   56.0380   99.2520   27.8280 B   0  0  0  0  0  0  0  0  0  0  0  0
   55.6820   97.6260   26.8920 C   0  0  0  0  0  0  0  0  0  0  0  0
   54.5370   96.9200   27.0500 N   0  0  0  0  0  0  0  0  0  0  0  0
   54.6440   95.8450   26.2350 C   0  0  0  0  0  0  0  0  0  0  0  0
   55.8630   95.8750   25.5620 C   0  0  0  0  0  0  0  0  0  0  0  0
   56.4700   97.0000   26.0040 N   0  0  0  0  0  0  0  0  0  0  0  0
   56.1970   94.9110   24.6860 N   0  0  0  0  0  0  0  0  0  0  0  0
   55.3570   93.8900   24.4390 C   0  0  0  0  0  0  0  0  0  0  0  0
   55.6660   92.9740   23.6130 O   0  0  0  0  0  0  0  0  0  0  0  0
   54.1660   93.8100   25.0590 N   0  0  0  0  0  0  0  0  0  0  0  0
   53.8230   94.7820   25.9440 C   0  0  0  0  0  0  0  0  0  0  0  0
   52.7100   94.7430   26.5450 O   0  0  0  0  0  0  0  0  0  0  0  0
   57.4600   94.9360   23.9850 C   0  0  0  0  0  0  0  0  0  0  0  0
   53.4580   97.2860   27.9020 C   0  0  0  0  0  0  0  0  0  0  0  0
   52.1650   97.6260   27.2510 C   0  0  0  0  0  0  0  0  0  0  0  0
   51.5040   98.8190   27.6450 N   0  0  0  0  0  0  0  0  0  0  0  0
   50.2340   98.9570   28.0600 C   0  0  0  0  0  0  0  0  0  0  0  0
   49.9920  100.2870   28.3350 C   0  0  0  0  0  0  0  0  0  0  0  0
   51.1590  100.9110   28.0700 N   0  0  0  0  0  0  0  0  0  0  0  0
   52.0850  100.0550   27.6540 C   0  0  0  0  0  0  0  0  0  0  0  0
   53.9040  100.4460   27.1530 B   0  0  0  0  0  0  0  0  0  0  0  0
   48.7950  100.6760   28.7720 N   0  0  0  0  0  0  0  0  0  0  0  0
   47.8150   99.7860   28.9470 C   0  0  0  0  0  0  0  0  0  0  0  0
   46.6580  100.1280   29.3620 O   0  0  0  0  0  0  0  0  0  0  0  0
   47.9710   98.4730   28.7020 N   0  0  0  0  0  0  0  0  0  0  0  0
   49.1760   98.0850   28.2640 C   0  0  0  0  0  0  0  0  0  0  0  0
   49.3310   96.8650   28.0360 O   0  0  0  0  0  0  0  0  0  0  0  0
   48.5280  102.0650   29.0620 C   0  0  0  0  0  0  0  0  0  0  0  0
   53.4990   93.0280   24.8820 H   0  0  0  0  0  0  0  0  0  0  0  0
   57.2540   95.0250   22.8880 H   0  0  0  0  0  0  0  0  0  0  0  0
   57.9980   94.0090   24.2370 H   0  0  0  0  0  0  0  0  0  0  0  0
   58.0680   95.8010   24.3480 H   0  0  0  0  0  0  0  0  0  0  0  0
   53.7720   98.0600   28.6440 H   0  0  0  0  0  0  0  0  0  0  0  0
   53.2320   96.3920   28.5690 H   0  0  0  0  0  0  0  0  0  0  0  0
   51.5030   96.7200   27.3100 H   0  0  0  0  0  0  0  0  0  0  0  0
   52.3950   97.7300   26.1440 H   0  0  0  0  0  0  0  0  0  0  0  0
   47.1780   97.7980   28.8510 H   0  0  0  0  0  0  0  0  0  0  0  0
   49.4940  102.5290   29.3380 H   0  0  0  0  0  0  0  0  0  0  0  0
   48.0640  102.6120   28.2390 H   0  0  0  0  0  0  0  0  0  0  0  0
   47.8740  102.1770   29.9630 H   0  0  0  0  0  0  0  0  0  0  0  0
  2  3  1  0  0  0  0
  2  1  1  0  0  0  0
  3 14  1  0  0  0  0
  4  3  1  0  0  0  0
  5  6  1  0  0  0  0
  5  4  2  0  0  0  0
  6  2  2  0  0  0  0
  7  5  1  0  0  0  0
  8  7  1  0  0  0  0
  8 10  1  0  0  0  0
  9  8  2  0  0  0  0
 10 11  1  0  0  0  0
 11  4  1  0  0  0  0
 11 12  2  0  0  0  0
 13 31  1  0  0  0  0
 13 32  1  0  0  0  0
 13  7  1  0  0  0  0
 14 34  1  0  0  0  0
 14 33  1  0  0  0  0
 15 35  1  0  0  0  0
 15 16  1  0  0  0  0
 15 14  1  0  0  0  0
 16 20  1  0  0  0  0
 16 17  1  0  0  0  0
 17 26  1  0  0  0  0
 17 18  2  0  0  0  0
 18 22  1  0  0  0  0
 19 18  1  0  0  0  0
 20 19  2  0  0  0  0
 21 20  1  0  0  0  0
 22 23  1  0  0  0  0
 22 28  1  0  0  0  0
 23 24  2  0  0  0  0
 25 37  1  0  0  0  0
 25 23  1  0  0  0  0
 26 25  1  0  0  0  0
 27 26  2  0  0  0  0
 28 38  1  0  0  0  0
 28 40  1  0  0  0  0
 29 10  1  0  0  0  0
 30 13  1  0  0  0  0
 36 15  1  0  0  0  0
 39 28  1  0  0  0  0
M  END
>  <Pose>
1

>  <Score>
-6.95

$$$$
