
 OpenBabel03202210083D

 37 40  0  0  1  0  0  0  0  0999 V2000
   52.0540   88.9920   18.8980 B   0  0  0  0  0  0  0  0  0  0  0  0
   52.6870   87.4020   19.7310 C   0  0  0  0  0  0  0  0  0  0  0  0
   52.0860   86.1920   19.7490 N   0  0  0  0  0  0  0  0  0  0  0  0
   52.8110   85.3040   20.3900 N   0  0  0  0  0  0  0  0  0  0  0  0
   53.9150   85.9510   20.8030 C   0  0  0  0  0  0  0  0  0  0  0  0
   54.9890   85.5330   21.4810 N   0  0  0  0  0  0  0  0  0  0  0  0
   56.0030   86.3670   21.7760 C   0  0  0  0  0  0  0  0  0  0  0  0
   55.9640   87.6560   21.3940 N   0  0  0  0  0  0  0  0  0  0  0  0
   54.8980   88.1570   20.6980 C   0  0  0  0  0  0  0  0  0  0  0  0
   53.8790   87.2940   20.4060 C   0  0  0  0  0  0  0  0  0  0  0  0
   54.8850   89.5540   20.3680 N   0  0  0  0  0  0  0  0  0  0  0  0
   55.5170   90.5330   21.1950 C   0  0  1  0  0  0  0  0  0  0  0  0
   54.8530   91.8560   21.1540 C   0  0  0  0  0  0  0  0  0  0  0  0
   53.8800   92.0410   20.2100 O   0  0  0  0  0  0  0  0  0  0  0  0
   54.1600   91.4020   19.0070 C   0  0  0  0  0  0  0  0  0  0  0  0
   54.2210   89.9150   19.1530 C   0  0  0  0  0  0  0  0  0  0  0  0
   55.7440   90.0270   22.5670 C   0  0  0  0  0  0  0  0  0  0  0  0
   56.6130   89.0780   22.9190 N   0  0  0  0  0  0  0  0  0  0  0  0
   56.4910   88.9260   24.2690 C   0  0  0  0  0  0  0  0  0  0  0  0
   55.5470   89.7980   24.6670 N   0  0  0  0  0  0  0  0  0  0  0  0
   55.1140   90.4470   23.6260 O   0  0  0  0  0  0  0  0  0  0  0  0
   57.2430   87.9920   25.1380 C   0  0  0  0  0  0  0  0  0  0  0  0
   52.4690   83.9100   20.5990 C   0  0  0  0  0  0  0  0  0  0  0  0
   56.8470   85.9480   22.3340 H   0  0  0  0  0  0  0  0  0  0  0  0
   56.5470   90.7070   20.6980 H   0  0  0  0  0  0  0  0  0  0  0  0
   55.5980   92.7110   21.1360 H   0  0  0  0  0  0  0  0  0  0  0  0
   54.3520   92.0030   22.1590 H   0  0  0  0  0  0  0  0  0  0  0  0
   53.3220   91.6430   18.3170 H   0  0  0  0  0  0  0  0  0  0  0  0
   55.0750   91.8210   18.5210 H   0  0  0  0  0  0  0  0  0  0  0  0
   53.2200   89.4320   19.0480 H   0  0  0  0  0  0  0  0  0  0  0  0
   54.8360   89.4530   18.3210 H   0  0  0  0  0  0  0  0  0  0  0  0
   57.4840   87.0690   24.5380 H   0  0  0  0  0  0  0  0  0  0  0  0
   56.6500   87.6610   26.0090 H   0  0  0  0  0  0  0  0  0  0  0  0
   58.2130   88.4260   25.4830 H   0  0  0  0  0  0  0  0  0  0  0  0
   51.3850   83.7680   20.4230 H   0  0  0  0  0  0  0  0  0  0  0  0
   52.6990   83.6330   21.6580 H   0  0  0  0  0  0  0  0  0  0  0  0
   52.9950   83.2390   19.8730 H   0  0  0  0  0  0  0  0  0  0  0  0
  1  2  1  0  0  0  0
  2  3  2  0  0  0  0
  2 10  1  0  0  0  0
  3  4  1  0  0  0  0
  4 23  1  0  0  0  0
  4  5  1  0  0  0  0
  5  6  1  0  0  0  0
  6  7  2  0  0  0  0
  7 24  1  0  0  0  0
  8  7  1  0  0  0  0
  9  8  2  0  0  0  0
 10  9  1  0  0  0  0
 10  5  2  0  0  0  0
 11  9  1  0  0  0  0
 11 12  1  0  0  0  0
 12 25  1  6  0  0  0
 12 17  1  0  0  0  0
 13 12  1  0  0  0  0
 13 27  1  0  0  0  0
 14 13  1  0  0  0  0
 15 16  1  0  0  0  0
 15 14  1  0  0  0  0
 16 11  1  0  0  0  0
 17 18  2  0  0  0  0
 17 21  1  0  0  0  0
 18 19  1  0  0  0  0
 19 20  2  0  0  0  0
 19 22  1  0  0  0  0
 21 20  1  0  0  0  0
 22 34  1  0  0  0  0
 22 33  1  0  0  0  0
 23 36  1  0  0  0  0
 26 13  1  0  0  0  0
 28 15  1  0  0  0  0
 29 15  1  0  0  0  0
 30 16  1  0  0  0  0
 31 16  1  0  0  0  0
 32 22  1  0  0  0  0
 35 23  1  0  0  0  0
 37 23  1  0  0  0  0
M  END
>  <Pose>
1

>  <Score>
-4.83

$$$$
