
 OpenBabel03202210083D

 49 52  0  0  0  0  0  0  0  0999 V2000
   53.9570   84.5520   26.8750 B   0  0  0  0  0  0  0  0  0  0  0  0
   54.5260   85.9670   25.7020 C   0  0  0  0  0  0  0  0  0  0  0  0
   55.0990   87.0940   26.0010 O   0  0  0  0  0  0  0  0  0  0  0  0
   55.3470   87.8150   24.9590 C   0  0  0  0  0  0  0  0  0  0  0  0
   54.9020   87.1120   23.8330 C   0  0  0  0  0  0  0  0  0  0  0  0
   54.3820   85.9370   24.3340 C   0  0  0  0  0  0  0  0  0  0  0  0
   55.9720   89.1140   24.9360 C   0  0  0  0  0  0  0  0  0  0  0  0
   56.9790   89.3190   25.6760 O   0  0  0  0  0  0  0  0  0  0  0  0
   55.5190   90.1880   24.1230 N   0  0  0  0  0  0  0  0  0  0  0  0
   55.7030   90.2090   22.7050 C   0  0  0  0  0  0  0  0  0  0  0  0
   55.8460   91.5890   22.1420 C   0  0  0  0  0  0  0  0  0  0  0  0
   54.7220   92.4740   22.4860 C   0  0  0  0  0  0  0  0  0  0  0  0
   53.8000   92.5920   21.6120 O   0  0  0  0  0  0  0  0  0  0  0  0
   54.6370   93.1760   23.7180 N   0  0  0  0  0  0  0  0  0  0  0  0
   54.7600   92.4570   24.9560 C   0  0  0  0  0  0  0  0  0  0  0  0
   55.4130   93.2380   26.0550 C   0  0  0  0  0  0  0  0  0  0  0  0
   55.2940   94.7250   25.8870 C   0  0  0  0  0  0  0  0  0  0  0  0
   55.2930   95.3820   27.1590 N   0  0  0  0  0  0  0  0  0  0  0  0
   55.1400   96.7950   27.0920 C   0  0  0  0  0  0  0  0  0  0  0  0
   55.9520   97.4790   26.0420 C   0  0  0  0  0  0  0  0  0  0  0  0
   56.7810   96.5410   25.2420 C   0  0  0  0  0  0  0  0  0  0  0  0
   57.8780   96.7340   24.5080 N   0  0  0  0  0  0  0  0  0  0  0  0
   58.2630   95.5670   23.9720 C   0  0  0  0  0  0  0  0  0  0  0  0
   57.4090   94.6100   24.3610 N   0  0  0  0  0  0  0  0  0  0  0  0
   56.4960   95.2020   25.1410 C   0  0  0  0  0  0  0  0  0  0  0  0
   54.0750   95.0610   25.0430 C   0  0  0  0  0  0  0  0  0  0  0  0
   54.4240   94.6180   23.6370 C   0  0  0  0  0  0  0  0  0  0  0  0
   54.9520   87.4200   22.8130 H   0  0  0  0  0  0  0  0  0  0  0  0
   53.9290   85.1120   23.7660 H   0  0  0  0  0  0  0  0  0  0  0  0
   55.0380   90.9800   24.5890 H   0  0  0  0  0  0  0  0  0  0  0  0
   56.5390   89.5640   22.3760 H   0  0  0  0  0  0  0  0  0  0  0  0
   54.7820   89.7340   22.2550 H   0  0  0  0  0  0  0  0  0  0  0  0
   56.7670   92.0380   22.6090 H   0  0  0  0  0  0  0  0  0  0  0  0
   56.0570   91.5340   21.0550 H   0  0  0  0  0  0  0  0  0  0  0  0
   55.2970   91.5090   24.7500 H   0  0  0  0  0  0  0  0  0  0  0  0
   53.7360   92.1810   25.2870 H   0  0  0  0  0  0  0  0  0  0  0  0
   56.4920   92.9820   26.0620 H   0  0  0  0  0  0  0  0  0  0  0  0
   55.0280   92.9640   27.0620 H   0  0  0  0  0  0  0  0  0  0  0  0
   54.5120   94.9860   27.7270 H   0  0  0  0  0  0  0  0  0  0  0  0
   55.4790   97.2100   28.0860 H   0  0  0  0  0  0  0  0  0  0  0  0
   54.0680   97.0980   27.0190 H   0  0  0  0  0  0  0  0  0  0  0  0
   55.2660   98.0250   25.3390 H   0  0  0  0  0  0  0  0  0  0  0  0
   56.6320   98.2580   26.4460 H   0  0  0  0  0  0  0  0  0  0  0  0
   59.1150   95.3620   23.3220 H   0  0  0  0  0  0  0  0  0  0  0  0
   57.4470   93.5730   24.1000 H   0  0  0  0  0  0  0  0  0  0  0  0
   53.8130   96.1290   25.0970 H   0  0  0  0  0  0  0  0  0  0  0  0
   53.1970   94.4220   25.3490 H   0  0  0  0  0  0  0  0  0  0  0  0
   55.3530   95.0700   23.2610 H   0  0  0  0  0  0  0  0  0  0  0  0
   53.5410   94.8530   23.0100 H   0  0  0  0  0  0  0  0  0  0  0  0
  2  3  1  0  0  0  0
  2  1  1  0  0  0  0
  4  3  1  0  0  0  0
  5  6  1  0  0  0  0
  5  4  2  0  0  0  0
  6  2  2  0  0  0  0
  7  4  1  0  0  0  0
  7  8  2  0  0  0  0
  9 30  1  0  0  0  0
  9  7  1  0  0  0  0
 10  9  1  0  0  0  0
 11 12  1  0  0  0  0
 11 33  1  0  0  0  0
 11 10  1  0  0  0  0
 12 14  1  0  0  0  0
 13 12  2  0  0  0  0
 14 15  1  0  0  0  0
 15 36  1  0  0  0  0
 15 16  1  0  0  0  0
 16 37  1  0  0  0  0
 16 38  1  0  0  0  0
 17 16  1  0  0  0  0
 17 18  1  0  0  0  0
 18 39  1  0  0  0  0
 19 18  1  0  0  0  0
 19 40  1  0  0  0  0
 20 43  1  0  0  0  0
 20 19  1  0  0  0  0
 21 20  1  0  0  0  0
 22 21  1  0  0  0  0
 23 24  1  0  0  0  0
 23 22  2  0  0  0  0
 24 25  1  0  0  0  0
 25 21  2  0  0  0  0
 25 17  1  0  0  0  0
 26 46  1  0  0  0  0
 26 47  1  0  0  0  0
 26 17  1  0  0  0  0
 27 14  1  0  0  0  0
 27 26  1  0  0  0  0
 28  5  1  0  0  0  0
 29  6  1  0  0  0  0
 31 10  1  0  0  0  0
 32 10  1  0  0  0  0
 34 11  1  0  0  0  0
 35 15  1  0  0  0  0
 41 19  1  0  0  0  0
 42 20  1  0  0  0  0
 44 23  1  0  0  0  0
 45 24  1  0  0  0  0
 48 27  1  0  0  0  0
 49 27  1  0  0  0  0
M  END
>  <Pose>
1

>  <Score>
-7.84

$$$$
