
 OpenBabel03202210083D

 49 52  0  0  1  0  0  0  0  0999 V2000
   57.5650   96.9340   25.1090 B   0  0  0  0  0  0  0  0  0  0  0  0
   56.3160   95.4780   24.9540 C   0  0  0  0  0  0  0  0  0  0  0  0
   56.1460   94.7300   23.8950 O   0  0  0  0  0  0  0  0  0  0  0  0
   55.2040   93.8120   24.1170 C   0  0  0  0  0  0  0  0  0  0  0  0
   54.7600   94.0070   25.4060 C   0  0  0  0  0  0  0  0  0  0  0  0
   55.4520   95.0580   25.9520 C   0  0  0  0  0  0  0  0  0  0  0  0
   54.7660   92.8180   23.1500 C   0  0  0  0  0  0  0  0  0  0  0  0
   54.0540   93.1650   22.1860 O   0  0  0  0  0  0  0  0  0  0  0  0
   55.1380   91.4690   23.2890 N   0  0  0  0  0  0  0  0  0  0  0  0
   55.8490   90.7280   22.2660 C   0  0  1  0  0  0  0  0  0  0  0  0
   57.2910   91.0810   22.3330 C   0  0  0  0  0  0  0  0  0  0  0  0
   55.5490   89.2870   22.3110 C   0  0  0  0  0  0  0  0  0  0  0  0
   54.7500   88.8550   21.4100 O   0  0  0  0  0  0  0  0  0  0  0  0
   56.0420   88.3490   23.2250 N   0  0  0  0  0  0  0  0  0  0  0  0
   55.9910   88.5470   24.6590 C   0  0  0  0  0  0  0  0  0  0  0  0
   55.1430   87.4590   25.2440 C   0  0  0  0  0  0  0  0  0  0  0  0
   55.5860   86.1000   24.8060 C   0  0  1  0  0  0  0  0  0  0  0  0
   55.8690   85.3060   25.9890 N   0  0  0  0  0  0  0  0  0  0  0  0
   54.6220   85.1130   26.7060 C   0  0  0  0  0  0  0  0  0  0  0  0
   53.9030   83.9550   26.0040 C   0  0  0  0  0  0  0  0  0  0  0  0
   53.7570   84.3730   24.5890 C   0  0  0  0  0  0  0  0  0  0  0  0
   52.9150   83.9140   23.6430 N   0  0  0  0  0  0  0  0  0  0  0  0
   53.1620   84.6070   22.5200 C   0  0  0  0  0  0  0  0  0  0  0  0
   54.1490   85.4830   22.7770 N   0  0  0  0  0  0  0  0  0  0  0  0
   54.5430   85.3650   24.0560 C   0  0  0  0  0  0  0  0  0  0  0  0
   56.8660   86.2170   23.9790 C   0  0  0  0  0  0  0  0  0  0  0  0
   56.6510   87.1030   22.7960 C   0  0  0  0  0  0  0  0  0  0  0  0
   53.9970   93.4160   25.8750 H   0  0  0  0  0  0  0  0  0  0  0  0
   55.3580   95.4820   26.9520 H   0  0  0  0  0  0  0  0  0  0  0  0
   54.8940   90.9660   24.1670 H   0  0  0  0  0  0  0  0  0  0  0  0
   55.4640   91.1050   21.2730 H   0  0  0  0  0  0  0  0  0  0  0  0
   57.4410   91.8240   23.1450 H   0  0  0  0  0  0  0  0  0  0  0  0
   57.7000   91.5740   21.4270 H   0  0  0  0  0  0  0  0  0  0  0  0
   57.9320   90.2180   22.6280 H   0  0  0  0  0  0  0  0  0  0  0  0
   55.6850   89.5560   24.9450 H   0  0  0  0  0  0  0  0  0  0  0  0
   57.0350   88.4390   25.0810 H   0  0  0  0  0  0  0  0  0  0  0  0
   55.2470   87.5440   26.3650 H   0  0  0  0  0  0  0  0  0  0  0  0
   54.0750   87.6590   25.0190 H   0  0  0  0  0  0  0  0  0  0  0  0
   56.5090   85.8250   26.6520 H   0  0  0  0  0  0  0  0  0  0  0  0
   54.7550   84.9320   27.7750 H   0  0  0  0  0  0  0  0  0  0  0  0
   53.9370   85.9940   26.5660 H   0  0  0  0  0  0  0  0  0  0  0  0
   54.6080   83.0860   26.0080 H   0  0  0  0  0  0  0  0  0  0  0  0
   52.9500   83.7230   26.4880 H   0  0  0  0  0  0  0  0  0  0  0  0
   52.1830   83.1620   23.7120 H   0  0  0  0  0  0  0  0  0  0  0  0
   52.6730   84.5010   21.5700 H   0  0  0  0  0  0  0  0  0  0  0  0
   57.1110   85.1820   23.6450 H   0  0  0  0  0  0  0  0  0  0  0  0
   57.6570   86.5550   24.6570 H   0  0  0  0  0  0  0  0  0  0  0  0
   57.6760   87.3950   22.4200 H   0  0  0  0  0  0  0  0  0  0  0  0
   56.1100   86.6280   21.9720 H   0  0  0  0  0  0  0  0  0  0  0  0
  2  1  1  0  0  0  0
  2  6  2  0  0  0  0
  3  4  1  0  0  0  0
  3  2  1  0  0  0  0
  4  5  2  0  0  0  0
  5 28  1  0  0  0  0
  5  6  1  0  0  0  0
  6 29  1  0  0  0  0
  7  9  1  0  0  0  0
  7  4  1  0  0  0  0
  8  7  2  0  0  0  0
  9 30  1  0  0  0  0
 10 31  1  6  0  0  0
 10 12  1  0  0  0  0
 10 11  1  0  0  0  0
 10  9  1  0  0  0  0
 11 34  1  0  0  0  0
 11 32  1  0  0  0  0
 12 14  1  0  0  0  0
 13 12  2  0  0  0  0
 14 15  1  0  0  0  0
 15 35  1  0  0  0  0
 15 36  1  0  0  0  0
 15 16  1  0  0  0  0
 16 37  1  0  0  0  0
 17 25  1  6  0  0  0
 17 16  1  0  0  0  0
 17 18  1  0  0  0  0
 18 39  1  0  0  0  0
 18 19  1  0  0  0  0
 19 40  1  0  0  0  0
 20 42  1  0  0  0  0
 20 43  1  0  0  0  0
 20 19  1  0  0  0  0
 21 20  1  0  0  0  0
 22 44  1  0  0  0  0
 22 21  1  0  0  0  0
 23 24  2  0  0  0  0
 23 22  1  0  0  0  0
 24 25  1  0  0  0  0
 25 21  2  0  0  0  0
 26 47  1  0  0  0  0
 26 17  1  0  0  0  0
 27 14  1  0  0  0  0
 27 26  1  0  0  0  0
 33 11  1  0  0  0  0
 38 16  1  0  0  0  0
 41 19  1  0  0  0  0
 45 23  1  0  0  0  0
 46 26  1  0  0  0  0
 48 27  1  0  0  0  0
 49 27  1  0  0  0  0
M  END
>  <Pose>
1

>  <Score>
-8.00

$$$$
