
 OpenBabel03202210083D

 49 52  0  0  0  0  0  0  0  0999 V2000
   54.9460   86.2270   21.5630 B   0  0  0  0  0  0  0  0  0  0  0  0
   53.6700   86.6220   20.1640 C   0  0  0  0  0  0  0  0  0  0  0  0
   53.3900   87.7620   19.6450 O   0  0  0  0  0  0  0  0  0  0  0  0
   52.4800   87.6680   18.7230 C   0  0  0  0  0  0  0  0  0  0  0  0
   52.1340   86.3400   18.6300 C   0  0  0  0  0  0  0  0  0  0  0  0
   52.8940   85.6680   19.5530 C   0  0  0  0  0  0  0  0  0  0  0  0
   51.8960   88.7440   17.9010 C   0  0  0  0  0  0  0  0  0  0  0  0
   50.9310   88.4770   17.1710 O   0  0  0  0  0  0  0  0  0  0  0  0
   52.4130   90.0620   17.9330 N   0  0  0  0  0  0  0  0  0  0  0  0
   53.6550   90.3650   17.2520 C   0  0  0  0  0  0  0  0  0  0  0  0
   54.7150   90.8750   18.1980 C   0  0  0  0  0  0  0  0  0  0  0  0
   54.0020   91.5550   19.2920 N   0  0  0  0  0  0  0  0  0  0  0  0
   52.8200   92.2590   18.9270 C   0  0  0  0  0  0  0  0  0  0  0  0
   51.7750   91.1710   18.6160 C   0  0  0  0  0  0  0  0  0  0  0  0
   54.5620   91.4410   20.5880 C   0  0  0  0  0  0  0  0  0  0  0  0
   54.5770   92.4930   21.4520 N   0  0  0  0  0  0  0  0  0  0  0  0
   55.1060   92.4000   22.6820 C   0  0  0  0  0  0  0  0  0  0  0  0
   55.6480   91.2350   23.1000 N   0  0  0  0  0  0  0  0  0  0  0  0
   55.6780   90.1440   22.3150 C   0  0  0  0  0  0  0  0  0  0  0  0
   55.1170   90.2780   21.0370 C   0  0  0  0  0  0  0  0  0  0  0  0
   56.2700   88.8510   22.7540 C   0  0  0  0  0  0  0  0  0  0  0  0
   55.0960   93.5240   23.5460 N   0  0  0  0  0  0  0  0  0  0  0  0
   53.9000   94.0260   24.1780 C   0  0  0  0  0  0  0  0  0  0  0  0
   54.1140   94.1500   25.6570 C   0  0  0  0  0  0  0  0  0  0  0  0
   55.4460   93.9860   26.0310 O   0  0  0  0  0  0  0  0  0  0  0  0
   56.2820   94.7560   25.2270 C   0  0  0  0  0  0  0  0  0  0  0  0
   56.3370   94.2160   23.8190 C   0  0  0  0  0  0  0  0  0  0  0  0
   51.3890   85.8960   17.9480 H   0  0  0  0  0  0  0  0  0  0  0  0
   52.8720   84.5920   19.7440 H   0  0  0  0  0  0  0  0  0  0  0  0
   53.5130   91.0820   16.4200 H   0  0  0  0  0  0  0  0  0  0  0  0
   54.0840   89.4270   16.7900 H   0  0  0  0  0  0  0  0  0  0  0  0
   55.3400   90.0810   18.6060 H   0  0  0  0  0  0  0  0  0  0  0  0
   55.3270   91.6920   17.7180 H   0  0  0  0  0  0  0  0  0  0  0  0
   52.4630   92.8870   19.7450 H   0  0  0  0  0  0  0  0  0  0  0  0
   52.9900   92.8470   17.9900 H   0  0  0  0  0  0  0  0  0  0  0  0
   51.3340   90.9240   19.5760 H   0  0  0  0  0  0  0  0  0  0  0  0
   50.9790   91.5570   17.9510 H   0  0  0  0  0  0  0  0  0  0  0  0
   55.1550   89.3920   20.4290 H   0  0  0  0  0  0  0  0  0  0  0  0
   57.1170   88.5720   22.0960 H   0  0  0  0  0  0  0  0  0  0  0  0
   56.5230   88.9280   23.8110 H   0  0  0  0  0  0  0  0  0  0  0  0
   55.4740   88.0810   22.6350 H   0  0  0  0  0  0  0  0  0  0  0  0
   53.0380   93.3240   24.0110 H   0  0  0  0  0  0  0  0  0  0  0  0
   53.6240   95.0230   23.7490 H   0  0  0  0  0  0  0  0  0  0  0  0
   53.8070   95.1750   26.0030 H   0  0  0  0  0  0  0  0  0  0  0  0
   53.4960   93.4190   26.2160 H   0  0  0  0  0  0  0  0  0  0  0  0
   57.2980   94.7520   25.6550 H   0  0  0  0  0  0  0  0  0  0  0  0
   55.9340   95.8240   25.2350 H   0  0  0  0  0  0  0  0  0  0  0  0
   57.2210   93.5460   23.7100 H   0  0  0  0  0  0  0  0  0  0  0  0
   56.4360   95.0850   23.1210 H   0  0  0  0  0  0  0  0  0  0  0  0
  2  1  1  0  0  0  0
  3  2  1  0  0  0  0
  4  3  1  0  0  0  0
  5  4  2  0  0  0  0
  5  6  1  0  0  0  0
  6 29  1  0  0  0  0
  6  2  2  0  0  0  0
  7  9  1  0  0  0  0
  7  4  1  0  0  0  0
  8  7  2  0  0  0  0
  9 14  1  0  0  0  0
 10  9  1  0  0  0  0
 10 11  1  0  0  0  0
 11 32  1  0  0  0  0
 11 12  1  0  0  0  0
 12 15  1  0  0  0  0
 13 12  1  0  0  0  0
 13 34  1  0  0  0  0
 14 13  1  0  0  0  0
 14 36  1  0  0  0  0
 15 20  2  0  0  0  0
 15 16  1  0  0  0  0
 16 17  2  0  0  0  0
 17 18  1  0  0  0  0
 17 22  1  0  0  0  0
 19 21  1  0  0  0  0
 19 18  2  0  0  0  0
 20 19  1  0  0  0  0
 21 40  1  0  0  0  0
 22 27  1  0  0  0  0
 22 23  1  0  0  0  0
 23 24  1  0  0  0  0
 24 44  1  0  0  0  0
 24 25  1  0  0  0  0
 24 45  1  0  0  0  0
 26 47  1  0  0  0  0
 26 46  1  0  0  0  0
 26 25  1  0  0  0  0
 27 26  1  0  0  0  0
 28  5  1  0  0  0  0
 30 10  1  0  0  0  0
 31 10  1  0  0  0  0
 33 11  1  0  0  0  0
 35 13  1  0  0  0  0
 37 14  1  0  0  0  0
 38 20  1  0  0  0  0
 39 21  1  0  0  0  0
 41 21  1  0  0  0  0
 42 23  1  0  0  0  0
 43 23  1  0  0  0  0
 48 27  1  0  0  0  0
 49 27  1  0  0  0  0
M  END
>  <Pose>
1

>  <Score>
-6.93

$$$$
