
 OpenBabel03202210083D

 63 66  0  0  1  0  0  0  0  0999 V2000
   55.2790   88.0450   24.9540 B   0  0  0  0  0  0  0  0  0  0  0  0
   55.5420   88.9210   23.2850 C   0  0  0  0  0  0  0  0  0  0  0  0
   55.5170   90.2930   23.2580 C   0  0  0  0  0  0  0  0  0  0  0  0
   55.6930   91.0050   22.1300 N   0  0  0  0  0  0  0  0  0  0  0  0
   55.9000   90.2580   21.0040 C   0  0  0  0  0  0  0  0  0  0  0  0
   56.0730   90.8560   19.9020 O   0  0  0  0  0  0  0  0  0  0  0  0
   55.9280   88.9350   20.9950 N   0  0  0  0  0  0  0  0  0  0  0  0
   55.7540   88.2230   22.1220 C   0  0  0  0  0  0  0  0  0  0  0  0
   55.7750   86.9690   22.1560 O   0  0  0  0  0  0  0  0  0  0  0  0
   55.6730   92.4310   22.0680 C   0  0  2  0  0  0  0  0  0  0  0  0
   57.0320   93.0530   22.4160 C   0  0  2  0  0  0  0  0  0  0  0  0
   57.1370   93.2010   23.8950 C   0  0  0  0  0  0  0  0  0  0  0  0
   56.0650   94.1590   24.3620 C   0  0  0  0  0  0  0  0  0  0  0  0
   55.0420   94.3030   23.4440 O   0  0  0  0  0  0  0  0  0  0  0  0
   54.6210   93.1030   22.8860 C   0  0  0  0  0  0  0  0  0  0  0  0
   55.6150   93.7150   25.7060 C   0  0  0  0  0  0  0  0  0  0  0  0
   54.5510   94.7030   26.2110 C   0  0  0  0  0  0  0  0  0  0  0  0
   55.1950   95.9540   26.4370 N   0  0  0  0  0  0  0  0  0  0  0  0
   56.6080   96.0280   25.9340 C   0  0  0  0  0  0  0  0  0  0  0  0
   56.7110   95.5170   24.5350 C   0  0  0  0  0  0  0  0  0  0  0  0
   54.6450   97.0610   27.0530 C   0  0  0  0  0  0  0  0  0  0  0  0
   55.5130   97.9290   27.5320 O   0  0  0  0  0  0  0  0  0  0  0  0
   53.2900   97.4330   27.2630 C   0  0  0  0  0  0  0  0  0  0  0  0
   52.8080   98.6570   26.7670 C   0  0  0  0  0  0  0  0  0  0  0  0
   51.5350   99.1150   26.8870 C   0  0  0  0  0  0  0  0  0  0  0  0
   50.6280   98.2780   27.5690 C   0  0  0  0  0  0  0  0  0  0  0  0
   51.0680   97.0950   28.0550 C   0  0  0  0  0  0  0  0  0  0  0  0
   52.3930   96.6500   27.9150 C   0  0  0  0  0  0  0  0  0  0  0  0
   51.1070  100.3120   26.3950 O   0  0  0  0  0  0  0  0  0  0  0  0
   50.6560  101.4440   27.0060 C   0  0  0  0  0  0  0  0  0  0  0  0
   49.3320  101.2630   27.6670 C   0  0  0  0  0  0  0  0  0  0  0  0
   48.9030  102.5310   28.2600 N   0  0  0  0  0  0  0  0  0  0  0  0
   57.0310   94.3340   21.8580 O   0  0  0  0  0  0  0  0  0  0  0  0
   58.1540   92.2840   21.7970 C   0  0  0  0  0  0  0  0  0  0  0  0
   55.3540   90.8240   24.1590 H   0  0  0  0  0  0  0  0  0  0  0  0
   56.0880   88.3920   20.1210 H   0  0  0  0  0  0  0  0  0  0  0  0
   55.5300   92.7080   20.9800 H   0  0  0  0  0  0  0  0  0  0  0  0
   57.1210   92.2460   24.4540 H   0  0  0  0  0  0  0  0  0  0  0  0
   58.1610   93.6320   24.1040 H   0  0  0  0  0  0  0  0  0  0  0  0
   54.1760   92.5050   23.6790 H   0  0  0  0  0  0  0  0  0  0  0  0
   53.7640   93.3820   22.2030 H   0  0  0  0  0  0  0  0  0  0  0  0
   56.4510   93.7500   26.4130 H   0  0  0  0  0  0  0  0  0  0  0  0
   55.2130   92.6820   25.7320 H   0  0  0  0  0  0  0  0  0  0  0  0
   54.1850   94.2310   27.1710 H   0  0  0  0  0  0  0  0  0  0  0  0
   53.7590   94.6960   25.4470 H   0  0  0  0  0  0  0  0  0  0  0  0
   57.2910   95.5360   26.6250 H   0  0  0  0  0  0  0  0  0  0  0  0
   56.8690   97.1110   25.9640 H   0  0  0  0  0  0  0  0  0  0  0  0
   56.2160   96.2920   23.8800 H   0  0  0  0  0  0  0  0  0  0  0  0
   57.7870   95.4950   24.2440 H   0  0  0  0  0  0  0  0  0  0  0  0
   53.5130   99.2590   26.2330 H   0  0  0  0  0  0  0  0  0  0  0  0
   49.6220   98.6540   27.6560 H   0  0  0  0  0  0  0  0  0  0  0  0
   50.3510   96.4590   28.5810 H   0  0  0  0  0  0  0  0  0  0  0  0
   52.5800   95.6960   28.3400 H   0  0  0  0  0  0  0  0  0  0  0  0
   50.5050  102.2570   26.2220 H   0  0  0  0  0  0  0  0  0  0  0  0
   51.4100  101.8320   27.7560 H   0  0  0  0  0  0  0  0  0  0  0  0
   48.5080  100.9090   27.0660 H   0  0  0  0  0  0  0  0  0  0  0  0
   49.4740  100.5900   28.5640 H   0  0  0  0  0  0  0  0  0  0  0  0
   48.1340  102.9660   27.7310 H   0  0  0  0  0  0  0  0  0  0  0  0
   49.6870  103.1520   28.4840 H   0  0  0  0  0  0  0  0  0  0  0  0
   57.6650   94.9490   22.3050 H   0  0  0  0  0  0  0  0  0  0  0  0
   58.0850   91.1950   21.9220 H   0  0  0  0  0  0  0  0  0  0  0  0
   58.2140   92.5790   20.7250 H   0  0  0  0  0  0  0  0  0  0  0  0
   59.1010   92.6420   22.2610 H   0  0  0  0  0  0  0  0  0  0  0  0
  2  1  1  0  0  0  0
  3  2  2  0  0  0  0
  3 35  1  0  0  0  0
  4  3  1  0  0  0  0
  5  4  1  0  0  0  0
  6  5  2  0  0  0  0
  7  5  1  0  0  0  0
  7  8  1  0  0  0  0
  8  9  2  0  0  0  0
  8  2  1  0  0  0  0
 10 37  1  6  0  0  0
 10  4  1  0  0  0  0
 10 11  1  0  0  0  0
 10 15  1  0  0  0  0
 11 33  1  6  0  0  0
 11 12  1  0  0  0  0
 12 39  1  0  0  0  0
 12 13  1  0  0  0  0
 12 38  1  0  0  0  0
 13 20  1  0  0  0  0
 13 16  1  0  0  0  0
 14 13  1  0  0  0  0
 15 14  1  0  0  0  0
 15 40  1  0  0  0  0
 16 43  1  0  0  0  0
 16 17  1  0  0  0  0
 16 42  1  0  0  0  0
 17 18  1  0  0  0  0
 17 44  1  0  0  0  0
 18 21  1  0  0  0  0
 19 47  1  0  0  0  0
 19 18  1  0  0  0  0
 19 46  1  0  0  0  0
 20 19  1  0  0  0  0
 21 23  1  0  0  0  0
 21 22  2  0  0  0  0
 23 28  1  0  0  0  0
 24 25  1  0  0  0  0
 24 23  2  0  0  0  0
 25 26  2  0  0  0  0
 26 51  1  0  0  0  0
 26 27  1  0  0  0  0
 27 52  1  0  0  0  0
 28 27  2  0  0  0  0
 28 53  1  0  0  0  0
 29 25  1  0  0  0  0
 29 30  1  0  0  0  0
 30 31  1  0  0  0  0
 30 55  1  0  0  0  0
 31 32  1  0  0  0  0
 31 57  1  0  0  0  0
 32 59  1  0  0  0  0
 33 60  1  0  0  0  0
 34 61  1  0  0  0  0
 34 63  1  0  0  0  0
 34 11  1  0  0  0  0
 36  7  1  0  0  0  0
 41 15  1  0  0  0  0
 45 17  1  0  0  0  0
 48 20  1  0  0  0  0
 49 20  1  0  0  0  0
 50 24  1  0  0  0  0
 54 30  1  0  0  0  0
 56 31  1  0  0  0  0
 58 32  1  0  0  0  0
 62 34  1  0  0  0  0
M  END
>  <Pose>
1

>  <Score>
-6.91

$$$$
