
 OpenBabel03202210083D

 39 42  0  0  0  0  0  0  0  0999 V2000
   59.3930   87.8230   25.8310 B   0  0  0  0  0  0  0  0  0  0  0  0
   57.9280   87.2140   24.7790 C   0  0  0  0  0  0  0  0  0  0  0  0
   56.6470   87.4780   25.1490 C   0  0  0  0  0  0  0  0  0  0  0  0
   55.6210   87.0560   24.4200 N   0  0  0  0  0  0  0  0  0  0  0  0
   54.3030   87.1900   24.5790 N   0  0  0  0  0  0  0  0  0  0  0  0
   53.6940   86.5740   23.5530 C   0  0  0  0  0  0  0  0  0  0  0  0
   54.6440   86.0320   22.7190 C   0  0  0  0  0  0  0  0  0  0  0  0
   55.8660   86.3560   23.2980 C   0  0  0  0  0  0  0  0  0  0  0  0
   57.1250   86.0870   22.9190 N   0  0  0  0  0  0  0  0  0  0  0  0
   58.1710   86.5020   23.6370 C   0  0  0  0  0  0  0  0  0  0  0  0
   54.4650   85.2840   21.4990 C   0  0  0  0  0  0  0  0  0  0  0  0
   55.4480   85.1960   20.7080 O   0  0  0  0  0  0  0  0  0  0  0  0
   53.2260   84.6640   21.1950 N   0  0  0  0  0  0  0  0  0  0  0  0
   52.4990   85.1500   20.0120 C   0  0  0  0  0  0  0  0  0  0  0  0
   51.6540   83.9510   19.5800 C   0  0  0  0  0  0  0  0  0  0  0  0
   52.4790   82.7980   19.7860 N   0  0  0  0  0  0  0  0  0  0  0  0
   52.4330   82.3140   21.1970 C   0  0  0  0  0  0  0  0  0  0  0  0
   52.6830   83.5870   22.0100 C   0  0  0  0  0  0  0  0  0  0  0  0
   53.3010   82.1490   18.8780 C   0  0  0  0  0  0  0  0  0  0  0  0
   53.9470   81.1060   19.3080 O   0  0  0  0  0  0  0  0  0  0  0  0
   53.5680   82.4540   17.4830 C   0  0  0  0  0  0  0  0  0  0  0  0
   52.6390   82.4690   16.5170 O   0  0  0  0  0  0  0  0  0  0  0  0
   53.1410   82.7670   15.3680 C   0  0  0  0  0  0  0  0  0  0  0  0
   54.4910   82.9790   15.5000 C   0  0  0  0  0  0  0  0  0  0  0  0
   54.7430   82.7760   16.8470 C   0  0  0  0  0  0  0  0  0  0  0  0
   56.4500   88.0470   26.0630 H   0  0  0  0  0  0  0  0  0  0  0  0
   52.6180   86.5280   23.4310 H   0  0  0  0  0  0  0  0  0  0  0  0
   59.1960   86.3020   23.3580 H   0  0  0  0  0  0  0  0  0  0  0  0
   53.2100   85.3450   19.2070 H   0  0  0  0  0  0  0  0  0  0  0  0
   51.8530   85.9840   20.2960 H   0  0  0  0  0  0  0  0  0  0  0  0
   51.1460   84.0560   18.6400 H   0  0  0  0  0  0  0  0  0  0  0  0
   50.7870   83.9190   20.3420 H   0  0  0  0  0  0  0  0  0  0  0  0
   53.1910   81.5460   21.3710 H   0  0  0  0  0  0  0  0  0  0  0  0
   51.3940   81.9480   21.3270 H   0  0  0  0  0  0  0  0  0  0  0  0
   51.7620   83.9290   22.5100 H   0  0  0  0  0  0  0  0  0  0  0  0
   53.4470   83.3340   22.7670 H   0  0  0  0  0  0  0  0  0  0  0  0
   52.6050   82.8490   14.4090 H   0  0  0  0  0  0  0  0  0  0  0  0
   55.2190   83.2470   14.7300 H   0  0  0  0  0  0  0  0  0  0  0  0
   55.7360   82.8600   17.2660 H   0  0  0  0  0  0  0  0  0  0  0  0
  2  3  2  0  0  0  0
  2  1  1  0  0  0  0
  3 26  1  0  0  0  0
  4  5  1  0  0  0  0
  4  3  1  0  0  0  0
  6  5  2  0  0  0  0
  7  8  2  0  0  0  0
  7  6  1  0  0  0  0
  8  4  1  0  0  0  0
  9  8  1  0  0  0  0
  9 10  2  0  0  0  0
 10  2  1  0  0  0  0
 11  7  1  0  0  0  0
 12 11  2  0  0  0  0
 13 11  1  0  0  0  0
 13 18  1  0  0  0  0
 14 30  1  0  0  0  0
 14 13  1  0  0  0  0
 15 16  1  0  0  0  0
 15 14  1  0  0  0  0
 15 32  1  0  0  0  0
 16 17  1  0  0  0  0
 17 34  1  0  0  0  0
 17 33  1  0  0  0  0
 17 18  1  0  0  0  0
 18 35  1  0  0  0  0
 18 36  1  0  0  0  0
 19 20  2  0  0  0  0
 19 16  1  0  0  0  0
 21 19  1  0  0  0  0
 22 21  1  0  0  0  0
 23 24  2  0  0  0  0
 23 22  1  0  0  0  0
 24 25  1  0  0  0  0
 25 39  1  0  0  0  0
 25 21  2  0  0  0  0
 27  6  1  0  0  0  0
 28 10  1  0  0  0  0
 29 14  1  0  0  0  0
 31 15  1  0  0  0  0
 37 23  1  0  0  0  0
 38 24  1  0  0  0  0
M  END
>  <Pose>
1

>  <Score>
-6.00

$$$$
