
 OpenBabel03202210083D

 45 48  0  0  0  0  0  0  0  0999 V2000
   55.2050   84.8740   25.9510 B   0  0  0  0  0  0  0  0  0  0  0  0
   55.2940   86.5510   25.0410 C   0  0  0  0  0  0  0  0  0  0  0  0
   55.6220   86.5680   23.7020 C   0  0  0  0  0  0  0  0  0  0  0  0
   55.6860   87.7460   23.0590 N   0  0  0  0  0  0  0  0  0  0  0  0
   55.4360   88.9130   23.6880 C   0  0  0  0  0  0  0  0  0  0  0  0
   55.5060   90.0900   23.0200 N   0  0  0  0  0  0  0  0  0  0  0  0
   55.8230   90.1540   21.7150 C   0  0  0  0  0  0  0  0  0  0  0  0
   56.0800   88.9740   21.0570 C   0  0  0  0  0  0  0  0  0  0  0  0
   56.0080   87.7590   21.7460 C   0  0  0  0  0  0  0  0  0  0  0  0
   56.2380   86.6880   21.1610 O   0  0  0  0  0  0  0  0  0  0  0  0
   55.8960   91.4500   20.9940 C   0  0  0  0  0  0  0  0  0  0  0  0
   55.9820   92.4930   21.9460 O   0  0  0  0  0  0  0  0  0  0  0  0
   54.9540   92.8140   22.8000 C   0  0  0  0  0  0  0  0  0  0  0  0
   53.8030   92.9650   22.3140 O   0  0  0  0  0  0  0  0  0  0  0  0
   55.1030   92.9970   24.2670 C   0  0  0  0  0  0  0  0  0  0  0  0
   55.3850   94.3550   24.6260 N   0  0  0  0  0  0  0  0  0  0  0  0
   56.5630   95.0930   24.3020 C   0  0  0  0  0  0  0  0  0  0  0  0
   57.5410   94.6420   23.6400 O   0  0  0  0  0  0  0  0  0  0  0  0
   56.4300   96.3990   24.8520 N   0  0  0  0  0  0  0  0  0  0  0  0
   55.2400   96.4440   25.6630 C   0  0  0  0  0  0  0  0  0  0  0  0
   55.5380   96.5170   27.1370 C   0  0  0  0  0  0  0  0  0  0  0  0
   54.2610   97.0380   27.7190 C   0  0  0  0  0  0  0  0  0  0  0  0
   53.4380   97.6020   26.5980 C   0  0  0  0  0  0  0  0  0  0  0  0
   54.3970   97.6520   25.4290 C   0  0  0  0  0  0  0  0  0  0  0  0
   54.5180   95.2050   25.3800 C   0  0  0  0  0  0  0  0  0  0  0  0
   53.3510   94.8900   25.7110 O   0  0  0  0  0  0  0  0  0  0  0  0
   55.1070   88.9020   25.0290 C   0  0  0  0  0  0  0  0  0  0  0  0
   55.0290   87.7220   25.7340 C   0  0  0  0  0  0  0  0  0  0  0  0
   55.8310   85.6570   23.1550 H   0  0  0  0  0  0  0  0  0  0  0  0
   56.3370   88.9970   20.0050 H   0  0  0  0  0  0  0  0  0  0  0  0
   56.8050   91.4670   20.3650 H   0  0  0  0  0  0  0  0  0  0  0  0
   54.9920   91.5730   20.3540 H   0  0  0  0  0  0  0  0  0  0  0  0
   54.2060   92.6000   24.7920 H   0  0  0  0  0  0  0  0  0  0  0  0
   55.9510   92.3280   24.5730 H   0  0  0  0  0  0  0  0  0  0  0  0
   57.1000   97.1680   24.6760 H   0  0  0  0  0  0  0  0  0  0  0  0
   55.7030   95.4590   27.4880 H   0  0  0  0  0  0  0  0  0  0  0  0
   56.4110   97.1230   27.3860 H   0  0  0  0  0  0  0  0  0  0  0  0
   54.5100   97.8850   28.4170 H   0  0  0  0  0  0  0  0  0  0  0  0
   53.7310   96.2370   28.2840 H   0  0  0  0  0  0  0  0  0  0  0  0
   53.0530   98.6190   26.8370 H   0  0  0  0  0  0  0  0  0  0  0  0
   52.5400   96.9800   26.3560 H   0  0  0  0  0  0  0  0  0  0  0  0
   53.8610   97.6550   24.4610 H   0  0  0  0  0  0  0  0  0  0  0  0
   55.0070   98.5810   25.5300 H   0  0  0  0  0  0  0  0  0  0  0  0
   54.9140   89.8500   25.5050 H   0  0  0  0  0  0  0  0  0  0  0  0
   54.7730   87.6930   26.7830 H   0  0  0  0  0  0  0  0  0  0  0  0
  2 28  2  0  0  0  0
  2  1  1  0  0  0  0
  3  2  1  0  0  0  0
  4  5  1  0  0  0  0
  4  3  1  0  0  0  0
  5 27  2  0  0  0  0
  6  5  1  0  0  0  0
  7  6  2  0  0  0  0
  8  7  1  0  0  0  0
  8  9  1  0  0  0  0
  9  4  1  0  0  0  0
 10  9  2  0  0  0  0
 11  7  1  0  0  0  0
 11 12  1  0  0  0  0
 12 13  1  0  0  0  0
 13 15  1  0  0  0  0
 14 13  2  0  0  0  0
 15 34  1  0  0  0  0
 15 16  1  0  0  0  0
 15 33  1  0  0  0  0
 16 25  1  0  0  0  0
 17 16  1  0  0  0  0
 17 19  1  0  0  0  0
 18 17  2  0  0  0  0
 19 20  1  0  0  0  0
 20 21  1  0  0  0  0
 21 37  1  0  0  0  0
 21 36  1  0  0  0  0
 21 22  1  0  0  0  0
 22 39  1  0  0  0  0
 22 38  1  0  0  0  0
 23 40  1  0  0  0  0
 23 22  1  0  0  0  0
 24 43  1  0  0  0  0
 24 20  1  0  0  0  0
 24 23  1  0  0  0  0
 25 20  1  0  0  0  0
 25 26  2  0  0  0  0
 27 44  1  0  0  0  0
 27 28  1  0  0  0  0
 28 45  1  0  0  0  0
 29  3  1  0  0  0  0
 30  8  1  0  0  0  0
 31 11  1  0  0  0  0
 32 11  1  0  0  0  0
 35 19  1  0  0  0  0
 41 23  1  0  0  0  0
 42 24  1  0  0  0  0
M  END
>  <Pose>
1

>  <Score>
-6.55

$$$$
