
 OpenBabel03202210083D

 47 50  0  0  0  0  0  0  0  0999 V2000
   57.2280   86.5890   24.0450 B   0  0  0  0  0  0  0  0  0  0  0  0
   56.0170   87.3190   22.7750 C   0  0  0  0  0  0  0  0  0  0  0  0
   56.3770   88.2260   21.8400 C   0  0  0  0  0  0  0  0  0  0  0  0
   55.5520   88.6780   20.8910 N   0  0  0  0  0  0  0  0  0  0  0  0
   54.3050   88.2100   20.8610 C   0  0  0  0  0  0  0  0  0  0  0  0
   53.4440   88.6630   19.9060 N   0  0  0  0  0  0  0  0  0  0  0  0
   53.7830   89.5590   18.9910 C   0  0  0  0  0  0  0  0  0  0  0  0
   55.0660   90.0580   19.0000 C   0  0  0  0  0  0  0  0  0  0  0  0
   55.4780   90.9990   18.0780 C   0  0  0  0  0  0  0  0  0  0  0  0
   54.6260   91.4940   17.0900 C   0  0  0  0  0  0  0  0  0  0  0  0
   53.3440   90.9880   17.0900 C   0  0  0  0  0  0  0  0  0  0  0  0
   52.9270   90.0450   18.0130 C   0  0  0  0  0  0  0  0  0  0  0  0
   55.9290   89.5830   19.9810 C   0  0  0  0  0  0  0  0  0  0  0  0
   57.0980   90.0290   20.0020 O   0  0  0  0  0  0  0  0  0  0  0  0
   53.9200   87.3020   21.7870 N   0  0  0  0  0  0  0  0  0  0  0  0
   54.6760   86.8080   22.7570 C   0  0  0  0  0  0  0  0  0  0  0  0
   54.3310   85.9810   23.7780 N   0  0  0  0  0  0  0  0  0  0  0  0
   53.9910   85.1650   24.7840 C   0  0  0  0  0  0  0  0  0  0  0  0
   52.8710   84.3340   24.6500 C   0  0  0  0  0  0  0  0  0  0  0  0
   52.3620   83.6770   25.7210 C   0  0  0  0  0  0  0  0  0  0  0  0
   52.9400   83.8110   26.9600 C   0  0  0  0  0  0  0  0  0  0  0  0
   54.0460   84.6080   27.1580 C   0  0  0  0  0  0  0  0  0  0  0  0
   54.5420   85.2650   26.0560 C   0  0  0  0  0  0  0  0  0  0  0  0
   52.2950   84.0190   23.3360 C   0  0  0  0  0  0  0  0  0  0  0  0
   51.2540   83.3150   23.3100 O   0  0  0  0  0  0  0  0  0  0  0  0
   52.7970   84.4210   22.1330 O   0  0  0  0  0  0  0  0  0  0  0  0
   52.0190   84.4610   20.9520 C   0  0  0  0  0  0  0  0  0  0  0  0
   52.9000   84.8130   19.7490 C   0  0  0  0  0  0  0  0  0  0  0  0
   52.2120   85.8920   18.9470 C   0  0  0  0  0  0  0  0  0  0  0  0
   57.3910   88.6230   21.8460 H   0  0  0  0  0  0  0  0  0  0  0  0
   56.4870   91.3440   18.1380 H   0  0  0  0  0  0  0  0  0  0  0  0
   54.9700   92.2340   16.3740 H   0  0  0  0  0  0  0  0  0  0  0  0
   52.6510   91.3520   16.3340 H   0  0  0  0  0  0  0  0  0  0  0  0
   51.9260   89.6420   18.0250 H   0  0  0  0  0  0  0  0  0  0  0  0
   52.8980   87.0070   21.6530 H   0  0  0  0  0  0  0  0  0  0  0  0
   53.0220   86.3670   23.7120 H   0  0  0  0  0  0  0  0  0  0  0  0
   51.4810   83.0180   25.6550 H   0  0  0  0  0  0  0  0  0  0  0  0
   52.5040   83.2800   27.7940 H   0  0  0  0  0  0  0  0  0  0  0  0
   54.4530   84.6710   28.1530 H   0  0  0  0  0  0  0  0  0  0  0  0
   55.4090   85.8870   26.2370 H   0  0  0  0  0  0  0  0  0  0  0  0
   51.5360   83.5020   20.6970 H   0  0  0  0  0  0  0  0  0  0  0  0
   51.2250   85.2370   21.0070 H   0  0  0  0  0  0  0  0  0  0  0  0
   53.8850   85.1960   20.0780 H   0  0  0  0  0  0  0  0  0  0  0  0
   53.0210   83.9250   19.0860 H   0  0  0  0  0  0  0  0  0  0  0  0
   51.6740   85.4450   18.0930 H   0  0  0  0  0  0  0  0  0  0  0  0
   51.4670   86.4470   19.5780 H   0  0  0  0  0  0  0  0  0  0  0  0
   52.9540   86.6040   18.5290 H   0  0  0  0  0  0  0  0  0  0  0  0
  2  1  1  0  0  0  0
  3 30  1  0  0  0  0
  3  2  1  0  0  0  0
  4  3  1  0  0  0  0
  5  4  1  0  0  0  0
  5 15  1  0  0  0  0
  6  5  2  0  0  0  0
  7  8  1  0  0  0  0
  7  6  1  0  0  0  0
  8 13  1  0  0  0  0
  9 31  1  0  0  0  0
  9  8  2  0  0  0  0
 10 11  2  0  0  0  0
 10  9  1  0  0  0  0
 11 12  1  0  0  0  0
 12 34  1  0  0  0  0
 12  7  2  0  0  0  0
 13 14  2  0  0  0  0
 13  4  1  0  0  0  0
 15 16  1  0  0  0  0
 16  2  2  0  0  0  0
 16 17  1  0  0  0  0
 17 18  1  0  0  0  0
 18 23  1  0  0  0  0
 19 18  2  0  0  0  0
 19 20  1  0  0  0  0
 20 21  2  0  0  0  0
 21 22  1  0  0  0  0
 21 38  1  0  0  0  0
 22 39  1  0  0  0  0
 23 40  1  0  0  0  0
 23 22  2  0  0  0  0
 24 19  1  0  0  0  0
 25 24  2  0  0  0  0
 26 24  1  0  0  0  0
 27 42  1  0  0  0  0
 27 26  1  0  0  0  0
 28 43  1  0  0  0  0
 28 27  1  0  0  0  0
 29 46  1  0  0  0  0
 29 28  1  0  0  0  0
 32 10  1  0  0  0  0
 33 11  1  0  0  0  0
 35 15  1  0  0  0  0
 36 17  1  0  0  0  0
 37 20  1  0  0  0  0
 41 27  1  0  0  0  0
 44 28  1  0  0  0  0
 45 29  1  0  0  0  0
 47 29  1  0  0  0  0
M  END
>  <Pose>
1

>  <Score>
-7.46

$$$$
