
 OpenBabel03202210083D

 56 59  0  0  1  0  0  0  0  0999 V2000
   57.7250   98.4230   25.9180 B   0  0  0  0  0  0  0  0  0  0  0  0
   57.0060   96.7490   25.3000 C   0  0  0  0  0  0  0  0  0  0  0  0
   57.7410   95.9640   24.4280 C   0  0  0  0  0  0  0  0  0  0  0  0
   57.2260   94.7520   23.9770 C   0  0  0  0  0  0  0  0  0  0  0  0
   55.9890   94.3040   24.3800 C   0  0  0  0  0  0  0  0  0  0  0  0
   55.2860   95.1100   25.2470 C   0  0  0  0  0  0  0  0  0  0  0  0
   55.7680   96.3100   25.7080 C   0  0  0  0  0  0  0  0  0  0  0  0
   55.4420   93.0470   23.9200 C   0  0  0  0  0  0  0  0  0  0  0  0
   54.6490   93.0390   22.9420 O   0  0  0  0  0  0  0  0  0  0  0  0
   55.7690   91.7400   24.5500 C   0  0  0  0  0  0  0  0  0  0  0  0
   55.7790   90.6740   23.5920 N   0  0  0  0  0  0  0  0  0  0  0  0
   55.5770   90.7760   22.2980 N   0  0  0  0  0  0  0  0  0  0  0  0
   55.6600   89.5730   21.7110 C   0  0  0  0  0  0  0  0  0  0  0  0
   55.9240   88.6840   22.6800 N   0  0  0  0  0  0  0  0  0  0  0  0
   55.9980   89.3810   23.8520 C   0  0  2  0  0  0  0  0  0  0  0  0
   56.2680   88.8160   25.1730 C   0  0  0  0  0  0  0  0  0  0  0  0
   57.5870   88.0840   25.2450 C   0  0  0  0  0  0  0  0  0  0  0  0
   57.5430   86.7670   24.5020 C   0  0  0  0  0  0  0  0  0  0  0  0
   57.4990   86.9290   23.0140 C   0  0  0  0  0  0  0  0  0  0  0  0
   56.1000   87.2550   22.5110 C   0  0  0  0  0  0  0  0  0  0  0  0
   55.4970   89.2510   20.2870 C   0  0  0  0  0  0  0  0  0  0  0  0
   55.3320   90.4170   19.4750 N   0  0  0  0  0  0  0  0  0  0  0  0
   54.0590   90.8890   19.0450 C   0  0  0  0  0  0  0  0  0  0  0  0
   52.9360   90.7990   19.8360 C   0  0  0  0  0  0  0  0  0  0  0  0
   51.7160   91.2620   19.4140 C   0  0  0  0  0  0  0  0  0  0  0  0
   51.6020   91.8260   18.1820 C   0  0  0  0  0  0  0  0  0  0  0  0
   52.7230   91.9170   17.3870 C   0  0  0  0  0  0  0  0  0  0  0  0
   53.9550   91.4560   17.8020 C   0  0  0  0  0  0  0  0  0  0  0  0
   50.3920   92.2970   17.7320 O   0  0  0  0  0  0  0  0  0  0  0  0
   50.1230   93.6650   17.5530 C   0  0  0  0  0  0  0  0  0  0  0  0
   58.7050   96.3190   24.1190 H   0  0  0  0  0  0  0  0  0  0  0  0
   57.8160   94.1590   23.3010 H   0  0  0  0  0  0  0  0  0  0  0  0
   54.2950   94.7700   25.5800 H   0  0  0  0  0  0  0  0  0  0  0  0
   55.1730   96.8940   26.3820 H   0  0  0  0  0  0  0  0  0  0  0  0
   56.6980   91.7970   25.1500 H   0  0  0  0  0  0  0  0  0  0  0  0
   54.9230   91.5360   25.2690 H   0  0  0  0  0  0  0  0  0  0  0  0
   56.2920   89.6010   25.9500 H   0  0  0  0  0  0  0  0  0  0  0  0
   55.4830   88.0800   25.5100 H   0  0  0  0  0  0  0  0  0  0  0  0
   58.4410   88.6800   24.9230 H   0  0  0  0  0  0  0  0  0  0  0  0
   57.7500   87.8330   26.3220 H   0  0  0  0  0  0  0  0  0  0  0  0
   56.7580   86.1070   24.8770 H   0  0  0  0  0  0  0  0  0  0  0  0
   58.5180   86.2530   24.7400 H   0  0  0  0  0  0  0  0  0  0  0  0
   58.1690   87.7140   22.6670 H   0  0  0  0  0  0  0  0  0  0  0  0
   57.8270   85.9550   22.5600 H   0  0  0  0  0  0  0  0  0  0  0  0
   55.3290   86.6640   23.0280 H   0  0  0  0  0  0  0  0  0  0  0  0
   56.0510   87.0130   21.4380 H   0  0  0  0  0  0  0  0  0  0  0  0
   54.5960   88.5930   20.1840 H   0  0  0  0  0  0  0  0  0  0  0  0
   56.3500   88.6650   19.9080 H   0  0  0  0  0  0  0  0  0  0  0  0
   56.1550   90.9590   19.1730 H   0  0  0  0  0  0  0  0  0  0  0  0
   53.0840   90.3360   20.8210 H   0  0  0  0  0  0  0  0  0  0  0  0
   50.8690   91.1710   20.0670 H   0  0  0  0  0  0  0  0  0  0  0  0
   52.6630   92.3650   16.3920 H   0  0  0  0  0  0  0  0  0  0  0  0
   54.8390   91.5400   17.1530 H   0  0  0  0  0  0  0  0  0  0  0  0
   49.0450   93.8400   17.4390 H   0  0  0  0  0  0  0  0  0  0  0  0
   50.4890   94.2150   18.4440 H   0  0  0  0  0  0  0  0  0  0  0  0
   50.6560   94.0770   16.6670 H   0  0  0  0  0  0  0  0  0  0  0  0
  2  7  1  0  0  0  0
  2  1  1  0  0  0  0
  3  2  2  0  0  0  0
  4  5  2  0  0  0  0
  4  3  1  0  0  0  0
  5  6  1  0  0  0  0
  6 33  1  0  0  0  0
  6  7  2  0  0  0  0
  7 34  1  0  0  0  0
  8  5  1  0  0  0  0
  8 10  1  0  0  0  0
  9  8  2  0  0  0  0
 10 35  1  0  0  0  0
 10 36  1  0  0  0  0
 11 15  1  0  0  0  0
 11 10  1  0  0  0  0
 12 11  1  0  0  0  0
 13 12  2  0  0  0  0
 13 14  1  0  0  0  0
 15 14  1  1  0  0  0
 15 16  1  0  0  0  0
 16 17  1  0  0  0  0
 16 38  1  0  0  0  0
 16 37  1  0  0  0  0
 17 40  1  0  0  0  0
 18 42  1  0  0  0  0
 18 41  1  0  0  0  0
 18 17  1  0  0  0  0
 19 18  1  0  0  0  0
 20 14  1  0  0  0  0
 20 19  1  0  0  0  0
 20 45  1  0  0  0  0
 21 13  1  0  0  0  0
 22 21  1  0  0  0  0
 23 22  1  0  0  0  0
 23 24  1  0  0  0  0
 24 50  1  0  0  0  0
 25 24  2  0  0  0  0
 25 51  1  0  0  0  0
 26 25  1  0  0  0  0
 27 28  1  0  0  0  0
 27 26  2  0  0  0  0
 28 23  2  0  0  0  0
 29 26  1  0  0  0  0
 30 29  1  0  0  0  0
 30 55  1  0  0  0  0
 31  3  1  0  0  0  0
 32  4  1  0  0  0  0
 39 17  1  0  0  0  0
 43 19  1  0  0  0  0
 44 19  1  0  0  0  0
 46 20  1  0  0  0  0
 47 21  1  0  0  0  0
 48 21  1  0  0  0  0
 49 22  1  0  0  0  0
 52 27  1  0  0  0  0
 53 28  1  0  0  0  0
 54 30  1  0  0  0  0
 56 30  1  0  0  0  0
M  END
>  <Pose>
1

>  <Score>
-7.31

$$$$
