
 OpenBabel03202210083D

 50 53  0  0  1  0  0  0  0  0999 V2000
   54.8820   80.9170   15.8670 B   0  0  0  0  0  0  0  0  0  0  0  0
   54.1810   82.0450   17.2460 C   0  0  0  0  0  0  0  0  0  0  0  0
   54.0720   81.5560   18.5270 C   0  0  0  0  0  0  0  0  0  0  0  0
   53.5650   82.3540   19.5540 C   0  0  0  0  0  0  0  0  0  0  0  0
   53.1780   83.6530   19.2150 C   0  0  0  0  0  0  0  0  0  0  0  0
   53.2790   84.1450   17.9520 C   0  0  0  0  0  0  0  0  0  0  0  0
   53.7850   83.3380   16.9470 C   0  0  0  0  0  0  0  0  0  0  0  0
   52.6740   84.5350   20.2870 C   0  0  1  0  0  0  0  0  0  0  0  0
   52.9100   83.9370   21.5940 N   0  0  0  0  0  0  0  0  0  0  0  0
   52.9120   82.4950   21.8100 C   0  0  0  0  0  0  0  0  0  0  0  0
   52.8660   82.1170   23.2450 C   0  0  0  0  0  0  0  0  0  0  0  0
   51.7610   82.7830   24.0220 C   0  0  0  0  0  0  0  0  0  0  0  0
   52.3910   83.9870   24.6960 C   0  0  0  0  0  0  0  0  0  0  0  0
   52.8820   85.0080   23.8180 C   0  0  0  0  0  0  0  0  0  0  0  0
   53.1060   84.9900   22.4840 C   0  0  0  0  0  0  0  0  0  0  0  0
   53.6150   86.1260   21.8240 N   0  0  0  0  0  4  0  0  0  0  0  0
   53.4440   85.8000   20.4380 C   0  0  0  0  0  0  0  0  0  0  0  0
   54.9910   86.2170   22.1960 C   0  0  0  0  0  0  0  0  0  0  0  0
   55.7160   87.3710   21.9500 C   0  0  0  0  0  0  0  0  0  0  0  0
   57.0650   87.3310   22.2790 C   0  0  0  0  0  0  0  0  0  0  0  0
   57.7000   86.2300   22.8230 C   0  0  0  0  0  0  0  0  0  0  0  0
   56.9190   85.0780   23.0560 C   0  0  0  0  0  0  0  0  0  0  0  0
   55.6110   85.1300   22.7340 C   0  0  0  0  0  0  0  0  0  0  0  0
   55.1020   88.4630   21.4170 O   0  0  0  0  0  0  0  0  0  0  0  0
   55.8360   89.5390   20.8940 C   0  0  0  0  0  0  0  0  0  0  0  0
   51.3210   84.7110   20.1560 O   0  0  0  0  0  0  0  0  0  0  0  0
   54.3800   80.5420   18.7890 H   0  0  0  0  0  0  0  0  0  0  0  0
   53.5210   81.9310   20.5390 H   0  0  0  0  0  0  0  0  0  0  0  0
   52.9690   85.1740   17.6990 H   0  0  0  0  0  0  0  0  0  0  0  0
   53.8610   83.7420   15.9270 H   0  0  0  0  0  0  0  0  0  0  0  0
   51.9970   82.0950   21.3190 H   0  0  0  0  0  0  0  0  0  0  0  0
   53.8580   82.0360   21.4080 H   0  0  0  0  0  0  0  0  0  0  0  0
   52.6590   81.0120   23.3070 H   0  0  0  0  0  0  0  0  0  0  0  0
   53.8720   82.2920   23.6790 H   0  0  0  0  0  0  0  0  0  0  0  0
   51.4140   82.1090   24.8750 H   0  0  0  0  0  0  0  0  0  0  0  0
   50.9130   83.0970   23.3820 H   0  0  0  0  0  0  0  0  0  0  0  0
   53.2290   83.5770   25.3450 H   0  0  0  0  0  0  0  0  0  0  0  0
   51.6260   84.4080   25.4060 H   0  0  0  0  0  0  0  0  0  0  0  0
   53.1080   85.9550   24.2850 H   0  0  0  0  0  0  0  0  0  0  0  0
   53.0980   87.0120   22.0260 H   0  0  0  0  0  0  0  0  0  0  0  0
   54.4070   85.7870   19.8790 H   0  0  0  0  0  0  0  0  0  0  0  0
   52.8700   86.6120   19.9610 H   0  0  0  0  0  0  0  0  0  0  0  0
   57.6130   88.2480   22.0700 H   0  0  0  0  0  0  0  0  0  0  0  0
   58.7440   86.2120   23.0750 H   0  0  0  0  0  0  0  0  0  0  0  0
   57.4000   84.2200   23.4670 H   0  0  0  0  0  0  0  0  0  0  0  0
   55.0560   84.1870   22.9240 H   0  0  0  0  0  0  0  0  0  0  0  0
   56.6110   89.8460   21.6310 H   0  0  0  0  0  0  0  0  0  0  0  0
   56.3150   89.2070   19.9630 H   0  0  0  0  0  0  0  0  0  0  0  0
   55.1200   90.3980   20.7130 H   0  0  0  0  0  0  0  0  0  0  0  0
   50.8980   84.1110   19.5060 H   0  0  0  0  0  0  0  0  0  0  0  0
  1  2  1  0  0  0  0
  2  3  1  0  0  0  0
  3 27  1  0  0  0  0
  3  4  2  0  0  0  0
  4 28  1  0  0  0  0
  5  4  1  0  0  0  0
  5  8  1  0  0  0  0
  6  5  2  0  0  0  0
  7  2  2  0  0  0  0
  7  6  1  0  0  0  0
  8 26  1  6  0  0  0
  8 17  1  0  0  0  0
  8  9  1  0  0  0  0
  9 10  1  0  0  0  0
  9 15  1  0  0  0  0
 10 11  1  0  0  0  0
 11 33  1  0  0  0  0
 11 34  1  0  0  0  0
 11 12  1  0  0  0  0
 12 13  1  0  0  0  0
 12 35  1  0  0  0  0
 13 37  1  0  0  0  0
 13 38  1  0  0  0  0
 14 39  1  0  0  0  0
 14 13  1  0  0  0  0
 15 14  2  0  0  0  0
 16 40  1  0  0  0  0
 16 18  1  0  0  0  0
 16 15  1  0  0  0  0
 17 16  1  0  0  0  0
 18 23  1  0  0  0  0
 19 18  2  0  0  0  0
 19 20  1  0  0  0  0
 20 21  2  0  0  0  0
 21 22  1  0  0  0  0
 21 44  1  0  0  0  0
 22 45  1  0  0  0  0
 23 46  1  0  0  0  0
 23 22  2  0  0  0  0
 24 19  1  0  0  0  0
 25 24  1  0  0  0  0
 25 47  1  0  0  0  0
 29  6  1  0  0  0  0
 30  7  1  0  0  0  0
 31 10  1  0  0  0  0
 32 10  1  0  0  0  0
 36 12  1  0  0  0  0
 41 17  1  0  0  0  0
 42 17  1  0  0  0  0
 43 20  1  0  0  0  0
 48 25  1  0  0  0  0
 49 25  1  0  0  0  0
 50 26  1  0  0  0  0
M  END
>  <Pose>
1

>  <Score>
-4.34

$$$$
