
 OpenBabel03202210083D

 47 50  0  0  1  0  0  0  0  0999 V2000
   51.3620   84.7390   31.1080 B   0  0  0  0  0  0  0  0  0  0  0  0
   51.5190   84.7910   29.2070 C   0  0  0  0  0  0  0  0  0  0  0  0
   50.4100   84.8950   28.3890 C   0  0  0  0  0  0  0  0  0  0  0  0
   50.5430   84.9340   27.0160 C   0  0  0  0  0  0  0  0  0  0  0  0
   51.7650   84.8730   26.3810 C   0  0  0  0  0  0  0  0  0  0  0  0
   52.8740   84.7680   27.2120 C   0  0  0  0  0  0  0  0  0  0  0  0
   52.7490   84.7290   28.5890 C   0  0  0  0  0  0  0  0  0  0  0  0
   51.8430   84.9190   24.9230 C   0  0  2  0  0  0  0  0  0  0  0  0
   52.7160   83.9370   24.3300 N   0  0  0  0  0  0  0  0  0  0  0  0
   53.1510   82.5890   24.6690 C   0  0  0  0  0  0  0  0  0  0  0  0
   53.4750   81.7280   23.5100 C   0  0  0  0  0  0  0  0  0  0  0  0
   53.1970   82.3250   22.1530 C   0  0  0  0  0  0  0  0  0  0  0  0
   53.4470   83.7620   22.0910 C   0  0  0  0  0  0  0  0  0  0  0  0
   53.2150   84.5290   23.1400 C   0  0  0  0  0  0  0  0  0  0  0  0
   53.3620   85.9260   23.3740 N   0  0  0  0  0  4  0  0  0  0  0  0
   52.4080   86.2190   24.3990 C   0  0  0  0  0  0  0  0  0  0  0  0
   54.6860   86.1970   23.6900 C   0  0  0  0  0  0  0  0  0  0  0  0
   55.5690   86.6120   22.7210 C   0  0  0  0  0  0  0  0  0  0  0  0
   56.9090   86.8840   23.0420 C   0  0  0  0  0  0  0  0  0  0  0  0
   57.3820   86.7500   24.3170 C   0  0  0  0  0  0  0  0  0  0  0  0
   56.4760   86.3260   25.3070 C   0  0  0  0  0  0  0  0  0  0  0  0
   55.1660   86.0660   24.9590 C   0  0  0  0  0  0  0  0  0  0  0  0
   58.6960   87.0030   24.7070 O   0  0  0  0  0  0  0  0  0  0  0  0
   59.1020   87.7450   25.8100 C   0  0  0  0  0  0  0  0  0  0  0  0
   50.5520   84.6880   24.4050 O   0  0  0  0  0  0  0  0  0  0  0  0
   49.4470   84.9430   28.8830 H   0  0  0  0  0  0  0  0  0  0  0  0
   49.6510   85.0160   26.3890 H   0  0  0  0  0  0  0  0  0  0  0  0
   53.8430   84.7170   26.7500 H   0  0  0  0  0  0  0  0  0  0  0  0
   53.6150   84.6480   29.2440 H   0  0  0  0  0  0  0  0  0  0  0  0
   52.3650   82.0750   25.2890 H   0  0  0  0  0  0  0  0  0  0  0  0
   54.0390   82.6260   25.3630 H   0  0  0  0  0  0  0  0  0  0  0  0
   52.9940   80.7190   23.6070 H   0  0  0  0  0  0  0  0  0  0  0  0
   54.5810   81.4970   23.5060 H   0  0  0  0  0  0  0  0  0  0  0  0
   53.7750   81.8160   21.3550 H   0  0  0  0  0  0  0  0  0  0  0  0
   52.1160   82.1100   21.9270 H   0  0  0  0  0  0  0  0  0  0  0  0
   53.8250   84.1950   21.1870 H   0  0  0  0  0  0  0  0  0  0  0  0
   53.0980   86.4110   22.4740 H   0  0  0  0  0  0  0  0  0  0  0  0
   51.5550   86.7780   23.9540 H   0  0  0  0  0  0  0  0  0  0  0  0
   52.8000   86.8650   25.2060 H   0  0  0  0  0  0  0  0  0  0  0  0
   55.2860   86.7470   21.6900 H   0  0  0  0  0  0  0  0  0  0  0  0
   57.5950   87.2130   22.2680 H   0  0  0  0  0  0  0  0  0  0  0  0
   56.8510   86.2210   26.3190 H   0  0  0  0  0  0  0  0  0  0  0  0
   54.4980   85.7450   25.7280 H   0  0  0  0  0  0  0  0  0  0  0  0
   58.3000   88.1350   26.4250 H   0  0  0  0  0  0  0  0  0  0  0  0
   59.8450   88.5190   25.5010 H   0  0  0  0  0  0  0  0  0  0  0  0
   59.6920   87.0580   26.4870 H   0  0  0  0  0  0  0  0  0  0  0  0
   49.9680   85.3650   24.8270 H   0  0  0  0  0  0  0  0  0  0  0  0
  2  1  1  0  0  0  0
  3 26  1  0  0  0  0
  3  2  2  0  0  0  0
  4  3  1  0  0  0  0
  5  4  2  0  0  0  0
  5  6  1  0  0  0  0
  6  7  2  0  0  0  0
  7  2  1  0  0  0  0
  7 29  1  0  0  0  0
  8 25  1  6  0  0  0
  8  5  1  0  0  0  0
  9 10  1  0  0  0  0
  9  8  1  0  0  0  0
 10 30  1  0  0  0  0
 10 31  1  0  0  0  0
 11 32  1  0  0  0  0
 11 10  1  0  0  0  0
 12 11  1  0  0  0  0
 13 12  1  0  0  0  0
 13 14  2  0  0  0  0
 14 15  1  0  0  0  0
 14  9  1  0  0  0  0
 15 17  1  0  0  0  0
 15 16  1  0  0  0  0
 16  8  1  0  0  0  0
 16 39  1  0  0  0  0
 17 22  1  0  0  0  0
 18 19  1  0  0  0  0
 18 17  2  0  0  0  0
 19 20  2  0  0  0  0
 20 23  1  0  0  0  0
 20 21  1  0  0  0  0
 21 42  1  0  0  0  0
 22 21  2  0  0  0  0
 22 43  1  0  0  0  0
 23 24  1  0  0  0  0
 24 44  1  0  0  0  0
 24 46  1  0  0  0  0
 25 47  1  0  0  0  0
 27  4  1  0  0  0  0
 28  6  1  0  0  0  0
 33 11  1  0  0  0  0
 34 12  1  0  0  0  0
 35 12  1  0  0  0  0
 36 13  1  0  0  0  0
 37 15  1  0  0  0  0
 38 16  1  0  0  0  0
 40 18  1  0  0  0  0
 41 19  1  0  0  0  0
 45 24  1  0  0  0  0
M  END
>  <Pose>
1

>  <Score>
-4.81

$$$$
