
 OpenBabel03202210083D

 55 57  0  0  1  0  0  0  0  0999 V2000
   55.0880   97.3990   26.8570 B   0  0  0  0  0  0  0  0  0  0  0  0
   55.8750   96.2090   25.5790 C   0  0  0  0  0  0  0  0  0  0  0  0
   55.2130   95.0800   25.1380 C   0  0  0  0  0  0  0  0  0  0  0  0
   55.7830   94.2280   24.2190 C   0  0  0  0  0  0  0  0  0  0  0  0
   57.0430   94.5560   23.7640 C   0  0  0  0  0  0  0  0  0  0  0  0
   57.7090   95.6830   24.2010 C   0  0  0  0  0  0  0  0  0  0  0  0
   57.1350   96.5340   25.1210 C   0  0  0  0  0  0  0  0  0  0  0  0
   57.8630   97.7490   25.5850 C   0  0  0  0  0  0  0  0  0  0  0  0
   57.5980   93.6780   22.8350 O   0  0  0  0  0  0  0  0  0  0  0  0
   57.1240   92.3960   22.5930 C   0  0  0  0  0  0  0  0  0  0  0  0
   55.6520   92.2140   22.7520 C   0  0  2  0  0  0  0  0  0  0  0  0
   55.0140   93.0500   23.8040 C   0  0  2  0  0  0  0  0  0  0  0  0
   53.7490   93.5210   23.3760 O   0  0  0  0  0  0  0  0  0  0  0  0
   55.4740   90.8160   23.1610 N   0  0  2  0  0  4  0  0  0  0  0  0
   56.2250   90.4670   24.3170 C   0  0  0  0  0  0  0  0  0  0  0  0
   55.6480   89.1330   24.8160 C   0  0  0  0  0  0  0  0  0  0  0  0
   55.9040   88.2040   23.8230 O   0  0  0  0  0  0  0  0  0  0  0  0
   55.3020   88.5150   22.6100 C   0  0  0  0  0  0  0  0  0  0  0  0
   55.7630   89.8910   22.1080 C   0  0  0  0  0  0  0  0  0  0  0  0
   54.8980   92.3760   21.4480 C   0  0  0  0  0  0  0  0  0  0  0  0
   54.3060   91.1650   20.9670 N   0  0  0  0  0  0  0  0  0  0  0  0
   53.1680   91.4030   20.0980 C   0  0  0  0  0  0  0  0  0  0  0  0
   53.2060   90.5180   18.8610 C   0  0  0  0  0  0  0  0  0  0  0  0
   54.3040   90.7810   18.0590 O   0  0  0  0  0  0  0  0  0  0  0  0
   55.4150   91.1310   18.8210 C   0  0  0  0  0  0  0  0  0  0  0  0
   55.2780   90.4190   20.1510 C   0  0  0  0  0  0  0  0  0  0  0  0
   54.2140   94.8630   25.5310 H   0  0  0  0  0  0  0  0  0  0  0  0
   58.6960   95.9190   23.8280 H   0  0  0  0  0  0  0  0  0  0  0  0
   58.5780   97.4910   26.3980 H   0  0  0  0  0  0  0  0  0  0  0  0
   58.4420   98.2170   24.7730 H   0  0  0  0  0  0  0  0  0  0  0  0
   57.1220   98.4500   26.0240 H   0  0  0  0  0  0  0  0  0  0  0  0
   57.4470   92.0960   21.5710 H   0  0  0  0  0  0  0  0  0  0  0  0
   57.6920   91.7010   23.2810 H   0  0  0  0  0  0  0  0  0  0  0  0
   54.7750   92.4610   24.7380 H   0  0  0  0  0  0  0  0  0  0  0  0
   53.0900   93.5260   24.1010 H   0  0  0  0  0  0  0  0  0  0  0  0
   54.4590   90.7250   23.3910 H   0  0  0  0  0  0  0  0  0  0  0  0
   56.1680   91.1580   25.1540 H   0  0  0  0  0  0  0  0  0  0  0  0
   57.2880   90.2170   24.0350 H   0  0  0  0  0  0  0  0  0  0  0  0
   56.1940   88.8540   25.7150 H   0  0  0  0  0  0  0  0  0  0  0  0
   54.5700   89.3170   24.9720 H   0  0  0  0  0  0  0  0  0  0  0  0
   55.5540   87.7170   21.8980 H   0  0  0  0  0  0  0  0  0  0  0  0
   54.2150   88.6170   22.8080 H   0  0  0  0  0  0  0  0  0  0  0  0
   56.8450   89.7700   21.8980 H   0  0  0  0  0  0  0  0  0  0  0  0
   55.2070   90.0820   21.1710 H   0  0  0  0  0  0  0  0  0  0  0  0
   54.1240   93.1580   21.4890 H   0  0  0  0  0  0  0  0  0  0  0  0
   55.6500   92.7260   20.6830 H   0  0  0  0  0  0  0  0  0  0  0  0
   53.9950   90.5040   21.6950 H   0  0  0  0  0  0  0  0  0  0  0  0
   53.2250   92.4500   19.7260 H   0  0  0  0  0  0  0  0  0  0  0  0
   52.1980   91.1910   20.5940 H   0  0  0  0  0  0  0  0  0  0  0  0
   53.0650   89.4530   19.0950 H   0  0  0  0  0  0  0  0  0  0  0  0
   52.3040   90.8190   18.2600 H   0  0  0  0  0  0  0  0  0  0  0  0
   55.3850   92.2350   18.9450 H   0  0  0  0  0  0  0  0  0  0  0  0
   56.3130   90.8020   18.2730 H   0  0  0  0  0  0  0  0  0  0  0  0
   54.8920   89.3890   20.0000 H   0  0  0  0  0  0  0  0  0  0  0  0
   56.2490   90.3200   20.6800 H   0  0  0  0  0  0  0  0  0  0  0  0
  2  1  1  0  0  0  0
  3 27  1  0  0  0  0
  3  2  1  0  0  0  0
  4  3  2  0  0  0  0
  5  6  2  0  0  0  0
  5  4  1  0  0  0  0
  6  7  1  0  0  0  0
  7  2  2  0  0  0  0
  7  8  1  0  0  0  0
  8 31  1  0  0  0  0
  8 29  1  0  0  0  0
  9  5  1  0  0  0  0
 10 11  1  0  0  0  0
 10  9  1  0  0  0  0
 10 33  1  0  0  0  0
 11 20  1  6  0  0  0
 11 14  1  0  0  0  0
 11 12  1  0  0  0  0
 12  4  1  0  0  0  0
 12 34  1  1  0  0  0
 13 12  1  0  0  0  0
 13 35  1  0  0  0  0
 14 36  1  1  0  0  0
 14 15  1  0  0  0  0
 15 16  1  0  0  0  0
 15 37  1  0  0  0  0
 16 40  1  0  0  0  0
 16 39  1  0  0  0  0
 17 16  1  0  0  0  0
 18 42  1  0  0  0  0
 18 17  1  0  0  0  0
 19 18  1  0  0  0  0
 19 14  1  0  0  0  0
 20 45  1  0  0  0  0
 21 20  1  0  0  0  0
 21 47  1  0  0  0  0
 22 49  1  0  0  0  0
 22 21  1  0  0  0  0
 23 50  1  0  0  0  0
 23 22  1  0  0  0  0
 24 25  1  0  0  0  0
 24 23  1  0  0  0  0
 25 52  1  0  0  0  0
 25 26  1  0  0  0  0
 26 55  1  0  0  0  0
 26 44  1  0  0  0  0
 28  6  1  0  0  0  0
 30  8  1  0  0  0  0
 32 10  1  0  0  0  0
 38 15  1  0  0  0  0
 41 18  1  0  0  0  0
 43 19  1  0  0  0  0
 46 20  1  0  0  0  0
 48 22  1  0  0  0  0
 51 23  1  0  0  0  0
 53 25  1  0  0  0  0
 54 26  1  0  0  0  0
M  END
>  <Pose>
1

>  <Score>
-4.83

$$$$
