
 OpenBabel03202210083D

 66 69  0  0  1  0  0  0  0  0999 V2000
   54.9100   81.3660   22.1670 B   0  0  0  0  0  0  0  0  0  0  0  0
   53.2590   82.3250   21.9990 C   0  0  0  0  0  0  0  0  0  0  0  0
   53.2550   83.5900   21.4620 C   0  0  0  0  0  0  0  0  0  0  0  0
   52.0670   84.3270   21.3210 C   0  0  0  0  0  0  0  0  0  0  0  0
   50.9100   83.7140   21.7480 C   0  0  0  0  0  0  0  0  0  0  0  0
   50.8860   82.4470   22.2900 C   0  0  0  0  0  0  0  0  0  0  0  0
   52.0630   81.7450   22.4180 C   0  0  0  0  0  0  0  0  0  0  0  0
   52.1410   80.3750   22.9880 C   0  0  0  0  0  0  0  0  0  0  0  0
   49.2670   81.6240   22.8730 B   0  0  0  0  0  0  0  0  0  0  0  0
   52.1100   85.6590   20.7530 C   0  0  0  0  0  0  0  0  0  0  0  0
   51.0610   86.2730   20.5290 O   0  0  0  0  0  0  0  0  0  0  0  0
   53.4130   86.2740   20.4440 C   0  0  1  0  0  0  0  0  0  0  0  0
   54.3460   85.1590   20.0270 C   0  0  0  0  0  0  0  0  0  0  0  0
   54.4450   84.1760   21.0410 O   0  0  0  0  0  0  0  0  0  0  0  0
   53.3390   87.3510   19.4050 C   0  0  0  0  0  0  0  0  0  0  0  0
   52.5830   88.4940   19.7470 N   0  0  0  0  0  4  0  0  0  0  0  0
   53.4590   89.5700   20.1080 C   0  0  0  0  0  0  0  0  0  0  0  0
   54.2200   90.1720   18.9820 C   0  0  2  0  0  0  0  0  0  0  0  0
   53.8360   89.7520   17.6170 C   0  0  0  0  0  0  0  0  0  0  0  0
   52.4670   89.2170   17.4460 C   0  0  0  0  0  0  0  0  0  0  0  0
   51.7100   88.9960   18.7220 C   0  0  0  0  0  0  0  0  0  0  0  0
   55.6980   89.8150   19.1790 C   0  0  0  0  0  0  0  0  0  0  0  0
   53.9220   86.8490   21.7500 C   0  0  0  0  0  0  0  0  0  0  0  0
   55.2030   86.3840   22.1610 N   0  0  0  0  0  4  0  0  0  0  0  0
   55.2620   86.2850   23.6180 C   0  0  0  0  0  0  0  0  0  0  0  0
   55.9770   87.4440   24.2470 C   0  0  1  0  0  0  0  0  0  0  0  0
   55.5650   88.7260   23.5590 C   0  0  0  0  0  0  0  0  0  0  0  0
   56.0900   88.6820   22.1580 C   0  0  0  0  0  0  0  0  0  0  0  0
   56.3000   87.2400   21.7670 C   0  0  0  0  0  0  0  0  0  0  0  0
   55.4740   87.5500   25.6930 C   0  0  0  0  0  0  0  0  0  0  0  0
   49.9620   84.2390   21.6620 H   0  0  0  0  0  0  0  0  0  0  0  0
   52.5090   79.6950   22.1880 H   0  0  0  0  0  0  0  0  0  0  0  0
   51.2070   80.0480   23.4470 H   0  0  0  0  0  0  0  0  0  0  0  0
   52.9750   80.4070   23.7460 H   0  0  0  0  0  0  0  0  0  0  0  0
   53.9810   84.6490   19.1240 H   0  0  0  0  0  0  0  0  0  0  0  0
   55.3610   85.5610   19.7550 H   0  0  0  0  0  0  0  0  0  0  0  0
   54.3850   87.6720   19.2170 H   0  0  0  0  0  0  0  0  0  0  0  0
   52.9960   86.8870   18.4570 H   0  0  0  0  0  0  0  0  0  0  0  0
   51.9820   88.2900   20.5850 H   0  0  0  0  0  0  0  0  0  0  0  0
   52.8110   90.3470   20.6140 H   0  0  0  0  0  0  0  0  0  0  0  0
   54.1290   89.2060   20.9130 H   0  0  0  0  0  0  0  0  0  0  0  0
   54.1790   91.2810   19.0870 H   0  0  0  0  0  0  0  0  0  0  0  0
   53.9480   90.6460   16.9370 H   0  0  0  0  0  0  0  0  0  0  0  0
   54.5740   89.0100   17.1870 H   0  0  0  0  0  0  0  0  0  0  0  0
   52.4670   88.2590   16.8460 H   0  0  0  0  0  0  0  0  0  0  0  0
   51.8240   89.9070   16.8210 H   0  0  0  0  0  0  0  0  0  0  0  0
   50.8020   88.4360   18.5400 H   0  0  0  0  0  0  0  0  0  0  0  0
   51.3820   90.0210   19.0700 H   0  0  0  0  0  0  0  0  0  0  0  0
   56.3550   90.6370   18.8000 H   0  0  0  0  0  0  0  0  0  0  0  0
   55.8800   89.5650   20.2320 H   0  0  0  0  0  0  0  0  0  0  0  0
   55.9010   88.9090   18.5770 H   0  0  0  0  0  0  0  0  0  0  0  0
   53.1590   86.5530   22.5260 H   0  0  0  0  0  0  0  0  0  0  0  0
   53.8450   87.9720   21.7180 H   0  0  0  0  0  0  0  0  0  0  0  0
   55.3790   85.4430   21.8000 H   0  0  0  0  0  0  0  0  0  0  0  0
   55.7480   85.3510   23.9460 H   0  0  0  0  0  0  0  0  0  0  0  0
   54.2270   86.2760   24.0540 H   0  0  0  0  0  0  0  0  0  0  0  0
   57.0650   87.3180   24.3140 H   0  0  0  0  0  0  0  0  0  0  0  0
   56.0110   89.5620   24.1360 H   0  0  0  0  0  0  0  0  0  0  0  0
   54.4760   88.8110   23.6230 H   0  0  0  0  0  0  0  0  0  0  0  0
   55.5000   89.2220   21.4210 H   0  0  0  0  0  0  0  0  0  0  0  0
   57.1130   89.1550   22.1540 H   0  0  0  0  0  0  0  0  0  0  0  0
   57.2070   86.8380   22.3060 H   0  0  0  0  0  0  0  0  0  0  0  0
   56.5520   87.2160   20.7060 H   0  0  0  0  0  0  0  0  0  0  0  0
   55.1820   86.5410   26.0660 H   0  0  0  0  0  0  0  0  0  0  0  0
   54.6390   88.2780   25.7750 H   0  0  0  0  0  0  0  0  0  0  0  0
   56.2760   87.9240   26.3630 H   0  0  0  0  0  0  0  0  0  0  0  0
  2  1  1  0  0  0  0
  2  7  1  0  0  0  0
  3  2  2  0  0  0  0
  4  3  1  0  0  0  0
  4  5  2  0  0  0  0
  5  6  1  0  0  0  0
  6  7  2  0  0  0  0
  6  9  1  0  0  0  0
  7  8  1  0  0  0  0
  8 33  1  0  0  0  0
  8 34  1  0  0  0  0
 10  4  1  0  0  0  0
 11 10  2  0  0  0  0
 12 15  1  6  0  0  0
 12 10  1  0  0  0  0
 12 23  1  0  0  0  0
 13 12  1  0  0  0  0
 13 14  1  0  0  0  0
 14  3  1  0  0  0  0
 15 16  1  0  0  0  0
 16 17  1  0  0  0  0
 16 39  1  0  0  0  0
 17 40  1  0  0  0  0
 17 41  1  0  0  0  0
 18 42  1  1  0  0  0
 18 22  1  0  0  0  0
 18 17  1  0  0  0  0
 19 18  1  0  0  0  0
 20 19  1  0  0  0  0
 20 21  1  0  0  0  0
 21 48  1  0  0  0  0
 21 16  1  0  0  0  0
 22 50  1  0  0  0  0
 23 24  1  0  0  0  0
 23 52  1  0  0  0  0
 24 25  1  0  0  0  0
 25 55  1  0  0  0  0
 25 56  1  0  0  0  0
 25 26  1  0  0  0  0
 26 57  1  6  0  0  0
 26 30  1  0  0  0  0
 27 59  1  0  0  0  0
 27 58  1  0  0  0  0
 27 26  1  0  0  0  0
 28 27  1  0  0  0  0
 29 28  1  0  0  0  0
 29 24  1  0  0  0  0
 29 62  1  0  0  0  0
 30 65  1  0  0  0  0
 30 64  1  0  0  0  0
 30 66  1  0  0  0  0
 31  5  1  0  0  0  0
 32  8  1  0  0  0  0
 35 13  1  0  0  0  0
 36 13  1  0  0  0  0
 37 15  1  0  0  0  0
 38 15  1  0  0  0  0
 43 19  1  0  0  0  0
 44 19  1  0  0  0  0
 45 20  1  0  0  0  0
 46 20  1  0  0  0  0
 47 21  1  0  0  0  0
 49 22  1  0  0  0  0
 51 22  1  0  0  0  0
 53 23  1  0  0  0  0
 54 24  1  0  0  0  0
 60 28  1  0  0  0  0
 61 28  1  0  0  0  0
 63 29  1  0  0  0  0
M  END
>  <Pose>
1

>  <Score>
-4.56

$$$$
