
 OpenBabel03202210083D

 41 44  0  0  0  0  0  0  0  0999 V2000
   53.3180   94.9090   25.7700 F   0  0  0  0  0  0  0  0  0  0  0  0
   54.5910   95.2710   25.4470 C   0  0  0  0  0  0  0  0  0  0  0  0
   55.3540   94.3610   24.6970 C   0  0  0  0  0  0  0  0  0  0  0  0
   56.6260   94.7170   24.3730 C   0  0  0  0  0  0  0  0  0  0  0  0
   57.2010   95.9480   24.7550 C   0  0  0  0  0  0  0  0  0  0  0  0
   56.4200   96.8110   25.4890 C   0  0  0  0  0  0  0  0  0  0  0  0
   55.1280   96.4720   25.8310 C   0  0  0  0  0  0  0  0  0  0  0  0
   56.9120   98.0070   25.8870 F   0  0  0  0  0  0  0  0  0  0  0  0
   54.7660   93.1420   24.3260 N   0  0  0  0  0  0  0  0  0  0  0  0
   55.0080   92.4650   23.1330 C   0  0  0  0  0  0  0  0  0  0  0  0
   54.2080   92.4110   22.1940 O   0  0  0  0  0  0  0  0  0  0  0  0
   56.3250   91.7390   22.9480 C   0  0  0  0  0  0  0  0  0  0  0  0
   56.0850   90.5010   22.2380 N   0  0  0  0  0  0  0  0  0  0  0  0
   56.0890   90.4080   20.9210 N   0  0  0  0  0  0  0  0  0  0  0  0
   55.8290   89.1410   20.6470 N   0  0  0  0  0  0  0  0  0  0  0  0
   55.6610   88.4240   21.7770 C   0  0  0  0  0  0  0  0  0  0  0  0
   55.8260   89.3000   22.7820 C   0  0  0  0  0  0  0  0  0  0  0  0
   55.6530   88.5550   23.9250 C   0  0  0  0  0  0  0  0  0  0  0  0
   55.7290   89.0120   25.0960 O   0  0  0  0  0  0  0  0  0  0  0  0
   55.3890   87.2620   23.6450 N   0  0  0  0  0  0  0  0  0  0  0  0
   55.3930   87.1730   22.3050 C   0  0  0  0  0  0  0  0  0  0  0  0
   55.1850   86.1200   21.6470 O   0  0  0  0  0  0  0  0  0  0  0  0
   55.1580   86.2250   24.6140 C   0  0  0  0  0  0  0  0  0  0  0  0
   56.1830   85.3880   25.0100 C   0  0  0  0  0  0  0  0  0  0  0  0
   56.0070   84.3800   25.9360 C   0  0  0  0  0  0  0  0  0  0  0  0
   54.7420   84.2280   26.4690 C   0  0  0  0  0  0  0  0  0  0  0  0
   53.6760   85.0370   26.1090 C   0  0  0  0  0  0  0  0  0  0  0  0
   53.9200   86.0260   25.1780 C   0  0  0  0  0  0  0  0  0  0  0  0
   54.5210   82.8190   27.7550 B   0  0  0  0  0  0  0  0  0  0  0  0
   57.2730   94.0880   23.8080 H   0  0  0  0  0  0  0  0  0  0  0  0
   58.2140   96.1940   24.4790 H   0  0  0  0  0  0  0  0  0  0  0  0
   54.5140   97.1680   26.4160 H   0  0  0  0  0  0  0  0  0  0  0  0
   54.0690   92.6690   24.9980 H   0  0  0  0  0  0  0  0  0  0  0  0
   56.7570   91.5120   23.9500 H   0  0  0  0  0  0  0  0  0  0  0  0
   57.0050   92.4240   22.4380 H   0  0  0  0  0  0  0  0  0  0  0  0
   56.2610   91.1800   20.2150 H   0  0  0  0  0  0  0  0  0  0  0  0
   55.7700   88.7760   19.6600 H   0  0  0  0  0  0  0  0  0  0  0  0
   57.1500   85.5550   24.5600 H   0  0  0  0  0  0  0  0  0  0  0  0
   56.8370   83.7250   26.2380 H   0  0  0  0  0  0  0  0  0  0  0  0
   52.7160   84.8620   26.5640 H   0  0  0  0  0  0  0  0  0  0  0  0
   53.0900   86.6620   24.8930 H   0  0  0  0  0  0  0  0  0  0  0  0
  2  1  1  0  0  0  0
  2  7  1  0  0  0  0
  3  2  2  0  0  0  0
  4  3  1  0  0  0  0
  4  5  2  0  0  0  0
  5  6  1  0  0  0  0
  6  7  2  0  0  0  0
  6  8  1  0  0  0  0
  7 32  1  0  0  0  0
  9  3  1  0  0  0  0
  9 33  1  0  0  0  0
 10  9  1  0  0  0  0
 11 10  2  0  0  0  0
 12 10  1  0  0  0  0
 12 34  1  0  0  0  0
 13 17  1  0  0  0  0
 13 12  1  0  0  0  0
 14 13  1  0  0  0  0
 15 14  1  0  0  0  0
 15 16  1  0  0  0  0
 16 21  1  0  0  0  0
 16 17  2  0  0  0  0
 17 18  1  0  0  0  0
 18 19  2  0  0  0  0
 20 18  1  0  0  0  0
 20 23  1  0  0  0  0
 21 20  1  0  0  0  0
 22 21  2  0  0  0  0
 23 24  2  0  0  0  0
 23 28  1  0  0  0  0
 24 25  1  0  0  0  0
 25 39  1  0  0  0  0
 25 26  2  0  0  0  0
 26 29  1  0  0  0  0
 27 26  1  0  0  0  0
 27 40  1  0  0  0  0
 28 27  2  0  0  0  0
 30  4  1  0  0  0  0
 31  5  1  0  0  0  0
 35 12  1  0  0  0  0
 36 14  1  0  0  0  0
 37 15  1  0  0  0  0
 38 24  1  0  0  0  0
 41 28  1  0  0  0  0
M  END
>  <Pose>
1

>  <Score>
-7.99

$$$$
