
 OpenBabel03202210083D

 53 56  0  0  1  0  0  0  0  0999 V2000
   55.9210   98.2170   27.7420 F   0  0  0  0  0  0  0  0  0  0  0  0
   56.5680   97.9970   26.6070 C   0  0  0  0  0  0  0  0  0  0  0  0
   56.1860   97.0030   25.7310 C   0  0  0  0  0  0  0  0  0  0  0  0
   56.9540   96.8980   24.5970 C   0  0  0  0  0  0  0  0  0  0  0  0
   58.0420   97.7070   24.3080 C   0  0  0  0  0  0  0  0  0  0  0  0
   58.3890   98.6810   25.2010 C   0  0  0  0  0  0  0  0  0  0  0  0
   57.6600   98.8260   26.3360 C   0  0  0  0  0  0  0  0  0  0  0  0
   55.0240   96.1300   25.9640 C   0  0  2  0  0  0  0  0  0  0  0  0
   54.4320   95.5720   24.7580 N   0  0  0  0  0  0  0  0  0  0  0  0
   53.9180   96.7570   24.1150 C   0  0  0  0  0  0  0  0  0  0  0  0
   53.7920   96.9920   22.8840 O   0  0  0  0  0  0  0  0  0  0  0  0
   53.5300   97.7380   25.1680 C   0  0  0  0  0  0  0  0  0  0  0  0
   53.0510   98.8700   25.1090 O   0  0  0  0  0  0  0  0  0  0  0  0
   53.8700   96.9970   26.4180 C   0  0  0  0  0  0  0  0  0  0  0  0
   53.2890   97.1140   27.5870 C   0  0  0  0  0  0  0  0  0  0  0  0
   53.7540   96.3360   28.6660 O   0  0  0  0  0  0  0  0  0  0  0  0
   52.1730   98.0220   27.8050 C   0  0  0  0  0  0  0  0  0  0  0  0
   50.9360   97.5000   28.1100 C   0  0  0  0  0  0  0  0  0  0  0  0
   49.8250   98.3050   28.3020 C   0  0  0  0  0  0  0  0  0  0  0  0
   49.9440   99.6730   28.1910 C   0  0  0  0  0  0  0  0  0  0  0  0
   51.1570  100.2110   27.8900 C   0  0  0  0  0  0  0  0  0  0  0  0
   52.2770   99.3840   27.6960 C   0  0  0  0  0  0  0  0  0  0  0  0
   48.4150  100.8190   28.4540 B   0  0  0  0  0  0  0  0  0  0  0  0
   54.3100   94.2820   24.2280 C   0  0  0  0  0  0  0  0  0  0  0  0
   55.4940   93.5830   23.6620 C   0  0  0  0  0  0  0  0  0  0  0  0
   55.2860   92.1860   23.4020 N   0  0  0  0  0  4  0  0  0  0  0  0
   56.1550   91.4140   24.2650 C   0  0  0  0  0  0  0  0  0  0  0  0
   55.8850   89.9280   24.1090 C   0  0  0  0  0  0  0  0  0  0  0  0
   56.0980   89.5660   22.7930 O   0  0  0  0  0  0  0  0  0  0  0  0
   55.3010   90.3260   21.9410 C   0  0  0  0  0  0  0  0  0  0  0  0
   55.6950   91.8070   22.0340 C   0  0  0  0  0  0  0  0  0  0  0  0
   56.7140   96.1650   23.8730 H   0  0  0  0  0  0  0  0  0  0  0  0
   58.6280   97.6030   23.4070 H   0  0  0  0  0  0  0  0  0  0  0  0
   59.2370   99.3240   24.9940 H   0  0  0  0  0  0  0  0  0  0  0  0
   57.9510   99.6030   27.0350 H   0  0  0  0  0  0  0  0  0  0  0  0
   55.2420   95.4230   26.7500 H   0  0  0  0  0  0  0  0  0  0  0  0
   50.7670   96.4290   28.2140 H   0  0  0  0  0  0  0  0  0  0  0  0
   48.8440   97.9230   28.5410 H   0  0  0  0  0  0  0  0  0  0  0  0
   51.2550  101.2860   27.8020 H   0  0  0  0  0  0  0  0  0  0  0  0
   53.2170   99.8190   27.4470 H   0  0  0  0  0  0  0  0  0  0  0  0
   53.5350   94.2750   23.4100 H   0  0  0  0  0  0  0  0  0  0  0  0
   53.8690   93.5240   24.9570 H   0  0  0  0  0  0  0  0  0  0  0  0
   55.6710   94.0540   22.6530 H   0  0  0  0  0  0  0  0  0  0  0  0
   56.4430   93.7990   24.2080 H   0  0  0  0  0  0  0  0  0  0  0  0
   54.2890   91.8890   23.4400 H   0  0  0  0  0  0  0  0  0  0  0  0
   57.1990   91.5750   23.8640 H   0  0  0  0  0  0  0  0  0  0  0  0
   56.1810   91.7550   25.2980 H   0  0  0  0  0  0  0  0  0  0  0  0
   54.8500   89.7380   24.4640 H   0  0  0  0  0  0  0  0  0  0  0  0
   56.6190   89.3990   24.7430 H   0  0  0  0  0  0  0  0  0  0  0  0
   54.2530   90.2480   22.3420 H   0  0  0  0  0  0  0  0  0  0  0  0
   55.3250   89.9810   20.9030 H   0  0  0  0  0  0  0  0  0  0  0  0
   56.7730   91.9390   21.9310 H   0  0  0  0  0  0  0  0  0  0  0  0
   55.0680   92.3720   21.3310 H   0  0  0  0  0  0  0  0  0  0  0  0
  2  1  1  0  0  0  0
  3  8  1  0  0  0  0
  3  2  2  0  0  0  0
  4  3  1  0  0  0  0
  5  4  2  0  0  0  0
  5  6  1  0  0  0  0
  6  7  2  0  0  0  0
  7  2  1  0  0  0  0
  7 35  1  0  0  0  0
  8 14  1  0  0  0  0
  8 36  1  1  0  0  0
  9  8  1  0  0  0  0
 10  9  1  0  0  0  0
 10 12  1  0  0  0  0
 11 10  2  0  0  0  0
 12 14  1  0  0  0  0
 13 12  2  0  0  0  0
 14 15  2  0  0  0  0
 15 17  1  0  0  0  0
 15 16  1  0  0  0  0
 17 18  1  0  0  0  0
 18 37  1  0  0  0  0
 18 19  2  0  0  0  0
 19 38  1  0  0  0  0
 20 19  1  0  0  0  0
 20 23  1  0  0  0  0
 21 20  2  0  0  0  0
 22 17  2  0  0  0  0
 22 21  1  0  0  0  0
 24  9  1  0  0  0  0
 24 42  1  0  0  0  0
 25 44  1  0  0  0  0
 25 24  1  0  0  0  0
 26 45  1  0  0  0  0
 26 25  1  0  0  0  0
 26 27  1  0  0  0  0
 27 47  1  0  0  0  0
 28 27  1  0  0  0  0
 28 48  1  0  0  0  0
 28 49  1  0  0  0  0
 29 28  1  0  0  0  0
 30 31  1  0  0  0  0
 30 50  1  0  0  0  0
 30 29  1  0  0  0  0
 31 26  1  0  0  0  0
 32  4  1  0  0  0  0
 33  5  1  0  0  0  0
 34  6  1  0  0  0  0
 39 21  1  0  0  0  0
 40 22  1  0  0  0  0
 41 24  1  0  0  0  0
 43 25  1  0  0  0  0
 46 27  1  0  0  0  0
 51 30  1  0  0  0  0
 52 31  1  0  0  0  0
 53 31  1  0  0  0  0
M  END
>  <Pose>
1

>  <Score>
-5.43

$$$$
