
 OpenBabel03202210083D

 41 44  0  0  0  0  0  0  0  0999 V2000
   56.6490   89.7990   20.3520 F   0  0  0  0  0  0  0  0  0  0  0  0
   55.5020   90.4270   19.9630 C   0  0  0  0  0  0  0  0  0  0  0  0
   55.0430   91.5070   20.7330 C   0  0  0  0  0  0  0  0  0  0  0  0
   53.8860   92.1050   20.3020 C   0  0  0  0  0  0  0  0  0  0  0  0
   53.2290   91.6510   19.1700 C   0  0  0  0  0  0  0  0  0  0  0  0
   53.6790   90.6000   18.4260 C   0  0  0  0  0  0  0  0  0  0  0  0
   54.8380   89.9900   18.8450 C   0  0  0  0  0  0  0  0  0  0  0  0
   55.7810   91.9100   21.8820 N   0  0  0  0  0  0  0  0  0  0  0  0
   55.2960   92.2020   23.1530 C   0  0  0  0  0  0  0  0  0  0  0  0
   55.4500   91.4350   24.1180 O   0  0  0  0  0  0  0  0  0  0  0  0
   54.5560   93.4650   23.4290 C   0  0  0  0  0  0  0  0  0  0  0  0
   55.3560   94.3210   24.2850 N   0  0  0  0  0  0  0  0  0  0  0  0
   56.6630   94.3440   24.4370 N   0  0  0  0  0  0  0  0  0  0  0  0
   57.0080   95.2750   25.3140 N   0  0  0  0  0  0  0  0  0  0  0  0
   55.8810   95.8810   25.7460 C   0  0  0  0  0  0  0  0  0  0  0  0
   54.8870   95.2920   25.1140 C   0  0  0  0  0  0  0  0  0  0  0  0
   53.7290   95.9120   25.5560 C   0  0  0  0  0  0  0  0  0  0  0  0
   52.5790   95.6130   25.1690 O   0  0  0  0  0  0  0  0  0  0  0  0
   54.0110   96.8740   26.4530 N   0  0  0  0  0  0  0  0  0  0  0  0
   55.3520   96.8550   26.5730 C   0  0  0  0  0  0  0  0  0  0  0  0
   56.0290   97.6000   27.3140 O   0  0  0  0  0  0  0  0  0  0  0  0
   53.0750   97.7190   27.1220 C   0  0  0  0  0  0  0  0  0  0  0  0
   53.1580   99.0940   27.0270 C   0  0  0  0  0  0  0  0  0  0  0  0
   52.2600   99.9260   27.6660 C   0  0  0  0  0  0  0  0  0  0  0  0
   51.2370   99.4110   28.4340 C   0  0  0  0  0  0  0  0  0  0  0  0
   51.1350   98.0400   28.5440 C   0  0  0  0  0  0  0  0  0  0  0  0
   52.0430   97.2260   27.8970 C   0  0  0  0  0  0  0  0  0  0  0  0
   49.9790  100.5390   29.3310 B   0  0  0  0  0  0  0  0  0  0  0  0
   53.4710   92.9350   20.8310 H   0  0  0  0  0  0  0  0  0  0  0  0
   52.3070   92.1380   18.8390 H   0  0  0  0  0  0  0  0  0  0  0  0
   53.1290   90.2840   17.5510 H   0  0  0  0  0  0  0  0  0  0  0  0
   55.1930   89.1510   18.2460 H   0  0  0  0  0  0  0  0  0  0  0  0
   56.8440   92.0020   21.7610 H   0  0  0  0  0  0  0  0  0  0  0  0
   53.6190   93.1880   23.9840 H   0  0  0  0  0  0  0  0  0  0  0  0
   54.2680   93.9750   22.4910 H   0  0  0  0  0  0  0  0  0  0  0  0
   57.3150   93.6980   23.9210 H   0  0  0  0  0  0  0  0  0  0  0  0
   57.9840   95.5050   25.6200 H   0  0  0  0  0  0  0  0  0  0  0  0
   53.9740   99.4920   26.4150 H   0  0  0  0  0  0  0  0  0  0  0  0
   52.3370  100.9960   27.5820 H   0  0  0  0  0  0  0  0  0  0  0  0
   50.3190   97.6360   29.1560 H   0  0  0  0  0  0  0  0  0  0  0  0
   51.9700   96.1530   27.9780 H   0  0  0  0  0  0  0  0  0  0  0  0
  2  1  1  0  0  0  0
  2  3  1  0  0  0  0
  3  8  1  0  0  0  0
  4  3  2  0  0  0  0
  4 29  1  0  0  0  0
  5  4  1  0  0  0  0
  6  7  1  0  0  0  0
  6  5  2  0  0  0  0
  7  2  2  0  0  0  0
  8  9  1  0  0  0  0
  9 11  1  0  0  0  0
  9 10  2  0  0  0  0
 11 34  1  0  0  0  0
 11 12  1  0  0  0  0
 12 13  1  0  0  0  0
 12 16  1  0  0  0  0
 13 14  1  0  0  0  0
 14 37  1  0  0  0  0
 14 15  1  0  0  0  0
 15 20  1  0  0  0  0
 16 17  1  0  0  0  0
 16 15  2  0  0  0  0
 17 19  1  0  0  0  0
 18 17  2  0  0  0  0
 19 20  1  0  0  0  0
 19 22  1  0  0  0  0
 20 21  2  0  0  0  0
 22 27  1  0  0  0  0
 23 22  2  0  0  0  0
 23 24  1  0  0  0  0
 24 25  2  0  0  0  0
 25 26  1  0  0  0  0
 25 28  1  0  0  0  0
 26 40  1  0  0  0  0
 27 41  1  0  0  0  0
 27 26  2  0  0  0  0
 30  5  1  0  0  0  0
 31  6  1  0  0  0  0
 32  7  1  0  0  0  0
 33  8  1  0  0  0  0
 35 11  1  0  0  0  0
 36 13  1  0  0  0  0
 38 23  1  0  0  0  0
 39 24  1  0  0  0  0
M  END
>  <Pose>
1

>  <Score>
-7.16

$$$$
