
 OpenBabel03202210083D

 41 44  0  0  0  0  0  0  0  0999 V2000
   50.7140  100.3720   29.3240 F   0  0  0  0  0  0  0  0  0  0  0  0
   51.6130   99.5960   28.6480 C   0  0  0  0  0  0  0  0  0  0  0  0
   52.1620  100.0500   27.4830 C   0  0  0  0  0  0  0  0  0  0  0  0
   53.0830   99.2660   26.7850 C   0  0  0  0  0  0  0  0  0  0  0  0
   53.4670   98.0240   27.2370 C   0  0  0  0  0  0  0  0  0  0  0  0
   52.8920   97.5920   28.4230 C   0  0  0  0  0  0  0  0  0  0  0  0
   51.9830   98.3570   29.1190 C   0  0  0  0  0  0  0  0  0  0  0  0
   54.4070   97.1830   26.5710 N   0  0  0  0  0  0  0  0  0  0  0  0
   54.2530   95.9140   26.1590 C   0  0  0  0  0  0  0  0  0  0  0  0
   53.1680   95.2930   26.3300 O   0  0  0  0  0  0  0  0  0  0  0  0
   55.3920   95.4180   25.5550 C   0  0  0  0  0  0  0  0  0  0  0  0
   56.2660   96.4190   25.6030 C   0  0  0  0  0  0  0  0  0  0  0  0
   57.3910   95.9810   25.0300 N   0  0  0  0  0  0  0  0  0  0  0  0
   57.2020   94.7340   24.6400 N   0  0  0  0  0  0  0  0  0  0  0  0
   55.9680   94.3490   24.9510 N   0  0  0  0  0  0  0  0  0  0  0  0
   55.3260   93.0870   24.7190 C   0  0  0  0  0  0  0  0  0  0  0  0
   54.8390   92.8660   23.3530 C   0  0  0  0  0  0  0  0  0  0  0  0
   53.8460   93.5130   22.9880 O   0  0  0  0  0  0  0  0  0  0  0  0
   55.4800   91.9580   22.5060 N   0  0  0  0  0  0  0  0  0  0  0  0
   55.1550   91.5910   21.1790 C   0  0  0  0  0  0  0  0  0  0  0  0
   54.0350   92.0700   20.5430 C   0  0  0  0  0  0  0  0  0  0  0  0
   53.6810   91.7290   19.2340 C   0  0  0  0  0  0  0  0  0  0  0  0
   54.5210   90.8650   18.5780 C   0  0  0  0  0  0  0  0  0  0  0  0
   55.6470   90.3730   19.1900 C   0  0  0  0  0  0  0  0  0  0  0  0
   55.9720   90.7230   20.4750 C   0  0  0  0  0  0  0  0  0  0  0  0
   54.0950   90.3530   16.7690 B   0  0  0  0  0  0  0  0  0  0  0  0
   55.6790   97.5030   26.2210 C   0  0  0  0  0  0  0  0  0  0  0  0
   56.1690   98.6430   26.4610 O   0  0  0  0  0  0  0  0  0  0  0  0
   51.8640  101.0250   27.1250 H   0  0  0  0  0  0  0  0  0  0  0  0
   53.5030   99.6370   25.8760 H   0  0  0  0  0  0  0  0  0  0  0  0
   53.2000   96.6010   28.7800 H   0  0  0  0  0  0  0  0  0  0  0  0
   51.5460   98.0060   30.0400 H   0  0  0  0  0  0  0  0  0  0  0  0
   58.2630   96.5680   24.9250 H   0  0  0  0  0  0  0  0  0  0  0  0
   57.8910   94.1330   24.1670 H   0  0  0  0  0  0  0  0  0  0  0  0
   54.4240   93.0420   25.4000 H   0  0  0  0  0  0  0  0  0  0  0  0
   55.9610   92.2270   25.0790 H   0  0  0  0  0  0  0  0  0  0  0  0
   56.3550   91.4430   22.8860 H   0  0  0  0  0  0  0  0  0  0  0  0
   53.3300   92.7560   21.0030 H   0  0  0  0  0  0  0  0  0  0  0  0
   52.7920   92.1210   18.7560 H   0  0  0  0  0  0  0  0  0  0  0  0
   56.3060   89.6870   18.6560 H   0  0  0  0  0  0  0  0  0  0  0  0
   56.8870   90.3110   20.9480 H   0  0  0  0  0  0  0  0  0  0  0  0
  2  7  1  0  0  0  0
  2  1  1  0  0  0  0
  3  2  2  0  0  0  0
  4  5  2  0  0  0  0
  4  3  1  0  0  0  0
  5  6  1  0  0  0  0
  6 31  1  0  0  0  0
  6  7  2  0  0  0  0
  7 32  1  0  0  0  0
  8  5  1  0  0  0  0
  9 10  2  0  0  0  0
  9  8  1  0  0  0  0
 11 12  2  0  0  0  0
 11  9  1  0  0  0  0
 12 27  1  0  0  0  0
 13 12  1  0  0  0  0
 14 15  1  0  0  0  0
 14 13  1  0  0  0  0
 15 11  1  0  0  0  0
 16 15  1  0  0  0  0
 16 36  1  0  0  0  0
 16 35  1  0  0  0  0
 17 16  1  0  0  0  0
 18 17  2  0  0  0  0
 19 37  1  0  0  0  0
 19 17  1  0  0  0  0
 20 19  1  0  0  0  0
 21 38  1  0  0  0  0
 21 20  1  0  0  0  0
 22 21  2  0  0  0  0
 23 24  2  0  0  0  0
 23 22  1  0  0  0  0
 24 25  1  0  0  0  0
 25 41  1  0  0  0  0
 25 20  2  0  0  0  0
 26 23  1  0  0  0  0
 27 28  2  0  0  0  0
 27  8  1  0  0  0  0
 29  3  1  0  0  0  0
 30  4  1  0  0  0  0
 33 13  1  0  0  0  0
 34 14  1  0  0  0  0
 39 22  1  0  0  0  0
 40 24  1  0  0  0  0
M  END
>  <Pose>
1

>  <Score>
-9.69

$$$$
