
 OpenBabel03202210083D

 43 46  0  0  1  0  0  0  0  0999 V2000
   51.5570  102.3730   24.7490 I   0  0  0  0  0  0  0  0  0  0  0  0
   51.5220  101.1270   26.4500 C   0  0  0  0  0  0  0  0  0  0  0  0
   50.5430  101.3030   27.4070 C   0  0  0  0  0  0  0  0  0  0  0  0
   50.5080  100.4870   28.5360 C   0  0  0  0  0  0  0  0  0  0  0  0
   51.4660   99.5250   28.6490 C   0  0  0  0  0  0  0  0  0  0  0  0
   52.4610   99.3250   27.7020 C   0  0  0  0  0  0  0  0  0  0  0  0
   52.4790  100.1360   26.6000 C   0  0  0  0  0  0  0  0  0  0  0  0
   53.4500   98.2380   27.9420 C   0  0  2  0  0  0  0  0  0  0  0  0
   54.5580   98.4960   27.0220 N   0  0  0  0  0  0  0  0  0  0  0  0
   55.2280   97.4080   26.3390 C   0  0  0  0  0  0  0  0  0  0  0  0
   56.7070   97.3110   25.4670 S   0  0  0  0  0  0  0  0  0  0  0  0
   56.6590   95.6700   25.0410 C   0  0  0  0  0  0  0  0  0  0  0  0
   55.4840   95.2320   25.5900 C   0  0  0  0  0  0  0  0  0  0  0  0
   54.7450   96.1410   26.2630 C   0  0  0  0  0  0  0  0  0  0  0  0
   53.4390   95.9180   26.9470 C   0  0  0  0  0  0  0  0  0  0  0  0
   52.8790   94.7800   26.9520 O   0  0  0  0  0  0  0  0  0  0  0  0
   52.8130   96.9960   27.6020 N   0  0  0  0  0  0  0  0  0  0  0  0
   55.2480   93.7510   25.3150 C   0  0  0  0  0  0  0  0  0  0  0  0
   55.4320   93.4830   23.8440 C   0  0  0  0  0  0  0  0  0  0  0  0
   56.5790   94.1100   23.2780 N   0  0  0  0  0  4  0  0  0  0  0  0
   57.4800   94.6510   24.2900 C   0  0  0  0  0  0  0  0  0  0  0  0
   56.1060   95.2750   22.5160 C   0  0  0  0  0  0  0  0  0  0  0  0
   49.5010  100.7120   29.4650 O   0  0  0  0  0  0  0  0  0  0  0  0
   49.6030  101.8410   30.3120 C   0  0  0  0  0  0  0  0  0  0  0  0
   49.5890  102.2920   27.2560 O   0  0  0  0  0  0  0  0  0  0  0  0
   51.4480   98.8830   29.5260 H   0  0  0  0  0  0  0  0  0  0  0  0
   53.2630   99.9780   25.8570 H   0  0  0  0  0  0  0  0  0  0  0  0
   53.8300   98.2540   28.9810 H   0  0  0  0  0  0  0  0  0  0  0  0
   54.8970   99.4570   26.8310 H   0  0  0  0  0  0  0  0  0  0  0  0
   51.7990   96.9030   27.8720 H   0  0  0  0  0  0  0  0  0  0  0  0
   55.9360   93.1740   25.9300 H   0  0  0  0  0  0  0  0  0  0  0  0
   54.2030   93.4890   25.5590 H   0  0  0  0  0  0  0  0  0  0  0  0
   54.5170   93.6950   23.2540 H   0  0  0  0  0  0  0  0  0  0  0  0
   55.5850   92.3680   23.7500 H   0  0  0  0  0  0  0  0  0  0  0  0
   57.1210   93.4900   22.6210 H   0  0  0  0  0  0  0  0  0  0  0  0
   58.3020   95.1470   23.7570 H   0  0  0  0  0  0  0  0  0  0  0  0
   57.7810   93.8140   24.9370 H   0  0  0  0  0  0  0  0  0  0  0  0
   55.3330   95.7720   23.1370 H   0  0  0  0  0  0  0  0  0  0  0  0
   56.9530   95.9780   22.3570 H   0  0  0  0  0  0  0  0  0  0  0  0
   55.7280   94.9730   21.5270 H   0  0  0  0  0  0  0  0  0  0  0  0
   49.3930  102.7700   29.7080 H   0  0  0  0  0  0  0  0  0  0  0  0
   50.6180  101.9720   30.7330 H   0  0  0  0  0  0  0  0  0  0  0  0
   48.9090  101.7750   31.1760 H   0  0  0  0  0  0  0  0  0  0  0  0
  1  2  1  0  0  0  0
  2  7  2  0  0  0  0
  2  3  1  0  0  0  0
  3  4  2  0  0  0  0
  4  5  1  0  0  0  0
  4 23  1  0  0  0  0
  5 26  1  0  0  0  0
  6  8  1  0  0  0  0
  6  5  2  0  0  0  0
  7  6  1  0  0  0  0
  8 28  1  1  0  0  0
  9  8  1  0  0  0  0
 10  9  1  0  0  0  0
 11 10  1  0  0  0  0
 12 11  1  0  0  0  0
 12 13  2  0  0  0  0
 13 14  1  0  0  0  0
 14 10  2  0  0  0  0
 14 15  1  0  0  0  0
 15 16  2  0  0  0  0
 15 17  1  0  0  0  0
 17 30  1  0  0  0  0
 17  8  1  0  0  0  0
 18 32  1  0  0  0  0
 18 13  1  0  0  0  0
 18 31  1  0  0  0  0
 19 18  1  0  0  0  0
 20 19  1  0  0  0  0
 20 21  1  0  0  0  0
 21 37  1  0  0  0  0
 21 12  1  0  0  0  0
 22 38  1  0  0  0  0
 22 20  1  0  0  0  0
 23 24  1  0  0  0  0
 24 42  1  0  0  0  0
 24 43  1  0  0  0  0
 25  3  1  0  0  0  0
 27  7  1  0  0  0  0
 29  9  1  0  0  0  0
 33 19  1  0  0  0  0
 34 19  1  0  0  0  0
 35 20  1  0  0  0  0
 36 21  1  0  0  0  0
 39 22  1  0  0  0  0
 40 22  1  0  0  0  0
 41 24  1  0  0  0  0
M  END
>  <Pose>
1

>  <Score>
-6.46

$$$$
