
 OpenBabel03202210083D

 34 37  0  0  0  0  0  0  0  0999 V2000
   54.6310   83.1850   15.5720 I   0  0  0  0  0  0  0  0  0  0  0  0
   55.1890   81.6980   16.9710 C   0  0  0  0  0  0  0  0  0  0  0  0
   54.8150   81.8930   18.2850 C   0  0  0  0  0  0  0  0  0  0  0  0
   55.1890   80.9130   19.1820 C   0  0  0  0  0  0  0  0  0  0  0  0
   55.9010   79.7970   18.7760 C   0  0  0  0  0  0  0  0  0  0  0  0
   56.2700   79.6140   17.4600 C   0  0  0  0  0  0  0  0  0  0  0  0
   55.9000   80.5890   16.5570 C   0  0  0  0  0  0  0  0  0  0  0  0
   54.0790   83.0480   18.6890 N   0  0  0  0  0  0  0  0  0  0  0  0
   54.4380   84.0150   19.5530 C   0  0  0  0  0  0  0  0  0  0  0  0
   55.5390   84.0630   20.1790 O   0  0  0  0  0  0  0  0  0  0  0  0
   53.4490   84.9690   19.6810 C   0  0  0  0  0  0  0  0  0  0  0  0
   52.4720   84.5750   18.8810 C   0  0  0  0  0  0  0  0  0  0  0  0
   51.5110   85.5190   19.0160 N   0  0  0  0  0  0  0  0  0  0  0  0
   51.8940   86.4520   19.8690 N   0  0  0  0  0  0  0  0  0  0  0  0
   53.0890   86.1320   20.2920 N   0  0  0  0  0  0  0  0  0  0  0  0
   53.9130   86.8280   21.2180 C   0  0  0  0  0  0  0  0  0  0  0  0
   54.5440   88.0080   20.8940 C   0  0  0  0  0  0  0  0  0  0  0  0
   55.3400   88.6630   21.8200 C   0  0  0  0  0  0  0  0  0  0  0  0
   55.5350   88.1680   23.0930 C   0  0  0  0  0  0  0  0  0  0  0  0
   54.9030   86.9860   23.4190 C   0  0  0  0  0  0  0  0  0  0  0  0
   54.1130   86.3300   22.5080 C   0  0  0  0  0  0  0  0  0  0  0  0
   52.8500   83.3930   18.2640 C   0  0  0  0  0  0  0  0  0  0  0  0
   52.1300   82.7520   17.4320 O   0  0  0  0  0  0  0  0  0  0  0  0
   54.8990   81.0590   20.2120 H   0  0  0  0  0  0  0  0  0  0  0  0
   56.1840   79.0430   19.4950 H   0  0  0  0  0  0  0  0  0  0  0  0
   56.8260   78.7300   17.1750 H   0  0  0  0  0  0  0  0  0  0  0  0
   56.1950   80.4390   15.5170 H   0  0  0  0  0  0  0  0  0  0  0  0
   50.5910   85.5300   18.5270 H   0  0  0  0  0  0  0  0  0  0  0  0
   51.3470   87.2890   20.1550 H   0  0  0  0  0  0  0  0  0  0  0  0
   54.4070   88.4190   19.9010 H   0  0  0  0  0  0  0  0  0  0  0  0
   55.8180   89.5860   21.5290 H   0  0  0  0  0  0  0  0  0  0  0  0
   56.1660   88.7080   23.7940 H   0  0  0  0  0  0  0  0  0  0  0  0
   55.0590   86.5990   24.4230 H   0  0  0  0  0  0  0  0  0  0  0  0
   53.6130   85.4100   22.7380 H   0  0  0  0  0  0  0  0  0  0  0  0
  1  2  1  0  0  0  0
  2  3  1  0  0  0  0
  3  8  1  0  0  0  0
  3  4  2  0  0  0  0
  4 24  1  0  0  0  0
  5  4  1  0  0  0  0
  5 25  1  0  0  0  0
  6  5  2  0  0  0  0
  7  2  2  0  0  0  0
  7  6  1  0  0  0  0
  8  9  1  0  0  0  0
  9 11  1  0  0  0  0
  9 10  2  0  0  0  0
 11 15  1  0  0  0  0
 12 13  1  0  0  0  0
 12 11  2  0  0  0  0
 13 14  1  0  0  0  0
 14 29  1  0  0  0  0
 14 15  1  0  0  0  0
 15 16  1  0  0  0  0
 16 21  1  0  0  0  0
 17 16  2  0  0  0  0
 17 18  1  0  0  0  0
 18 19  2  0  0  0  0
 19 20  1  0  0  0  0
 19 32  1  0  0  0  0
 20 33  1  0  0  0  0
 21 34  1  0  0  0  0
 21 20  2  0  0  0  0
 22  8  1  0  0  0  0
 22 12  1  0  0  0  0
 23 22  2  0  0  0  0
 26  6  1  0  0  0  0
 27  7  1  0  0  0  0
 28 13  1  0  0  0  0
 30 17  1  0  0  0  0
 31 18  1  0  0  0  0
M  END
>  <Pose>
1

>  <Score>
-5.72

$$$$
