
 OpenBabel03202210083D

 40 43  0  0  1  0  0  0  0  0999 V2000
   56.8150   86.7030   22.1930 I   0  0  0  0  0  0  0  0  0  0  0  0
   56.2290   88.6750   22.5140 C   0  0  0  0  0  0  0  0  0  0  0  0
   56.0150   89.2300   23.7610 C   0  0  0  0  0  0  0  0  0  0  0  0
   55.6310   90.5320   23.9380 C   0  0  0  0  0  0  0  0  0  0  0  0
   55.4350   91.3610   22.8760 C   0  0  0  0  0  0  0  0  0  0  0  0
   55.6460   90.8190   21.6090 C   0  0  0  0  0  0  0  0  0  0  0  0
   56.0260   89.5310   21.4310 C   0  0  0  0  0  0  0  0  0  0  0  0
   55.0490   92.7380   23.0250 C   0  0  1  0  0  0  0  0  0  0  0  0
   54.0600   93.0970   22.2510 O   0  0  0  0  0  0  0  0  0  0  0  0
   55.5250   93.8130   23.8540 C   0  0  0  0  0  0  0  0  0  0  0  0
   54.6510   94.5690   24.6710 N   0  0  0  0  0  0  0  0  0  0  0  0
   54.9490   95.6830   25.2640 C   0  0  1  0  0  0  0  0  0  0  0  0
   56.3190   96.8320   25.4710 S   0  0  0  0  0  0  0  0  0  0  0  0
   55.3970   97.9310   26.5200 C   0  0  0  0  0  0  0  0  0  0  0  0
   54.1830   97.4510   26.6760 C   0  0  0  0  0  0  0  0  0  0  0  0
   53.9030   96.2340   26.0080 N   0  0  0  0  0  0  0  0  0  0  0  0
   52.7520   95.3080   25.8480 C   0  0  0  0  0  0  0  0  0  0  0  0
   53.3050   94.2040   25.0150 C   0  0  0  0  0  0  0  0  0  0  0  0
   53.2330   98.2200   27.5330 C   0  0  0  0  0  0  0  0  0  0  0  0
   52.6780   97.6880   28.6680 C   0  0  0  0  0  0  0  0  0  0  0  0
   51.7900   98.4210   29.4800 C   0  0  0  0  0  0  0  0  0  0  0  0
   51.4520   99.7120   29.1450 C   0  0  0  0  0  0  0  0  0  0  0  0
   52.0050  100.2490   28.0100 C   0  0  0  0  0  0  0  0  0  0  0  0
   52.8800   99.5190   27.2160 C   0  0  0  0  0  0  0  0  0  0  0  0
   56.1710   88.5670   24.6200 H   0  0  0  0  0  0  0  0  0  0  0  0
   55.4830   90.8560   24.9360 H   0  0  0  0  0  0  0  0  0  0  0  0
   55.4980   91.4520   20.7600 H   0  0  0  0  0  0  0  0  0  0  0  0
   56.1960   89.0890   20.4350 H   0  0  0  0  0  0  0  0  0  0  0  0
   56.3800   93.4670   24.5430 H   0  0  0  0  0  0  0  0  0  0  0  0
   56.1020   94.5170   23.1630 H   0  0  0  0  0  0  0  0  0  0  0  0
   55.8720   98.8290   26.9100 H   0  0  0  0  0  0  0  0  0  0  0  0
   51.9160   95.7790   25.3130 H   0  0  0  0  0  0  0  0  0  0  0  0
   52.4540   94.8610   26.8200 H   0  0  0  0  0  0  0  0  0  0  0  0
   52.6680   94.0690   24.1160 H   0  0  0  0  0  0  0  0  0  0  0  0
   53.3210   93.2200   25.5710 H   0  0  0  0  0  0  0  0  0  0  0  0
   52.9250   96.6830   28.9480 H   0  0  0  0  0  0  0  0  0  0  0  0
   51.3940   97.9570   30.3450 H   0  0  0  0  0  0  0  0  0  0  0  0
   50.7790  100.3230   29.7260 H   0  0  0  0  0  0  0  0  0  0  0  0
   51.7490  101.2570   27.7360 H   0  0  0  0  0  0  0  0  0  0  0  0
   53.2810  100.0070   26.3310 H   0  0  0  0  0  0  0  0  0  0  0  0
  1  2  1  0  0  0  0
  2  3  1  0  0  0  0
  3  4  2  0  0  0  0
  3 25  1  0  0  0  0
  4 26  1  0  0  0  0
  5  8  1  0  0  0  0
  5  4  1  0  0  0  0
  6  5  2  0  0  0  0
  7  6  1  0  0  0  0
  7  2  2  0  0  0  0
  8  9  1  1  0  0  0
  8 10  1  0  0  0  0
 10 29  1  0  0  0  0
 10 11  1  0  0  0  0
 11 18  1  0  0  0  0
 11 12  1  0  0  0  0
 12 13  1  6  0  0  0
 12 16  1  0  0  0  0
 13 14  1  0  0  0  0
 14 15  2  0  0  0  0
 14 31  1  0  0  0  0
 15 19  1  0  0  0  0
 16 15  1  0  0  0  0
 17 16  1  0  0  0  0
 17 33  1  0  0  0  0
 18 35  1  0  0  0  0
 18 17  1  0  0  0  0
 19 20  1  0  0  0  0
 20 36  1  0  0  0  0
 20 21  2  0  0  0  0
 21 37  1  0  0  0  0
 22 21  1  0  0  0  0
 22 38  1  0  0  0  0
 23 22  2  0  0  0  0
 24 19  2  0  0  0  0
 24 23  1  0  0  0  0
 27  6  1  0  0  0  0
 28  7  1  0  0  0  0
 30 10  1  0  0  0  0
 32 17  1  0  0  0  0
 34 18  1  0  0  0  0
 39 23  1  0  0  0  0
 40 24  1  0  0  0  0
M  END
>  <Pose>
1

>  <Score>
-6.43

$$$$
