
 OpenBabel03202210083D

 52 56  0  0  1  0  0  0  0  0999 V2000
   52.7740   93.3200   16.3260 I   0  0  0  0  0  0  0  0  0  0  0  0
   52.9840   91.5520   17.4360 C   0  0  0  0  0  0  0  0  0  0  0  0
   54.1000   90.7430   17.2510 C   0  0  0  0  0  0  0  0  0  0  0  0
   54.2440   89.5920   17.9690 C   0  0  0  0  0  0  0  0  0  0  0  0
   53.3100   89.1710   18.9020 C   0  0  0  0  0  0  0  0  0  0  0  0
   52.1910   89.9760   19.0920 C   0  0  0  0  0  0  0  0  0  0  0  0
   52.0540   91.1370   18.3610 C   0  0  0  0  0  0  0  0  0  0  0  0
   53.4620   87.9730   19.6470 N   0  0  0  0  0  0  0  0  0  0  0  0
   52.6950   86.8950   19.4090 C   0  0  0  0  0  0  0  0  0  0  0  0
   52.8260   85.7220   20.1190 C   0  0  2  0  0  0  0  0  0  0  0  0
   53.7980   85.7150   21.1000 C   0  0  0  0  0  0  0  0  0  0  0  0
   54.0440   84.7150   21.8390 O   0  0  0  0  0  0  0  0  0  0  0  0
   54.5860   86.8060   21.3520 N   0  0  0  0  0  0  0  0  0  0  0  0
   54.3940   87.9120   20.6120 C   0  0  0  0  0  0  0  0  0  0  0  0
   55.0930   88.9380   20.8080 O   0  0  0  0  0  0  0  0  0  0  0  0
   52.0490   84.5140   19.9100 C   0  0  1  0  0  0  0  0  0  0  0  0
   51.5220   84.2880   18.6010 N   0  0  0  0  0  4  0  0  0  0  0  0
   52.5150   84.0960   17.5800 C   0  0  0  0  0  0  0  0  0  0  0  0
   53.9160   83.9280   18.1310 C   0  0  0  0  0  0  0  0  0  0  0  0
   53.8550   82.9840   19.3080 C   0  0  0  0  0  0  0  0  0  0  0  0
   52.8690   83.2870   20.2120 C   0  0  0  0  0  0  0  0  0  0  0  0
   52.6700   82.4960   21.3180 C   0  0  0  0  0  0  0  0  0  0  0  0
   53.5030   81.3970   21.4720 C   0  0  0  0  0  0  0  0  0  0  0  0
   54.5000   81.0790   20.5730 C   0  0  0  0  0  0  0  0  0  0  0  0
   54.6660   81.9080   19.4640 C   0  0  0  0  0  0  0  0  0  0  0  0
   55.1420   79.9340   21.0150 O   0  0  0  0  0  0  0  0  0  0  0  0
   54.8070   79.7150   22.3950 C   0  0  0  0  0  0  0  0  0  0  0  0
   53.5720   80.4040   22.4610 O   0  0  0  0  0  0  0  0  0  0  0  0
   51.6850   82.8050   22.2120 O   0  0  0  0  0  0  0  0  0  0  0  0
   50.3730   82.3390   22.2130 C   0  0  0  0  0  0  0  0  0  0  0  0
   50.8120   82.9860   18.6930 C   0  0  0  0  0  0  0  0  0  0  0  0
   51.7380   86.9430   18.4280 O   0  0  0  0  0  0  0  0  0  0  0  0
   54.8320   91.0610   16.5280 H   0  0  0  0  0  0  0  0  0  0  0  0
   55.1150   88.9670   17.8190 H   0  0  0  0  0  0  0  0  0  0  0  0
   51.4600   89.6420   19.8250 H   0  0  0  0  0  0  0  0  0  0  0  0
   51.1930   91.7570   18.5080 H   0  0  0  0  0  0  0  0  0  0  0  0
   55.3160   86.7960   22.0890 H   0  0  0  0  0  0  0  0  0  0  0  0
   51.2210   84.5060   20.6400 H   0  0  0  0  0  0  0  0  0  0  0  0
   50.7570   84.9120   18.2960 H   0  0  0  0  0  0  0  0  0  0  0  0
   52.5360   84.9380   16.8720 H   0  0  0  0  0  0  0  0  0  0  0  0
   52.3310   83.1830   16.9480 H   0  0  0  0  0  0  0  0  0  0  0  0
   54.4300   84.8660   18.3670 H   0  0  0  0  0  0  0  0  0  0  0  0
   54.5360   83.4050   17.3730 H   0  0  0  0  0  0  0  0  0  0  0  0
   55.4240   81.7070   18.7360 H   0  0  0  0  0  0  0  0  0  0  0  0
   55.5240   80.2910   23.0240 H   0  0  0  0  0  0  0  0  0  0  0  0
   54.7400   78.6580   22.6460 H   0  0  0  0  0  0  0  0  0  0  0  0
   49.6970   83.2330   22.0900 H   0  0  0  0  0  0  0  0  0  0  0  0
   50.1490   81.5830   21.4420 H   0  0  0  0  0  0  0  0  0  0  0  0
   50.0640   81.8980   23.1980 H   0  0  0  0  0  0  0  0  0  0  0  0
   49.9860   83.0590   19.3970 H   0  0  0  0  0  0  0  0  0  0  0  0
   51.5610   82.2130   18.9110 H   0  0  0  0  0  0  0  0  0  0  0  0
   50.4150   82.7460   17.6690 H   0  0  0  0  0  0  0  0  0  0  0  0
  1  2  1  0  0  0  0
  2  7  1  0  0  0  0
  3  2  2  0  0  0  0
  3  4  1  0  0  0  0
  4  5  2  0  0  0  0
  5  6  1  0  0  0  0
  5  8  1  0  0  0  0
  6 35  1  0  0  0  0
  7 36  1  0  0  0  0
  7  6  2  0  0  0  0
  8 14  1  0  0  0  0
  9  8  1  0  0  0  0
 10  9  1  6  0  0  0
 10 11  1  0  0  0  0
 11 13  1  0  0  0  0
 11 12  2  0  0  0  0
 13 37  1  0  0  0  0
 14 15  2  0  0  0  0
 14 13  1  0  0  0  0
 16 10  1  0  0  0  0
 16 21  1  0  0  0  0
 16 38  1  1  0  0  0
 17 31  1  0  0  0  0
 17 16  1  0  0  0  0
 18 19  1  0  0  0  0
 18 17  1  0  0  0  0
 19 42  1  0  0  0  0
 19 20  1  0  0  0  0
 20 25  2  0  0  0  0
 20 21  1  0  0  0  0
 21 22  2  0  0  0  0
 22 23  1  0  0  0  0
 22 29  1  0  0  0  0
 23 28  1  0  0  0  0
 24 26  1  0  0  0  0
 24 23  2  0  0  0  0
 25 24  1  0  0  0  0
 26 27  1  0  0  0  0
 27 28  1  0  0  0  0
 27 46  1  0  0  0  0
 27 45  1  0  0  0  0
 29 30  1  0  0  0  0
 30 49  1  0  0  0  0
 31 51  1  0  0  0  0
 31 50  1  0  0  0  0
 32  9  2  0  0  0  0
 33  3  1  0  0  0  0
 34  4  1  0  0  0  0
 39 17  1  0  0  0  0
 40 18  1  0  0  0  0
 41 18  1  0  0  0  0
 43 19  1  0  0  0  0
 44 25  1  0  0  0  0
 47 30  1  0  0  0  0
 48 30  1  0  0  0  0
 52 31  1  0  0  0  0
M  END
>  <Pose>
1

>  <Score>
-6.22

$$$$
