
 OpenBabel03202210083D

 44 47  0  0  1  0  0  0  0  0999 V2000
   52.9730   83.1100   20.0180 I   0  0  0  0  0  0  0  0  0  0  0  0
   52.8420   85.1670   19.5530 C   0  0  0  0  0  0  0  0  0  0  0  0
   52.1740   85.6240   18.4360 C   0  0  0  0  0  0  0  0  0  0  0  0
   52.1050   86.9740   18.1560 C   0  0  0  0  0  0  0  0  0  0  0  0
   52.6960   87.9140   18.9730 C   0  0  0  0  0  0  0  0  0  0  0  0
   53.3560   87.4380   20.0810 C   0  0  0  0  0  0  0  0  0  0  0  0
   53.4380   86.0920   20.3810 C   0  0  0  0  0  0  0  0  0  0  0  0
   52.5940   89.3120   18.6390 N   0  0  0  0  0  0  0  0  0  0  0  0
   53.4820   90.0940   17.8590 C   0  0  0  0  0  0  0  0  0  0  0  0
   54.2870   89.6110   17.0210 O   0  0  0  0  0  0  0  0  0  0  0  0
   53.3000   91.5350   18.1880 C   0  0  1  0  0  0  0  0  0  0  0  0
   51.8380   91.5690   18.6020 C   0  0  0  0  0  0  0  0  0  0  0  0
   51.5470   90.1910   19.0450 C   0  0  0  0  0  0  0  0  0  0  0  0
   50.5280   89.8090   19.6920 O   0  0  0  0  0  0  0  0  0  0  0  0
   54.1890   91.8690   19.2230 N   0  0  0  0  0  0  0  0  0  0  0  0
   53.7680   91.9250   20.5510 C   0  0  0  0  0  0  0  0  0  0  0  0
   55.0160   91.6610   21.4340 C   0  0  0  0  0  0  0  0  0  0  0  0
   55.6810   90.4710   20.9250 N   0  0  0  0  0  0  0  0  0  0  0  0
   56.1480   90.5300   19.5630 C   0  0  0  0  0  0  0  0  0  0  0  0
   55.5650   91.7950   18.9390 C   0  0  0  0  0  0  0  0  0  0  0  0
   55.8460   89.3250   21.7300 C   0  0  0  0  0  0  0  0  0  0  0  0
   55.5130   89.3480   23.0490 N   0  0  0  0  0  0  0  0  0  0  0  0
   55.6370   88.2970   23.8560 C   0  0  0  0  0  0  0  0  0  0  0  0
   56.1290   87.0950   23.3660 C   0  0  0  0  0  0  0  0  0  0  0  0
   56.4660   87.0770   22.0230 C   0  0  0  0  0  0  0  0  0  0  0  0
   56.3240   88.1590   21.2470 N   0  0  0  0  0  0  0  0  0  0  0  0
   51.7080   84.9070   17.7900 H   0  0  0  0  0  0  0  0  0  0  0  0
   51.5780   87.3410   17.2700 H   0  0  0  0  0  0  0  0  0  0  0  0
   53.8280   88.1580   20.7360 H   0  0  0  0  0  0  0  0  0  0  0  0
   53.9670   85.7320   21.2660 H   0  0  0  0  0  0  0  0  0  0  0  0
   53.3840   92.1610   17.2830 H   0  0  0  0  0  0  0  0  0  0  0  0
   51.6430   92.2580   19.4430 H   0  0  0  0  0  0  0  0  0  0  0  0
   51.1920   91.7870   17.7270 H   0  0  0  0  0  0  0  0  0  0  0  0
   53.2920   92.8370   20.9160 H   0  0  0  0  0  0  0  0  0  0  0  0
   53.1350   91.0120   20.7660 H   0  0  0  0  0  0  0  0  0  0  0  0
   54.7280   91.4720   22.4850 H   0  0  0  0  0  0  0  0  0  0  0  0
   55.6830   92.5500   21.4360 H   0  0  0  0  0  0  0  0  0  0  0  0
   57.2530   90.6670   19.5080 H   0  0  0  0  0  0  0  0  0  0  0  0
   55.8530   89.6580   18.9540 H   0  0  0  0  0  0  0  0  0  0  0  0
   55.7670   91.8160   17.8420 H   0  0  0  0  0  0  0  0  0  0  0  0
   56.1550   92.6640   19.3420 H   0  0  0  0  0  0  0  0  0  0  0  0
   55.3660   88.3430   24.9000 H   0  0  0  0  0  0  0  0  0  0  0  0
   56.2320   86.2400   24.0170 H   0  0  0  0  0  0  0  0  0  0  0  0
   56.8520   86.1350   21.6390 H   0  0  0  0  0  0  0  0  0  0  0  0
  2  1  1  0  0  0  0
  2  7  1  0  0  0  0
  3  2  2  0  0  0  0
  4  3  1  0  0  0  0
  4  5  2  0  0  0  0
  5  6  1  0  0  0  0
  6  7  2  0  0  0  0
  6 29  1  0  0  0  0
  7 30  1  0  0  0  0
  8  5  1  0  0  0  0
  8 13  1  0  0  0  0
  9 11  1  0  0  0  0
  9  8  1  0  0  0  0
 10  9  2  0  0  0  0
 11 31  1  6  0  0  0
 11 12  1  0  0  0  0
 11 15  1  0  0  0  0
 12 13  1  0  0  0  0
 12 32  1  0  0  0  0
 13 14  2  0  0  0  0
 15 16  1  0  0  0  0
 16 35  1  0  0  0  0
 16 34  1  0  0  0  0
 16 17  1  0  0  0  0
 17 37  1  0  0  0  0
 17 36  1  0  0  0  0
 18 17  1  0  0  0  0
 18 21  1  0  0  0  0
 19 18  1  0  0  0  0
 20 15  1  0  0  0  0
 20 41  1  0  0  0  0
 20 19  1  0  0  0  0
 21 22  2  0  0  0  0
 22 23  1  0  0  0  0
 23 42  1  0  0  0  0
 24 23  2  0  0  0  0
 24 43  1  0  0  0  0
 25 24  1  0  0  0  0
 26 21  1  0  0  0  0
 26 25  2  0  0  0  0
 27  3  1  0  0  0  0
 28  4  1  0  0  0  0
 33 12  1  0  0  0  0
 38 19  1  0  0  0  0
 39 19  1  0  0  0  0
 40 20  1  0  0  0  0
 44 25  1  0  0  0  0
M  END
>  <Pose>
1

>  <Score>
-5.19

$$$$
