
 OpenBabel03202210083D

 44 47  0  0  1  0  0  0  0  0999 V2000
   52.9610   92.3850   25.4850 I   0  0  0  0  0  0  0  0  0  0  0  0
   53.6160   94.3380   25.9300 C   0  0  0  0  0  0  0  0  0  0  0  0
   54.7560   94.9320   25.4750 C   0  0  0  0  0  0  0  0  0  0  0  0
   54.7380   96.2050   26.0450 C   0  0  0  0  0  0  0  0  0  0  0  0
   53.6570   96.3920   26.8040 N   0  0  0  0  0  0  0  0  0  0  0  0
   52.9660   95.2550   26.7390 C   0  0  0  0  0  0  0  0  0  0  0  0
   53.2750   97.5520   27.5520 C   0  0  2  0  0  0  0  0  0  0  0  0
   52.5040   97.2650   28.6720 O   0  0  0  0  0  0  0  0  0  0  0  0
   52.1590   98.5330   29.1300 C   0  0  1  0  0  0  0  0  0  0  0  0
   51.8560   99.3740   27.9120 C   0  0  2  0  0  0  0  0  0  0  0  0
   52.3170   98.4580   26.7730 C   0  0  0  0  0  0  0  0  0  0  0  0
   52.6670  100.5080   27.8520 O   0  0  0  0  0  0  0  0  0  0  0  0
   50.8550   98.4590   29.9370 C   0  0  0  0  0  0  0  0  0  0  0  0
   49.8060   98.1260   29.0690 O   0  0  0  0  0  0  0  0  0  0  0  0
   55.7620   97.0280   25.7630 N   0  0  0  0  0  0  0  0  0  0  0  0
   56.7650   96.6370   24.9620 C   0  0  0  0  0  0  0  0  0  0  0  0
   56.7800   95.4160   24.4180 N   0  0  0  0  0  0  0  0  0  0  0  0
   55.7770   94.5140   24.6520 C   0  0  0  0  0  0  0  0  0  0  0  0
   55.8440   93.2280   24.0460 N   0  0  0  0  0  0  0  0  0  0  0  0
   54.9630   92.9370   22.9650 C   0  0  0  0  0  0  0  0  0  0  0  0
   53.9970   93.7200   22.7820 O   0  0  0  0  0  0  0  0  0  0  0  0
   55.1090   91.8140   22.0790 C   0  0  0  0  0  0  0  0  0  0  0  0
   55.6970   90.6520   22.4970 C   0  0  0  0  0  0  0  0  0  0  0  0
   55.8420   89.5510   21.6500 C   0  0  0  0  0  0  0  0  0  0  0  0
   55.3870   89.6280   20.3670 C   0  0  0  0  0  0  0  0  0  0  0  0
   54.7940   90.7810   19.9200 C   0  0  0  0  0  0  0  0  0  0  0  0
   54.6580   91.8720   20.7860 C   0  0  0  0  0  0  0  0  0  0  0  0
   52.0170   95.0160   27.2290 H   0  0  0  0  0  0  0  0  0  0  0  0
   54.1410   98.1750   27.8060 H   0  0  0  0  0  0  0  0  0  0  0  0
   52.9660   98.9650   29.7580 H   0  0  0  0  0  0  0  0  0  0  0  0
   50.7970   99.6450   27.8150 H   0  0  0  0  0  0  0  0  0  0  0  0
   51.4460   97.8570   26.4560 H   0  0  0  0  0  0  0  0  0  0  0  0
   52.8180   99.0050   25.9720 H   0  0  0  0  0  0  0  0  0  0  0  0
   53.1190  100.4630   26.9530 H   0  0  0  0  0  0  0  0  0  0  0  0
   50.9100   97.6780   30.7050 H   0  0  0  0  0  0  0  0  0  0  0  0
   50.6450   99.4450   30.3670 H   0  0  0  0  0  0  0  0  0  0  0  0
   49.0960   98.8430   29.0750 H   0  0  0  0  0  0  0  0  0  0  0  0
   57.5890   97.3370   24.7520 H   0  0  0  0  0  0  0  0  0  0  0  0
   56.4800   92.4730   24.3170 H   0  0  0  0  0  0  0  0  0  0  0  0
   56.0910   90.4970   23.5050 H   0  0  0  0  0  0  0  0  0  0  0  0
   56.3050   88.6460   21.9910 H   0  0  0  0  0  0  0  0  0  0  0  0
   55.4790   88.7870   19.6580 H   0  0  0  0  0  0  0  0  0  0  0  0
   54.4430   90.8240   18.9110 H   0  0  0  0  0  0  0  0  0  0  0  0
   54.1900   92.7370   20.3820 H   0  0  0  0  0  0  0  0  0  0  0  0
  1  2  1  0  0  0  0
  2  6  2  0  0  0  0
  3  2  1  0  0  0  0
  3  4  2  0  0  0  0
  4  5  1  0  0  0  0
  5  7  1  0  0  0  0
  6  5  1  0  0  0  0
  6 28  1  0  0  0  0
  7 29  1  1  0  0  0
  7  8  1  0  0  0  0
  8  9  1  0  0  0  0
  9 30  1  1  0  0  0
  9 13  1  0  0  0  0
 10 31  1  6  0  0  0
 10  9  1  0  0  0  0
 11  7  1  0  0  0  0
 11 10  1  0  0  0  0
 12 10  1  0  0  0  0
 13 36  1  0  0  0  0
 13 35  1  0  0  0  0
 14 37  1  0  0  0  0
 14 13  1  0  0  0  0
 15  4  1  0  0  0  0
 16 15  2  0  0  0  0
 17 18  2  0  0  0  0
 17 16  1  0  0  0  0
 18  3  1  0  0  0  0
 19 39  1  0  0  0  0
 19 18  1  0  0  0  0
 20 19  1  0  0  0  0
 21 20  2  0  0  0  0
 22 23  1  0  0  0  0
 22 20  1  0  0  0  0
 23 40  1  0  0  0  0
 24 41  1  0  0  0  0
 24 23  2  0  0  0  0
 25 24  1  0  0  0  0
 26 25  2  0  0  0  0
 26 27  1  0  0  0  0
 27 22  2  0  0  0  0
 32 11  1  0  0  0  0
 33 11  1  0  0  0  0
 34 12  1  0  0  0  0
 38 16  1  0  0  0  0
 42 25  1  0  0  0  0
 43 26  1  0  0  0  0
 44 27  1  0  0  0  0
M  END
>  <Pose>
1

>  <Score>
-7.07

$$$$
