
 OpenBabel03202210083D

 35 39  0  0  0  0  0  0  0  0999 V2000
   53.5230   91.8780   19.8620 B   0  0  0  0  0  0  0  0  0  0  0  0
   54.6460   90.9690   21.1080 C   0  0  0  0  0  0  0  0  0  0  0  0
   54.7150   89.5640   21.1440 C   0  0  0  0  0  0  0  0  0  0  0  0
   55.5040   88.8770   22.0180 C   0  0  0  0  0  0  0  0  0  0  0  0
   56.2740   89.6210   22.9140 C   0  0  0  0  0  0  0  0  0  0  0  0
   56.2070   90.9820   22.8790 C   0  0  0  0  0  0  0  0  0  0  0  0
   55.4120   91.6840   21.9960 C   0  0  0  0  0  0  0  0  0  0  0  0
   55.3930   93.0880   22.0170 O   0  0  0  0  0  0  0  0  0  0  0  0
   57.2570   92.0070   24.0990 B   0  0  0  0  0  0  0  0  0  0  0  0
   55.5550   87.4210   22.0320 C   0  0  0  0  0  0  0  0  0  0  0  0
   56.8920   87.0570   21.6950 O   0  0  0  0  0  0  0  0  0  0  0  0
   57.5000   86.3490   22.6950 C   0  0  0  0  0  0  0  0  0  0  0  0
   58.6700   85.9040   22.6650 O   0  0  0  0  0  0  0  0  0  0  0  0
   56.5180   86.2330   23.7550 C   0  0  0  0  0  0  0  0  0  0  0  0
   55.3460   86.8600   23.3970 C   0  0  0  0  0  0  0  0  0  0  0  0
   54.3160   86.8450   24.2800 C   0  0  0  0  0  0  0  0  0  0  0  0
   54.4620   86.2150   25.4980 C   0  0  0  0  0  0  0  0  0  0  0  0
   55.6340   85.5870   25.8600 C   0  0  0  0  0  0  0  0  0  0  0  0
   56.6830   85.5920   24.9790 C   0  0  0  0  0  0  0  0  0  0  0  0
   54.6920   86.7930   21.0360 C   0  0  0  0  0  0  0  0  0  0  0  0
   53.9230   87.5370   20.1850 C   0  0  0  0  0  0  0  0  0  0  0  0
   53.0950   86.9120   19.2290 C   0  0  0  0  0  0  0  0  0  0  0  0
   53.0760   85.5390   19.1660 C   0  0  0  0  0  0  0  0  0  0  0  0
   53.8540   84.7770   20.0260 C   0  0  0  0  0  0  0  0  0  0  0  0
   54.6530   85.3890   20.9500 C   0  0  0  0  0  0  0  0  0  0  0  0
   53.8380   82.8730   19.9500 B   0  0  0  0  0  0  0  0  0  0  0  0
   52.2590   84.9370   18.2210 O   0  0  0  0  0  0  0  0  0  0  0  0
   52.0330   87.9870   18.0560 B   0  0  0  0  0  0  0  0  0  0  0  0
   53.9030   88.9240   20.2040 O   0  0  0  0  0  0  0  0  0  0  0  0
   56.8940   89.0520   23.5990 H   0  0  0  0  0  0  0  0  0  0  0  0
   53.3850   87.3250   24.0340 H   0  0  0  0  0  0  0  0  0  0  0  0
   53.6550   86.1840   26.2330 H   0  0  0  0  0  0  0  0  0  0  0  0
   55.7600   85.0840   26.8230 H   0  0  0  0  0  0  0  0  0  0  0  0
   57.6090   85.1080   25.2380 H   0  0  0  0  0  0  0  0  0  0  0  0
   55.2820   84.8530   21.6480 H   0  0  0  0  0  0  0  0  0  0  0  0
  1  2  1  0  0  0  0
  2  3  2  0  0  0  0
  2  7  1  0  0  0  0
  3  4  1  0  0  0  0
  4 10  1  0  0  0  0
  4  5  2  0  0  0  0
  5 30  1  0  0  0  0
  6  5  1  0  0  0  0
  6  9  1  0  0  0  0
  7  8  1  0  0  0  0
  7  6  2  0  0  0  0
 10 15  1  0  0  0  0
 11 10  1  0  0  0  0
 11 12  1  0  0  0  0
 12 14  1  0  0  0  0
 13 12  2  0  0  0  0
 14 19  1  0  0  0  0
 15 14  2  0  0  0  0
 15 16  1  0  0  0  0
 16 17  2  0  0  0  0
 17 18  1  0  0  0  0
 17 32  1  0  0  0  0
 18 33  1  0  0  0  0
 19 34  1  0  0  0  0
 19 18  2  0  0  0  0
 20 10  1  0  0  0  0
 21 29  1  0  0  0  0
 21 20  2  0  0  0  0
 22 21  1  0  0  0  0
 23 22  2  0  0  0  0
 23 24  1  0  0  0  0
 24 25  2  0  0  0  0
 25 20  1  0  0  0  0
 25 35  1  0  0  0  0
 26 24  1  0  0  0  0
 27 23  1  0  0  0  0
 28 22  1  0  0  0  0
 29  3  1  0  0  0  0
 31 16  1  0  0  0  0
M  END
>  <Pose>
1

>  <Score>
-5.77

$$$$
