
 OpenBabel03202210083D

 35 39  0  0  0  0  0  0  0  0999 V2000
   52.3750   84.7260   27.2870 I   0  0  0  0  0  0  0  0  0  0  0  0
   53.3100   85.1710   25.4390 C   0  0  0  0  0  0  0  0  0  0  0  0
   52.7760   84.5360   24.3040 C   0  0  0  0  0  0  0  0  0  0  0  0
   53.3580   84.8050   23.1060 C   0  0  0  0  0  0  0  0  0  0  0  0
   54.4500   85.6900   23.0550 C   0  0  0  0  0  0  0  0  0  0  0  0
   54.9690   86.3080   24.1630 C   0  0  0  0  0  0  0  0  0  0  0  0
   54.3780   86.0360   25.3770 C   0  0  0  0  0  0  0  0  0  0  0  0
   54.8780   86.6440   26.5190 O   0  0  0  0  0  0  0  0  0  0  0  0
   56.6170   87.6330   24.0140 I   0  0  0  0  0  0  0  0  0  0  0  0
   52.8730   84.1910   21.8640 C   0  0  0  0  0  0  0  0  0  0  0  0
   53.9150   83.5530   21.1520 O   0  0  0  0  0  0  0  0  0  0  0  0
   54.1040   84.0920   19.9060 C   0  0  0  0  0  0  0  0  0  0  0  0
   54.9390   83.7640   19.0210 O   0  0  0  0  0  0  0  0  0  0  0  0
   53.1330   85.1660   19.7530 C   0  0  0  0  0  0  0  0  0  0  0  0
   52.4060   85.2330   20.8970 C   0  0  0  0  0  0  0  0  0  0  0  0
   51.3990   86.2010   20.9870 C   0  0  0  0  0  0  0  0  0  0  0  0
   51.1630   87.0560   19.9360 C   0  0  0  0  0  0  0  0  0  0  0  0
   51.9010   86.9900   18.7730 C   0  0  0  0  0  0  0  0  0  0  0  0
   52.8920   86.0440   18.6720 C   0  0  0  0  0  0  0  0  0  0  0  0
   51.7270   83.2890   22.0690 C   0  0  0  0  0  0  0  0  0  0  0  0
   51.1910   83.0620   23.2900 C   0  0  0  0  0  0  0  0  0  0  0  0
   50.1100   82.1950   23.4090 C   0  0  0  0  0  0  0  0  0  0  0  0
   49.5880   81.5760   22.3080 C   0  0  0  0  0  0  0  0  0  0  0  0
   50.1070   81.7840   21.0520 C   0  0  0  0  0  0  0  0  0  0  0  0
   51.1700   82.6390   20.9600 C   0  0  0  0  0  0  0  0  0  0  0  0
   49.2940   80.8230   19.3520 I   0  0  0  0  0  0  0  0  0  0  0  0
   48.5070   80.7160   22.4550 O   0  0  0  0  0  0  0  0  0  0  0  0
   49.2740   81.8450   25.3320 I   0  0  0  0  0  0  0  0  0  0  0  0
   51.6890   83.6710   24.4530 O   0  0  0  0  0  0  0  0  0  0  0  0
   54.9060   85.8930   22.0750 H   0  0  0  0  0  0  0  0  0  0  0  0
   50.8480   86.2190   21.9100 H   0  0  0  0  0  0  0  0  0  0  0  0
   50.3820   87.7830   20.0460 H   0  0  0  0  0  0  0  0  0  0  0  0
   51.7270   87.6640   17.9240 H   0  0  0  0  0  0  0  0  0  0  0  0
   53.5040   85.9470   17.7790 H   0  0  0  0  0  0  0  0  0  0  0  0
   51.5980   82.8210   19.9850 H   0  0  0  0  0  0  0  0  0  0  0  0
  2  1  1  0  0  0  0
  3 29  1  0  0  0  0
  3  2  2  0  0  0  0
  4  3  1  0  0  0  0
  5  4  2  0  0  0  0
  5  6  1  0  0  0  0
  6  7  2  0  0  0  0
  7  2  1  0  0  0  0
  7  8  1  0  0  0  0
  9  6  1  0  0  0  0
 10 20  1  0  0  0  0
 10  4  1  0  0  0  0
 11 10  1  0  0  0  0
 12 11  1  0  0  0  0
 13 12  2  0  0  0  0
 14 12  1  0  0  0  0
 14 15  1  0  0  0  0
 15 16  2  0  0  0  0
 15 10  1  0  0  0  0
 16 31  1  0  0  0  0
 17 32  1  0  0  0  0
 17 16  1  0  0  0  0
 18 17  2  0  0  0  0
 19 18  1  0  0  0  0
 19 14  2  0  0  0  0
 20 21  1  0  0  0  0
 21 22  2  0  0  0  0
 21 29  1  0  0  0  0
 22 28  1  0  0  0  0
 23 27  1  0  0  0  0
 23 22  1  0  0  0  0
 24 23  2  0  0  0  0
 25 24  1  0  0  0  0
 25 20  2  0  0  0  0
 26 24  1  0  0  0  0
 30  5  1  0  0  0  0
 33 18  1  0  0  0  0
 34 19  1  0  0  0  0
 35 25  1  0  0  0  0
M  END
>  <Pose>
1

>  <Score>
-5.33

$$$$
