
 OpenBabel03202210083D

 38 41  0  0  0  0  0  0  0  0999 V2000
   56.5550   87.5830   24.3540 S   0  0  0  0  0  0  0  0  0  0  0  0
   56.6930   89.0540   24.0760 O   0  0  0  0  0  0  0  0  0  0  0  0
   55.3410   87.3580   25.2200 O   0  0  0  0  0  0  0  0  0  0  0  0
   57.9550   87.0710   25.1320 O   0  0  0  0  0  0  0  0  0  0  0  0
   56.3750   86.8120   22.8360 O   0  0  0  0  0  0  0  0  0  0  0  0
   55.3210   87.1320   21.9860 C   0  0  0  0  0  0  0  0  0  0  0  0
   55.3460   88.2450   21.1360 C   0  0  0  0  0  0  0  0  0  0  0  0
   54.1400   88.2070   20.4720 C   0  0  0  0  0  0  0  0  0  0  0  0
   53.4490   87.1420   20.9030 N   0  0  0  0  0  0  0  0  0  0  0  0
   54.1460   86.4420   21.8490 C   0  0  0  0  0  0  0  0  0  0  0  0
   53.6600   85.2580   22.5480 C   0  0  0  0  0  0  0  0  0  0  0  0
   54.1460   84.8650   23.7570 N   0  0  0  0  0  0  0  0  0  0  0  0
   53.5410   83.7400   24.1700 C   0  0  0  0  0  0  0  0  0  0  0  0
   52.6210   83.3540   23.2200 C   0  0  0  0  0  0  0  0  0  0  0  0
   52.7250   84.3270   22.2200 C   0  0  0  0  0  0  0  0  0  0  0  0
   51.9560   84.2910   21.0700 O   0  0  0  0  0  0  0  0  0  0  0  0
   52.6190   83.9360   19.5400 S   0  0  0  0  0  0  0  0  0  0  0  0
   51.7770   84.5180   18.4420 O   0  0  0  0  0  0  0  0  0  0  0  0
   52.7070   82.4550   19.3010 O   0  0  0  0  0  0  0  0  0  0  0  0
   54.2100   84.5230   19.4650 O   0  0  0  0  0  0  0  0  0  0  0  0
   51.8390   82.2270   23.3680 C   0  0  0  0  0  0  0  0  0  0  0  0
   51.9600   81.4320   24.4970 C   0  0  0  0  0  0  0  0  0  0  0  0
   52.8810   81.8070   25.4620 C   0  0  0  0  0  0  0  0  0  0  0  0
   53.6530   82.9380   25.2970 C   0  0  0  0  0  0  0  0  0  0  0  0
   54.9010   83.3970   26.6630 B   0  0  0  0  0  0  0  0  0  0  0  0
   50.8850   79.8600   24.7230 B   0  0  0  0  0  0  0  0  0  0  0  0
   53.8630   89.2030   19.5390 C   0  0  0  0  0  0  0  0  0  0  0  0
   54.7860   90.1850   19.3080 C   0  0  0  0  0  0  0  0  0  0  0  0
   56.0130   90.2280   19.9780 C   0  0  0  0  0  0  0  0  0  0  0  0
   56.2870   89.2260   20.9150 C   0  0  0  0  0  0  0  0  0  0  0  0
   57.2530   91.6180   19.6120 B   0  0  0  0  0  0  0  0  0  0  0  0
   52.2120   89.1760   18.6110 B   0  0  0  0  0  0  0  0  0  0  0  0
   52.4850   86.8620   20.5660 H   0  0  0  0  0  0  0  0  0  0  0  0
   54.8840   85.3480   24.3140 H   0  0  0  0  0  0  0  0  0  0  0  0
   51.1430   81.9730   22.6010 H   0  0  0  0  0  0  0  0  0  0  0  0
   52.9750   81.1770   26.3560 H   0  0  0  0  0  0  0  0  0  0  0  0
   54.6080   90.9760   18.5910 H   0  0  0  0  0  0  0  0  0  0  0  0
   57.2280   89.2290   21.4540 H   0  0  0  0  0  0  0  0  0  0  0  0
  1  4  1  0  0  0  0
  1  3  1  0  0  0  0
  2  1  1  0  0  0  0
  5  1  1  0  0  0  0
  6  5  1  0  0  0  0
  7  6  1  0  0  0  0
  8  9  1  0  0  0  0
  8  7  2  0  0  0  0
  9 10  1  0  0  0  0
 10  6  2  0  0  0  0
 10 11  1  0  0  0  0
 11 12  1  0  0  0  0
 12 13  1  0  0  0  0
 12 34  1  0  0  0  0
 13 24  1  0  0  0  0
 14 21  1  0  0  0  0
 14 13  2  0  0  0  0
 15 11  2  0  0  0  0
 15 14  1  0  0  0  0
 16 15  1  0  0  0  0
 17 16  1  0  0  0  0
 18 17  1  0  0  0  0
 19 17  1  0  0  0  0
 20 17  1  0  0  0  0
 21 22  2  0  0  0  0
 22 26  1  0  0  0  0
 22 23  1  0  0  0  0
 23 36  1  0  0  0  0
 24 23  2  0  0  0  0
 24 25  1  0  0  0  0
 27  8  1  0  0  0  0
 28 27  2  0  0  0  0
 28 29  1  0  0  0  0
 29 30  2  0  0  0  0
 30  7  1  0  0  0  0
 30 38  1  0  0  0  0
 31 29  1  0  0  0  0
 32 27  1  0  0  0  0
 33  9  1  0  0  0  0
 35 21  1  0  0  0  0
 37 28  1  0  0  0  0
M  END
>  <Pose>
1

>  <Score>
-7.23

$$$$
