
 OpenBabel03202210083D

 34 37  0  0  1  0  0  0  0  0999 V2000
   51.6630   91.1410   18.4250 P   0  0  1  0  0  0  0  0  0  0  0  0
   50.8920   91.3780   19.7040 O   0  0  0  0  0  0  0  0  0  0  0  0
   53.3450   91.2400   18.6970 O   0  0  0  0  0  0  0  0  0  0  0  0
   53.8390   89.9450   18.5640 C   0  0  2  0  0  0  0  0  0  0  0  0
   52.8020   89.0300   19.2260 C   0  0  2  0  0  0  0  0  0  0  0  0
   53.5970   88.0390   19.7460 O   0  0  0  0  0  0  0  0  0  0  0  0
   54.5110   88.7830   20.4910 C   0  0  2  0  0  0  0  0  0  0  0  0
   55.0710   89.7100   19.4130 C   0  0  2  0  0  0  0  0  0  0  0  0
   55.6040   90.8630   19.9310 O   0  0  0  0  0  0  0  0  0  0  0  0
   55.5400   87.9560   21.0720 N   0  0  0  0  0  0  0  0  0  0  0  0
   55.9240   88.0470   22.3500 C   0  0  0  0  0  0  0  0  0  0  0  0
   55.5090   88.8500   23.3680 N   0  0  0  0  0  0  0  0  0  0  0  0
   56.0180   88.7940   24.5960 C   0  0  0  0  0  0  0  0  0  0  0  0
   56.9910   87.9010   24.8460 N   0  0  0  0  0  0  0  0  0  0  0  0
   57.4490   87.0730   23.8840 C   0  0  0  0  0  0  0  0  0  0  0  0
   56.9230   87.1300   22.6100 C   0  0  0  0  0  0  0  0  0  0  0  0
   57.1350   86.4800   21.4560 N   0  0  0  0  0  0  0  0  0  0  0  0
   56.2930   86.9860   20.5240 C   0  0  0  0  0  0  0  0  0  0  0  0
   56.1690   86.4260   18.6960 B   0  0  0  0  0  0  0  0  0  0  0  0
   58.4560   86.1470   24.1380 O   0  0  0  0  0  0  0  0  0  0  0  0
   55.5500   89.6580   25.6280 N   0  0  0  0  0  0  0  0  0  0  0  0
   51.8390   88.5950   18.1860 C   0  0  0  0  0  0  0  0  0  0  0  0
   51.2300   89.7320   17.6450 O   0  0  0  0  0  0  0  0  0  0  0  0
   51.2860   92.4560   17.3970 O   0  0  0  0  0  0  0  0  0  0  0  0
   53.9930   89.6720   17.5060 H   0  0  0  0  0  0  0  0  0  0  0  0
   52.3040   89.5500   20.0650 H   0  0  0  0  0  0  0  0  0  0  0  0
   54.0150   89.4480   21.2320 H   0  0  0  0  0  0  0  0  0  0  0  0
   55.8320   89.1200   18.8260 H   0  0  0  0  0  0  0  0  0  0  0  0
   56.1480   91.3370   19.2240 H   0  0  0  0  0  0  0  0  0  0  0  0
   59.4050   86.5340   24.2490 H   0  0  0  0  0  0  0  0  0  0  0  0
   55.6860   89.3290   26.6080 H   0  0  0  0  0  0  0  0  0  0  0  0
   55.0890   90.5800   25.4250 H   0  0  0  0  0  0  0  0  0  0  0  0
   52.4050   88.1280   17.3400 H   0  0  0  0  0  0  0  0  0  0  0  0
   51.1020   87.8810   18.5990 H   0  0  0  0  0  0  0  0  0  0  0  0
  1 24  2  6  0  0  0
  1  3  1  0  0  0  0
  1  2  1  0  0  0  0
  4 25  1  6  0  0  0
  4  3  1  0  0  0  0
  4  5  1  0  0  0  0
  4  8  1  0  0  0  0
  5  6  1  0  0  0  0
  5 26  1  1  0  0  0
  6  7  1  0  0  0  0
  7 10  1  0  0  0  0
  7 27  1  1  0  0  0
  8 28  1  6  0  0  0
  8  9  1  0  0  0  0
  8  7  1  0  0  0  0
 10 11  1  0  0  0  0
 11 16  2  0  0  0  0
 11 12  1  0  0  0  0
 12 13  2  0  0  0  0
 13 14  1  0  0  0  0
 13 21  1  0  0  0  0
 15 20  1  0  0  0  0
 15 14  2  0  0  0  0
 16 15  1  0  0  0  0
 17 16  1  0  0  0  0
 18 10  1  0  0  0  0
 18 17  2  0  0  0  0
 19 18  1  0  0  0  0
 20 30  1  0  0  0  0
 21 31  1  0  0  0  0
 22 34  1  0  0  0  0
 22  5  1  0  0  0  0
 23 22  1  0  0  0  0
 23  1  1  0  0  0  0
 29  9  1  0  0  0  0
 32 21  1  0  0  0  0
 33 22  1  0  0  0  0
M  END
>  <Pose>
1

>  <Score>
-6.54

$$$$
