
 OpenBabel03202210083D

 46 51  0  0  1  0  0  0  0  0999 V2000
   49.6840  100.6150   28.3510 P   0  0  2  0  0  0  0  0  0  0  0  0
   49.0820  101.9650   29.2620 S   0  0  0  0  0  0  0  0  0  0  0  0
   51.0660  100.0240   29.1430 O   0  0  0  0  0  0  0  0  0  0  0  0
   52.0420   99.8540   28.1660 C   0  0  2  0  0  0  0  0  0  0  0  0
   51.3370   99.2050   26.9730 C   0  0  2  0  0  0  0  0  0  0  0  0
   52.3000   98.4190   26.4030 O   0  0  0  0  0  0  0  0  0  0  0  0
   53.0820   97.8850   27.4250 C   0  0  2  0  0  0  0  0  0  0  0  0
   53.0980   98.8620   28.5490 C   0  0  2  0  0  0  0  0  0  0  0  0
   52.7730   98.2450   29.7640 O   0  0  0  0  0  0  0  0  0  0  0  0
   54.4190   97.5510   26.9420 N   0  0  0  0  0  0  0  0  0  0  0  0
   54.7640   96.5980   26.0400 C   0  0  0  0  0  0  0  0  0  0  0  0
   56.1290   96.5880   25.8420 C   0  0  0  0  0  0  0  0  0  0  0  0
   56.6100   97.5590   26.6460 N   0  0  0  0  0  0  0  0  0  0  0  0
   55.5790   98.1310   27.3010 C   0  0  0  0  0  0  0  0  0  0  0  0
   55.6670   99.5600   28.5690 B   0  0  0  0  0  0  0  0  0  0  0  0
   56.6810   95.6850   24.9560 C   0  0  0  0  0  0  0  0  0  0  0  0
   57.9170   95.6660   24.7690 O   0  0  0  0  0  0  0  0  0  0  0  0
   55.9260   94.7990   24.2660 N   0  0  0  0  0  0  0  0  0  0  0  0
   54.5980   94.8270   24.4740 C   0  0  0  0  0  0  0  0  0  0  0  0
   54.0840   93.8670   23.6850 N   0  0  0  0  0  0  0  0  0  0  0  0
   55.0410   93.2310   22.9840 C   0  0  0  0  0  0  0  0  0  0  0  0
   56.2260   93.8300   23.3570 C   0  0  0  0  0  0  0  0  0  0  0  0
   54.8680   92.1340   22.0240 C   0  0  0  0  0  0  0  0  0  0  0  0
   55.6780   91.0230   22.0860 C   0  0  0  0  0  0  0  0  0  0  0  0
   55.5380   89.9680   21.1920 C   0  0  0  0  0  0  0  0  0  0  0  0
   54.5620   90.0460   20.2240 C   0  0  0  0  0  0  0  0  0  0  0  0
   53.7260   91.1470   20.1270 C   0  0  0  0  0  0  0  0  0  0  0  0
   53.9100   92.1630   21.0400 C   0  0  0  0  0  0  0  0  0  0  0  0
   54.0330   95.7110   25.3450 N   0  0  0  0  0  0  0  0  0  0  0  0
   50.8660  100.3370   26.0910 C   0  0  0  0  0  0  0  0  0  0  0  0
   50.0560  101.1900   26.8070 O   0  0  0  0  0  0  0  0  0  0  0  0
   48.5070   99.4150   28.1790 O   0  0  0  0  0  0  0  0  0  0  0  0
   52.4810  100.8270   27.9060 H   0  0  0  0  0  0  0  0  0  0  0  0
   50.4980   98.5730   27.2860 H   0  0  0  0  0  0  0  0  0  0  0  0
   52.5780   96.9140   27.7080 H   0  0  0  0  0  0  0  0  0  0  0  0
   54.0650   99.3620   28.6220 H   0  0  0  0  0  0  0  0  0  0  0  0
   53.0110   97.2950   29.7700 H   0  0  0  0  0  0  0  0  0  0  0  0
   57.2260   93.5890   23.0020 H   0  0  0  0  0  0  0  0  0  0  0  0
   56.4420   90.9620   22.8440 H   0  0  0  0  0  0  0  0  0  0  0  0
   56.1740   89.0910   21.2360 H   0  0  0  0  0  0  0  0  0  0  0  0
   54.4330   89.2400   19.5170 H   0  0  0  0  0  0  0  0  0  0  0  0
   52.9620   91.1850   19.3540 H   0  0  0  0  0  0  0  0  0  0  0  0
   53.2680   93.0250   20.9800 H   0  0  0  0  0  0  0  0  0  0  0  0
   53.0010   95.7280   25.5040 H   0  0  0  0  0  0  0  0  0  0  0  0
   50.4200   99.9840   25.1410 H   0  0  0  0  0  0  0  0  0  0  0  0
   51.7850  100.9190   25.7900 H   0  0  0  0  0  0  0  0  0  0  0  0
  1 32  2  6  0  0  0
  1  3  1  0  0  0  0
  1  2  1  0  0  0  0
  4 33  1  6  0  0  0
  4  8  1  0  0  0  0
  4  3  1  0  0  0  0
  5 34  1  1  0  0  0
  5  4  1  0  0  0  0
  6  5  1  0  0  0  0
  6  7  1  0  0  0  0
  7 35  1  1  0  0  0
  7  8  1  0  0  0  0
  8 36  1  1  0  0  0
  8  9  1  0  0  0  0
  9 37  1  0  0  0  0
 10 14  1  0  0  0  0
 10  7  1  0  0  0  0
 11 10  1  0  0  0  0
 12 11  2  0  0  0  0
 12 13  1  0  0  0  0
 13 14  2  0  0  0  0
 14 15  1  0  0  0  0
 16 12  1  0  0  0  0
 17 16  2  0  0  0  0
 18 19  1  0  0  0  0
 18 16  1  0  0  0  0
 19 29  1  0  0  0  0
 20 19  2  0  0  0  0
 21 22  2  0  0  0  0
 21 20  1  0  0  0  0
 22 18  1  0  0  0  0
 23 24  1  0  0  0  0
 23 21  1  0  0  0  0
 24 39  1  0  0  0  0
 25 40  1  0  0  0  0
 25 24  2  0  0  0  0
 26 25  1  0  0  0  0
 27 26  2  0  0  0  0
 27 28  1  0  0  0  0
 28 23  2  0  0  0  0
 29 44  1  0  0  0  0
 29 11  1  0  0  0  0
 30 31  1  0  0  0  0
 30  5  1  0  0  0  0
 31  1  1  0  0  0  0
 38 22  1  0  0  0  0
 41 26  1  0  0  0  0
 42 27  1  0  0  0  0
 43 28  1  0  0  0  0
 45 30  1  0  0  0  0
 46 30  1  0  0  0  0
M  END
>  <Pose>
1

>  <Score>
-8.38

$$$$
