
 OpenBabel03202210083D

 52 55  0  0  1  0  0  0  0  0999 V2000
   53.5450   83.6080   27.2300 S   0  0  0  0  0  0  0  0  0  0  0  0
   52.4540   83.8210   25.8250 C   0  0  1  0  0  0  0  0  0  0  0  0
   51.3560   84.6400   26.2290 N   0  0  0  0  0  0  0  0  0  0  0  0
   50.8820   84.9390   27.5450 C   0  0  0  0  0  0  0  0  0  0  0  0
   51.2920   84.2340   28.5520 C   0  0  0  0  0  0  0  0  0  0  0  0
   52.2790   83.0640   28.4340 C   0  0  0  0  0  0  0  0  0  0  0  0
   50.9100   84.4200   29.9290 C   0  0  0  0  0  0  0  0  0  0  0  0
   51.7820   84.7630   30.9070 O   0  0  0  0  0  0  0  0  0  0  0  0
   51.4720   85.6600   31.9360 C   0  0  0  0  0  0  0  0  0  0  0  0
   52.3040   86.5540   32.1780 O   0  0  0  0  0  0  0  0  0  0  0  0
   50.1890   85.4750   32.6540 C   0  0  0  0  0  0  0  0  0  0  0  0
   49.9190   86.0740   27.6460 C   0  0  0  0  0  0  0  0  0  0  0  0
   50.0700   87.1930   27.2050 O   0  0  0  0  0  0  0  0  0  0  0  0
   48.6980   85.8620   28.3130 O   0  0  0  0  0  0  0  0  0  0  0  0
   51.1920   84.8630   24.8400 C   0  0  0  0  0  0  0  0  0  0  0  0
   50.3620   85.0190   23.9370 O   0  0  0  0  0  0  0  0  0  0  0  0
   52.7110   84.8450   24.8010 C   0  0  1  0  0  0  0  0  0  0  0  0
   53.1660   86.1320   25.2200 N   0  0  0  0  0  0  0  0  0  0  0  0
   54.5380   86.3200   25.5180 C   0  0  0  0  0  0  0  0  0  0  0  0
   54.9280   86.1040   26.6970 O   0  0  0  0  0  0  0  0  0  0  0  0
   55.5040   86.7530   24.5040 C   0  0  0  0  0  0  0  0  0  0  0  0
   55.3670   87.6250   23.5540 O   0  0  0  0  0  0  0  0  0  0  0  0
   56.4390   87.7530   22.8420 C   0  0  0  0  0  0  0  0  0  0  0  0
   57.3940   86.8750   23.3670 C   0  0  0  0  0  0  0  0  0  0  0  0
   56.7830   86.2500   24.4200 C   0  0  0  0  0  0  0  0  0  0  0  0
   56.6730   88.6590   21.6580 C   0  0  0  0  0  0  0  0  0  0  0  0
   55.9250   89.8410   21.7790 O   0  0  0  0  0  0  0  0  0  0  0  0
   54.9210   90.2480   20.9470 C   0  0  0  0  0  0  0  0  0  0  0  0
   54.1950   89.4010   20.1130 C   0  0  0  0  0  0  0  0  0  0  0  0
   53.2010   89.9190   19.3140 C   0  0  0  0  0  0  0  0  0  0  0  0
   52.8700   91.2540   19.2860 C   0  0  0  0  0  0  0  0  0  0  0  0
   53.5870   92.1030   20.1120 C   0  0  0  0  0  0  0  0  0  0  0  0
   54.5910   91.5870   20.9210 C   0  0  0  0  0  0  0  0  0  0  0  0
   51.4810   91.9140   18.1580 B   0  0  0  0  0  0  0  0  0  0  0  0
   52.1100   82.8740   25.3520 H   0  0  0  0  0  0  0  0  0  0  0  0
   52.7350   82.8100   29.3840 H   0  0  0  0  0  0  0  0  0  0  0  0
   51.6900   82.2290   28.0180 H   0  0  0  0  0  0  0  0  0  0  0  0
   50.0550   85.2190   29.9670 H   0  0  0  0  0  0  0  0  0  0  0  0
   50.3290   83.4720   30.2810 H   0  0  0  0  0  0  0  0  0  0  0  0
   49.8470   84.4250   32.5560 H   0  0  0  0  0  0  0  0  0  0  0  0
   49.3870   86.1300   32.1980 H   0  0  0  0  0  0  0  0  0  0  0  0
   50.2520   85.7400   33.7210 H   0  0  0  0  0  0  0  0  0  0  0  0
   53.1170   84.5200   23.8290 H   0  0  0  0  0  0  0  0  0  0  0  0
   52.5380   86.9680   25.3240 H   0  0  0  0  0  0  0  0  0  0  0  0
   58.3990   86.7660   22.9700 H   0  0  0  0  0  0  0  0  0  0  0  0
   57.2490   85.5030   25.0500 H   0  0  0  0  0  0  0  0  0  0  0  0
   56.4640   88.1160   20.7120 H   0  0  0  0  0  0  0  0  0  0  0  0
   57.7450   88.9430   21.6250 H   0  0  0  0  0  0  0  0  0  0  0  0
   54.4310   88.3580   20.1100 H   0  0  0  0  0  0  0  0  0  0  0  0
   52.6570   89.2430   18.6800 H   0  0  0  0  0  0  0  0  0  0  0  0
   53.3320   93.1520   20.0950 H   0  0  0  0  0  0  0  0  0  0  0  0
   55.1050   92.3280   21.5410 H   0  0  0  0  0  0  0  0  0  0  0  0
  1  6  1  0  0  0  0
  2 35  1  6  0  0  0
  2  3  1  0  0  0  0
  2  1  1  0  0  0  0
  3  4  1  0  0  0  0
  4 12  1  0  0  0  0
  4  5  2  0  0  0  0
  5  7  1  0  0  0  0
  6  5  1  0  0  0  0
  6 36  1  0  0  0  0
  7 38  1  0  0  0  0
  7 39  1  0  0  0  0
  7  8  1  0  0  0  0
  8  9  1  0  0  0  0
  9 10  2  0  0  0  0
  9 11  1  0  0  0  0
 11 42  1  0  0  0  0
 12 14  1  0  0  0  0
 13 12  2  0  0  0  0
 15  3  1  0  0  0  0
 16 15  2  0  0  0  0
 17 43  1  6  0  0  0
 17 15  1  0  0  0  0
 17 18  1  0  0  0  0
 17  2  1  0  0  0  0
 18 44  1  0  0  0  0
 18 19  1  0  0  0  0
 19 20  2  0  0  0  0
 21 19  1  0  0  0  0
 22 21  1  0  0  0  0
 23 24  2  0  0  0  0
 23 22  1  0  0  0  0
 24 25  1  0  0  0  0
 25 21  2  0  0  0  0
 25 46  1  0  0  0  0
 26 27  1  0  0  0  0
 26 23  1  0  0  0  0
 28 27  1  0  0  0  0
 29 28  2  0  0  0  0
 30 29  1  0  0  0  0
 31 30  2  0  0  0  0
 31 32  1  0  0  0  0
 32 33  2  0  0  0  0
 33 28  1  0  0  0  0
 33 52  1  0  0  0  0
 34 31  1  0  0  0  0
 37  6  1  0  0  0  0
 40 11  1  0  0  0  0
 41 11  1  0  0  0  0
 45 24  1  0  0  0  0
 47 26  1  0  0  0  0
 48 26  1  0  0  0  0
 49 29  1  0  0  0  0
 50 30  1  0  0  0  0
 51 32  1  0  0  0  0
M  END
>  <Pose>
1

>  <Score>
-7.72

$$$$
