
 OpenBabel03202210083D

 47 50  0  0  1  0  0  0  0  0999 V2000
   50.5970   82.7710   22.4650 S   0  0  0  0  0  0  0  0  0  0  0  0
   49.2090   82.4110   22.9510 O   0  0  0  0  0  0  0  0  0  0  0  0
   51.1800   81.5720   21.7590 O   0  0  0  0  0  0  0  0  0  0  0  0
   50.4290   84.1030   21.3980 N   0  0  0  0  0  0  0  0  0  0  0  0
   51.5730   83.2140   23.8350 C   0  0  0  0  0  0  0  0  0  0  0  0
   52.2930   84.3860   23.8070 C   0  0  0  0  0  0  0  0  0  0  0  0
   53.0880   84.7860   24.8760 C   0  0  0  0  0  0  0  0  0  0  0  0
   53.1350   83.9640   25.9810 C   0  0  0  0  0  0  0  0  0  0  0  0
   52.4080   82.7740   26.0160 C   0  0  0  0  0  0  0  0  0  0  0  0
   51.6250   82.3950   24.9490 C   0  0  0  0  0  0  0  0  0  0  0  0
   54.1940   84.4400   27.4780 B   0  0  0  0  0  0  0  0  0  0  0  0
   53.8420   86.0220   24.8320 C   0  0  0  0  0  0  0  0  0  0  0  0
   53.6110   86.9120   25.6870 O   0  0  0  0  0  0  0  0  0  0  0  0
   54.8400   86.2350   23.8340 N   0  0  0  0  0  0  0  0  0  0  0  0
   54.5010   86.1690   22.4290 C   0  0  0  0  0  0  0  0  0  0  0  0
   55.1820   87.2200   21.6090 C   0  0  2  0  0  0  0  0  0  0  0  0
   55.7080   88.2730   22.5870 C   0  0  0  0  0  0  0  0  0  0  0  0
   56.8220   87.5940   23.3540 C   0  0  0  0  0  0  0  0  0  0  0  0
   56.2020   86.5160   24.2050 C   0  0  0  0  0  0  0  0  0  0  0  0
   54.2820   87.8450   20.5870 C   0  0  0  0  0  0  0  0  0  0  0  0
   54.4810   89.0300   19.9530 N   0  0  0  0  0  0  0  0  0  0  0  0
   53.4770   89.2750   19.1060 C   0  0  0  0  0  0  0  0  0  0  0  0
   52.6400   88.2020   19.2310 N   0  0  0  0  0  0  0  0  0  0  0  0
   53.1260   87.3530   20.1160 N   0  0  0  0  0  0  0  0  0  0  0  0
   53.6490   90.5690   18.3830 C   0  0  0  0  0  0  0  0  0  0  0  0
   55.0800   90.8980   18.6750 C   0  0  0  0  0  0  0  0  0  0  0  0
   55.4500   90.1110   19.9140 C   0  0  0  0  0  0  0  0  0  0  0  0
   49.6410   84.7340   21.6840 H   0  0  0  0  0  0  0  0  0  0  0  0
   50.2800   83.7640   20.4150 H   0  0  0  0  0  0  0  0  0  0  0  0
   52.2190   85.0040   22.9000 H   0  0  0  0  0  0  0  0  0  0  0  0
   52.4810   82.1680   26.9080 H   0  0  0  0  0  0  0  0  0  0  0  0
   51.0570   81.4820   24.9570 H   0  0  0  0  0  0  0  0  0  0  0  0
   53.4100   86.1220   22.2530 H   0  0  0  0  0  0  0  0  0  0  0  0
   54.8950   85.1750   22.0670 H   0  0  0  0  0  0  0  0  0  0  0  0
   56.0860   86.8560   21.0800 H   0  0  0  0  0  0  0  0  0  0  0  0
   56.0590   89.1620   22.0370 H   0  0  0  0  0  0  0  0  0  0  0  0
   54.9100   88.5590   23.2920 H   0  0  0  0  0  0  0  0  0  0  0  0
   57.5410   87.1670   22.6060 H   0  0  0  0  0  0  0  0  0  0  0  0
   57.3510   88.3620   23.9510 H   0  0  0  0  0  0  0  0  0  0  0  0
   56.1900   86.9190   25.2570 H   0  0  0  0  0  0  0  0  0  0  0  0
   56.8440   85.6030   24.1980 H   0  0  0  0  0  0  0  0  0  0  0  0
   53.5330   90.4380   17.2790 H   0  0  0  0  0  0  0  0  0  0  0  0
   52.9330   91.3080   18.7940 H   0  0  0  0  0  0  0  0  0  0  0  0
   55.7710   90.6310   17.8290 H   0  0  0  0  0  0  0  0  0  0  0  0
   55.1660   91.9960   18.8520 H   0  0  0  0  0  0  0  0  0  0  0  0
   55.3400   90.8010   20.7760 H   0  0  0  0  0  0  0  0  0  0  0  0
   56.4830   89.7700   19.8810 H   0  0  0  0  0  0  0  0  0  0  0  0
  1  2  2  0  0  0  0
  1  5  1  0  0  0  0
  3  1  2  0  0  0  0
  4 28  1  0  0  0  0
  4  1  1  0  0  0  0
  5 10  1  0  0  0  0
  6  5  2  0  0  0  0
  6  7  1  0  0  0  0
  7  8  2  0  0  0  0
  8  9  1  0  0  0  0
  8 11  1  0  0  0  0
  9 31  1  0  0  0  0
 10 32  1  0  0  0  0
 10  9  2  0  0  0  0
 12  7  1  0  0  0  0
 12 13  2  0  0  0  0
 14 19  1  0  0  0  0
 14 12  1  0  0  0  0
 15 14  1  0  0  0  0
 16 35  1  6  0  0  0
 16 15  1  0  0  0  0
 16 17  1  0  0  0  0
 17 37  1  0  0  0  0
 17 18  1  0  0  0  0
 18 39  1  0  0  0  0
 18 19  1  0  0  0  0
 19 40  1  0  0  0  0
 20 16  1  0  0  0  0
 21 20  1  0  0  0  0
 22 23  2  0  0  0  0
 22 21  1  0  0  0  0
 23 24  1  0  0  0  0
 24 20  2  0  0  0  0
 25 26  1  0  0  0  0
 25 43  1  0  0  0  0
 25 22  1  0  0  0  0
 26 45  1  0  0  0  0
 26 27  1  0  0  0  0
 27 21  1  0  0  0  0
 27 46  1  0  0  0  0
 29  4  1  0  0  0  0
 30  6  1  0  0  0  0
 33 15  1  0  0  0  0
 34 15  1  0  0  0  0
 36 17  1  0  0  0  0
 38 18  1  0  0  0  0
 41 19  1  0  0  0  0
 42 25  1  0  0  0  0
 44 26  1  0  0  0  0
 47 27  1  0  0  0  0
M  END
>  <Pose>
1

>  <Score>
-6.15

$$$$
