
 OpenBabel03202210083D

 41 44  0  0  0  0  0  0  0  0999 V2000
   54.9830   95.8770   26.7910 S   0  0  0  0  0  0  0  0  0  0  0  0
   56.1830   96.7450   27.0370 O   0  0  0  0  0  0  0  0  0  0  0  0
   55.0980   94.7100   27.7440 O   0  0  0  0  0  0  0  0  0  0  0  0
   54.9860   95.3820   25.1770 N   0  0  0  0  0  0  0  0  0  0  0  0
   55.9700   94.4640   24.7270 C   0  0  0  0  0  0  0  0  0  0  0  0
   54.9480   93.4150   24.5260 C   0  0  0  0  0  0  0  0  0  0  0  0
   53.9500   94.4820   24.8120 C   0  0  0  0  0  0  0  0  0  0  0  0
   54.8250   92.8780   23.1840 N   0  0  0  0  0  0  0  0  0  0  0  0
   53.9240   93.1530   22.2780 N   0  0  0  0  0  0  0  0  0  0  0  0
   54.1550   92.4470   21.1630 N   0  0  0  0  0  0  0  0  0  0  0  0
   55.2470   91.6860   21.3540 C   0  0  0  0  0  0  0  0  0  0  0  0
   55.6600   91.9740   22.6470 C   0  0  0  0  0  0  0  0  0  0  0  0
   55.8870   90.7320   20.3870 C   0  0  0  0  0  0  0  0  0  0  0  0
   54.8670   89.7990   19.9450 N   0  0  0  0  0  0  0  0  0  0  0  0
   54.5710   88.5360   20.5530 C   0  0  0  0  0  0  0  0  0  0  0  0
   53.3990   87.9770   19.7980 C   0  0  0  0  0  0  0  0  0  0  0  0
   52.8550   89.0480   18.9090 C   0  0  0  0  0  0  0  0  0  0  0  0
   54.0070   90.0120   18.8300 C   0  0  0  0  0  0  0  0  0  0  0  0
   54.1420   90.8440   17.9150 O   0  0  0  0  0  0  0  0  0  0  0  0
   53.5680   96.8280   27.2370 C   0  0  0  0  0  0  0  0  0  0  0  0
   53.4520   98.5300   27.3990 S   0  0  0  0  0  0  0  0  0  0  0  0
   51.8070   98.6530   27.8410 C   0  0  0  0  0  0  0  0  0  0  0  0
   51.3980   97.3450   27.8490 C   0  0  0  0  0  0  0  0  0  0  0  0
   52.3040   96.4160   27.5380 C   0  0  0  0  0  0  0  0  0  0  0  0
   50.7590  100.2200   28.2380 B   0  0  0  0  0  0  0  0  0  0  0  0
   56.7290   94.2740   25.5330 H   0  0  0  0  0  0  0  0  0  0  0  0
   56.4930   94.8160   23.8020 H   0  0  0  0  0  0  0  0  0  0  0  0
   55.0510   92.6170   25.2880 H   0  0  0  0  0  0  0  0  0  0  0  0
   53.1790   94.2500   25.5710 H   0  0  0  0  0  0  0  0  0  0  0  0
   53.4370   94.8270   23.8860 H   0  0  0  0  0  0  0  0  0  0  0  0
   56.5330   91.5140   23.1130 H   0  0  0  0  0  0  0  0  0  0  0  0
   56.3180   91.2800   19.5180 H   0  0  0  0  0  0  0  0  0  0  0  0
   56.6610   90.1730   20.9270 H   0  0  0  0  0  0  0  0  0  0  0  0
   55.4440   87.8540   20.4700 H   0  0  0  0  0  0  0  0  0  0  0  0
   54.2570   88.6320   21.6280 H   0  0  0  0  0  0  0  0  0  0  0  0
   53.6820   87.0540   19.2480 H   0  0  0  0  0  0  0  0  0  0  0  0
   52.5680   87.6670   20.4880 H   0  0  0  0  0  0  0  0  0  0  0  0
   52.6430   88.6390   17.8880 H   0  0  0  0  0  0  0  0  0  0  0  0
   51.9400   89.5390   19.2930 H   0  0  0  0  0  0  0  0  0  0  0  0
   50.3450   97.1160   28.1080 H   0  0  0  0  0  0  0  0  0  0  0  0
   52.0770   95.3310   27.5140 H   0  0  0  0  0  0  0  0  0  0  0  0
  1  2  2  0  0  0  0
  1 20  1  0  0  0  0
  1  3  2  0  0  0  0
  4  1  1  0  0  0  0
  5  4  1  0  0  0  0
  5 26  1  0  0  0  0
  6  5  1  0  0  0  0
  6  7  1  0  0  0  0
  6 28  1  0  0  0  0
  7  4  1  0  0  0  0
  7 29  1  0  0  0  0
  8  6  1  0  0  0  0
  9  8  1  0  0  0  0
 10 11  1  0  0  0  0
 10  9  2  0  0  0  0
 11 12  2  0  0  0  0
 12 31  1  0  0  0  0
 12  8  1  0  0  0  0
 13 33  1  0  0  0  0
 13 11  1  0  0  0  0
 14 13  1  0  0  0  0
 14 15  1  0  0  0  0
 15 35  1  0  0  0  0
 16 37  1  0  0  0  0
 16 15  1  0  0  0  0
 17 39  1  0  0  0  0
 17 16  1  0  0  0  0
 18 17  1  0  0  0  0
 18 14  1  0  0  0  0
 19 18  2  0  0  0  0
 20 21  1  0  0  0  0
 20 24  2  0  0  0  0
 21 22  1  0  0  0  0
 22 23  2  0  0  0  0
 22 25  1  0  0  0  0
 23 40  1  0  0  0  0
 24 23  1  0  0  0  0
 27  5  1  0  0  0  0
 30  7  1  0  0  0  0
 32 13  1  0  0  0  0
 34 15  1  0  0  0  0
 36 16  1  0  0  0  0
 38 17  1  0  0  0  0
 41 24  1  0  0  0  0
M  END
>  <Pose>
1

>  <Score>
-8.03

$$$$
