
 OpenBabel03202210083D

 53 56  0  0  0  0  0  0  0  0999 V2000
   55.0270   84.3340   25.4420 S   0  0  0  0  0  0  0  0  0  0  0  0
   54.1190   83.8900   24.2870 O   0  0  0  0  0  0  0  0  0  0  0  0
   56.1440   83.2860   25.4190 O   0  0  0  0  0  0  0  0  0  0  0  0
   55.5930   85.8530   25.1010 N   0  0  0  0  0  0  0  0  0  0  0  0
   56.7010   86.1070   24.3090 C   0  0  0  0  0  0  0  0  0  0  0  0
   57.0850   87.6020   24.4830 C   0  0  0  0  0  0  0  0  0  0  0  0
   55.9290   88.4260   24.2610 N   0  0  0  0  0  0  0  0  0  0  0  0
   54.7880   88.1910   25.1170 C   0  0  0  0  0  0  0  0  0  0  0  0
   55.0780   86.9300   25.9010 C   0  0  0  0  0  0  0  0  0  0  0  0
   55.8600   89.4260   23.2730 C   0  0  0  0  0  0  0  0  0  0  0  0
   55.8490   90.6290   23.6220 O   0  0  0  0  0  0  0  0  0  0  0  0
   55.8030   89.0830   21.8510 C   0  0  0  0  0  0  0  0  0  0  0  0
   54.9300   90.0080   21.1340 N   0  0  0  0  0  0  0  0  0  0  0  0
   54.8280   91.4140   21.2320 C   0  0  0  0  0  0  0  0  0  0  0  0
   55.5240   92.1450   22.0100 O   0  0  0  0  0  0  0  0  0  0  0  0
   53.8250   91.8340   20.3170 N   0  0  0  0  0  0  0  0  0  0  0  0
   53.6680   90.7800   19.3490 C   0  0  0  0  0  0  0  0  0  0  0  0
   54.5460   90.9270   18.1490 C   0  0  0  0  0  0  0  0  0  0  0  0
   53.8940   89.9450   17.1670 C   0  0  0  0  0  0  0  0  0  0  0  0
   52.4220   90.0890   17.4380 C   0  0  0  0  0  0  0  0  0  0  0  0
   52.2710   90.7340   18.7760 C   0  0  0  0  0  0  0  0  0  0  0  0
   53.9750   89.5690   20.1460 C   0  0  0  0  0  0  0  0  0  0  0  0
   53.5030   88.4210   19.9870 O   0  0  0  0  0  0  0  0  0  0  0  0
   54.0820   84.1120   26.8810 C   0  0  0  0  0  0  0  0  0  0  0  0
   52.7930   84.5320   27.0800 C   0  0  0  0  0  0  0  0  0  0  0  0
   52.1360   84.3480   28.3010 C   0  0  0  0  0  0  0  0  0  0  0  0
   52.7420   83.7420   29.3560 C   0  0  0  0  0  0  0  0  0  0  0  0
   54.0300   83.3080   29.1890 C   0  0  0  0  0  0  0  0  0  0  0  0
   54.6800   83.4870   27.9910 C   0  0  0  0  0  0  0  0  0  0  0  0
   51.8450   85.3250   25.6400 B   0  0  0  0  0  0  0  0  0  0  0  0
   56.6070   85.8910   23.2260 H   0  0  0  0  0  0  0  0  0  0  0  0
   57.6000   85.5810   24.6840 H   0  0  0  0  0  0  0  0  0  0  0  0
   57.4630   87.7080   25.5060 H   0  0  0  0  0  0  0  0  0  0  0  0
   57.9090   87.7680   23.7850 H   0  0  0  0  0  0  0  0  0  0  0  0
   54.7440   89.0150   25.8800 H   0  0  0  0  0  0  0  0  0  0  0  0
   53.8300   88.1550   24.6020 H   0  0  0  0  0  0  0  0  0  0  0  0
   54.2000   86.5720   26.4660 H   0  0  0  0  0  0  0  0  0  0  0  0
   55.8550   87.1910   26.6500 H   0  0  0  0  0  0  0  0  0  0  0  0
   55.5090   88.0170   21.6820 H   0  0  0  0  0  0  0  0  0  0  0  0
   56.8070   89.1730   21.3450 H   0  0  0  0  0  0  0  0  0  0  0  0
   53.3380   92.7610   20.4050 H   0  0  0  0  0  0  0  0  0  0  0  0
   54.4140   91.9410   17.7380 H   0  0  0  0  0  0  0  0  0  0  0  0
   55.6020   90.6480   18.3360 H   0  0  0  0  0  0  0  0  0  0  0  0
   54.2040   88.9120   17.4350 H   0  0  0  0  0  0  0  0  0  0  0  0
   54.1700   90.1960   16.1320 H   0  0  0  0  0  0  0  0  0  0  0  0
   51.9100   89.1130   17.4600 H   0  0  0  0  0  0  0  0  0  0  0  0
   52.0080   90.7780   16.6800 H   0  0  0  0  0  0  0  0  0  0  0  0
   51.8580   91.7530   18.7370 H   0  0  0  0  0  0  0  0  0  0  0  0
   51.6040   90.1380   19.4580 H   0  0  0  0  0  0  0  0  0  0  0  0
   51.1310   84.7060   28.3730 H   0  0  0  0  0  0  0  0  0  0  0  0
   52.1820   83.6310   30.2660 H   0  0  0  0  0  0  0  0  0  0  0  0
   54.5110   82.8240   30.0280 H   0  0  0  0  0  0  0  0  0  0  0  0
   55.6970   83.1430   27.8630 H   0  0  0  0  0  0  0  0  0  0  0  0
  1 24  1  0  0  0  0
  2  1  2  0  0  0  0
  3  1  2  0  0  0  0
  4  1  1  0  0  0  0
  4  9  1  0  0  0  0
  5  6  1  0  0  0  0
  5 32  1  0  0  0  0
  5  4  1  0  0  0  0
  6 33  1  0  0  0  0
  7  6  1  0  0  0  0
  7  8  1  0  0  0  0
  8 35  1  0  0  0  0
  8  9  1  0  0  0  0
  9 37  1  0  0  0  0
  9 38  1  0  0  0  0
 10 11  2  0  0  0  0
 10  7  1  0  0  0  0
 12 10  1  0  0  0  0
 13 14  1  0  0  0  0
 13 12  1  0  0  0  0
 14 15  2  0  0  0  0
 16 41  1  0  0  0  0
 16 14  1  0  0  0  0
 17 22  1  0  0  0  0
 17 16  1  0  0  0  0
 18 43  1  0  0  0  0
 18 17  1  0  0  0  0
 19 44  1  0  0  0  0
 19 20  1  0  0  0  0
 19 18  1  0  0  0  0
 20 46  1  0  0  0  0
 20 21  1  0  0  0  0
 21 17  1  0  0  0  0
 21 49  1  0  0  0  0
 22 13  1  0  0  0  0
 23 22  2  0  0  0  0
 24 25  2  0  0  0  0
 24 29  1  0  0  0  0
 25 26  1  0  0  0  0
 26 50  1  0  0  0  0
 26 27  2  0  0  0  0
 27 51  1  0  0  0  0
 28 27  1  0  0  0  0
 28 52  1  0  0  0  0
 29 28  2  0  0  0  0
 30 25  1  0  0  0  0
 31  5  1  0  0  0  0
 34  6  1  0  0  0  0
 36  8  1  0  0  0  0
 39 12  1  0  0  0  0
 40 12  1  0  0  0  0
 42 18  1  0  0  0  0
 45 19  1  0  0  0  0
 47 20  1  0  0  0  0
 48 21  1  0  0  0  0
 53 29  1  0  0  0  0
M  END
>  <Pose>
1

>  <Score>
-6.73

$$$$
