
 OpenBabel03202210083D

 49 52  0  0  1  0  0  0  0  0999 V2000
   56.3190   86.9510   21.9660 S   0  0  0  0  0  0  0  0  0  0  0  0
   57.7380   86.9170   21.5150 O   0  0  0  0  0  0  0  0  0  0  0  0
   55.7020   85.5990   21.7040 O   0  0  0  0  0  0  0  0  0  0  0  0
   56.2320   87.2670   23.6250 N   0  0  0  0  0  0  0  0  0  0  0  0
   57.1620   86.5910   24.4460 C   0  0  0  0  0  0  0  0  0  0  0  0
   56.6720   85.4310   25.2100 C   0  0  0  0  0  0  0  0  0  0  0  0
   55.3540   85.6440   25.7280 N   0  0  0  0  0  0  0  0  0  0  0  0
   54.7140   86.9120   25.5240 C   0  0  0  0  0  0  0  0  0  0  0  0
   54.9350   87.4820   24.1570 C   0  0  0  0  0  0  0  0  0  0  0  0
   54.6830   84.6250   26.4340 C   0  0  0  0  0  0  0  0  0  0  0  0
   55.1790   83.4760   26.4580 O   0  0  0  0  0  0  0  0  0  0  0  0
   53.4280   84.8270   27.1470 C   0  0  1  0  0  0  0  0  0  0  0  0
   52.2430   84.9220   26.4410 C   0  0  0  0  0  0  0  0  0  0  0  0
   51.0860   85.1070   27.0970 N   0  0  0  0  0  0  0  0  0  0  0  0
   51.0230   85.2040   28.4420 C   0  0  1  0  0  0  0  0  0  0  0  0
   52.1570   85.1160   29.1590 N   0  0  0  0  0  0  0  0  0  0  0  0
   52.0980   85.2140   30.5170 C   0  0  0  0  0  0  0  0  0  0  0  0
   50.9050   85.4040   31.1830 C   0  0  0  0  0  0  0  0  0  0  0  0
   49.7240   85.4990   30.4650 C   0  0  0  0  0  0  0  0  0  0  0  0
   49.8100   85.3960   29.0950 C   0  0  0  0  0  0  0  0  0  0  0  0
   50.8010   85.5160   32.6590 C   0  0  0  0  0  0  0  0  0  0  0  0
   53.3430   84.9290   28.5210 C   0  0  0  0  0  0  0  0  0  0  0  0
   54.3880   84.8470   29.1830 O   0  0  0  0  0  0  0  0  0  0  0  0
   55.4100   88.1450   21.0790 C   0  0  0  0  0  0  0  0  0  0  0  0
   54.2850   87.7750   20.3710 C   0  0  0  0  0  0  0  0  0  0  0  0
   53.6070   88.7790   19.6860 C   0  0  0  0  0  0  0  0  0  0  0  0
   54.0240   90.0840   19.7030 C   0  0  0  0  0  0  0  0  0  0  0  0
   55.1560   90.4450   20.4180 C   0  0  0  0  0  0  0  0  0  0  0  0
   55.8530   89.4510   21.1140 C   0  0  0  0  0  0  0  0  0  0  0  0
   52.0490   88.3330   18.6910 B   0  0  0  0  0  0  0  0  0  0  0  0
   58.0240   86.2680   23.8060 H   0  0  0  0  0  0  0  0  0  0  0  0
   57.5990   87.3300   25.1650 H   0  0  0  0  0  0  0  0  0  0  0  0
   56.6810   84.5410   24.5120 H   0  0  0  0  0  0  0  0  0  0  0  0
   57.3210   85.1680   26.0910 H   0  0  0  0  0  0  0  0  0  0  0  0
   53.6310   86.8310   25.7490 H   0  0  0  0  0  0  0  0  0  0  0  0
   55.1200   87.6040   26.3200 H   0  0  0  0  0  0  0  0  0  0  0  0
   54.7320   88.5720   24.1940 H   0  0  0  0  0  0  0  0  0  0  0  0
   54.1860   87.0400   23.4700 H   0  0  0  0  0  0  0  0  0  0  0  0
   52.2760   84.8440   25.3490 H   0  0  0  0  0  0  0  0  0  0  0  0
   53.0150   85.1430   31.0860 H   0  0  0  0  0  0  0  0  0  0  0  0
   48.7600   85.6460   30.9310 H   0  0  0  0  0  0  0  0  0  0  0  0
   48.8980   85.4680   28.5210 H   0  0  0  0  0  0  0  0  0  0  0  0
   50.6780   84.4990   33.1190 H   0  0  0  0  0  0  0  0  0  0  0  0
   49.9240   86.1440   32.9500 H   0  0  0  0  0  0  0  0  0  0  0  0
   51.7380   85.9200   33.1020 H   0  0  0  0  0  0  0  0  0  0  0  0
   53.9560   86.7510   20.3560 H   0  0  0  0  0  0  0  0  0  0  0  0
   53.4640   90.8300   19.1550 H   0  0  0  0  0  0  0  0  0  0  0  0
   55.4730   91.4750   20.4220 H   0  0  0  0  0  0  0  0  0  0  0  0
   56.7330   89.7120   21.6740 H   0  0  0  0  0  0  0  0  0  0  0  0
  1  4  1  0  0  0  0
  2  1  2  0  0  0  0
  3  1  2  0  0  0  0
  4  9  1  0  0  0  0
  4  5  1  0  0  0  0
  5 32  1  0  0  0  0
  5  6  1  0  0  0  0
  6  7  1  0  0  0  0
  6 34  1  0  0  0  0
  7 10  1  0  0  0  0
  8  7  1  0  0  0  0
  8 35  1  0  0  0  0
  8 36  1  0  0  0  0
  9 37  1  0  0  0  0
  9  8  1  0  0  0  0
 10 11  2  0  0  0  0
 12 10  1  1  0  0  0
 12 22  1  0  0  0  0
 13 14  2  0  0  0  0
 13 12  1  0  0  0  0
 15 14  1  6  0  0  0
 15 20  1  0  0  0  0
 15 16  1  0  0  0  0
 16 17  1  0  0  0  0
 17 40  1  0  0  0  0
 17 18  2  0  0  0  0
 18 21  1  0  0  0  0
 19 41  1  0  0  0  0
 19 18  1  0  0  0  0
 20 19  2  0  0  0  0
 21 44  1  0  0  0  0
 21 45  1  0  0  0  0
 21 43  1  0  0  0  0
 22 16  1  0  0  0  0
 22 23  2  0  0  0  0
 24 29  1  0  0  0  0
 24  1  1  0  0  0  0
 25 24  2  0  0  0  0
 26 27  2  0  0  0  0
 26 25  1  0  0  0  0
 27 28  1  0  0  0  0
 28 48  1  0  0  0  0
 28 29  2  0  0  0  0
 29 49  1  0  0  0  0
 30 26  1  0  0  0  0
 31  5  1  0  0  0  0
 33  6  1  0  0  0  0
 38  9  1  0  0  0  0
 39 13  1  0  0  0  0
 42 20  1  0  0  0  0
 46 25  1  0  0  0  0
 47 27  1  0  0  0  0
M  END
>  <Pose>
1

>  <Score>
-8.36

$$$$
