
 OpenBabel03202210083D

 52 55  0  0  0  0  0  0  0  0999 V2000
   48.2710  100.5640   28.4700 S   0  0  0  0  0  0  0  0  0  0  0  0
   47.3910   99.4070   28.8630 O   0  0  0  0  0  0  0  0  0  0  0  0
   47.7290  101.0830   27.1580 O   0  0  0  0  0  0  0  0  0  0  0  0
   49.8880  100.0770   28.1920 N   0  0  0  0  0  0  0  0  0  0  0  0
   50.6420  100.9900   27.3920 C   0  0  0  0  0  0  0  0  0  0  0  0
   51.9170  100.2330   26.9810 C   0  0  0  0  0  0  0  0  0  0  0  0
   52.3090   99.3110   27.9560 N   0  0  0  0  0  0  0  0  0  0  0  0
   52.0010   99.6550   29.3180 C   0  0  0  0  0  0  0  0  0  0  0  0
   50.5580  100.0680   29.5050 C   0  0  0  0  0  0  0  0  0  0  0  0
   52.3670   97.9380   27.6780 C   0  0  0  0  0  0  0  0  0  0  0  0
   53.5220   97.4240   27.0150 N   0  0  0  0  0  0  0  0  0  0  0  0
   54.6810   98.2240   26.8400 N   0  0  0  0  0  0  0  0  0  0  0  0
   55.6220   97.3950   26.1630 C   0  0  0  0  0  0  0  0  0  0  0  0
   56.8370   97.8080   25.8260 C   0  0  0  0  0  0  0  0  0  0  0  0
   57.9880   97.1800   25.1390 C   0  0  0  0  0  0  0  0  0  0  0  0
   57.5280   96.0920   24.1990 C   0  0  0  0  0  0  0  0  0  0  0  0
   57.0840   94.9360   25.0780 C   0  0  0  0  0  0  0  0  0  0  0  0
   55.6000   94.9300   25.2810 C   0  0  0  0  0  0  0  0  0  0  0  0
   55.0840   96.1060   25.9130 N   0  0  0  0  0  0  0  0  0  0  0  0
   53.7660   96.1430   26.4530 C   0  0  0  0  0  0  0  0  0  0  0  0
   52.9750   95.1680   26.4160 O   0  0  0  0  0  0  0  0  0  0  0  0
   48.1110  101.8150   29.6420 C   0  0  0  0  0  0  0  0  0  0  0  0
   47.0470  102.0060   30.4730 C   0  0  0  0  0  0  0  0  0  0  0  0
   47.0180  103.0510   31.3860 C   0  0  0  0  0  0  0  0  0  0  0  0
   48.0530  103.9310   31.4920 C   0  0  0  0  0  0  0  0  0  0  0  0
   49.1490  103.7620   30.6590 C   0  0  0  0  0  0  0  0  0  0  0  0
   49.1660  102.7260   29.7600 C   0  0  0  0  0  0  0  0  0  0  0  0
   45.5080  103.3010   32.5480 B   0  0  0  0  0  0  0  0  0  0  0  0
   50.1070  101.3850   26.5150 H   0  0  0  0  0  0  0  0  0  0  0  0
   50.9930  101.8710   27.9940 H   0  0  0  0  0  0  0  0  0  0  0  0
   51.6540   99.7320   26.0360 H   0  0  0  0  0  0  0  0  0  0  0  0
   52.7170  100.9690   26.7210 H   0  0  0  0  0  0  0  0  0  0  0  0
   52.1620   98.7500   29.9390 H   0  0  0  0  0  0  0  0  0  0  0  0
   52.7210  100.4180   29.6610 H   0  0  0  0  0  0  0  0  0  0  0  0
   50.5650  101.1270   29.8390 H   0  0  0  0  0  0  0  0  0  0  0  0
   50.0180   99.4820   30.2440 H   0  0  0  0  0  0  0  0  0  0  0  0
   51.4350   97.6430   27.1360 H   0  0  0  0  0  0  0  0  0  0  0  0
   52.2780   97.3890   28.6640 H   0  0  0  0  0  0  0  0  0  0  0  0
   54.8170   99.2170   27.1430 H   0  0  0  0  0  0  0  0  0  0  0  0
   57.0040   98.8520   26.1350 H   0  0  0  0  0  0  0  0  0  0  0  0
   58.7460   96.8160   25.8630 H   0  0  0  0  0  0  0  0  0  0  0  0
   58.4570   97.9860   24.5040 H   0  0  0  0  0  0  0  0  0  0  0  0
   58.3430   95.8050   23.5150 H   0  0  0  0  0  0  0  0  0  0  0  0
   56.6220   96.4640   23.6760 H   0  0  0  0  0  0  0  0  0  0  0  0
   57.4140   94.0060   24.5770 H   0  0  0  0  0  0  0  0  0  0  0  0
   57.5830   94.9800   26.0620 H   0  0  0  0  0  0  0  0  0  0  0  0
   55.1330   94.8270   24.2720 H   0  0  0  0  0  0  0  0  0  0  0  0
   55.3390   94.0150   25.8620 H   0  0  0  0  0  0  0  0  0  0  0  0
   46.2210  101.3140   30.3990 H   0  0  0  0  0  0  0  0  0  0  0  0
   48.0250  104.7500   32.2100 H   0  0  0  0  0  0  0  0  0  0  0  0
   49.9750  104.4540   30.7340 H   0  0  0  0  0  0  0  0  0  0  0  0
   50.0390  102.6240   29.1250 H   0  0  0  0  0  0  0  0  0  0  0  0
  1  2  2  0  0  0  0
  1 22  1  0  0  0  0
  3  1  2  0  0  0  0
  4  1  1  0  0  0  0
  4  9  1  0  0  0  0
  5 30  1  0  0  0  0
  5  4  1  0  0  0  0
  6  5  1  0  0  0  0
  6  7  1  0  0  0  0
  7  8  1  0  0  0  0
  8  9  1  0  0  0  0
  8 34  1  0  0  0  0
  8 33  1  0  0  0  0
  9 35  1  0  0  0  0
  9 36  1  0  0  0  0
 10  7  1  0  0  0  0
 10 38  1  0  0  0  0
 11 10  1  0  0  0  0
 12 11  1  0  0  0  0
 12 39  1  0  0  0  0
 13 12  1  0  0  0  0
 14 40  1  0  0  0  0
 14 13  2  0  0  0  0
 15 14  1  0  0  0  0
 15 41  1  0  0  0  0
 16 17  1  0  0  0  0
 16 15  1  0  0  0  0
 17 18  1  0  0  0  0
 17 46  1  0  0  0  0
 18 48  1  0  0  0  0
 18 19  1  0  0  0  0
 19 13  1  0  0  0  0
 19 20  1  0  0  0  0
 20 11  1  0  0  0  0
 21 20  2  0  0  0  0
 22 27  2  0  0  0  0
 22 23  1  0  0  0  0
 23 24  2  0  0  0  0
 24 25  1  0  0  0  0
 24 28  1  0  0  0  0
 25 50  1  0  0  0  0
 26 51  1  0  0  0  0
 26 25  2  0  0  0  0
 27 26  1  0  0  0  0
 29  5  1  0  0  0  0
 31  6  1  0  0  0  0
 32  6  1  0  0  0  0
 37 10  1  0  0  0  0
 42 15  1  0  0  0  0
 43 16  1  0  0  0  0
 44 16  1  0  0  0  0
 45 17  1  0  0  0  0
 47 18  1  0  0  0  0
 49 23  1  0  0  0  0
 52 27  1  0  0  0  0
M  END
>  <Pose>
1

>  <Score>
-7.28

$$$$
