
 OpenBabel03202210083D

 37 40  0  0  0  0  0  0  0  0999 V2000
   55.4240   93.7030   24.5650 S   0  0  0  0  0  0  0  0  0  0  0  0
   56.7690   94.3440   24.2400 O   0  0  0  0  0  0  0  0  0  0  0  0
   55.7160   92.5430   25.4460 O   0  0  0  0  0  0  0  0  0  0  0  0
   54.6740   93.2830   23.1330 N   0  0  0  0  0  0  0  0  0  0  0  0
   53.5540   92.4250   23.1630 C   0  0  0  0  0  0  0  0  0  0  0  0
   53.8180   90.9790   22.8270 C   0  0  0  0  0  0  0  0  0  0  0  0
   55.1730   90.7340   22.4430 N   0  0  0  0  0  0  0  0  0  0  0  0
   56.0180   91.7340   21.8160 C   0  0  0  0  0  0  0  0  0  0  0  0
   55.4580   93.1180   21.9720 C   0  0  0  0  0  0  0  0  0  0  0  0
   55.7560   89.4590   22.6750 C   0  0  0  0  0  0  0  0  0  0  0  0
   56.4590   88.8480   21.6750 N   0  0  0  0  0  0  0  0  0  0  0  0
   57.0210   87.6560   21.8740 C   0  0  0  0  0  0  0  0  0  0  0  0
   56.9280   87.0130   23.0380 N   0  0  0  0  0  0  0  0  0  0  0  0
   56.2470   87.5910   24.0250 C   0  0  0  0  0  0  0  0  0  0  0  0
   55.9880   87.1910   25.2730 N   0  0  0  0  0  0  0  0  0  0  0  0
   55.2400   88.1500   25.8870 C   0  0  0  0  0  0  0  0  0  0  0  0
   55.0230   89.1560   25.0400 N   0  0  0  0  0  0  0  0  0  0  0  0
   55.6320   88.8370   23.8890 C   0  0  0  0  0  0  0  0  0  0  0  0
   54.5630   94.9060   25.5290 C   0  0  0  0  0  0  0  0  0  0  0  0
   54.9710   96.5300   25.8480 S   0  0  0  0  0  0  0  0  0  0  0  0
   53.6490   96.9650   26.8280 C   0  0  0  0  0  0  0  0  0  0  0  0
   52.9100   95.8070   26.8800 C   0  0  0  0  0  0  0  0  0  0  0  0
   53.3870   94.7530   26.2090 C   0  0  0  0  0  0  0  0  0  0  0  0
   53.2640   98.6390   27.6610 B   0  0  0  0  0  0  0  0  0  0  0  0
   52.9540   92.4860   24.1030 H   0  0  0  0  0  0  0  0  0  0  0  0
   52.8370   92.8140   22.3780 H   0  0  0  0  0  0  0  0  0  0  0  0
   53.0540   90.6330   22.1020 H   0  0  0  0  0  0  0  0  0  0  0  0
   53.5980   90.3680   23.7480 H   0  0  0  0  0  0  0  0  0  0  0  0
   57.0310   91.7130   22.2600 H   0  0  0  0  0  0  0  0  0  0  0  0
   56.1200   91.4680   20.7420 H   0  0  0  0  0  0  0  0  0  0  0  0
   56.2660   93.8760   21.9640 H   0  0  0  0  0  0  0  0  0  0  0  0
   54.8030   93.3130   21.0770 H   0  0  0  0  0  0  0  0  0  0  0  0
   57.5810   87.1650   21.0840 H   0  0  0  0  0  0  0  0  0  0  0  0
   54.9000   88.0660   26.9050 H   0  0  0  0  0  0  0  0  0  0  0  0
   54.4790   90.0120   25.2560 H   0  0  0  0  0  0  0  0  0  0  0  0
   51.9600   95.7940   27.4680 H   0  0  0  0  0  0  0  0  0  0  0  0
   52.8570   93.7750   26.1940 H   0  0  0  0  0  0  0  0  0  0  0  0
  1  3  2  0  0  0  0
  1 19  1  0  0  0  0
  2  1  2  0  0  0  0
  4  5  1  0  0  0  0
  4  1  1  0  0  0  0
  5 25  1  0  0  0  0
  6  5  1  0  0  0  0
  6 28  1  0  0  0  0
  7 10  1  0  0  0  0
  7  6  1  0  0  0  0
  8  9  1  0  0  0  0
  8 29  1  0  0  0  0
  8  7  1  0  0  0  0
  9  4  1  0  0  0  0
 10 18  2  0  0  0  0
 11 12  2  0  0  0  0
 11 10  1  0  0  0  0
 12 13  1  0  0  0  0
 13 14  2  0  0  0  0
 14 15  1  0  0  0  0
 15 16  2  0  0  0  0
 16 34  1  0  0  0  0
 17 35  1  0  0  0  0
 17 16  1  0  0  0  0
 18 14  1  0  0  0  0
 18 17  1  0  0  0  0
 19 20  1  0  0  0  0
 19 23  2  0  0  0  0
 20 21  1  0  0  0  0
 21 22  2  0  0  0  0
 21 24  1  0  0  0  0
 22 36  1  0  0  0  0
 23 22  1  0  0  0  0
 26  5  1  0  0  0  0
 27  6  1  0  0  0  0
 30  8  1  0  0  0  0
 31  9  1  0  0  0  0
 32  9  1  0  0  0  0
 33 12  1  0  0  0  0
 37 23  1  0  0  0  0
M  END
>  <Pose>
1

>  <Score>
-6.70

$$$$
