
 OpenBabel03202210083D

 40 43  0  0  1  0  0  0  0  0999 V2000
   50.5390  100.4660   26.4010 S   0  0  0  0  0  0  0  0  0  0  0  0
   49.4090   99.8420   25.6240 O   0  0  0  0  0  0  0  0  0  0  0  0
   50.9470  101.7080   25.6230 O   0  0  0  0  0  0  0  0  0  0  0  0
   51.8990   99.4560   26.5140 N   0  0  0  0  0  0  0  0  0  0  0  0
   53.0640  100.1420   26.0660 C   0  0  0  0  0  0  0  0  0  0  0  0
   54.3270   99.6740   26.7580 C   0  0  0  0  0  0  0  0  0  0  0  0
   54.1810   98.2620   27.0060 N   0  0  0  0  0  0  0  0  0  0  0  0
   53.1610   97.8920   27.9530 C   0  0  0  0  0  0  0  0  0  0  0  0
   51.9890   98.7890   27.7690 C   0  0  0  0  0  0  0  0  0  0  0  0
   54.9730   97.2750   26.3750 C   0  0  1  0  0  0  0  0  0  0  0  0
   54.5050   96.0580   26.0980 C   0  0  0  0  0  0  0  0  0  0  0  0
   55.2850   95.0190   25.4510 C   0  0  0  0  0  0  0  0  0  0  0  0
   54.7680   93.8270   25.2010 C   0  0  0  0  0  0  0  0  0  0  0  0
   56.6200   95.3010   25.0900 N   0  0  0  0  0  0  0  0  0  0  0  0
   57.0910   96.6210   25.4030 C   0  0  0  0  0  0  0  0  0  0  0  0
   56.3280   97.5470   26.0030 N   0  0  0  0  0  0  0  0  0  0  0  0
   57.0410   98.6660   26.1590 N   0  0  0  0  0  0  0  0  0  0  0  0
   58.2760   98.4740   25.6610 C   0  0  0  0  0  0  0  0  0  0  0  0
   58.2940   97.2120   25.2000 N   0  0  0  0  0  0  0  0  0  0  0  0
   49.9840  101.0340   27.9750 C   0  0  0  0  0  0  0  0  0  0  0  0
   48.4560  101.6790   28.3390 S   0  0  0  0  0  0  0  0  0  0  0  0
   48.6710  101.9850   29.9990 C   0  0  0  0  0  0  0  0  0  0  0  0
   49.9540  101.5670   30.2310 C   0  0  0  0  0  0  0  0  0  0  0  0
   50.6370  101.0710   29.1720 C   0  0  0  0  0  0  0  0  0  0  0  0
   47.4360  102.7340   31.2800 B   0  0  0  0  0  0  0  0  0  0  0  0
   52.9660  101.2470   26.0480 H   0  0  0  0  0  0  0  0  0  0  0  0
   53.2060   99.8590   24.9800 H   0  0  0  0  0  0  0  0  0  0  0  0
   55.2360   99.9310   26.2010 H   0  0  0  0  0  0  0  0  0  0  0  0
   54.3640  100.1750   27.7470 H   0  0  0  0  0  0  0  0  0  0  0  0
   52.9150   96.8130   27.9240 H   0  0  0  0  0  0  0  0  0  0  0  0
   53.5840   98.0410   28.9920 H   0  0  0  0  0  0  0  0  0  0  0  0
   51.0750   98.1250   27.8340 H   0  0  0  0  0  0  0  0  0  0  0  0
   51.8920   99.4570   28.6440 H   0  0  0  0  0  0  0  0  0  0  0  0
   53.4840   95.8500   26.3770 H   0  0  0  0  0  0  0  0  0  0  0  0
   53.7360   93.6100   25.4810 H   0  0  0  0  0  0  0  0  0  0  0  0
   55.3270   93.0390   24.7220 H   0  0  0  0  0  0  0  0  0  0  0  0
   57.2550   94.6350   24.6290 H   0  0  0  0  0  0  0  0  0  0  0  0
   59.1030   99.1900   25.6330 H   0  0  0  0  0  0  0  0  0  0  0  0
   50.3730  101.6530   31.2680 H   0  0  0  0  0  0  0  0  0  0  0  0
   51.6910  100.7160   29.3070 H   0  0  0  0  0  0  0  0  0  0  0  0
  1  4  1  0  0  0  0
  1 20  1  0  0  0  0
  2  1  2  0  0  0  0
  3  1  2  0  0  0  0
  4  9  1  0  0  0  0
  5  4  1  0  0  0  0
  5  6  1  0  0  0  0
  6  7  1  0  0  0  0
  6 29  1  0  0  0  0
  7  8  1  0  0  0  0
  8 31  1  0  0  0  0
  9 32  1  0  0  0  0
  9  8  1  0  0  0  0
  9 33  1  0  0  0  0
 10  7  1  6  0  0  0
 11 10  1  0  0  0  0
 11 34  1  0  0  0  0
 12 11  2  0  0  0  0
 13 12  1  0  0  0  0
 13 35  1  0  0  0  0
 14 15  1  0  0  0  0
 14 12  1  0  0  0  0
 15 16  1  0  0  0  0
 16 17  1  0  0  0  0
 16 10  1  0  0  0  0
 18 17  2  0  0  0  0
 19 15  2  0  0  0  0
 19 18  1  0  0  0  0
 20 21  1  0  0  0  0
 20 24  2  0  0  0  0
 21 22  1  0  0  0  0
 22 23  2  0  0  0  0
 22 25  1  0  0  0  0
 23 39  1  0  0  0  0
 24 40  1  0  0  0  0
 24 23  1  0  0  0  0
 26  5  1  0  0  0  0
 27  5  1  0  0  0  0
 28  6  1  0  0  0  0
 30  8  1  0  0  0  0
 36 13  1  0  0  0  0
 37 14  1  0  0  0  0
 38 18  1  0  0  0  0
M  END
>  <Pose>
1

>  <Score>
-7.61

$$$$
