
 OpenBabel03202210083D

 43 46  0  0  0  0  0  0  0  0999 V2000
   51.2250  100.6400   27.3330 S   0  0  0  0  0  0  0  0  0  0  0  0
   50.5980   99.4740   26.5800 O   0  0  0  0  0  0  0  0  0  0  0  0
   51.5980  101.6530   26.2920 O   0  0  0  0  0  0  0  0  0  0  0  0
   52.6100  100.0480   28.1240 N   0  0  0  0  0  0  0  0  0  0  0  0
   52.4030   98.9320   28.9680 C   0  0  0  0  0  0  0  0  0  0  0  0
   52.6670   97.5970   28.3680 C   0  0  0  0  0  0  0  0  0  0  0  0
   53.8840   97.6090   27.5410 N   0  0  0  0  0  0  0  0  0  0  0  0
   54.6750   98.8160   27.6520 C   0  0  0  0  0  0  0  0  0  0  0  0
   53.7620   99.9650   27.2700 C   0  0  0  0  0  0  0  0  0  0  0  0
   54.2140   96.5060   26.7190 C   0  0  0  0  0  0  0  0  0  0  0  0
   54.6810   95.3430   27.3190 C   0  0  0  0  0  0  0  0  0  0  0  0
   55.0040   94.2640   26.4990 C   0  0  0  0  0  0  0  0  0  0  0  0
   54.8730   94.3270   25.1800 N   0  0  0  0  0  0  0  0  0  0  0  0
   55.2590   93.1430   24.6780 C   0  0  0  0  0  0  0  0  0  0  0  0
   55.6240   92.3650   25.7150 N   0  0  0  0  0  0  0  0  0  0  0  0
   55.4690   93.0480   26.8360 N   0  0  0  0  0  0  0  0  0  0  0  0
   55.2820   92.7520   23.2320 C   0  0  0  0  0  0  0  0  0  0  0  0
   54.4360   95.4120   24.6050 N   0  0  0  0  0  0  0  0  0  0  0  0
   54.1080   96.4940   25.3580 C   0  0  0  0  0  0  0  0  0  0  0  0
   50.0040  101.2350   28.4250 C   0  0  0  0  0  0  0  0  0  0  0  0
   50.2900  101.5310   29.7510 C   0  0  0  0  0  0  0  0  0  0  0  0
   49.3240  102.0000   30.6130 C   0  0  0  0  0  0  0  0  0  0  0  0
   48.0360  102.1780   30.1350 C   0  0  0  0  0  0  0  0  0  0  0  0
   47.7010  101.8990   28.8250 C   0  0  0  0  0  0  0  0  0  0  0  0
   48.6960  101.4320   27.9970 C   0  0  0  0  0  0  0  0  0  0  0  0
   46.7050  102.8320   31.3480 B   0  0  0  0  0  0  0  0  0  0  0  0
   53.0590   99.0540   29.8800 H   0  0  0  0  0  0  0  0  0  0  0  0
   51.3680   98.9640   29.3580 H   0  0  0  0  0  0  0  0  0  0  0  0
   52.8660   96.8690   29.1860 H   0  0  0  0  0  0  0  0  0  0  0  0
   51.8010   97.2150   27.8010 H   0  0  0  0  0  0  0  0  0  0  0  0
   55.5470   98.8590   27.0030 H   0  0  0  0  0  0  0  0  0  0  0  0
   54.9420   98.9820   28.7360 H   0  0  0  0  0  0  0  0  0  0  0  0
   54.3010  100.9330   27.2490 H   0  0  0  0  0  0  0  0  0  0  0  0
   53.4110   99.7700   26.2360 H   0  0  0  0  0  0  0  0  0  0  0  0
   54.8060   95.2380   28.3850 H   0  0  0  0  0  0  0  0  0  0  0  0
   55.2910   93.6670   22.5910 H   0  0  0  0  0  0  0  0  0  0  0  0
   56.1960   92.1970   23.0180 H   0  0  0  0  0  0  0  0  0  0  0  0
   54.3960   92.1420   22.9680 H   0  0  0  0  0  0  0  0  0  0  0  0
   53.7580   97.3490   24.8370 H   0  0  0  0  0  0  0  0  0  0  0  0
   51.3170  101.3750   30.0840 H   0  0  0  0  0  0  0  0  0  0  0  0
   49.6160  102.2090   31.6270 H   0  0  0  0  0  0  0  0  0  0  0  0
   46.6770  102.0600   28.5150 H   0  0  0  0  0  0  0  0  0  0  0  0
   48.4450  101.2120   26.9840 H   0  0  0  0  0  0  0  0  0  0  0  0
  1  4  1  0  0  0  0
  1 20  1  0  0  0  0
  2  1  2  0  0  0  0
  3  1  2  0  0  0  0
  4  5  1  0  0  0  0
  5 28  1  0  0  0  0
  5 27  1  0  0  0  0
  6  5  1  0  0  0  0
  6 29  1  0  0  0  0
  7  8  1  0  0  0  0
  7  6  1  0  0  0  0
  8 32  1  0  0  0  0
  9  8  1  0  0  0  0
  9  4  1  0  0  0  0
 10 11  2  0  0  0  0
 10  7  1  0  0  0  0
 11 35  1  0  0  0  0
 12 16  2  0  0  0  0
 12 11  1  0  0  0  0
 13 12  1  0  0  0  0
 14 13  1  0  0  0  0
 14 15  2  0  0  0  0
 15 16  1  0  0  0  0
 17 14  1  0  0  0  0
 18 13  1  0  0  0  0
 18 19  2  0  0  0  0
 19 10  1  0  0  0  0
 20 21  1  0  0  0  0
 21 40  1  0  0  0  0
 21 22  2  0  0  0  0
 22 41  1  0  0  0  0
 23 22  1  0  0  0  0
 23 26  1  0  0  0  0
 24 23  2  0  0  0  0
 25 20  2  0  0  0  0
 25 24  1  0  0  0  0
 30  6  1  0  0  0  0
 31  8  1  0  0  0  0
 33  9  1  0  0  0  0
 34  9  1  0  0  0  0
 36 17  1  0  0  0  0
 37 17  1  0  0  0  0
 38 17  1  0  0  0  0
 39 19  1  0  0  0  0
 42 24  1  0  0  0  0
 43 25  1  0  0  0  0
M  END
>  <Pose>
1

>  <Score>
-6.69

$$$$
