
 OpenBabel03202210083D

 57 60  0  0  1  0  0  0  0  0999 V2000
   55.4530   85.7360   24.8680 S   0  0  0  0  0  0  0  0  0  0  0  0
   55.1210   86.3410   26.1950 O   0  0  0  0  0  0  0  0  0  0  0  0
   56.5260   84.6890   25.1380 O   0  0  0  0  0  0  0  0  0  0  0  0
   55.9860   86.8550   23.7050 N   0  0  0  0  0  0  0  0  0  0  0  0
   56.2980   86.1840   22.4880 C   0  0  0  0  0  0  0  0  0  0  0  0
   57.7220   86.3630   22.0130 C   0  0  0  0  0  0  0  0  0  0  0  0
   58.6650   86.1870   23.1210 N   0  0  0  0  0  0  0  0  0  0  0  0
   58.2810   86.9130   24.3110 C   0  0  0  0  0  0  0  0  0  0  0  0
   58.9260   86.8550   25.3600 O   0  0  0  0  0  0  0  0  0  0  0  0
   57.0330   87.7210   24.1070 C   0  0  2  0  0  0  0  0  0  0  0  0
   56.7640   88.6550   25.2200 C   0  0  0  0  0  0  0  0  0  0  0  0
   55.5020   89.3880   24.9590 C   0  0  0  0  0  0  0  0  0  0  0  0
   54.7110   89.5130   25.9310 O   0  0  0  0  0  0  0  0  0  0  0  0
   55.1940   89.9280   23.6730 N   0  0  0  0  0  0  0  0  0  0  0  0
   54.4780   91.1670   23.5440 C   0  0  0  0  0  0  0  0  0  0  0  0
   54.8150   91.9450   22.3100 C   0  0  0  0  0  0  0  0  0  0  0  0
   55.1810   91.1180   21.1730 N   0  0  0  0  0  0  0  0  0  0  0  0
   56.2100   90.1290   21.4550 C   0  0  0  0  0  0  0  0  0  0  0  0
   55.6120   89.2090   22.4980 C   0  0  0  0  0  0  0  0  0  0  0  0
   54.6400   91.2210   19.8840 C   0  0  0  0  0  0  0  0  0  0  0  0
   53.4630   91.9110   19.6970 C   0  0  0  0  0  0  0  0  0  0  0  0
   52.9230   92.0000   18.4230 C   0  0  0  0  0  0  0  0  0  0  0  0
   53.5130   91.4250   17.3250 C   0  0  0  0  0  0  0  0  0  0  0  0
   54.6890   90.7370   17.5170 C   0  0  0  0  0  0  0  0  0  0  0  0
   55.2350   90.6440   18.7890 C   0  0  0  0  0  0  0  0  0  0  0  0
   54.0520   84.8390   24.3100 C   0  0  0  0  0  0  0  0  0  0  0  0
   53.6830   84.7900   22.9710 C   0  0  0  0  0  0  0  0  0  0  0  0
   52.5940   84.1030   22.5140 C   0  0  0  0  0  0  0  0  0  0  0  0
   51.8000   83.4100   23.3910 C   0  0  0  0  0  0  0  0  0  0  0  0
   52.1420   83.4360   24.7490 C   0  0  0  0  0  0  0  0  0  0  0  0
   53.2430   84.1390   25.1730 C   0  0  0  0  0  0  0  0  0  0  0  0
   50.2730   82.4330   22.8160 B   0  0  0  0  0  0  0  0  0  0  0  0
   55.6480   86.5860   21.6670 H   0  0  0  0  0  0  0  0  0  0  0  0
   56.1130   85.0900   22.5010 H   0  0  0  0  0  0  0  0  0  0  0  0
   57.8320   87.3430   21.5240 H   0  0  0  0  0  0  0  0  0  0  0  0
   57.9420   85.5830   21.2650 H   0  0  0  0  0  0  0  0  0  0  0  0
   59.5130   85.6220   23.0920 H   0  0  0  0  0  0  0  0  0  0  0  0
   57.2770   88.3590   23.2060 H   0  0  0  0  0  0  0  0  0  0  0  0
   57.6430   89.3670   25.2490 H   0  0  0  0  0  0  0  0  0  0  0  0
   56.7590   88.2060   26.2320 H   0  0  0  0  0  0  0  0  0  0  0  0
   53.3680   91.0180   23.5750 H   0  0  0  0  0  0  0  0  0  0  0  0
   54.6760   91.8570   24.4100 H   0  0  0  0  0  0  0  0  0  0  0  0
   53.9440   92.5540   22.0390 H   0  0  0  0  0  0  0  0  0  0  0  0
   55.6660   92.6480   22.4830 H   0  0  0  0  0  0  0  0  0  0  0  0
   57.0630   90.6430   21.9630 H   0  0  0  0  0  0  0  0  0  0  0  0
   56.5410   89.5390   20.6160 H   0  0  0  0  0  0  0  0  0  0  0  0
   54.7200   88.6750   22.1090 H   0  0  0  0  0  0  0  0  0  0  0  0
   56.3390   88.4250   22.7840 H   0  0  0  0  0  0  0  0  0  0  0  0
   52.9150   92.4100   20.5040 H   0  0  0  0  0  0  0  0  0  0  0  0
   51.9960   92.5420   18.2660 H   0  0  0  0  0  0  0  0  0  0  0  0
   53.0770   91.5030   16.3260 H   0  0  0  0  0  0  0  0  0  0  0  0
   55.1770   90.2730   16.6620 H   0  0  0  0  0  0  0  0  0  0  0  0
   56.1570   90.0800   18.8410 H   0  0  0  0  0  0  0  0  0  0  0  0
   54.2770   85.3160   22.2470 H   0  0  0  0  0  0  0  0  0  0  0  0
   52.3110   84.0710   21.4550 H   0  0  0  0  0  0  0  0  0  0  0  0
   51.4930   82.8800   25.4070 H   0  0  0  0  0  0  0  0  0  0  0  0
   53.4810   84.1400   26.2210 H   0  0  0  0  0  0  0  0  0  0  0  0
  1  3  2  0  0  0  0
  1  2  2  0  0  0  0
  4 10  1  0  0  0  0
  4  1  1  0  0  0  0
  5 34  1  0  0  0  0
  5  4  1  0  0  0  0
  6  5  1  0  0  0  0
  6  7  1  0  0  0  0
  7  8  1  0  0  0  0
  8  9  2  0  0  0  0
 10 38  1  6  0  0  0
 10  8  1  0  0  0  0
 10 11  1  0  0  0  0
 11 39  1  0  0  0  0
 11 40  1  0  0  0  0
 12 11  1  0  0  0  0
 12 13  2  0  0  0  0
 14 12  1  0  0  0  0
 15 41  1  0  0  0  0
 15 14  1  0  0  0  0
 15 42  1  0  0  0  0
 16 44  1  0  0  0  0
 16 15  1  0  0  0  0
 17 18  1  0  0  0  0
 17 16  1  0  0  0  0
 18 45  1  0  0  0  0
 18 19  1  0  0  0  0
 19 48  1  0  0  0  0
 19 14  1  0  0  0  0
 20 17  1  0  0  0  0
 21 20  1  0  0  0  0
 21 49  1  0  0  0  0
 22 21  2  0  0  0  0
 23 24  2  0  0  0  0
 23 22  1  0  0  0  0
 24 25  1  0  0  0  0
 25 53  1  0  0  0  0
 25 20  2  0  0  0  0
 26  1  1  0  0  0  0
 26 31  1  0  0  0  0
 27 26  2  0  0  0  0
 28 27  1  0  0  0  0
 28 29  2  0  0  0  0
 29 30  1  0  0  0  0
 30 31  2  0  0  0  0
 30 56  1  0  0  0  0
 31 57  1  0  0  0  0
 32 29  1  0  0  0  0
 33  5  1  0  0  0  0
 35  6  1  0  0  0  0
 36  6  1  0  0  0  0
 37  7  1  0  0  0  0
 43 16  1  0  0  0  0
 46 18  1  0  0  0  0
 47 19  1  0  0  0  0
 50 22  1  0  0  0  0
 51 23  1  0  0  0  0
 52 24  1  0  0  0  0
 54 27  1  0  0  0  0
 55 28  1  0  0  0  0
M  END
>  <Pose>
1

>  <Score>
-7.38

$$$$
