
 OpenBabel03202210083D

 46 49  0  0  0  0  0  0  0  0999 V2000
   55.6760   88.8540   24.8950 S   0  0  0  0  0  0  0  0  0  0  0  0
   56.7330   89.1290   25.9570 O   0  0  0  0  0  0  0  0  0  0  0  0
   54.3940   88.6150   25.6680 O   0  0  0  0  0  0  0  0  0  0  0  0
   56.1330   87.4900   24.0360 N   0  0  0  0  0  0  0  0  0  0  0  0
   55.3960   87.1380   22.8950 C   0  0  0  0  0  0  0  0  0  0  0  0
   56.3030   86.7680   21.7590 C   0  0  0  0  0  0  0  0  0  0  0  0
   57.1170   85.7360   22.1920 O   0  0  0  0  0  0  0  0  0  0  0  0
   58.0050   86.1350   23.1820 C   0  0  0  0  0  0  0  0  0  0  0  0
   57.3880   86.9220   24.2730 C   0  0  0  0  0  0  0  0  0  0  0  0
   55.5080   90.2990   23.9250 C   0  0  0  0  0  0  0  0  0  0  0  0
   55.7270   90.4410   22.6070 N   0  0  0  0  0  0  0  0  0  0  0  0
   55.4780   91.7280   22.2560 C   0  0  0  0  0  0  0  0  0  0  0  0
   55.0980   92.4180   23.3450 N   0  0  0  0  0  0  0  0  0  0  0  0
   55.1120   91.5680   24.3610 C   0  0  0  0  0  0  0  0  0  0  0  0
   54.7520   93.8250   23.3540 C   0  0  0  0  0  0  0  0  0  0  0  0
   54.3300   94.2750   24.7020 C   0  0  0  0  0  0  0  0  0  0  0  0
   53.3100   93.7380   25.4220 N   0  0  0  0  0  0  0  0  0  0  0  0
   53.2300   94.3790   26.5480 O   0  0  0  0  0  0  0  0  0  0  0  0
   54.1370   95.3190   26.6270 C   0  0  0  0  0  0  0  0  0  0  0  0
   54.8290   95.2510   25.4620 N   0  0  0  0  0  0  0  0  0  0  0  0
   54.3840   96.2780   27.7470 C   0  0  0  0  0  0  0  0  0  0  0  0
   53.4450   97.4170   27.5520 C   0  0  0  0  0  0  0  0  0  0  0  0
   52.1010   97.2180   27.8270 C   0  0  0  0  0  0  0  0  0  0  0  0
   51.1670   98.2080   27.6770 C   0  0  0  0  0  0  0  0  0  0  0  0
   51.5880   99.4340   27.2400 C   0  0  0  0  0  0  0  0  0  0  0  0
   52.8950   99.6810   26.9550 C   0  0  0  0  0  0  0  0  0  0  0  0
   53.8230   98.6550   27.1170 C   0  0  0  0  0  0  0  0  0  0  0  0
   50.3160  100.8380   27.0180 B   0  0  0  0  0  0  0  0  0  0  0  0
   54.6930   87.9570   22.6360 H   0  0  0  0  0  0  0  0  0  0  0  0
   54.7910   86.2130   23.1290 H   0  0  0  0  0  0  0  0  0  0  0  0
   55.7400   86.3840   20.8800 H   0  0  0  0  0  0  0  0  0  0  0  0
   56.9350   87.6400   21.5180 H   0  0  0  0  0  0  0  0  0  0  0  0
   58.4850   85.2000   23.5670 H   0  0  0  0  0  0  0  0  0  0  0  0
   58.8370   86.7170   22.7230 H   0  0  0  0  0  0  0  0  0  0  0  0
   58.1010   87.7320   24.6120 H   0  0  0  0  0  0  0  0  0  0  0  0
   57.3120   86.2510   25.1800 H   0  0  0  0  0  0  0  0  0  0  0  0
   55.5760   92.1200   21.2460 H   0  0  0  0  0  0  0  0  0  0  0  0
   54.8620   91.7760   25.3920 H   0  0  0  0  0  0  0  0  0  0  0  0
   53.9320   94.0360   22.6390 H   0  0  0  0  0  0  0  0  0  0  0  0
   55.6220   94.4200   23.0090 H   0  0  0  0  0  0  0  0  0  0  0  0
   55.4300   96.6220   27.6550 H   0  0  0  0  0  0  0  0  0  0  0  0
   54.2150   95.7830   28.7260 H   0  0  0  0  0  0  0  0  0  0  0  0
   51.7920   96.2320   28.1750 H   0  0  0  0  0  0  0  0  0  0  0  0
   50.1070   98.0520   27.8940 H   0  0  0  0  0  0  0  0  0  0  0  0
   53.2390  100.6540   26.6070 H   0  0  0  0  0  0  0  0  0  0  0  0
   54.8670   98.8390   26.8950 H   0  0  0  0  0  0  0  0  0  0  0  0
  1  3  2  0  0  0  0
  1  2  2  0  0  0  0
  4  9  1  0  0  0  0
  4  1  1  0  0  0  0
  5 30  1  0  0  0  0
  5  4  1  0  0  0  0
  6  7  1  0  0  0  0
  6  5  1  0  0  0  0
  7  8  1  0  0  0  0
  8 33  1  0  0  0  0
  8  9  1  0  0  0  0
  9 35  1  0  0  0  0
  9 36  1  0  0  0  0
 10 14  2  0  0  0  0
 10  1  1  0  0  0  0
 11 10  1  0  0  0  0
 12 11  2  0  0  0  0
 12 13  1  0  0  0  0
 13 15  1  0  0  0  0
 13 14  1  0  0  0  0
 14 38  1  0  0  0  0
 15 16  1  0  0  0  0
 16 17  2  0  0  0  0
 16 20  1  0  0  0  0
 17 18  1  0  0  0  0
 18 19  1  0  0  0  0
 19 21  1  0  0  0  0
 20 19  2  0  0  0  0
 21 42  1  0  0  0  0
 22 21  1  0  0  0  0
 22 23  1  0  0  0  0
 23 43  1  0  0  0  0
 24 23  2  0  0  0  0
 24 44  1  0  0  0  0
 25 24  1  0  0  0  0
 26 27  1  0  0  0  0
 26 25  2  0  0  0  0
 27 22  2  0  0  0  0
 28 25  1  0  0  0  0
 29  5  1  0  0  0  0
 31  6  1  0  0  0  0
 32  6  1  0  0  0  0
 34  8  1  0  0  0  0
 37 12  1  0  0  0  0
 39 15  1  0  0  0  0
 40 15  1  0  0  0  0
 41 21  1  0  0  0  0
 45 26  1  0  0  0  0
 46 27  1  0  0  0  0
M  END
>  <Pose>
1

>  <Score>
-7.89

$$$$
