
 OpenBabel03202210083D

 43 46  0  0  0  0  0  0  0  0999 V2000
   52.8390   97.8530   27.7840 S   0  0  0  0  0  0  0  0  0  0  0  0
   51.8600   96.8700   27.1980 O   0  0  0  0  0  0  0  0  0  0  0  0
   52.8710   97.6270   29.2610 O   0  0  0  0  0  0  0  0  0  0  0  0
   52.3140   99.4350   27.4020 N   0  0  0  0  0  0  0  0  0  0  0  0
   51.8370  100.1790   28.5080 C   0  0  0  0  0  0  0  0  0  0  0  0
   50.6910  101.1010   28.2530 C   0  0  0  0  0  0  0  0  0  0  0  0
   50.8580  101.6220   26.9490 O   0  0  0  0  0  0  0  0  0  0  0  0
   50.5270  100.5570   26.1070 C   0  0  0  0  0  0  0  0  0  0  0  0
   51.6050   99.5350   26.1790 C   0  0  0  0  0  0  0  0  0  0  0  0
   54.4150   97.5130   27.0590 C   0  0  0  0  0  0  0  0  0  0  0  0
   55.5560   98.2030   27.2280 N   0  0  0  0  0  0  0  0  0  0  0  0
   56.5240   97.6160   26.5000 C   0  0  0  0  0  0  0  0  0  0  0  0
   56.0380   96.5460   25.8540 N   0  0  0  0  0  0  0  0  0  0  0  0
   54.7410   96.4800   26.1960 C   0  0  0  0  0  0  0  0  0  0  0  0
   56.7680   95.6570   24.9740 C   0  0  0  0  0  0  0  0  0  0  0  0
   55.8890   94.6850   24.2840 C   0  0  0  0  0  0  0  0  0  0  0  0
   54.6030   94.4540   24.6060 N   0  0  0  0  0  0  0  0  0  0  0  0
   54.1330   93.5460   23.8050 O   0  0  0  0  0  0  0  0  0  0  0  0
   55.0450   93.1540   22.9570 C   0  0  0  0  0  0  0  0  0  0  0  0
   56.1450   93.8650   23.2540 N   0  0  0  0  0  0  0  0  0  0  0  0
   54.8560   92.1450   21.9140 C   0  0  0  0  0  0  0  0  0  0  0  0
   53.9350   92.3060   20.8990 C   0  0  0  0  0  0  0  0  0  0  0  0
   53.7670   91.3360   19.9140 C   0  0  0  0  0  0  0  0  0  0  0  0
   54.5170   90.1810   19.9190 C   0  0  0  0  0  0  0  0  0  0  0  0
   55.4380   90.0180   20.9310 C   0  0  0  0  0  0  0  0  0  0  0  0
   55.6040   90.9920   21.9190 C   0  0  0  0  0  0  0  0  0  0  0  0
   52.4850   91.5790   18.5160 B   0  0  0  0  0  0  0  0  0  0  0  0
   51.6130   99.5030   29.3740 H   0  0  0  0  0  0  0  0  0  0  0  0
   52.6920  100.8300   28.8620 H   0  0  0  0  0  0  0  0  0  0  0  0
   50.7620  101.9890   28.9240 H   0  0  0  0  0  0  0  0  0  0  0  0
   49.6960  100.6470   28.3450 H   0  0  0  0  0  0  0  0  0  0  0  0
   49.5390  100.1910   26.4490 H   0  0  0  0  0  0  0  0  0  0  0  0
   50.4020  100.8760   25.0580 H   0  0  0  0  0  0  0  0  0  0  0  0
   52.3490   99.7790   25.3720 H   0  0  0  0  0  0  0  0  0  0  0  0
   51.2220   98.5190   25.8970 H   0  0  0  0  0  0  0  0  0  0  0  0
   57.5550   97.9420   26.4320 H   0  0  0  0  0  0  0  0  0  0  0  0
   54.0470   95.7320   25.8480 H   0  0  0  0  0  0  0  0  0  0  0  0
   57.5060   95.1090   25.5810 H   0  0  0  0  0  0  0  0  0  0  0  0
   57.3300   96.2000   24.1860 H   0  0  0  0  0  0  0  0  0  0  0  0
   53.3440   93.2100   20.8910 H   0  0  0  0  0  0  0  0  0  0  0  0
   54.3750   89.4300   19.1410 H   0  0  0  0  0  0  0  0  0  0  0  0
   56.0460   89.1260   20.9710 H   0  0  0  0  0  0  0  0  0  0  0  0
   56.3210   90.8830   22.7230 H   0  0  0  0  0  0  0  0  0  0  0  0
  1  3  2  0  0  0  0
  2  1  2  0  0  0  0
  4  1  1  0  0  0  0
  4  5  1  0  0  0  0
  5 29  1  0  0  0  0
  5 28  1  0  0  0  0
  6 31  1  0  0  0  0
  6  5  1  0  0  0  0
  6 30  1  0  0  0  0
  7  6  1  0  0  0  0
  8  9  1  0  0  0  0
  8 32  1  0  0  0  0
  8  7  1  0  0  0  0
  9  4  1  0  0  0  0
 10 11  1  0  0  0  0
 10  1  1  0  0  0  0
 12 11  2  0  0  0  0
 13 14  1  0  0  0  0
 13 12  1  0  0  0  0
 14 10  2  0  0  0  0
 15 38  1  0  0  0  0
 15 13  1  0  0  0  0
 16 17  2  0  0  0  0
 16 15  1  0  0  0  0
 18 17  1  0  0  0  0
 19 20  2  0  0  0  0
 19 18  1  0  0  0  0
 20 16  1  0  0  0  0
 21 26  1  0  0  0  0
 21 19  1  0  0  0  0
 22 21  2  0  0  0  0
 23 24  2  0  0  0  0
 23 22  1  0  0  0  0
 24 25  1  0  0  0  0
 25 42  1  0  0  0  0
 25 26  2  0  0  0  0
 26 43  1  0  0  0  0
 27 23  1  0  0  0  0
 33  8  1  0  0  0  0
 34  9  1  0  0  0  0
 35  9  1  0  0  0  0
 36 12  1  0  0  0  0
 37 14  1  0  0  0  0
 39 15  1  0  0  0  0
 40 22  1  0  0  0  0
 41 24  1  0  0  0  0
M  END
>  <Pose>
1

>  <Score>
-7.45

$$$$
