
 OpenBabel03202210083D

 37 40  0  0  0  0  0  0  0  0999 V2000
   51.1920   99.3900   29.0200 S   0  0  0  0  0  0  0  0  0  0  0  0
   49.7590   99.8950   28.0300 C   0  0  0  0  0  0  0  0  0  0  0  0
   49.9300  101.3270   27.6490 C   0  0  0  0  0  0  0  0  0  0  0  0
   50.7620  101.6680   26.7500 O   0  0  0  0  0  0  0  0  0  0  0  0
   49.1820  102.3500   28.2680 N   0  0  0  0  0  0  0  0  0  0  0  0
   48.0990  102.0570   29.1320 C   0  0  0  0  0  0  0  0  0  0  0  0
   47.4830  100.8780   29.3180 N   0  0  0  0  0  0  0  0  0  0  0  0
   46.5270  100.9980   30.1970 O   0  0  0  0  0  0  0  0  0  0  0  0
   46.5070  102.2270   30.5860 N   0  0  0  0  0  0  0  0  0  0  0  0
   47.4510  102.9530   29.9740 C   0  0  0  0  0  0  0  0  0  0  0  0
   47.7070  104.3280   30.1630 N   0  0  0  0  0  0  0  0  0  0  0  0
   52.1340   98.1820   28.0670 C   0  0  0  0  0  0  0  0  0  0  0  0
   51.5840   97.0170   27.6810 N   0  0  0  0  0  0  0  0  0  0  0  0
   52.2280   96.0970   26.9810 N   0  0  0  0  0  0  0  0  0  0  0  0
   53.5110   96.2820   26.6040 C   0  0  0  0  0  0  0  0  0  0  0  0
   54.0960   97.4710   26.9890 C   0  0  0  0  0  0  0  0  0  0  0  0
   55.3550   97.4290   26.5070 N   0  0  0  0  0  0  0  0  0  0  0  0
   55.5830   96.2830   25.8470 C   0  0  0  0  0  0  0  0  0  0  0  0
   54.4280   95.5310   25.8890 C   0  0  0  0  0  0  0  0  0  0  0  0
   54.3250   94.2810   25.2990 C   0  0  0  0  0  0  0  0  0  0  0  0
   55.4490   93.8030   24.6470 C   0  0  0  0  0  0  0  0  0  0  0  0
   56.6170   94.5350   24.5880 C   0  0  0  0  0  0  0  0  0  0  0  0
   56.6970   95.7720   25.1810 C   0  0  0  0  0  0  0  0  0  0  0  0
   55.3070   92.0780   23.8310 B   0  0  0  0  0  0  0  0  0  0  0  0
   56.3100   98.5030   26.6980 C   0  0  0  0  0  0  0  0  0  0  0  0
   53.4100   98.4060   27.7110 N   0  0  0  0  0  0  0  0  0  0  0  0
   49.6010   99.2420   27.1610 H   0  0  0  0  0  0  0  0  0  0  0  0
   48.8770   99.8820   28.7350 H   0  0  0  0  0  0  0  0  0  0  0  0
   49.4430  103.3410   28.0750 H   0  0  0  0  0  0  0  0  0  0  0  0
   47.0610  104.8900   30.7480 H   0  0  0  0  0  0  0  0  0  0  0  0
   48.5250  104.8110   29.7380 H   0  0  0  0  0  0  0  0  0  0  0  0
   53.3990   93.7110   25.3510 H   0  0  0  0  0  0  0  0  0  0  0  0
   57.4920   94.1410   24.0700 H   0  0  0  0  0  0  0  0  0  0  0  0
   57.5990   96.3740   25.1550 H   0  0  0  0  0  0  0  0  0  0  0  0
   55.8120   99.4770   26.6420 H   0  0  0  0  0  0  0  0  0  0  0  0
   56.9000   98.3600   27.6270 H   0  0  0  0  0  0  0  0  0  0  0  0
   57.0360   98.4520   25.8560 H   0  0  0  0  0  0  0  0  0  0  0  0
  2 28  1  0  0  0  0
  2  1  1  0  0  0  0
  3  2  1  0  0  0  0
  3  5  1  0  0  0  0
  4  3  2  0  0  0  0
  5  6  1  0  0  0  0
  6  7  2  0  0  0  0
  6 10  1  0  0  0  0
  7  8  1  0  0  0  0
  8  9  1  0  0  0  0
 10 11  1  0  0  0  0
 10  9  2  0  0  0  0
 11 30  1  0  0  0  0
 12  1  1  0  0  0  0
 13 12  2  0  0  0  0
 14 13  1  0  0  0  0
 15 14  1  0  0  0  0
 15 16  2  0  0  0  0
 16 26  1  0  0  0  0
 17 25  1  0  0  0  0
 17 16  1  0  0  0  0
 18 19  1  0  0  0  0
 18 17  1  0  0  0  0
 19 15  1  0  0  0  0
 20 32  1  0  0  0  0
 20 19  2  0  0  0  0
 21 20  1  0  0  0  0
 22 21  2  0  0  0  0
 22 23  1  0  0  0  0
 23 18  2  0  0  0  0
 24 21  1  0  0  0  0
 25 36  1  0  0  0  0
 26 12  1  0  0  0  0
 27  2  1  0  0  0  0
 29  5  1  0  0  0  0
 31 11  1  0  0  0  0
 33 22  1  0  0  0  0
 34 23  1  0  0  0  0
 35 25  1  0  0  0  0
 37 25  1  0  0  0  0
M  END
>  <Pose>
1

>  <Score>
-8.47

$$$$
