
 OpenBabel03202210083D

 52 56  0  0  1  0  0  0  0  0999 V2000
   49.9470   86.9220   20.7640 S   0  0  0  0  0  0  0  0  0  0  0  0
   51.2630   85.7520   21.0650 C   0  0  0  0  0  0  0  0  0  0  0  0
   51.0800   84.6600   21.7140 N   0  0  0  0  0  0  0  0  0  0  0  0
   52.0740   83.6870   21.9900 C   0  0  0  0  0  0  0  0  0  0  0  0
   51.8540   82.4760   22.0840 O   0  0  0  0  0  0  0  0  0  0  0  0
   53.4910   84.2750   22.1680 C   0  0  1  0  0  0  0  0  0  0  0  0
   53.6270   85.0140   20.8760 C   0  0  0  0  0  0  0  0  0  0  0  0
   54.5230   84.8670   20.0430 O   0  0  0  0  0  0  0  0  0  0  0  0
   52.6150   85.9720   20.6020 N   0  0  0  0  0  0  0  0  0  0  0  0
   52.9390   87.1240   19.8790 C   0  0  0  0  0  0  0  0  0  0  0  0
   53.9040   87.9810   20.4240 C   0  0  0  0  0  0  0  0  0  0  0  0
   54.2750   89.1350   19.7690 C   0  0  0  0  0  0  0  0  0  0  0  0
   53.6800   89.4490   18.5510 C   0  0  0  0  0  0  0  0  0  0  0  0
   52.7160   88.5860   18.0140 C   0  0  0  0  0  0  0  0  0  0  0  0
   52.3580   87.4380   18.6820 C   0  0  0  0  0  0  0  0  0  0  0  0
   54.1610   91.0190   17.6220 B   0  0  0  0  0  0  0  0  0  0  0  0
   53.3990   85.1110   23.3580 C   0  0  1  0  0  0  0  0  0  0  0  0
   52.7930   84.4270   24.4920 N   0  0  0  0  0  4  0  0  0  0  0  0
   52.2170   85.3970   25.4080 C   0  0  0  0  0  0  0  0  0  0  0  0
   52.6490   86.8170   25.1540 C   0  0  0  0  0  0  0  0  0  0  0  0
   54.1260   86.8090   24.8570 C   0  0  0  0  0  0  0  0  0  0  0  0
   54.5260   85.8560   23.8900 C   0  0  0  0  0  0  0  0  0  0  0  0
   55.8500   85.7490   23.5640 C   0  0  0  0  0  0  0  0  0  0  0  0
   56.7480   86.5970   24.2080 C   0  0  0  0  0  0  0  0  0  0  0  0
   56.3350   87.5170   25.1430 C   0  0  0  0  0  0  0  0  0  0  0  0
   55.0000   87.6360   25.4840 C   0  0  0  0  0  0  0  0  0  0  0  0
   57.4410   88.2030   25.5980 O   0  0  0  0  0  0  0  0  0  0  0  0
   58.5980   87.5300   25.1670 C   0  0  0  0  0  0  0  0  0  0  0  0
   58.1060   86.7250   24.0960 O   0  0  0  0  0  0  0  0  0  0  0  0
   56.2990   84.8270   22.6300 O   0  0  0  0  0  0  0  0  0  0  0  0
   56.5820   83.4990   23.0570 C   0  0  0  0  0  0  0  0  0  0  0  0
   53.6750   83.5850   25.2240 C   0  0  0  0  0  0  0  0  0  0  0  0
   54.1250   83.4040   22.1530 H   0  0  0  0  0  0  0  0  0  0  0  0
   54.3830   87.7580   21.3730 H   0  0  0  0  0  0  0  0  0  0  0  0
   55.0190   89.7790   20.2070 H   0  0  0  0  0  0  0  0  0  0  0  0
   52.2290   88.7890   17.0740 H   0  0  0  0  0  0  0  0  0  0  0  0
   51.6250   86.7800   18.2740 H   0  0  0  0  0  0  0  0  0  0  0  0
   52.6000   85.8980   23.1150 H   0  0  0  0  0  0  0  0  0  0  0  0
   52.0110   83.8540   24.1120 H   0  0  0  0  0  0  0  0  0  0  0  0
   52.4740   85.1480   26.4580 H   0  0  0  0  0  0  0  0  0  0  0  0
   51.0940   85.3910   25.3630 H   0  0  0  0  0  0  0  0  0  0  0  0
   52.0680   87.3500   24.3950 H   0  0  0  0  0  0  0  0  0  0  0  0
   52.5390   87.3670   26.1280 H   0  0  0  0  0  0  0  0  0  0  0  0
   54.6560   88.3590   26.2240 H   0  0  0  0  0  0  0  0  0  0  0  0
   59.3730   88.2360   24.8040 H   0  0  0  0  0  0  0  0  0  0  0  0
   58.9610   86.8900   25.9980 H   0  0  0  0  0  0  0  0  0  0  0  0
   57.6860   83.4370   23.2450 H   0  0  0  0  0  0  0  0  0  0  0  0
   56.2720   82.7350   22.3420 H   0  0  0  0  0  0  0  0  0  0  0  0
   56.0930   83.3110   24.0230 H   0  0  0  0  0  0  0  0  0  0  0  0
   53.1620   83.3010   26.1670 H   0  0  0  0  0  0  0  0  0  0  0  0
   53.9360   82.6380   24.7180 H   0  0  0  0  0  0  0  0  0  0  0  0
   54.5970   84.1410   25.5570 H   0  0  0  0  0  0  0  0  0  0  0  0
  1  2  2  0  0  0  0
  2  3  1  0  0  0  0
  3  4  1  0  0  0  0
  4  5  2  0  0  0  0
  4  6  1  0  0  0  0
  6 33  1  1  0  0  0
  6 17  1  0  0  0  0
  7  6  1  0  0  0  0
  8  7  2  0  0  0  0
  9  7  1  0  0  0  0
  9  2  1  0  0  0  0
 10 11  1  0  0  0  0
 10  9  1  0  0  0  0
 11 34  1  0  0  0  0
 12 35  1  0  0  0  0
 12 11  2  0  0  0  0
 13 12  1  0  0  0  0
 14 13  2  0  0  0  0
 14 15  1  0  0  0  0
 15 10  2  0  0  0  0
 16 13  1  0  0  0  0
 17 38  1  6  0  0  0
 17 22  1  0  0  0  0
 17 18  1  0  0  0  0
 18 32  1  0  0  0  0
 18 19  1  0  0  0  0
 19 40  1  0  0  0  0
 20 19  1  0  0  0  0
 20 43  1  0  0  0  0
 21 20  1  0  0  0  0
 21 26  1  0  0  0  0
 22 21  2  0  0  0  0
 23 22  1  0  0  0  0
 23 24  2  0  0  0  0
 24 25  1  0  0  0  0
 25 26  2  0  0  0  0
 25 27  1  0  0  0  0
 26 44  1  0  0  0  0
 28 27  1  0  0  0  0
 28 46  1  0  0  0  0
 29 24  1  0  0  0  0
 29 28  1  0  0  0  0
 30 31  1  0  0  0  0
 30 23  1  0  0  0  0
 31 47  1  0  0  0  0
 31 49  1  0  0  0  0
 32 52  1  0  0  0  0
 32 50  1  0  0  0  0
 36 14  1  0  0  0  0
 37 15  1  0  0  0  0
 39 18  1  0  0  0  0
 41 19  1  0  0  0  0
 42 20  1  0  0  0  0
 45 28  1  0  0  0  0
 48 31  1  0  0  0  0
 51 32  1  0  0  0  0
M  END
>  <Pose>
1

>  <Score>
-3.97

$$$$
