
 OpenBabel03202210083D

 51 54  0  0  0  0  0  0  0  0999 V2000
   51.1320  100.4370   27.1040 S   0  0  0  0  0  0  0  0  0  0  0  0
   49.7050  100.3470   28.0220 C   0  0  0  0  0  0  0  0  0  0  0  0
   49.7060   99.0510   28.4570 C   0  0  0  0  0  0  0  0  0  0  0  0
   50.7240   98.2720   28.0840 C   0  0  0  0  0  0  0  0  0  0  0  0
   51.6950   98.8310   27.2920 C   0  0  0  0  0  0  0  0  0  0  0  0
   52.9050   98.1890   26.7650 C   0  0  0  0  0  0  0  0  0  0  0  0
   53.2460   98.4860   25.5940 O   0  0  0  0  0  0  0  0  0  0  0  0
   53.6980   97.2300   27.5730 C   0  0  0  0  0  0  0  0  0  0  0  0
   54.5980   96.4540   26.7570 N   0  0  0  0  0  0  0  0  0  0  0  0
   55.7790   96.9100   26.2750 C   0  0  0  0  0  0  0  0  0  0  0  0
   56.3840   95.9340   25.5430 C   0  0  0  0  0  0  0  0  0  0  0  0
   57.6090   96.1640   24.9430 C   0  0  0  0  0  0  0  0  0  0  0  0
   58.2080   97.3930   25.0970 C   0  0  0  0  0  0  0  0  0  0  0  0
   57.6190   98.3930   25.8280 C   0  0  0  0  0  0  0  0  0  0  0  0
   56.3990   98.1310   26.4120 C   0  0  0  0  0  0  0  0  0  0  0  0
   55.5730   94.8720   25.5770 N   0  0  0  0  0  0  0  0  0  0  0  0
   54.4790   95.1970   26.3240 C   0  0  0  0  0  0  0  0  0  0  0  0
   53.5510   94.3350   26.5180 N   0  0  0  0  0  0  0  0  0  0  0  0
   55.8360   93.6060   24.9070 C   0  0  0  0  0  0  0  0  0  0  0  0
   55.0690   93.6010   23.5760 C   0  0  0  0  0  0  0  0  0  0  0  0
   55.8800   93.1280   22.4910 N   0  0  0  0  0  4  0  0  0  0  0  0
   55.3170   91.9960   21.7820 C   0  0  0  0  0  0  0  0  0  0  0  0
   53.9000   92.2510   21.3510 C   0  0  0  0  0  0  0  0  0  0  0  0
   53.7140   93.5680   20.6760 C   0  0  0  0  0  0  0  0  0  0  0  0
   54.6710   94.6380   21.0620 C   0  0  0  0  0  0  0  0  0  0  0  0
   56.0130   94.1900   21.5230 C   0  0  0  0  0  0  0  0  0  0  0  0
   48.4340  101.7330   28.3460 B   0  0  0  0  0  0  0  0  0  0  0  0
   48.8610   98.7030   29.1020 H   0  0  0  0  0  0  0  0  0  0  0  0
   50.8020   97.2050   28.3960 H   0  0  0  0  0  0  0  0  0  0  0  0
   53.0280   96.5780   28.1930 H   0  0  0  0  0  0  0  0  0  0  0  0
   54.2930   97.8010   28.3290 H   0  0  0  0  0  0  0  0  0  0  0  0
   58.0580   95.3620   24.3680 H   0  0  0  0  0  0  0  0  0  0  0  0
   59.1640   97.6150   24.6430 H   0  0  0  0  0  0  0  0  0  0  0  0
   58.0630   99.3740   25.9670 H   0  0  0  0  0  0  0  0  0  0  0  0
   55.9070   98.8880   26.9920 H   0  0  0  0  0  0  0  0  0  0  0  0
   52.6920   94.4290   27.0560 H   0  0  0  0  0  0  0  0  0  0  0  0
   55.5280   92.7250   25.5030 H   0  0  0  0  0  0  0  0  0  0  0  0
   56.9130   93.5270   24.6140 H   0  0  0  0  0  0  0  0  0  0  0  0
   54.8180   94.6660   23.3770 H   0  0  0  0  0  0  0  0  0  0  0  0
   54.1830   92.9630   23.7600 H   0  0  0  0  0  0  0  0  0  0  0  0
   56.8100   92.8110   22.8410 H   0  0  0  0  0  0  0  0  0  0  0  0
   55.9560   91.8210   20.9010 H   0  0  0  0  0  0  0  0  0  0  0  0
   55.3310   91.1100   22.4450 H   0  0  0  0  0  0  0  0  0  0  0  0
   53.1870   92.1140   22.2150 H   0  0  0  0  0  0  0  0  0  0  0  0
   53.6340   91.4440   20.6350 H   0  0  0  0  0  0  0  0  0  0  0  0
   53.7520   93.4150   19.5710 H   0  0  0  0  0  0  0  0  0  0  0  0
   52.6760   93.9350   20.9260 H   0  0  0  0  0  0  0  0  0  0  0  0
   54.7810   95.3160   20.1610 H   0  0  0  0  0  0  0  0  0  0  0  0
   54.2130   95.3020   21.8310 H   0  0  0  0  0  0  0  0  0  0  0  0
   56.6370   93.8810   20.6550 H   0  0  0  0  0  0  0  0  0  0  0  0
   56.4810   95.0430   22.0680 H   0  0  0  0  0  0  0  0  0  0  0  0
  1  5  1  0  0  0  0
  1  2  1  0  0  0  0
  2 27  1  0  0  0  0
  2  3  2  0  0  0  0
  3 28  1  0  0  0  0
  4 29  1  0  0  0  0
  4  3  1  0  0  0  0
  5  4  2  0  0  0  0
  6  5  1  0  0  0  0
  6  8  1  0  0  0  0
  7  6  2  0  0  0  0
  8 30  1  0  0  0  0
  8 31  1  0  0  0  0
  9  8  1  0  0  0  0
 10 15  1  0  0  0  0
 10  9  1  0  0  0  0
 11 16  1  0  0  0  0
 11 10  2  0  0  0  0
 12 13  2  0  0  0  0
 12 11  1  0  0  0  0
 13 14  1  0  0  0  0
 14 34  1  0  0  0  0
 14 15  2  0  0  0  0
 15 35  1  0  0  0  0
 16 17  1  0  0  0  0
 17 18  2  0  0  0  0
 17  9  1  0  0  0  0
 18 36  1  0  0  0  0
 19 37  1  0  0  0  0
 19 16  1  0  0  0  0
 20 40  1  0  0  0  0
 20 19  1  0  0  0  0
 21 41  1  0  0  0  0
 21 20  1  0  0  0  0
 22 43  1  0  0  0  0
 22 21  1  0  0  0  0
 23 22  1  0  0  0  0
 23 44  1  0  0  0  0
 24 47  1  0  0  0  0
 24 25  1  0  0  0  0
 24 23  1  0  0  0  0
 25 26  1  0  0  0  0
 25 49  1  0  0  0  0
 26 51  1  0  0  0  0
 26 21  1  0  0  0  0
 32 12  1  0  0  0  0
 33 13  1  0  0  0  0
 38 19  1  0  0  0  0
 39 20  1  0  0  0  0
 42 22  1  0  0  0  0
 45 23  1  0  0  0  0
 46 24  1  0  0  0  0
 48 25  1  0  0  0  0
 50 26  1  0  0  0  0
M  END
>  <Pose>
1

>  <Score>
-6.83

$$$$
