
 OpenBabel03202210083D

 58 61  0  0  1  0  0  0  0  0999 V2000
   50.5090   83.4430   22.1200 S   0  0  0  0  0  0  0  0  0  0  0  0
   50.1330   81.8050   22.3980 C   0  0  0  0  0  0  0  0  0  0  0  0
   51.3200   81.2330   22.3750 N   0  0  0  0  0  0  0  0  0  0  0  0
   52.3820   81.9510   22.1720 C   0  0  0  0  0  0  0  0  0  0  0  0
   52.2110   83.3020   21.9870 C   0  0  0  0  0  0  0  0  0  0  0  0
   53.2180   84.3450   21.6920 C   0  0  0  0  0  0  0  0  0  0  0  0
   53.2070   84.9770   20.5560 C   0  0  0  0  0  0  0  0  0  0  0  0
   54.1680   86.0510   20.1550 C   0  0  1  0  0  0  0  0  0  0  0  0
   53.3550   86.9100   19.3360 N   0  0  0  0  0  0  0  0  0  0  0  0
   52.4550   86.0330   18.6450 C   0  0  0  0  0  0  0  0  0  0  0  0
   51.8650   86.2830   17.5780 O   0  0  0  0  0  0  0  0  0  0  0  0
   52.3420   84.7920   19.3980 C   0  0  0  0  0  0  0  0  0  0  0  0
   51.6770   83.7450   19.1720 O   0  0  0  0  0  0  0  0  0  0  0  0
   53.4790   88.3340   19.2490 C   0  0  0  0  0  0  0  0  0  0  0  0
   52.2970   89.0450   18.7360 C   0  0  0  0  0  0  0  0  0  0  0  0
   52.0830   90.4090   19.1450 C   0  0  0  0  0  0  0  0  0  0  0  0
   52.9240   91.5050   19.0490 N   0  0  0  0  0  4  0  0  0  0  0  0
   53.5060   91.6090   17.6590 C   0  0  0  0  0  0  0  0  0  0  0  0
   54.6400   90.6470   17.5310 C   0  0  0  0  0  0  0  0  0  0  0  0
   55.6660   91.1070   18.3490 O   0  0  0  0  0  0  0  0  0  0  0  0
   55.2150   90.8890   19.6710 C   0  0  0  0  0  0  0  0  0  0  0  0
   53.9940   91.7180   19.9600 C   0  0  0  0  0  0  0  0  0  0  0  0
   54.7760   86.6820   21.3360 C   0  0  0  0  0  0  0  0  0  0  0  0
   54.1160   87.3270   22.3460 C   0  0  0  0  0  0  0  0  0  0  0  0
   54.7250   87.9090   23.4350 C   0  0  0  0  0  0  0  0  0  0  0  0
   56.0920   87.8480   23.5320 C   0  0  0  0  0  0  0  0  0  0  0  0
   56.8100   87.2160   22.5510 C   0  0  0  0  0  0  0  0  0  0  0  0
   56.1700   86.6440   21.4760 C   0  0  0  0  0  0  0  0  0  0  0  0
   56.9360   88.6580   25.0510 B   0  0  0  0  0  0  0  0  0  0  0  0
   54.2010   84.6600   22.6460 O   0  0  0  0  0  0  0  0  0  0  0  0
   53.7680   81.3160   22.0940 C   0  0  0  0  0  0  0  0  0  0  0  0
   48.8020   81.1390   22.6190 C   0  0  0  0  0  0  0  0  0  0  0  0
   54.9560   85.6300   19.5000 H   0  0  0  0  0  0  0  0  0  0  0  0
   53.8700   88.7440   20.1630 H   0  0  0  0  0  0  0  0  0  0  0  0
   54.3400   88.5010   18.4870 H   0  0  0  0  0  0  0  0  0  0  0  0
   52.2610   88.8530   17.6250 H   0  0  0  0  0  0  0  0  0  0  0  0
   51.4030   88.3960   19.0620 H   0  0  0  0  0  0  0  0  0  0  0  0
   51.0150   90.6790   18.7240 H   0  0  0  0  0  0  0  0  0  0  0  0
   51.7700   90.3580   20.2640 H   0  0  0  0  0  0  0  0  0  0  0  0
   52.3600   92.3890   19.0730 H   0  0  0  0  0  0  0  0  0  0  0  0
   52.6960   91.5340   16.9550 H   0  0  0  0  0  0  0  0  0  0  0  0
   53.9360   92.6240   17.5930 H   0  0  0  0  0  0  0  0  0  0  0  0
   54.9340   90.6140   16.4640 H   0  0  0  0  0  0  0  0  0  0  0  0
   54.4060   89.6230   17.8800 H   0  0  0  0  0  0  0  0  0  0  0  0
   56.0380   91.2290   20.3300 H   0  0  0  0  0  0  0  0  0  0  0  0
   55.1030   89.8150   19.7980 H   0  0  0  0  0  0  0  0  0  0  0  0
   54.3960   92.8010   19.8390 H   0  0  0  0  0  0  0  0  0  0  0  0
   53.7300   91.6770   20.9970 H   0  0  0  0  0  0  0  0  0  0  0  0
   53.0390   87.3830   22.2890 H   0  0  0  0  0  0  0  0  0  0  0  0
   54.1070   88.3990   24.1860 H   0  0  0  0  0  0  0  0  0  0  0  0
   57.9010   87.1860   22.6630 H   0  0  0  0  0  0  0  0  0  0  0  0
   56.7520   86.1520   20.7150 H   0  0  0  0  0  0  0  0  0  0  0  0
   54.4700   81.9830   21.6130 H   0  0  0  0  0  0  0  0  0  0  0  0
   54.1150   81.0000   23.0950 H   0  0  0  0  0  0  0  0  0  0  0  0
   53.7070   80.3810   21.4800 H   0  0  0  0  0  0  0  0  0  0  0  0
   48.0270   81.7220   22.0560 H   0  0  0  0  0  0  0  0  0  0  0  0
   48.7970   80.1250   22.1400 H   0  0  0  0  0  0  0  0  0  0  0  0
   48.5500   81.0780   23.6810 H   0  0  0  0  0  0  0  0  0  0  0  0
  1  2  1  0  0  0  0
  2 32  1  0  0  0  0
  3  2  2  0  0  0  0
  4  3  1  0  0  0  0
  5  1  1  0  0  0  0
  5  4  2  0  0  0  0
  6  5  1  0  0  0  0
  6 30  1  0  0  0  0
  7  6  2  0  0  0  0
  8 33  1  6  0  0  0
  8  7  1  0  0  0  0
  8 23  1  0  0  0  0
  9  8  1  0  0  0  0
 10  9  1  0  0  0  0
 10 12  1  0  0  0  0
 11 10  2  0  0  0  0
 12  7  1  0  0  0  0
 13 12  2  0  0  0  0
 14  9  1  0  0  0  0
 14 34  1  0  0  0  0
 15 37  1  0  0  0  0
 15 16  1  0  0  0  0
 15 14  1  0  0  0  0
 16 39  1  0  0  0  0
 17 40  1  0  0  0  0
 17 16  1  0  0  0  0
 17 22  1  0  0  0  0
 18 17  1  0  0  0  0
 19 18  1  0  0  0  0
 19 44  1  0  0  0  0
 19 20  1  0  0  0  0
 20 21  1  0  0  0  0
 21 46  1  0  0  0  0
 21 22  1  0  0  0  0
 21 45  1  0  0  0  0
 22 48  1  0  0  0  0
 23 28  2  0  0  0  0
 23 24  1  0  0  0  0
 24 25  2  0  0  0  0
 25 26  1  0  0  0  0
 25 50  1  0  0  0  0
 26 29  1  0  0  0  0
 27 51  1  0  0  0  0
 27 26  2  0  0  0  0
 28 27  1  0  0  0  0
 31  4  1  0  0  0  0
 31 54  1  0  0  0  0
 32 58  1  0  0  0  0
 35 14  1  0  0  0  0
 36 15  1  0  0  0  0
 38 16  1  0  0  0  0
 41 18  1  0  0  0  0
 42 18  1  0  0  0  0
 43 19  1  0  0  0  0
 47 22  1  0  0  0  0
 49 24  1  0  0  0  0
 52 28  1  0  0  0  0
 53 31  1  0  0  0  0
 55 31  1  0  0  0  0
 56 32  1  0  0  0  0
 57 32  1  0  0  0  0
M  END
>  <Pose>
1

>  <Score>
-7.16

$$$$
