
 OpenBabel03202210083D

 55 58  0  0  1  0  0  0  0  0999 V2000
   54.2320   83.4700   18.7260 S   0  0  0  0  0  0  0  0  0  0  0  0
   53.3740   83.8860   17.3170 C   0  0  0  0  0  0  0  0  0  0  0  0
   52.8650   85.0600   17.6330 N   0  0  0  0  0  0  0  0  0  0  0  0
   53.0960   85.5790   18.7980 C   0  0  0  0  0  0  0  0  0  0  0  0
   53.8820   84.8660   19.6730 C   0  0  0  0  0  0  0  0  0  0  0  0
   54.2820   85.1670   21.0560 C   0  0  0  0  0  0  0  0  0  0  0  0
   53.3880   84.9480   21.9960 C   0  0  0  0  0  0  0  0  0  0  0  0
   53.5000   85.1480   23.4730 C   0  0  1  0  0  0  0  0  0  0  0  0
   52.9390   83.9430   23.9500 N   0  0  0  0  0  0  0  0  0  0  0  0
   51.7010   83.8410   23.1440 C   0  0  0  0  0  0  0  0  0  0  0  0
   50.6160   83.2980   23.4850 O   0  0  0  0  0  0  0  0  0  0  0  0
   52.0020   84.4960   21.8750 C   0  0  0  0  0  0  0  0  0  0  0  0
   51.2740   84.6730   20.8510 O   0  0  0  0  0  0  0  0  0  0  0  0
   53.1500   82.9370   24.9340 C   0  0  0  0  0  0  0  0  0  0  0  0
   52.4770   83.0230   26.2360 C   0  0  0  0  0  0  0  0  0  0  0  0
   52.9910   83.7840   27.3000 N   0  0  0  0  0  4  0  0  0  0  0  0
   52.1050   83.9100   28.4380 C   0  0  0  0  0  0  0  0  0  0  0  0
   52.7860   84.8750   29.4030 C   0  0  0  0  0  0  0  0  0  0  0  0
   54.1370   85.0230   29.0900 O   0  0  0  0  0  0  0  0  0  0  0  0
   54.6570   83.7140   29.0330 C   0  0  0  0  0  0  0  0  0  0  0  0
   54.1190   82.9620   27.8490 C   0  0  0  0  0  0  0  0  0  0  0  0
   54.6810   85.7660   23.9670 C   0  0  0  0  0  0  0  0  0  0  0  0
   54.9820   87.0710   23.5670 C   0  0  0  0  0  0  0  0  0  0  0  0
   56.1080   87.7330   23.9820 C   0  0  0  0  0  0  0  0  0  0  0  0
   56.9710   87.0730   24.8310 C   0  0  0  0  0  0  0  0  0  0  0  0
   56.6920   85.7850   25.2380 C   0  0  0  0  0  0  0  0  0  0  0  0
   55.5560   85.1400   24.8070 C   0  0  0  0  0  0  0  0  0  0  0  0
   58.5650   87.9250   25.4580 B   0  0  0  0  0  0  0  0  0  0  0  0
   55.5320   85.6570   21.3890 O   0  0  0  0  0  0  0  0  0  0  0  0
   52.4810   86.9120   19.1990 C   0  0  0  0  0  0  0  0  0  0  0  0
   53.2320   83.1160   16.0320 C   0  0  0  0  0  0  0  0  0  0  0  0
   52.6560   85.9230   23.6570 H   0  0  0  0  0  0  0  0  0  0  0  0
   54.2660   82.8950   25.1530 H   0  0  0  0  0  0  0  0  0  0  0  0
   52.9510   81.9040   24.5470 H   0  0  0  0  0  0  0  0  0  0  0  0
   52.3860   81.9560   26.6300 H   0  0  0  0  0  0  0  0  0  0  0  0
   51.3930   83.3160   26.0180 H   0  0  0  0  0  0  0  0  0  0  0  0
   53.4180   84.6590   26.9800 H   0  0  0  0  0  0  0  0  0  0  0  0
   51.1310   84.3390   28.1970 H   0  0  0  0  0  0  0  0  0  0  0  0
   52.0050   82.8970   28.9050 H   0  0  0  0  0  0  0  0  0  0  0  0
   52.6420   84.4350   30.4260 H   0  0  0  0  0  0  0  0  0  0  0  0
   52.3380   85.8890   29.3370 H   0  0  0  0  0  0  0  0  0  0  0  0
   55.7590   83.7390   29.0200 H   0  0  0  0  0  0  0  0  0  0  0  0
   54.2640   83.2200   29.9670 H   0  0  0  0  0  0  0  0  0  0  0  0
   54.8390   82.7930   27.0510 H   0  0  0  0  0  0  0  0  0  0  0  0
   53.6310   82.0160   28.1620 H   0  0  0  0  0  0  0  0  0  0  0  0
   54.3120   87.6230   22.8860 H   0  0  0  0  0  0  0  0  0  0  0  0
   56.3250   88.7590   23.6550 H   0  0  0  0  0  0  0  0  0  0  0  0
   57.3910   85.2880   25.9100 H   0  0  0  0  0  0  0  0  0  0  0  0
   55.3890   84.0950   25.1540 H   0  0  0  0  0  0  0  0  0  0  0  0
   51.4320   86.9210   18.8230 H   0  0  0  0  0  0  0  0  0  0  0  0
   52.9850   87.7580   18.7370 H   0  0  0  0  0  0  0  0  0  0  0  0
   52.4880   87.0230   20.2910 H   0  0  0  0  0  0  0  0  0  0  0  0
   52.2040   83.1710   15.6330 H   0  0  0  0  0  0  0  0  0  0  0  0
   53.5320   82.0510   16.2580 H   0  0  0  0  0  0  0  0  0  0  0  0
   53.9960   83.5060   15.3310 H   0  0  0  0  0  0  0  0  0  0  0  0
  1  5  1  0  0  0  0
  2  3  2  0  0  0  0
  2  1  1  0  0  0  0
  3  4  1  0  0  0  0
  4 30  1  0  0  0  0
  4  5  2  0  0  0  0
  5  6  1  0  0  0  0
  6 29  1  0  0  0  0
  6  7  2  0  0  0  0
  7  8  1  0  0  0  0
  8 32  1  1  0  0  0
  8  9  1  0  0  0  0
  8 22  1  0  0  0  0
  9 14  1  0  0  0  0
 10 11  2  0  0  0  0
 10  9  1  0  0  0  0
 12  7  1  0  0  0  0
 12 10  1  0  0  0  0
 13 12  2  0  0  0  0
 14 33  1  0  0  0  0
 14 15  1  0  0  0  0
 15 35  1  0  0  0  0
 15 16  1  0  0  0  0
 16 21  1  0  0  0  0
 16 17  1  0  0  0  0
 17 39  1  0  0  0  0
 17 18  1  0  0  0  0
 18 40  1  0  0  0  0
 19 18  1  0  0  0  0
 20 19  1  0  0  0  0
 20 43  1  0  0  0  0
 21 45  1  0  0  0  0
 21 20  1  0  0  0  0
 22 27  1  0  0  0  0
 23 22  2  0  0  0  0
 23 24  1  0  0  0  0
 24 25  2  0  0  0  0
 25 26  1  0  0  0  0
 25 28  1  0  0  0  0
 26 48  1  0  0  0  0
 27 49  1  0  0  0  0
 27 26  2  0  0  0  0
 30 52  1  0  0  0  0
 31 54  1  0  0  0  0
 31  2  1  0  0  0  0
 34 14  1  0  0  0  0
 36 15  1  0  0  0  0
 37 16  1  0  0  0  0
 38 17  1  0  0  0  0
 41 18  1  0  0  0  0
 42 20  1  0  0  0  0
 44 21  1  0  0  0  0
 46 23  1  0  0  0  0
 47 24  1  0  0  0  0
 50 30  1  0  0  0  0
 51 30  1  0  0  0  0
 53 31  1  0  0  0  0
 55 31  1  0  0  0  0
M  END
>  <Pose>
1

>  <Score>
-6.57

$$$$
