
 OpenBabel03202210083D

 46 49  0  0  1  0  0  0  0  0999 V2000
   56.6560   87.0180   21.6490 S   0  0  0  0  0  0  0  0  0  0  0  0
   56.4710   88.6680   21.2560 C   0  0  0  0  0  0  0  0  0  0  0  0
   55.8030   89.1700   22.3380 C   0  0  0  0  0  0  0  0  0  0  0  0
   55.5010   88.2990   23.3340 C   0  0  0  0  0  0  0  0  0  0  0  0
   55.8920   86.9940   23.1610 C   0  0  0  0  0  0  0  0  0  0  0  0
   55.6170   85.9410   24.1820 C   0  0  0  0  0  0  0  0  0  0  0  0
   55.6030   86.4170   25.5220 N   0  0  0  0  0  4  0  0  0  0  0  0
   55.5330   87.8280   25.6950 C   0  0  0  0  0  0  0  0  0  0  0  0
   54.7670   88.5780   24.6510 C   0  0  0  0  0  0  0  0  0  0  0  0
   54.5930   85.7260   26.3140 C   0  0  0  0  0  0  0  0  0  0  0  0
   55.5200   90.6350   22.2410 C   0  0  0  0  0  0  0  0  0  0  0  0
   54.9010   91.2190   23.1890 O   0  0  0  0  0  0  0  0  0  0  0  0
   55.9390   91.3580   21.1010 N   0  0  0  0  0  0  0  0  0  0  0  0
   56.0890   90.7000   19.8220 C   0  0  1  0  0  0  0  0  0  0  0  0
   56.8540   89.4900   20.1200 N   0  0  0  0  0  0  0  0  0  0  0  0
   54.7280   90.3360   19.3500 C   0  0  0  0  0  0  0  0  0  0  0  0
   53.7930   91.3110   19.0760 C   0  0  0  0  0  0  0  0  0  0  0  0
   52.5250   90.9940   18.6380 C   0  0  0  0  0  0  0  0  0  0  0  0
   52.1750   89.6600   18.4670 C   0  0  0  0  0  0  0  0  0  0  0  0
   53.0900   88.6650   18.7340 C   0  0  0  0  0  0  0  0  0  0  0  0
   54.3320   89.0100   19.1640 C   0  0  0  0  0  0  0  0  0  0  0  0
   52.6930   87.3530   18.5480 O   0  0  0  0  0  0  0  0  0  0  0  0
   52.0630   86.5470   19.4920 C   0  0  0  0  0  0  0  0  0  0  0  0
   52.1280   85.0850   19.1070 C   0  0  0  0  0  0  0  0  0  0  0  0
   50.9000   89.3160   18.0260 O   0  0  0  0  0  0  0  0  0  0  0  0
   51.2220   92.3310   18.2540 B   0  0  0  0  0  0  0  0  0  0  0  0
   54.6010   85.5380   23.9440 H   0  0  0  0  0  0  0  0  0  0  0  0
   56.3240   85.1050   24.0180 H   0  0  0  0  0  0  0  0  0  0  0  0
   56.5280   86.1090   25.9580 H   0  0  0  0  0  0  0  0  0  0  0  0
   56.5380   88.2850   25.7970 H   0  0  0  0  0  0  0  0  0  0  0  0
   55.0190   88.0220   26.6770 H   0  0  0  0  0  0  0  0  0  0  0  0
   53.7170   88.2520   24.5730 H   0  0  0  0  0  0  0  0  0  0  0  0
   54.8630   89.6490   24.8940 H   0  0  0  0  0  0  0  0  0  0  0  0
   54.9510   85.4870   27.3320 H   0  0  0  0  0  0  0  0  0  0  0  0
   54.3350   84.7690   25.7910 H   0  0  0  0  0  0  0  0  0  0  0  0
   53.6750   86.3340   26.4270 H   0  0  0  0  0  0  0  0  0  0  0  0
   56.1450   92.3790   21.1780 H   0  0  0  0  0  0  0  0  0  0  0  0
   56.6350   91.3160   19.1000 H   0  0  0  0  0  0  0  0  0  0  0  0
   57.6670   89.1600   19.5740 H   0  0  0  0  0  0  0  0  0  0  0  0
   54.0380   92.3460   19.2000 H   0  0  0  0  0  0  0  0  0  0  0  0
   55.0620   88.2610   19.3800 H   0  0  0  0  0  0  0  0  0  0  0  0
   52.5420   86.7260   20.4780 H   0  0  0  0  0  0  0  0  0  0  0  0
   50.9930   86.8220   19.5980 H   0  0  0  0  0  0  0  0  0  0  0  0
   52.6900   85.0130   18.1530 H   0  0  0  0  0  0  0  0  0  0  0  0
   52.5700   84.4740   19.9240 H   0  0  0  0  0  0  0  0  0  0  0  0
   51.1020   84.6960   18.8620 H   0  0  0  0  0  0  0  0  0  0  0  0
  1  5  1  0  0  0  0
  2  1  1  0  0  0  0
  2  3  2  0  0  0  0
  3  4  1  0  0  0  0
  4  9  1  0  0  0  0
  5  4  2  0  0  0  0
  5  6  1  0  0  0  0
  6  7  1  0  0  0  0
  7  8  1  0  0  0  0
  7 29  1  0  0  0  0
  7 10  1  0  0  0  0
  8 30  1  0  0  0  0
  8 31  1  0  0  0  0
  9 33  1  0  0  0  0
  9  8  1  0  0  0  0
 10 36  1  0  0  0  0
 10 34  1  0  0  0  0
 11  3  1  0  0  0  0
 11 12  2  0  0  0  0
 13 37  1  0  0  0  0
 13 11  1  0  0  0  0
 14 38  1  6  0  0  0
 14 15  1  0  0  0  0
 14 13  1  0  0  0  0
 15  2  1  0  0  0  0
 16 14  1  0  0  0  0
 17 40  1  0  0  0  0
 17 16  2  0  0  0  0
 18 17  1  0  0  0  0
 19 18  2  0  0  0  0
 19 20  1  0  0  0  0
 20 21  2  0  0  0  0
 21 16  1  0  0  0  0
 21 41  1  0  0  0  0
 22 20  1  0  0  0  0
 22 23  1  0  0  0  0
 23 43  1  0  0  0  0
 23 42  1  0  0  0  0
 24 23  1  0  0  0  0
 24 45  1  0  0  0  0
 25 19  1  0  0  0  0
 26 18  1  0  0  0  0
 27  6  1  0  0  0  0
 28  6  1  0  0  0  0
 32  9  1  0  0  0  0
 35 10  1  0  0  0  0
 39 15  1  0  0  0  0
 44 24  1  0  0  0  0
 46 24  1  0  0  0  0
M  END
>  <Pose>
1

>  <Score>
-6.33

$$$$
