
 OpenBabel03202210083D

 40 43  0  0  1  0  0  0  0  0999 V2000
   56.7750   90.5990   25.2300 S   0  0  0  0  0  0  0  0  0  0  0  0
   56.2070   88.9930   24.6140 C   0  0  2  0  0  0  0  0  0  0  0  0
   56.0620   89.3300   23.1550 C   0  0  0  0  0  0  0  0  0  0  0  0
   55.6540   90.6870   22.9520 N   0  0  0  0  0  0  0  0  0  0  0  0
   55.9230   91.5300   23.9620 C   0  0  2  0  0  0  0  0  0  0  0  0
   55.4690   92.7500   23.6510 N   0  0  0  0  0  0  0  0  0  0  0  0
   54.9000   92.6980   22.4260 C   0  0  0  0  0  0  0  0  0  0  0  0
   55.0100   91.4060   21.9710 C   0  0  0  0  0  0  0  0  0  0  0  0
   54.5110   90.9460   20.6970 C   0  0  0  0  0  0  0  0  0  0  0  0
   53.5500   91.7370   20.0440 C   0  0  0  0  0  0  0  0  0  0  0  0
   53.0630   91.3800   18.8130 C   0  0  0  0  0  0  0  0  0  0  0  0
   53.4700   90.2520   18.1480 C   0  0  0  0  0  0  0  0  0  0  0  0
   54.4100   89.4600   18.7650 C   0  0  0  0  0  0  0  0  0  0  0  0
   54.9100   89.8230   20.0210 C   0  0  0  0  0  0  0  0  0  0  0  0
   52.9180   89.9520   16.8800 N   0  0  0  0  0  0  0  0  0  0  0  0
   51.8840   89.2830   16.7830 O   0  0  0  0  0  0  0  0  0  0  0  0
   53.5380   90.4100   15.7580 O   0  0  0  0  0  0  0  0  0  0  0  0
   55.5570   93.9200   24.4570 C   0  0  0  0  0  0  0  0  0  0  0  0
   56.6910   94.6980   24.4910 C   0  0  0  0  0  0  0  0  0  0  0  0
   56.8020   95.8350   25.2620 C   0  0  0  0  0  0  0  0  0  0  0  0
   55.7410   96.2300   26.0460 C   0  0  0  0  0  0  0  0  0  0  0  0
   54.5840   95.4710   26.0380 C   0  0  0  0  0  0  0  0  0  0  0  0
   54.4980   94.3370   25.2560 C   0  0  0  0  0  0  0  0  0  0  0  0
   55.8590   97.8020   27.1300 B   0  0  0  0  0  0  0  0  0  0  0  0
   54.8370   88.6520   25.1490 C   0  0  0  0  0  0  0  0  0  0  0  0
   56.9440   88.1930   24.7770 H   0  0  0  0  0  0  0  0  0  0  0  0
   57.0520   89.1400   22.6800 H   0  0  0  0  0  0  0  0  0  0  0  0
   55.2940   88.6340   22.7170 H   0  0  0  0  0  0  0  0  0  0  0  0
   54.4380   93.5560   21.9030 H   0  0  0  0  0  0  0  0  0  0  0  0
   53.1880   92.6410   20.5270 H   0  0  0  0  0  0  0  0  0  0  0  0
   52.3180   92.0290   18.3510 H   0  0  0  0  0  0  0  0  0  0  0  0
   54.7650   88.5580   18.2810 H   0  0  0  0  0  0  0  0  0  0  0  0
   55.6530   89.1790   20.4260 H   0  0  0  0  0  0  0  0  0  0  0  0
   57.5380   94.3850   23.8660 H   0  0  0  0  0  0  0  0  0  0  0  0
   57.7300   96.3870   25.2270 H   0  0  0  0  0  0  0  0  0  0  0  0
   53.7330   95.7710   26.6540 H   0  0  0  0  0  0  0  0  0  0  0  0
   53.6110   93.7100   25.2170 H   0  0  0  0  0  0  0  0  0  0  0  0
   54.8600   88.3440   26.1980 H   0  0  0  0  0  0  0  0  0  0  0  0
   54.2150   89.5680   25.0340 H   0  0  0  0  0  0  0  0  0  0  0  0
   54.4170   87.8350   24.5350 H   0  0  0  0  0  0  0  0  0  0  0  0
  2 26  1  1  0  0  0
  2 25  1  0  0  0  0
  2  1  1  0  0  0  0
  3  2  1  0  0  0  0
  4  3  1  0  0  0  0
  4  5  1  0  0  0  0
  5  1  1  6  0  0  0
  6  5  1  0  0  0  0
  6 18  1  0  0  0  0
  7  6  1  0  0  0  0
  8  7  2  0  0  0  0
  8  4  1  0  0  0  0
  9  8  1  0  0  0  0
 10 30  1  0  0  0  0
 10  9  1  0  0  0  0
 11 10  2  0  0  0  0
 12 13  2  0  0  0  0
 12 11  1  0  0  0  0
 13 14  1  0  0  0  0
 14 33  1  0  0  0  0
 14  9  2  0  0  0  0
 15 12  1  0  0  0  0
 16 15  2  0  0  0  0
 17 15  2  0  0  0  0
 18 19  2  0  0  0  0
 18 23  1  0  0  0  0
 19 20  1  0  0  0  0
 20 21  2  0  0  0  0
 21 24  1  0  0  0  0
 22 21  1  0  0  0  0
 22 36  1  0  0  0  0
 23 22  2  0  0  0  0
 25 38  1  0  0  0  0
 27  3  1  0  0  0  0
 28  3  1  0  0  0  0
 29  7  1  0  0  0  0
 31 11  1  0  0  0  0
 32 13  1  0  0  0  0
 34 19  1  0  0  0  0
 35 20  1  0  0  0  0
 37 23  1  0  0  0  0
 39 25  1  0  0  0  0
 40 25  1  0  0  0  0
M  END
>  <Pose>
1

>  <Score>
-5.85

$$$$
