
 OpenBabel03202210083D

 42 45  0  0  1  0  0  0  0  0999 V2000
   53.0440   83.0420   23.2550 S   0  0  0  0  0  0  0  0  0  0  0  0
   51.4640   82.2140   23.5920 C   0  0  0  0  0  0  0  0  0  0  0  0
   50.4780   82.6840   22.5370 C   0  0  0  0  0  0  0  0  0  0  0  0
   51.1290   82.6670   21.1700 C   0  0  0  0  0  0  0  0  0  0  0  0
   51.8310   83.9320   21.0270 N   0  0  0  0  0  0  0  0  0  0  0  0
   52.7550   84.2210   21.9470 C   0  0  2  0  0  0  0  0  0  0  0  0
   53.3080   85.4480   21.6480 N   0  0  0  0  0  0  0  0  0  0  0  0
   52.7340   85.9200   20.5530 C   0  0  0  0  0  0  0  0  0  0  0  0
   51.8070   84.9510   20.1760 C   0  0  0  0  0  0  0  0  0  0  0  0
   52.9470   87.1580   19.8220 C   0  0  0  0  0  0  0  0  0  0  0  0
   52.0310   87.5350   18.8290 C   0  0  0  0  0  0  0  0  0  0  0  0
   52.1790   88.6870   18.1090 C   0  0  0  0  0  0  0  0  0  0  0  0
   53.2270   89.5580   18.2990 C   0  0  0  0  0  0  0  0  0  0  0  0
   54.1290   89.1990   19.2670 C   0  0  0  0  0  0  0  0  0  0  0  0
   53.9970   88.0210   20.0180 C   0  0  0  0  0  0  0  0  0  0  0  0
   53.3430   90.7190   17.5480 O   0  0  0  0  0  0  0  0  0  0  0  0
   54.4920   90.9430   16.7520 C   0  0  0  0  0  0  0  0  0  0  0  0
   54.3300   86.0300   22.4530 C   0  0  0  0  0  0  0  0  0  0  0  0
   54.1050   86.3170   23.7880 C   0  0  0  0  0  0  0  0  0  0  0  0
   55.0830   86.8520   24.6020 C   0  0  0  0  0  0  0  0  0  0  0  0
   56.3220   87.1040   24.0480 C   0  0  0  0  0  0  0  0  0  0  0  0
   56.5370   86.8160   22.7170 C   0  0  0  0  0  0  0  0  0  0  0  0
   55.5760   86.2820   21.8870 C   0  0  0  0  0  0  0  0  0  0  0  0
   57.7450   87.8490   25.1010 B   0  0  0  0  0  0  0  0  0  0  0  0
   51.5800   81.1190   23.5000 H   0  0  0  0  0  0  0  0  0  0  0  0
   51.1520   82.5230   24.6050 H   0  0  0  0  0  0  0  0  0  0  0  0
   49.5530   82.0710   22.5590 H   0  0  0  0  0  0  0  0  0  0  0  0
   50.1810   83.7220   22.8060 H   0  0  0  0  0  0  0  0  0  0  0  0
   51.9330   81.8770   21.2090 H   0  0  0  0  0  0  0  0  0  0  0  0
   50.4140   82.4880   20.3620 H   0  0  0  0  0  0  0  0  0  0  0  0
   51.1330   84.9640   19.3250 H   0  0  0  0  0  0  0  0  0  0  0  0
   51.1910   86.8850   18.6430 H   0  0  0  0  0  0  0  0  0  0  0  0
   51.4530   88.9760   17.3300 H   0  0  0  0  0  0  0  0  0  0  0  0
   54.9750   89.8330   19.4690 H   0  0  0  0  0  0  0  0  0  0  0  0
   54.7330   87.7950   20.7590 H   0  0  0  0  0  0  0  0  0  0  0  0
   54.4360   91.8650   16.1750 H   0  0  0  0  0  0  0  0  0  0  0  0
   54.6440   90.0440   16.0840 H   0  0  0  0  0  0  0  0  0  0  0  0
   55.3770   90.9760   17.4040 H   0  0  0  0  0  0  0  0  0  0  0  0
   53.1440   86.1320   24.2630 H   0  0  0  0  0  0  0  0  0  0  0  0
   54.9270   87.0820   25.6460 H   0  0  0  0  0  0  0  0  0  0  0  0
   57.5130   87.0060   22.2480 H   0  0  0  0  0  0  0  0  0  0  0  0
   55.7620   86.0610   20.8430 H   0  0  0  0  0  0  0  0  0  0  0  0
  1  2  1  0  0  0  0
  2 26  1  0  0  0  0
  3 27  1  0  0  0  0
  3 28  1  0  0  0  0
  3  2  1  0  0  0  0
  4 29  1  0  0  0  0
  4  3  1  0  0  0  0
  5  4  1  0  0  0  0
  5  6  1  0  0  0  0
  6  1  1  6  0  0  0
  7  6  1  0  0  0  0
  7 18  1  0  0  0  0
  8  7  1  0  0  0  0
  9  8  2  0  0  0  0
  9  5  1  0  0  0  0
 10 15  1  0  0  0  0
 10  8  1  0  0  0  0
 11 10  2  0  0  0  0
 12 13  2  0  0  0  0
 12 11  1  0  0  0  0
 13 14  1  0  0  0  0
 14 34  1  0  0  0  0
 14 15  2  0  0  0  0
 15 35  1  0  0  0  0
 16 13  1  0  0  0  0
 17 38  1  0  0  0  0
 17 16  1  0  0  0  0
 18 19  1  0  0  0  0
 19 39  1  0  0  0  0
 19 20  2  0  0  0  0
 20 40  1  0  0  0  0
 21 20  1  0  0  0  0
 21 24  1  0  0  0  0
 22 21  2  0  0  0  0
 23 18  2  0  0  0  0
 23 22  1  0  0  0  0
 25  2  1  0  0  0  0
 30  4  1  0  0  0  0
 31  9  1  0  0  0  0
 32 11  1  0  0  0  0
 33 12  1  0  0  0  0
 36 17  1  0  0  0  0
 37 17  1  0  0  0  0
 41 22  1  0  0  0  0
 42 23  1  0  0  0  0
M  END
>  <Pose>
1

>  <Score>
-5.46

$$$$
