
 OpenBabel03202210083D

 45 48  0  0  1  0  0  0  0  0999 V2000
   56.0250   89.4950   24.8370 S   0  0  0  0  0  0  0  0  0  0  0  0
   57.3670   89.6490   26.0810 C   0  0  0  0  0  0  0  0  0  0  0  0
   58.5750   88.9830   25.4190 C   0  0  0  0  0  0  0  0  0  0  0  0
   58.2690   87.4940   25.2910 C   0  0  0  0  0  0  0  0  0  0  0  0
   57.5010   87.3170   24.0840 N   0  0  1  0  0  0  0  0  0  0  0  0
   56.5150   88.1260   23.7950 C   0  0  2  0  0  0  0  0  0  0  0  0
   55.9650   87.6960   22.5220 N   0  0  0  0  0  0  0  0  0  0  0  0
   56.0910   86.2580   22.6280 C   0  0  2  0  0  0  0  0  0  0  0  0
   57.6180   86.3360   23.0010 C   0  0  0  0  0  0  0  0  0  0  0  0
   55.8900   85.5560   21.4820 O   0  0  0  0  0  0  0  0  0  0  0  0
   55.3590   85.7830   23.8080 C   0  0  0  0  0  0  0  0  0  0  0  0
   54.1320   86.2960   24.1920 C   0  0  0  0  0  0  0  0  0  0  0  0
   53.5090   85.8130   25.3530 C   0  0  0  0  0  0  0  0  0  0  0  0
   54.0590   84.8600   26.1230 C   0  0  0  0  0  0  0  0  0  0  0  0
   55.3070   84.3130   25.7590 C   0  0  0  0  0  0  0  0  0  0  0  0
   55.8890   84.8160   24.6080 C   0  0  0  0  0  0  0  0  0  0  0  0
   53.4620   84.3460   27.3040 O   0  0  0  0  0  0  0  0  0  0  0  0
   54.0490   84.5940   28.5650 C   0  0  0  0  0  0  0  0  0  0  0  0
   55.5190   88.5190   21.4680 C   0  0  0  0  0  0  0  0  0  0  0  0
   54.4210   88.0640   20.6980 C   0  0  0  0  0  0  0  0  0  0  0  0
   53.9470   88.7780   19.6110 C   0  0  0  0  0  0  0  0  0  0  0  0
   54.5270   89.9580   19.2340 C   0  0  0  0  0  0  0  0  0  0  0  0
   55.5990   90.4270   19.9640 C   0  0  0  0  0  0  0  0  0  0  0  0
   56.0740   89.6970   21.0700 C   0  0  0  0  0  0  0  0  0  0  0  0
   53.9220   90.9670   17.7290 B   0  0  0  0  0  0  0  0  0  0  0  0
   57.5570   90.7310   26.1920 H   0  0  0  0  0  0  0  0  0  0  0  0
   57.0960   89.1400   27.0150 H   0  0  0  0  0  0  0  0  0  0  0  0
   59.5000   89.1950   25.9560 H   0  0  0  0  0  0  0  0  0  0  0  0
   58.6380   89.4420   24.3900 H   0  0  0  0  0  0  0  0  0  0  0  0
   59.2320   86.9390   25.2170 H   0  0  0  0  0  0  0  0  0  0  0  0
   57.7540   87.0810   26.1670 H   0  0  0  0  0  0  0  0  0  0  0  0
   58.0240   85.3900   23.2770 H   0  0  0  0  0  0  0  0  0  0  0  0
   58.0680   86.8430   22.1230 H   0  0  0  0  0  0  0  0  0  0  0  0
   55.7820   86.2090   20.7240 H   0  0  0  0  0  0  0  0  0  0  0  0
   53.6660   87.0580   23.6070 H   0  0  0  0  0  0  0  0  0  0  0  0
   52.5500   86.2460   25.6120 H   0  0  0  0  0  0  0  0  0  0  0  0
   55.7590   83.5590   26.3620 H   0  0  0  0  0  0  0  0  0  0  0  0
   56.8420   84.3680   24.3570 H   0  0  0  0  0  0  0  0  0  0  0  0
   53.2820   84.4130   29.3370 H   0  0  0  0  0  0  0  0  0  0  0  0
   54.3940   85.6370   28.7020 H   0  0  0  0  0  0  0  0  0  0  0  0
   54.9350   83.9200   28.7480 H   0  0  0  0  0  0  0  0  0  0  0  0
   53.9440   87.1450   20.9610 H   0  0  0  0  0  0  0  0  0  0  0  0
   53.1020   88.4130   19.0270 H   0  0  0  0  0  0  0  0  0  0  0  0
   56.0720   91.3480   19.6790 H   0  0  0  0  0  0  0  0  0  0  0  0
   56.9260   90.0870   21.6240 H   0  0  0  0  0  0  0  0  0  0  0  0
  1  2  1  0  0  0  0
  2 26  1  0  0  0  0
  2 27  1  0  0  0  0
  3 28  1  0  0  0  0
  3  2  1  0  0  0  0
  4  3  1  0  0  0  0
  4 31  1  0  0  0  0
  5  9  1  6  0  0  0
  5  4  1  0  0  0  0
  6  5  1  0  0  0  0
  6  1  1  6  0  0  0
  7  8  1  0  0  0  0
  7  6  1  0  0  0  0
  8 10  1  6  0  0  0
  8  9  1  0  0  0  0
  8 11  1  0  0  0  0
  9 32  1  0  0  0  0
 11 12  2  0  0  0  0
 11 16  1  0  0  0  0
 12 13  1  0  0  0  0
 13 36  1  0  0  0  0
 13 14  2  0  0  0  0
 14 17  1  0  0  0  0
 15 14  1  0  0  0  0
 15 37  1  0  0  0  0
 16 15  2  0  0  0  0
 17 18  1  0  0  0  0
 18 40  1  0  0  0  0
 18 41  1  0  0  0  0
 18 39  1  0  0  0  0
 19  7  1  0  0  0  0
 20 42  1  0  0  0  0
 20 19  2  0  0  0  0
 21 20  1  0  0  0  0
 22 21  2  0  0  0  0
 22 23  1  0  0  0  0
 23 24  2  0  0  0  0
 24 19  1  0  0  0  0
 24 45  1  0  0  0  0
 25 22  1  0  0  0  0
 29  3  1  0  0  0  0
 30  4  1  0  0  0  0
 33  9  1  0  0  0  0
 34 10  1  0  0  0  0
 35 12  1  0  0  0  0
 38 16  1  0  0  0  0
 43 21  1  0  0  0  0
 44 23  1  0  0  0  0
M  END
>  <Pose>
1

>  <Score>
-4.94

$$$$
