
 OpenBabel03202210083D

 43 46  0  0  1  0  0  0  0  0999 V2000
   55.1600   88.8850   24.1040 S   0  0  0  0  0  0  0  0  0  0  0  0
   56.4600   87.5810   24.0880 C   0  0  0  0  0  0  0  0  0  0  0  0
   57.2530   87.6880   22.7970 C   0  0  0  0  0  0  0  0  0  0  0  0
   56.3380   87.8560   21.6120 C   0  0  0  0  0  0  0  0  0  0  0  0
   55.9360   89.2210   21.4980 N   0  0  2  0  0  0  0  0  0  0  0  0
   55.7730   90.1910   20.4310 C   0  0  1  0  0  0  0  0  0  0  0  0
   56.0180   91.5160   21.1320 C   0  0  0  0  0  0  0  0  0  0  0  0
   55.6020   91.1960   22.5120 N   0  0  0  0  0  0  0  0  0  0  0  0
   55.5710   89.9350   22.6900 C   0  0  1  0  0  0  0  0  0  0  0  0
   55.2990   92.1750   23.5020 C   0  0  0  0  0  0  0  0  0  0  0  0
   55.6710   92.1370   24.8130 C   0  0  0  0  0  0  0  0  0  0  0  0
   55.3560   93.1380   25.7220 C   0  0  0  0  0  0  0  0  0  0  0  0
   54.6320   94.2360   25.3040 C   0  0  0  0  0  0  0  0  0  0  0  0
   54.2350   94.3080   23.9740 C   0  0  0  0  0  0  0  0  0  0  0  0
   54.5620   93.2930   23.0830 C   0  0  0  0  0  0  0  0  0  0  0  0
   54.1440   95.6640   26.4810 B   0  0  0  0  0  0  0  0  0  0  0  0
   56.6520   89.9800   19.3870 O   0  0  0  0  0  0  0  0  0  0  0  0
   54.3850   90.2050   19.9100 C   0  0  0  0  0  0  0  0  0  0  0  0
   53.7060   89.0150   19.7350 C   0  0  0  0  0  0  0  0  0  0  0  0
   52.4030   89.0740   19.2430 C   0  0  0  0  0  0  0  0  0  0  0  0
   51.8150   90.2660   18.9440 C   0  0  0  0  0  0  0  0  0  0  0  0
   52.4820   91.4660   19.1140 C   0  0  0  0  0  0  0  0  0  0  0  0
   53.7900   91.3980   19.6090 C   0  0  0  0  0  0  0  0  0  0  0  0
   51.6980   87.8580   19.0610 N   0  0  0  0  0  0  0  0  0  0  0  0
   51.9330   87.0990   18.1010 O   0  0  0  0  0  0  0  0  0  0  0  0
   50.7260   87.4640   19.9370 O   0  0  0  0  0  0  0  0  0  0  0  0
   56.0150   86.5960   24.2270 H   0  0  0  0  0  0  0  0  0  0  0  0
   57.1630   87.7830   24.9140 H   0  0  0  0  0  0  0  0  0  0  0  0
   57.8190   86.7390   22.6590 H   0  0  0  0  0  0  0  0  0  0  0  0
   57.9700   88.5130   22.8150 H   0  0  0  0  0  0  0  0  0  0  0  0
   56.8170   87.4490   20.7060 H   0  0  0  0  0  0  0  0  0  0  0  0
   55.4030   87.2500   21.8070 H   0  0  0  0  0  0  0  0  0  0  0  0
   57.0690   91.8190   21.1000 H   0  0  0  0  0  0  0  0  0  0  0  0
   55.3640   92.3320   20.7530 H   0  0  0  0  0  0  0  0  0  0  0  0
   56.2310   91.2980   25.1870 H   0  0  0  0  0  0  0  0  0  0  0  0
   55.6600   93.0970   26.7610 H   0  0  0  0  0  0  0  0  0  0  0  0
   53.6700   95.1810   23.6650 H   0  0  0  0  0  0  0  0  0  0  0  0
   54.2390   93.3730   22.0470 H   0  0  0  0  0  0  0  0  0  0  0  0
   57.5330   90.3670   19.4880 H   0  0  0  0  0  0  0  0  0  0  0  0
   54.1720   88.0750   19.9720 H   0  0  0  0  0  0  0  0  0  0  0  0
   50.8050   90.3130   18.5620 H   0  0  0  0  0  0  0  0  0  0  0  0
   52.0030   92.3850   18.8790 H   0  0  0  0  0  0  0  0  0  0  0  0
   54.2920   92.3440   19.7330 H   0  0  0  0  0  0  0  0  0  0  0  0
  2  1  1  0  0  0  0
  2 27  1  0  0  0  0
  2 28  1  0  0  0  0
  3 30  1  0  0  0  0
  3  2  1  0  0  0  0
  4 32  1  0  0  0  0
  4  3  1  0  0  0  0
  5  4  1  1  0  0  0
  5  9  1  0  0  0  0
  6 17  1  6  0  0  0
  6  7  1  0  0  0  0
  6  5  1  0  0  0  0
  7  8  1  0  0  0  0
  8  9  1  0  0  0  0
  8 10  1  0  0  0  0
  9  1  1  6  0  0  0
 10 11  1  0  0  0  0
 11 35  1  0  0  0  0
 11 12  2  0  0  0  0
 12 36  1  0  0  0  0
 13 12  1  0  0  0  0
 13 16  1  0  0  0  0
 14 13  2  0  0  0  0
 15 10  2  0  0  0  0
 15 14  1  0  0  0  0
 17 39  1  0  0  0  0
 18  6  1  0  0  0  0
 19 18  1  0  0  0  0
 19 40  1  0  0  0  0
 20 19  2  0  0  0  0
 21 22  2  0  0  0  0
 21 20  1  0  0  0  0
 22 23  1  0  0  0  0
 23 43  1  0  0  0  0
 23 18  2  0  0  0  0
 24 20  1  0  0  0  0
 24 26  2  0  0  0  0
 25 24  2  0  0  0  0
 29  3  1  0  0  0  0
 31  4  1  0  0  0  0
 33  7  1  0  0  0  0
 34  7  1  0  0  0  0
 37 14  1  0  0  0  0
 38 15  1  0  0  0  0
 41 21  1  0  0  0  0
 42 22  1  0  0  0  0
M  END
>  <Pose>
1

>  <Score>
-6.08

$$$$
