
 OpenBabel03202210083D

 45 49  0  0  1  0  0  0  0  0999 V2000
   53.7680   83.6560   18.8070 S   0  0  0  0  0  0  0  0  0  0  0  0
   53.2690   82.7070   20.2350 C   0  0  0  0  0  0  0  0  0  0  0  0
   53.8260   81.6980   20.8200 N   0  0  0  0  0  0  0  0  0  0  0  0
   53.1980   81.1080   21.9820 C   0  0  0  0  0  0  0  0  0  0  0  0
   53.2850   79.9300   22.3240 O   0  0  0  0  0  0  0  0  0  0  0  0
   52.3600   82.0500   22.8450 C   0  0  2  0  0  0  0  0  0  0  0  0
   51.4370   82.6460   21.8280 C   0  0  0  0  0  0  0  0  0  0  0  0
   50.1770   82.6240   21.9380 O   0  0  0  0  0  0  0  0  0  0  0  0
   52.0490   83.2740   20.6640 N   0  0  0  0  0  0  0  0  0  0  0  0
   51.5840   84.3330   19.9330 N   0  0  0  0  0  0  0  0  0  0  0  0
   52.3600   84.7540   18.8310 C   0  0  0  0  0  0  0  0  0  0  0  0
   52.1260   85.7470   17.9770 C   0  0  0  0  0  0  0  0  0  0  0  0
   53.2780   83.0700   23.4550 C   0  0  1  0  0  0  0  0  0  0  0  0
   52.9170   84.4930   23.3000 C   0  0  2  0  0  0  0  0  0  0  0  0
   53.6600   85.2850   22.3320 C   0  0  0  0  0  0  0  0  0  0  0  0
   53.1440   85.5520   21.1940 O   0  0  0  0  0  0  0  0  0  0  0  0
   54.9880   85.7920   22.6230 N   0  0  0  0  0  0  0  0  0  0  0  0
   55.9630   86.1390   21.7430 N   0  0  0  0  0  0  0  0  0  0  0  0
   57.1830   86.6200   22.2800 C   0  0  0  0  0  0  0  0  0  0  0  0
   58.2710   87.0240   21.6610 C   0  0  0  0  0  0  0  0  0  0  0  0
   56.9490   86.5700   24.0550 S   0  0  0  0  0  0  0  0  0  0  0  0
   55.2820   85.9420   23.9940 C   0  0  0  0  0  0  0  0  0  0  0  0
   54.4580   85.6600   24.9400 N   0  0  0  0  0  0  0  0  0  0  0  0
   53.1440   85.1570   24.6470 C   0  0  0  0  0  0  0  0  0  0  0  0
   52.1790   85.2270   25.4210 O   0  0  0  0  0  0  0  0  0  0  0  0
   53.5540   82.7650   24.8880 C   0  0  0  0  0  0  0  0  0  0  0  0
   54.8420   82.6360   25.3550 C   0  0  0  0  0  0  0  0  0  0  0  0
   55.1020   82.3540   26.6760 C   0  0  0  0  0  0  0  0  0  0  0  0
   54.0550   82.1960   27.5560 C   0  0  0  0  0  0  0  0  0  0  0  0
   52.7330   82.3190   27.1230 C   0  0  0  0  0  0  0  0  0  0  0  0
   52.5140   82.6030   25.7910 C   0  0  0  0  0  0  0  0  0  0  0  0
   54.3840   81.8040   29.3990 B   0  0  0  0  0  0  0  0  0  0  0  0
   51.8200   81.4400   23.5610 H   0  0  0  0  0  0  0  0  0  0  0  0
   50.6600   84.8510   20.1460 H   0  0  0  0  0  0  0  0  0  0  0  0
   52.8400   85.9220   17.1890 H   0  0  0  0  0  0  0  0  0  0  0  0
   51.2680   86.3680   18.0430 H   0  0  0  0  0  0  0  0  0  0  0  0
   54.2770   82.9420   22.9220 H   0  0  0  0  0  0  0  0  0  0  0  0
   51.8280   84.6500   23.0700 H   0  0  0  0  0  0  0  0  0  0  0  0
   55.8790   86.0800   20.6700 H   0  0  0  0  0  0  0  0  0  0  0  0
   59.1070   87.3580   22.2380 H   0  0  0  0  0  0  0  0  0  0  0  0
   58.3390   87.0260   20.5920 H   0  0  0  0  0  0  0  0  0  0  0  0
   55.7030   82.7490   24.7100 H   0  0  0  0  0  0  0  0  0  0  0  0
   56.1070   82.2510   27.0480 H   0  0  0  0  0  0  0  0  0  0  0  0
   51.9020   82.1970   27.8130 H   0  0  0  0  0  0  0  0  0  0  0  0
   51.5080   82.7130   25.3800 H   0  0  0  0  0  0  0  0  0  0  0  0
  1 11  1  0  0  0  0
  1  2  1  0  0  0  0
  2  9  1  0  0  0  0
  2  3  2  0  0  0  0
  3  4  1  0  0  0  0
  4  5  2  0  0  0  0
  4  6  1  0  0  0  0
  6 13  1  0  0  0  0
  6 33  1  1  0  0  0
  7  8  2  0  0  0  0
  7  6  1  0  0  0  0
  9  7  1  0  0  0  0
 10 34  1  0  0  0  0
 10  9  1  0  0  0  0
 11 10  1  0  0  0  0
 12 36  1  0  0  0  0
 12 11  2  0  0  0  0
 13 37  1  6  0  0  0
 13 26  1  0  0  0  0
 14 38  1  6  0  0  0
 14 13  1  0  0  0  0
 14 24  1  0  0  0  0
 15 17  1  0  0  0  0
 15 14  1  0  0  0  0
 16 15  2  0  0  0  0
 17 22  1  0  0  0  0
 18 19  1  0  0  0  0
 18 17  1  0  0  0  0
 19 21  1  0  0  0  0
 20 40  1  0  0  0  0
 20 19  2  0  0  0  0
 22 21  1  0  0  0  0
 22 23  2  0  0  0  0
 24 23  1  0  0  0  0
 24 25  2  0  0  0  0
 26 27  2  0  0  0  0
 26 31  1  0  0  0  0
 27 28  1  0  0  0  0
 28 43  1  0  0  0  0
 28 29  2  0  0  0  0
 29 32  1  0  0  0  0
 30 29  1  0  0  0  0
 30 44  1  0  0  0  0
 31 30  2  0  0  0  0
 35 12  1  0  0  0  0
 39 18  1  0  0  0  0
 41 20  1  0  0  0  0
 42 27  1  0  0  0  0
 45 31  1  0  0  0  0
M  END
>  <Pose>
1

>  <Score>
-5.17

$$$$
