
 OpenBabel03202210083D

 43 46  0  0  1  0  0  0  0  0999 V2000
   55.0460   91.0670   17.3530 Cl  0  0  0  0  0  0  0  0  0  0  0  0
   53.8480   90.0630   18.1960 C   0  0  0  0  0  0  0  0  0  0  0  0
   54.2520   89.4560   19.3960 C   0  0  0  0  0  0  0  0  0  0  0  0
   53.3290   88.6880   20.0430 C   0  0  0  0  0  0  0  0  0  0  0  0
   52.0570   88.5300   19.5200 C   0  0  0  0  0  0  0  0  0  0  0  0
   51.6560   89.1280   18.3380 C   0  0  0  0  0  0  0  0  0  0  0  0
   52.5850   89.9140   17.6640 C   0  0  0  0  0  0  0  0  0  0  0  0
   55.6970   89.5940   19.7950 C   0  0  2  0  0  0  0  0  0  0  0  0
   55.9720   88.3980   20.5810 N   0  0  0  0  0  0  0  0  0  0  0  0
   56.2680   88.5230   21.9300 C   0  0  0  0  0  0  0  0  0  0  0  0
   55.7570   89.7260   22.6940 C   0  0  0  0  0  0  0  0  0  0  0  0
   55.5610   90.8570   21.8960 N   0  0  0  0  0  0  0  0  0  0  0  0
   55.9990   90.8150   20.5340 C   0  0  0  0  0  0  0  0  0  0  0  0
   54.9550   92.0750   22.3000 C   0  0  0  0  0  0  0  0  0  0  0  0
   53.9100   92.3690   21.5620 O   0  0  0  0  0  0  0  0  0  0  0  0
   55.2430   93.0140   23.3230 C   0  0  0  0  0  0  0  0  0  0  0  0
   56.5720   93.4980   23.4030 C   0  0  0  0  0  0  0  0  0  0  0  0
   56.9000   94.4780   24.2440 N   0  0  0  0  0  0  0  0  0  0  0  0
   55.9990   95.0460   25.0480 C   0  0  0  0  0  0  0  0  0  0  0  0
   54.6990   94.6210   25.0160 C   0  0  0  0  0  0  0  0  0  0  0  0
   54.3150   93.5990   24.1510 C   0  0  0  0  0  0  0  0  0  0  0  0
   53.7170   95.2470   25.8480 N   0  0  0  0  0  0  0  0  0  0  0  0
   54.1290   96.3160   26.7010 C   0  0  0  0  0  0  0  0  0  0  0  0
   53.3680   97.2060   27.1330 O   0  0  0  0  0  0  0  0  0  0  0  0
   55.5720   96.3550   27.0930 C   0  0  0  0  0  0  0  0  0  0  0  0
   56.3630   96.0720   25.9280 O   0  0  0  0  0  0  0  0  0  0  0  0
   53.5930   88.1590   20.9770 H   0  0  0  0  0  0  0  0  0  0  0  0
   51.3330   87.8960   20.0650 H   0  0  0  0  0  0  0  0  0  0  0  0
   50.6330   88.9770   17.9680 H   0  0  0  0  0  0  0  0  0  0  0  0
   52.3270   90.4090   16.7430 H   0  0  0  0  0  0  0  0  0  0  0  0
   56.2980   89.4840   18.8550 H   0  0  0  0  0  0  0  0  0  0  0  0
   55.2690   87.6600   20.3770 H   0  0  0  0  0  0  0  0  0  0  0  0
   55.8310   87.6110   22.4660 H   0  0  0  0  0  0  0  0  0  0  0  0
   57.3860   88.4300   22.1090 H   0  0  0  0  0  0  0  0  0  0  0  0
   56.7090   90.0630   23.3600 H   0  0  0  0  0  0  0  0  0  0  0  0
   55.0440   89.4440   23.4630 H   0  0  0  0  0  0  0  0  0  0  0  0
   55.6400   91.7450   20.0010 H   0  0  0  0  0  0  0  0  0  0  0  0
   57.1450   90.9750   20.5110 H   0  0  0  0  0  0  0  0  0  0  0  0
   57.3210   93.0450   22.7560 H   0  0  0  0  0  0  0  0  0  0  0  0
   53.3000   93.3560   24.1600 H   0  0  0  0  0  0  0  0  0  0  0  0
   52.7290   94.9520   25.8400 H   0  0  0  0  0  0  0  0  0  0  0  0
   55.8290   95.6120   27.8500 H   0  0  0  0  0  0  0  0  0  0  0  0
   55.8830   97.3550   27.4460 H   0  0  0  0  0  0  0  0  0  0  0  0
  1  2  1  0  0  0  0
  2  3  1  0  0  0  0
  3  8  1  0  0  0  0
  3  4  2  0  0  0  0
  4 27  1  0  0  0  0
  5  4  1  0  0  0  0
  5 28  1  0  0  0  0
  6  5  2  0  0  0  0
  7  2  2  0  0  0  0
  7  6  1  0  0  0  0
  8 31  1  6  0  0  0
  8 13  1  0  0  0  0
  8  9  1  0  0  0  0
  9 10  1  0  0  0  0
 10 34  1  0  0  0  0
 10 33  1  0  0  0  0
 10 11  1  0  0  0  0
 11 35  1  0  0  0  0
 11 36  1  0  0  0  0
 12 14  1  0  0  0  0
 12 11  1  0  0  0  0
 13 12  1  0  0  0  0
 14 16  1  0  0  0  0
 15 14  2  0  0  0  0
 16 17  2  0  0  0  0
 16 21  1  0  0  0  0
 17 18  1  0  0  0  0
 18 19  2  0  0  0  0
 19 26  1  0  0  0  0
 20 19  1  0  0  0  0
 20 22  1  0  0  0  0
 21 40  1  0  0  0  0
 21 20  2  0  0  0  0
 22 23  1  0  0  0  0
 23 25  1  0  0  0  0
 23 24  2  0  0  0  0
 25 43  1  0  0  0  0
 25 42  1  0  0  0  0
 26 25  1  0  0  0  0
 29  6  1  0  0  0  0
 30  7  1  0  0  0  0
 32  9  1  0  0  0  0
 37 13  1  0  0  0  0
 38 13  1  0  0  0  0
 39 17  1  0  0  0  0
 41 22  1  0  0  0  0
M  END
>  <Pose>
1

>  <Score>
-6.75

$$$$
