
 OpenBabel03202210083D

 63 66  0  0  1  0  0  0  0  0999 V2000
   55.6880   80.6900   31.4350 B   0  0  0  0  0  0  0  0  0  0  0  0
   53.8380   81.1690   31.6350 C   0  0  0  0  0  0  0  0  0  0  0  0
   53.2200   82.0050   30.6980 C   0  0  0  0  0  0  0  0  0  0  0  0
   51.8850   82.3660   30.8190 C   0  0  0  0  0  0  0  0  0  0  0  0
   51.2070   81.8660   31.8970 C   0  0  0  0  0  0  0  0  0  0  0  0
   51.8040   81.0360   32.8370 C   0  0  0  0  0  0  0  0  0  0  0  0
   53.1270   80.6860   32.7030 C   0  0  0  0  0  0  0  0  0  0  0  0
   51.2710   83.2650   29.8320 C   0  0  1  0  0  0  0  0  0  0  0  0
   50.8650   84.5060   30.4610 N   0  0  0  0  0  0  0  0  0  0  0  0
   52.0280   85.3070   30.5810 C   0  0  0  0  0  0  0  0  0  0  0  0
   52.2050   86.1910   31.4250 O   0  0  0  0  0  0  0  0  0  0  0  0
   52.9460   84.8710   29.5150 C   0  0  0  0  0  0  0  0  0  0  0  0
   54.0880   85.3210   29.2540 O   0  0  0  0  0  0  0  0  0  0  0  0
   52.2410   83.8010   28.8200 C   0  0  0  0  0  0  0  0  0  0  0  0
   52.4300   83.4490   27.5560 C   0  0  0  0  0  0  0  0  0  0  0  0
   51.5930   82.4110   27.0830 O   0  0  0  0  0  0  0  0  0  0  0  0
   53.4200   84.0610   26.6760 C   0  0  0  0  0  0  0  0  0  0  0  0
   54.7320   83.6940   26.6180 C   0  0  0  0  0  0  0  0  0  0  0  0
   55.6310   84.3720   25.7750 C   0  0  0  0  0  0  0  0  0  0  0  0
   55.2490   85.4180   24.9800 C   0  0  0  0  0  0  0  0  0  0  0  0
   53.9230   85.7900   25.0360 C   0  0  0  0  0  0  0  0  0  0  0  0
   53.0380   85.1360   25.8530 C   0  0  0  0  0  0  0  0  0  0  0  0
   56.1370   86.0930   24.1420 O   0  0  0  0  0  0  0  0  0  0  0  0
   57.3000   86.6860   24.6590 C   0  0  0  0  0  0  0  0  0  0  0  0
   55.2250   82.5410   27.4070 C   0  0  0  0  0  0  0  0  0  0  0  0
   49.5110   84.8070   30.8750 C   0  0  0  0  0  0  0  0  0  0  0  0
   48.4670   84.0700   30.0970 C   0  0  0  0  0  0  0  0  0  0  0  0
   48.2000   82.6780   30.5270 C   0  0  0  0  0  0  0  0  0  0  0  0
   46.8320   82.3400   30.7010 N   0  0  0  0  0  4  0  0  0  0  0  0
   46.4080   81.1710   29.9130 C   0  0  0  0  0  0  0  0  0  0  0  0
   44.8910   81.3120   29.7690 C   0  0  0  0  0  0  0  0  0  0  0  0
   44.3760   82.2760   30.6180 O   0  0  0  0  0  0  0  0  0  0  0  0
   44.8170   82.0760   31.9260 C   0  0  0  0  0  0  0  0  0  0  0  0
   46.3520   82.1400   32.0200 C   0  0  0  0  0  0  0  0  0  0  0  0
   53.8330   82.3420   29.8950 H   0  0  0  0  0  0  0  0  0  0  0  0
   50.1860   82.1290   32.0390 H   0  0  0  0  0  0  0  0  0  0  0  0
   51.2590   80.6480   33.6810 H   0  0  0  0  0  0  0  0  0  0  0  0
   53.6490   80.0360   33.4090 H   0  0  0  0  0  0  0  0  0  0  0  0
   50.4300   82.7150   29.3610 H   0  0  0  0  0  0  0  0  0  0  0  0
   56.6820   84.0620   25.7470 H   0  0  0  0  0  0  0  0  0  0  0  0
   53.6220   86.6270   24.3970 H   0  0  0  0  0  0  0  0  0  0  0  0
   52.0050   85.4420   25.8800 H   0  0  0  0  0  0  0  0  0  0  0  0
   57.0590   87.4810   25.4170 H   0  0  0  0  0  0  0  0  0  0  0  0
   57.8870   87.1920   23.8870 H   0  0  0  0  0  0  0  0  0  0  0  0
   57.9690   85.9780   25.1950 H   0  0  0  0  0  0  0  0  0  0  0  0
   54.7540   82.4170   28.3880 H   0  0  0  0  0  0  0  0  0  0  0  0
   56.3270   82.6780   27.6290 H   0  0  0  0  0  0  0  0  0  0  0  0
   55.2020   81.5970   26.7900 H   0  0  0  0  0  0  0  0  0  0  0  0
   49.4180   84.4830   31.9400 H   0  0  0  0  0  0  0  0  0  0  0  0
   49.2860   85.8900   30.8780 H   0  0  0  0  0  0  0  0  0  0  0  0
   47.5510   84.7270   30.1250 H   0  0  0  0  0  0  0  0  0  0  0  0
   48.7670   84.0840   29.0040 H   0  0  0  0  0  0  0  0  0  0  0  0
   48.7040   82.5350   31.5160 H   0  0  0  0  0  0  0  0  0  0  0  0
   48.7040   81.9850   29.8190 H   0  0  0  0  0  0  0  0  0  0  0  0
   46.2650   83.1440   30.2930 H   0  0  0  0  0  0  0  0  0  0  0  0
   46.9000   81.1160   28.9390 H   0  0  0  0  0  0  0  0  0  0  0  0
   46.6730   80.2710   30.5170 H   0  0  0  0  0  0  0  0  0  0  0  0
   44.6580   81.6660   28.7230 H   0  0  0  0  0  0  0  0  0  0  0  0
   44.4140   80.3300   29.8480 H   0  0  0  0  0  0  0  0  0  0  0  0
   44.4230   81.0890   32.2470 H   0  0  0  0  0  0  0  0  0  0  0  0
   44.3370   82.8230   32.5970 H   0  0  0  0  0  0  0  0  0  0  0  0
   46.6610   81.1820   32.4790 H   0  0  0  0  0  0  0  0  0  0  0  0
   46.5760   83.0090   32.6630 H   0  0  0  0  0  0  0  0  0  0  0  0
  1  2  1  0  0  0  0
  2  7  1  0  0  0  0
  3  4  1  0  0  0  0
  3  2  2  0  0  0  0
  4  5  2  0  0  0  0
  5 36  1  0  0  0  0
  5  6  1  0  0  0  0
  6 37  1  0  0  0  0
  7  6  2  0  0  0  0
  7 38  1  0  0  0  0
  8 39  1  6  0  0  0
  8  9  1  0  0  0  0
  8  4  1  0  0  0  0
  9 10  1  0  0  0  0
  9 26  1  0  0  0  0
 10 11  2  0  0  0  0
 12 10  1  0  0  0  0
 13 12  2  0  0  0  0
 14 12  1  0  0  0  0
 14  8  1  0  0  0  0
 15 14  2  0  0  0  0
 16 15  1  0  0  0  0
 17 15  1  0  0  0  0
 18 17  1  0  0  0  0
 18 25  1  0  0  0  0
 19 18  2  0  0  0  0
 20 21  2  0  0  0  0
 20 19  1  0  0  0  0
 21 22  1  0  0  0  0
 22 42  1  0  0  0  0
 22 17  2  0  0  0  0
 23 24  1  0  0  0  0
 23 20  1  0  0  0  0
 24 45  1  0  0  0  0
 24 43  1  0  0  0  0
 25 47  1  0  0  0  0
 25 46  1  0  0  0  0
 26 50  1  0  0  0  0
 26 49  1  0  0  0  0
 27 51  1  0  0  0  0
 27 28  1  0  0  0  0
 27 26  1  0  0  0  0
 28 29  1  0  0  0  0
 28 53  1  0  0  0  0
 29 34  1  0  0  0  0
 30 57  1  0  0  0  0
 30 29  1  0  0  0  0
 31 59  1  0  0  0  0
 31 30  1  0  0  0  0
 31 32  1  0  0  0  0
 32 33  1  0  0  0  0
 33 34  1  0  0  0  0
 33 60  1  0  0  0  0
 33 61  1  0  0  0  0
 34 62  1  0  0  0  0
 34 63  1  0  0  0  0
 35  3  1  0  0  0  0
 40 19  1  0  0  0  0
 41 21  1  0  0  0  0
 44 24  1  0  0  0  0
 48 25  1  0  0  0  0
 52 27  1  0  0  0  0
 54 28  1  0  0  0  0
 55 29  1  0  0  0  0
 56 30  1  0  0  0  0
 58 31  1  0  0  0  0
M  END
>  <Pose>
1

>  <Score>
-6.00

$$$$
