
 OpenBabel03202210083D

 48 51  0  0  1  0  0  0  0  0999 V2000
   57.8390   97.7690   25.1040 B   0  0  0  0  0  0  0  0  0  0  0  0
   56.3380   96.6520   25.5050 C   0  0  0  0  0  0  0  0  0  0  0  0
   56.1120   95.5160   24.7770 C   0  0  0  0  0  0  0  0  0  0  0  0
   55.0250   94.6990   25.0610 C   0  0  0  0  0  0  0  0  0  0  0  0
   54.1980   95.0630   26.0780 C   0  0  0  0  0  0  0  0  0  0  0  0
   54.4360   96.2160   26.8090 C   0  0  0  0  0  0  0  0  0  0  0  0
   55.5120   97.0220   26.5270 C   0  0  0  0  0  0  0  0  0  0  0  0
   54.7860   93.4960   24.2820 C   0  0  0  0  0  0  0  0  0  0  0  0
   53.7840   93.4800   23.4750 O   0  0  0  0  0  0  0  0  0  0  0  0
   55.6110   92.3580   24.3840 N   0  0  0  0  0  0  0  0  0  0  0  0
   55.0460   91.0820   23.9820 C   0  0  2  0  0  0  0  0  0  0  0  0
   55.7090   89.9280   24.7090 C   0  0  0  0  0  0  0  0  0  0  0  0
   55.4870   88.8110   23.8110 N   0  0  0  0  0  0  0  0  0  0  0  0
   54.9410   89.2610   22.5470 C   0  0  1  0  0  0  0  0  0  0  0  0
   55.3350   90.7440   22.5470 C   0  0  0  0  0  0  0  0  0  0  0  0
   55.5960   88.5250   21.4670 C   0  0  0  0  0  0  0  0  0  0  0  0
   56.1340   89.1110   20.5160 O   0  0  0  0  0  0  0  0  0  0  0  0
   55.5990   87.1080   21.5370 N   0  0  0  0  0  0  0  0  0  0  0  0
   55.5230   86.4590   22.8270 C   0  0  1  0  0  0  0  0  0  0  0  0
   55.7060   87.4000   23.9550 C   0  0  0  0  0  0  0  0  0  0  0  0
   56.0660   86.9630   25.0790 O   0  0  0  0  0  0  0  0  0  0  0  0
   54.2720   85.6220   22.9820 C   0  0  0  0  0  0  0  0  0  0  0  0
   53.6210   85.3060   21.7000 C   0  0  0  0  0  0  0  0  0  0  0  0
   53.1000   86.3260   20.9230 C   0  0  0  0  0  0  0  0  0  0  0  0
   52.4910   86.0390   19.7240 C   0  0  0  0  0  0  0  0  0  0  0  0
   52.3660   84.7500   19.2400 C   0  0  0  0  0  0  0  0  0  0  0  0
   52.8840   83.7320   20.0120 C   0  0  0  0  0  0  0  0  0  0  0  0
   53.4990   84.0010   21.2190 C   0  0  0  0  0  0  0  0  0  0  0  0
   56.7580   95.1990   23.9550 H   0  0  0  0  0  0  0  0  0  0  0  0
   53.3330   94.4420   26.3230 H   0  0  0  0  0  0  0  0  0  0  0  0
   53.7820   96.5060   27.6160 H   0  0  0  0  0  0  0  0  0  0  0  0
   55.7240   97.9350   27.0840 H   0  0  0  0  0  0  0  0  0  0  0  0
   56.5760   92.4550   24.7290 H   0  0  0  0  0  0  0  0  0  0  0  0
   53.9770   91.0130   24.1680 H   0  0  0  0  0  0  0  0  0  0  0  0
   56.8030   90.0800   24.8360 H   0  0  0  0  0  0  0  0  0  0  0  0
   55.2460   89.7480   25.7030 H   0  0  0  0  0  0  0  0  0  0  0  0
   53.8360   89.1630   22.4960 H   0  0  0  0  0  0  0  0  0  0  0  0
   54.6580   91.2320   21.8290 H   0  0  0  0  0  0  0  0  0  0  0  0
   56.3970   90.7960   22.2840 H   0  0  0  0  0  0  0  0  0  0  0  0
   55.6570   86.5040   20.6870 H   0  0  0  0  0  0  0  0  0  0  0  0
   56.3730   85.7130   22.8290 H   0  0  0  0  0  0  0  0  0  0  0  0
   54.5380   84.7010   23.5340 H   0  0  0  0  0  0  0  0  0  0  0  0
   53.5620   86.2100   23.5850 H   0  0  0  0  0  0  0  0  0  0  0  0
   53.1470   87.3690   21.2140 H   0  0  0  0  0  0  0  0  0  0  0  0
   52.0820   86.8310   19.1120 H   0  0  0  0  0  0  0  0  0  0  0  0
   51.8750   84.5640   18.2820 H   0  0  0  0  0  0  0  0  0  0  0  0
   52.7850   82.7140   19.6290 H   0  0  0  0  0  0  0  0  0  0  0  0
   53.8940   83.1770   21.8000 H   0  0  0  0  0  0  0  0  0  0  0  0
  1  2  1  0  0  0  0
  2  7  1  0  0  0  0
  3  4  1  0  0  0  0
  3  2  2  0  0  0  0
  4  5  2  0  0  0  0
  5 30  1  0  0  0  0
  5  6  1  0  0  0  0
  6 31  1  0  0  0  0
  7  6  2  0  0  0  0
  7 32  1  0  0  0  0
  8 10  1  0  0  0  0
  8  4  1  0  0  0  0
  9  8  2  0  0  0  0
 10 33  1  0  0  0  0
 11 34  1  1  0  0  0
 11 10  1  0  0  0  0
 11 12  1  0  0  0  0
 12 35  1  0  0  0  0
 12 36  1  0  0  0  0
 13 20  1  0  0  0  0
 13 12  1  0  0  0  0
 14 37  1  6  0  0  0
 14 15  1  0  0  0  0
 14 13  1  0  0  0  0
 15 11  1  0  0  0  0
 16 18  1  0  0  0  0
 16 14  1  0  0  0  0
 17 16  2  0  0  0  0
 18 19  1  0  0  0  0
 19 41  1  1  0  0  0
 19 22  1  0  0  0  0
 19 20  1  0  0  0  0
 20 21  2  0  0  0  0
 22 42  1  0  0  0  0
 22 43  1  0  0  0  0
 23 22  1  0  0  0  0
 24 44  1  0  0  0  0
 24 23  2  0  0  0  0
 25 24  1  0  0  0  0
 26 25  2  0  0  0  0
 26 27  1  0  0  0  0
 27 28  2  0  0  0  0
 28 23  1  0  0  0  0
 28 48  1  0  0  0  0
 29  3  1  0  0  0  0
 38 15  1  0  0  0  0
 39 15  1  0  0  0  0
 40 18  1  0  0  0  0
 45 25  1  0  0  0  0
 46 26  1  0  0  0  0
 47 27  1  0  0  0  0
M  END
>  <Pose>
1

>  <Score>
-6.78

$$$$
