
 OpenBabel03202210083D

 60 63  0  0  1  0  0  0  0  0999 V2000
   53.9100   83.1280   15.1460 B   0  0  0  0  0  0  0  0  0  0  0  0
   53.6990   82.9670   17.0380 C   0  0  0  0  0  0  0  0  0  0  0  0
   52.9710   83.8890   17.7220 C   0  0  0  0  0  0  0  0  0  0  0  0
   52.8080   83.7850   19.1060 C   0  0  0  0  0  0  0  0  0  0  0  0
   53.4080   82.7230   19.7480 C   0  0  0  0  0  0  0  0  0  0  0  0
   54.1520   81.7810   19.0490 C   0  0  0  0  0  0  0  0  0  0  0  0
   54.2930   81.9120   17.6880 C   0  0  0  0  0  0  0  0  0  0  0  0
   52.0100   84.8180   19.7810 C   0  0  1  0  0  0  0  0  0  0  0  0
   51.8650   84.6310   21.2120 N   0  0  0  0  0  0  0  0  0  0  0  0
   53.0600   85.1320   21.8490 C   0  0  0  0  0  0  0  0  0  0  0  0
   53.5220   84.8150   22.9510 O   0  0  0  0  0  0  0  0  0  0  0  0
   53.6050   86.0990   20.9010 C   0  0  0  0  0  0  0  0  0  0  0  0
   54.6540   86.8020   21.0070 O   0  0  0  0  0  0  0  0  0  0  0  0
   52.7250   86.1440   19.7450 C   0  0  0  0  0  0  0  0  0  0  0  0
   52.6040   87.0990   18.8370 C   0  0  0  0  0  0  0  0  0  0  0  0
   51.7050   86.8710   17.7570 O   0  0  0  0  0  0  0  0  0  0  0  0
   53.3410   88.3350   18.9310 C   0  0  0  0  0  0  0  0  0  0  0  0
   52.8610   89.5960   18.9700 N   0  0  0  0  0  0  0  0  0  0  0  0
   53.9070   90.4490   19.0950 C   0  0  0  0  0  0  0  0  0  0  0  0
   55.0670   89.7360   19.1370 N   0  0  0  0  0  0  0  0  0  0  0  0
   54.7050   88.4360   19.0340 C   0  0  0  0  0  0  0  0  0  0  0  0
   55.6680   87.3000   19.0350 C   0  0  0  0  0  0  0  0  0  0  0  0
   53.7960   91.8140   19.1540 C   0  0  0  0  0  0  0  0  0  0  0  0
   52.5310   92.3550   19.0790 C   0  0  0  0  0  0  0  0  0  0  0  0
   51.4630   91.4910   18.9500 C   0  0  0  0  0  0  0  0  0  0  0  0
   51.6320   90.1330   18.8970 C   0  0  0  0  0  0  0  0  0  0  0  0
   54.9830   92.7060   19.2950 C   0  0  0  0  0  0  0  0  0  0  0  0
   50.7290   84.0410   21.9000 C   0  0  0  0  0  0  0  0  0  0  0  0
   50.8610   82.5790   22.1590 C   0  0  0  0  0  0  0  0  0  0  0  0
   49.8450   82.0130   23.1190 C   0  0  0  0  0  0  0  0  0  0  0  0
   49.8220   82.8030   24.3270 N   0  0  0  0  0  4  0  0  0  0  0  0
   49.0770   82.1180   25.3680 C   0  0  0  0  0  0  0  0  0  0  0  0
   51.1810   82.9380   24.8120 C   0  0  0  0  0  0  0  0  0  0  0  0
   52.5220   84.7050   17.1550 H   0  0  0  0  0  0  0  0  0  0  0  0
   53.3050   82.6090   20.8320 H   0  0  0  0  0  0  0  0  0  0  0  0
   54.6220   80.9440   19.5690 H   0  0  0  0  0  0  0  0  0  0  0  0
   54.8740   81.1800   17.1290 H   0  0  0  0  0  0  0  0  0  0  0  0
   51.0230   84.9010   19.2770 H   0  0  0  0  0  0  0  0  0  0  0  0
   55.6650   86.7830   18.0630 H   0  0  0  0  0  0  0  0  0  0  0  0
   55.4270   86.5760   19.8380 H   0  0  0  0  0  0  0  0  0  0  0  0
   56.6940   87.6510   19.2140 H   0  0  0  0  0  0  0  0  0  0  0  0
   52.3910   93.4410   19.1220 H   0  0  0  0  0  0  0  0  0  0  0  0
   50.4480   91.9320   18.8900 H   0  0  0  0  0  0  0  0  0  0  0  0
   50.7850   89.4620   18.7920 H   0  0  0  0  0  0  0  0  0  0  0  0
   55.9040   92.1090   19.2550 H   0  0  0  0  0  0  0  0  0  0  0  0
   54.9090   93.3090   20.2330 H   0  0  0  0  0  0  0  0  0  0  0  0
   54.9690   93.3680   18.3890 H   0  0  0  0  0  0  0  0  0  0  0  0
   49.8430   84.1970   21.2540 H   0  0  0  0  0  0  0  0  0  0  0  0
   50.5160   84.5750   22.8480 H   0  0  0  0  0  0  0  0  0  0  0  0
   51.8840   82.3030   22.5130 H   0  0  0  0  0  0  0  0  0  0  0  0
   50.7310   82.0220   21.2050 H   0  0  0  0  0  0  0  0  0  0  0  0
   48.8160   82.0380   22.7050 H   0  0  0  0  0  0  0  0  0  0  0  0
   50.0840   80.9790   23.3790 H   0  0  0  0  0  0  0  0  0  0  0  0
   49.4710   83.7720   24.1660 H   0  0  0  0  0  0  0  0  0  0  0  0
   49.4400   82.4370   26.3860 H   0  0  0  0  0  0  0  0  0  0  0  0
   49.3950   81.0360   25.3030 H   0  0  0  0  0  0  0  0  0  0  0  0
   47.9930   82.1990   25.2640 H   0  0  0  0  0  0  0  0  0  0  0  0
   51.2130   83.5750   25.7340 H   0  0  0  0  0  0  0  0  0  0  0  0
   51.8650   83.3270   24.0300 H   0  0  0  0  0  0  0  0  0  0  0  0
   51.5280   81.9230   25.0950 H   0  0  0  0  0  0  0  0  0  0  0  0
  1  2  1  0  0  0  0
  2  7  2  0  0  0  0
  2  3  1  0  0  0  0
  3  4  2  0  0  0  0
  4  5  1  0  0  0  0
  4  8  1  0  0  0  0
  5 35  1  0  0  0  0
  6 36  1  0  0  0  0
  6  5  2  0  0  0  0
  7  6  1  0  0  0  0
  8 38  1  6  0  0  0
  8  9  1  0  0  0  0
  9 10  1  0  0  0  0
  9 28  1  0  0  0  0
 10 11  2  0  0  0  0
 12 13  2  0  0  0  0
 12 10  1  0  0  0  0
 14  8  1  0  0  0  0
 14 12  1  0  0  0  0
 15 17  1  0  0  0  0
 15 14  2  0  0  0  0
 16 15  1  0  0  0  0
 17 18  1  0  0  0  0
 17 21  2  0  0  0  0
 18 19  1  0  0  0  0
 19 20  2  0  0  0  0
 19 23  1  0  0  0  0
 21 22  1  0  0  0  0
 21 20  1  0  0  0  0
 22 41  1  0  0  0  0
 22 40  1  0  0  0  0
 23 27  1  0  0  0  0
 24 42  1  0  0  0  0
 24 23  2  0  0  0  0
 25 24  1  0  0  0  0
 26 25  2  0  0  0  0
 26 18  1  0  0  0  0
 27 46  1  0  0  0  0
 28 29  1  0  0  0  0
 28 49  1  0  0  0  0
 29 50  1  0  0  0  0
 29 30  1  0  0  0  0
 30 53  1  0  0  0  0
 30 31  1  0  0  0  0
 31 33  1  0  0  0  0
 31 32  1  0  0  0  0
 32 55  1  0  0  0  0
 33 60  1  0  0  0  0
 33 58  1  0  0  0  0
 34  3  1  0  0  0  0
 37  7  1  0  0  0  0
 39 22  1  0  0  0  0
 43 25  1  0  0  0  0
 44 26  1  0  0  0  0
 45 27  1  0  0  0  0
 47 27  1  0  0  0  0
 48 28  1  0  0  0  0
 51 29  1  0  0  0  0
 52 30  1  0  0  0  0
 54 31  1  0  0  0  0
 56 32  1  0  0  0  0
 57 32  1  0  0  0  0
 59 33  1  0  0  0  0
M  END
>  <Pose>
1

>  <Score>
-5.02

$$$$
