
 OpenBabel03202210083D

 31 34  0  0  1  0  0  0  0  0999 V2000
   53.9470   86.6380   20.6860 B   0  0  0  0  0  0  0  0  0  0  0  0
   54.4980   88.4090   20.2080 C   0  0  0  0  0  0  0  0  0  0  0  0
   55.3850   89.0300   21.0570 C   0  0  0  0  0  0  0  0  0  0  0  0
   55.7800   90.3210   20.7040 C   0  0  0  0  0  0  0  0  0  0  0  0
   55.2960   90.9190   19.5650 C   0  0  0  0  0  0  0  0  0  0  0  0
   54.4030   90.2930   18.7110 C   0  0  0  0  0  0  0  0  0  0  0  0
   54.0070   89.0150   19.0550 C   0  0  0  0  0  0  0  0  0  0  0  0
   53.9210   90.9370   17.5380 N   0  0  0  0  0  0  0  0  0  0  0  0
   52.9770   91.7380   17.6520 O   0  0  0  0  0  0  0  0  0  0  0  0
   54.4280   90.7340   16.2840 O   0  0  0  0  0  0  0  0  0  0  0  0
   55.8750   88.3860   22.2240 N   0  0  0  0  0  0  0  0  0  0  0  0
   56.5380   87.1460   22.3890 C   0  0  0  0  0  0  0  0  0  0  0  0
   57.1270   86.4940   21.5020 O   0  0  0  0  0  0  0  0  0  0  0  0
   56.4470   86.6950   23.7940 C   0  0  2  0  0  0  0  0  0  0  0  0
   55.2660   85.7520   23.8710 C   0  0  2  0  0  0  0  0  0  0  0  0
   54.2010   86.6880   23.7880 O   0  0  0  0  0  0  0  0  0  0  0  0
   54.5460   87.4170   24.9580 C   0  0  2  0  0  0  0  0  0  0  0  0
   55.9180   87.8980   24.5680 C   0  0  2  0  0  0  0  0  0  0  0  0
   55.7630   88.9460   23.5350 C   0  0  0  0  0  0  0  0  0  0  0  0
   55.5560   90.1800   23.7720 O   0  0  0  0  0  0  0  0  0  0  0  0
   54.5950   86.3100   25.9360 C   0  0  0  0  0  0  0  0  0  0  0  0
   55.0760   85.2690   25.2620 C   0  0  0  0  0  0  0  0  0  0  0  0
   56.4790   90.8380   21.3560 H   0  0  0  0  0  0  0  0  0  0  0  0
   55.6030   91.9310   19.2830 H   0  0  0  0  0  0  0  0  0  0  0  0
   53.3190   88.4780   18.4370 H   0  0  0  0  0  0  0  0  0  0  0  0
   57.3690   86.2920   24.2000 H   0  0  0  0  0  0  0  0  0  0  0  0
   55.2370   84.9990   23.0980 H   0  0  0  0  0  0  0  0  0  0  0  0
   53.8300   88.2010   25.1810 H   0  0  0  0  0  0  0  0  0  0  0  0
   56.5670   88.1830   25.3910 H   0  0  0  0  0  0  0  0  0  0  0  0
   54.2980   86.3580   26.9730 H   0  0  0  0  0  0  0  0  0  0  0  0
   55.2920   84.2660   25.6310 H   0  0  0  0  0  0  0  0  0  0  0  0
  2  1  1  0  0  0  0
  2  3  1  0  0  0  0
  3 11  1  0  0  0  0
  4  3  2  0  0  0  0
  4 23  1  0  0  0  0
  5  4  1  0  0  0  0
  6  7  1  0  0  0  0
  6  5  2  0  0  0  0
  7  2  2  0  0  0  0
  8  9  2  0  0  0  0
  8  6  1  0  0  0  0
 10  8  2  0  0  0  0
 11 12  1  0  0  0  0
 11 19  1  0  0  0  0
 12 14  1  0  0  0  0
 13 12  2  0  0  0  0
 14 15  1  0  0  0  0
 14 26  1  1  0  0  0
 14 18  1  0  0  0  0
 15 27  1  6  0  0  0
 15 22  1  0  0  0  0
 16 15  1  0  0  0  0
 16 17  1  0  0  0  0
 17 28  1  1  0  0  0
 17 21  1  0  0  0  0
 18 17  1  0  0  0  0
 18 29  1  1  0  0  0
 19 20  2  0  0  0  0
 19 18  1  0  0  0  0
 21 30  1  0  0  0  0
 22 31  1  0  0  0  0
 22 21  2  0  0  0  0
 24  5  1  0  0  0  0
 25  7  1  0  0  0  0
M  END
>  <Pose>
1

>  <Score>
-5.43

$$$$
