
 OpenBabel03202210083D

 39 42  0  0  1  0  0  0  0  0999 V2000
   57.3660   86.3920   22.1870 B   0  0  0  0  0  0  0  0  0  0  0  0
   56.6290   88.0890   22.6320 C   0  0  0  0  0  0  0  0  0  0  0  0
   56.6070   88.4690   23.9540 C   0  0  0  0  0  0  0  0  0  0  0  0
   56.0690   89.7010   24.2470 C   0  0  0  0  0  0  0  0  0  0  0  0
   55.5690   90.5220   23.2310 C   0  0  0  0  0  0  0  0  0  0  0  0
   55.5840   90.1550   21.9000 C   0  0  0  0  0  0  0  0  0  0  0  0
   56.1280   88.9130   21.6210 C   0  0  0  0  0  0  0  0  0  0  0  0
   55.0760   90.9870   20.8660 N   0  0  0  0  0  0  0  0  0  0  0  0
   55.3600   90.8400   19.4800 C   0  0  0  0  0  0  0  0  0  0  0  0
   56.3870   90.3510   18.9610 O   0  0  0  0  0  0  0  0  0  0  0  0
   54.2140   91.3710   18.6800 C   0  0  1  0  0  0  0  0  0  0  0  0
   53.1630   90.3370   18.4500 C   0  0  1  0  0  0  0  0  0  0  0  0
   52.4700   90.3060   19.6860 O   0  0  0  0  0  0  0  0  0  0  0  0
   52.1380   91.6850   19.7110 C   0  0  1  0  0  0  0  0  0  0  0  0
   53.5000   92.2970   19.6620 C   0  0  1  0  0  0  0  0  0  0  0  0
   54.2020   92.1040   20.9530 C   0  0  0  0  0  0  0  0  0  0  0  0
   54.0450   92.8190   21.9650 O   0  0  0  0  0  0  0  0  0  0  0  0
   51.4630   91.7900   18.3830 C   0  0  0  0  0  0  0  0  0  0  0  0
   52.1070   90.9230   17.5820 C   0  0  0  0  0  0  0  0  0  0  0  0
   51.3010   92.0590   20.8590 C   0  0  0  0  0  0  0  0  0  0  0  0
   53.6450   89.0130   18.0190 C   0  0  0  0  0  0  0  0  0  0  0  0
   52.6430   88.0470   18.0750 O   0  0  0  0  0  0  0  0  0  0  0  0
   57.1420   87.5970   25.0400 C   0  0  0  0  0  0  0  0  0  0  0  0
   56.0300   90.0430   25.2770 H   0  0  0  0  0  0  0  0  0  0  0  0
   55.1560   91.4850   23.5040 H   0  0  0  0  0  0  0  0  0  0  0  0
   56.1630   88.5840   20.5830 H   0  0  0  0  0  0  0  0  0  0  0  0
   54.5560   91.8930   17.7850 H   0  0  0  0  0  0  0  0  0  0  0  0
   53.5230   93.3500   19.3230 H   0  0  0  0  0  0  0  0  0  0  0  0
   50.6450   92.4360   18.1670 H   0  0  0  0  0  0  0  0  0  0  0  0
   51.8750   90.7250   16.5430 H   0  0  0  0  0  0  0  0  0  0  0  0
   51.5830   92.9850   21.3900 H   0  0  0  0  0  0  0  0  0  0  0  0
   50.2440   92.1830   20.5330 H   0  0  0  0  0  0  0  0  0  0  0  0
   51.2830   91.2310   21.6230 H   0  0  0  0  0  0  0  0  0  0  0  0
   54.4630   88.6740   18.6770 H   0  0  0  0  0  0  0  0  0  0  0  0
   53.9750   89.0390   16.9610 H   0  0  0  0  0  0  0  0  0  0  0  0
   52.2910   87.9050   18.9980 H   0  0  0  0  0  0  0  0  0  0  0  0
   57.0850   86.5600   24.6600 H   0  0  0  0  0  0  0  0  0  0  0  0
   58.2310   87.7880   25.2150 H   0  0  0  0  0  0  0  0  0  0  0  0
   56.6310   87.7480   25.9910 H   0  0  0  0  0  0  0  0  0  0  0  0
  1  2  1  0  0  0  0
  2  3  1  0  0  0  0
  3  4  2  0  0  0  0
  3 23  1  0  0  0  0
  4 24  1  0  0  0  0
  5 25  1  0  0  0  0
  5  4  1  0  0  0  0
  6  5  2  0  0  0  0
  7  6  1  0  0  0  0
  7  2  2  0  0  0  0
  8 16  1  0  0  0  0
  8  6  1  0  0  0  0
  9  8  1  0  0  0  0
 10  9  2  0  0  0  0
 11 27  1  6  0  0  0
 11  9  1  0  0  0  0
 11 15  1  0  0  0  0
 12 21  1  6  0  0  0
 12 11  1  0  0  0  0
 12 13  1  0  0  0  0
 13 14  1  0  0  0  0
 14 20  1  1  0  0  0
 15 28  1  6  0  0  0
 15 14  1  0  0  0  0
 15 16  1  0  0  0  0
 16 17  2  0  0  0  0
 18 14  1  0  0  0  0
 19 18  2  0  0  0  0
 19 12  1  0  0  0  0
 20 31  1  0  0  0  0
 20 33  1  0  0  0  0
 21 22  1  0  0  0  0
 21 34  1  0  0  0  0
 22 36  1  0  0  0  0
 23 38  1  0  0  0  0
 23 39  1  0  0  0  0
 26  7  1  0  0  0  0
 29 18  1  0  0  0  0
 30 19  1  0  0  0  0
 32 20  1  0  0  0  0
 35 21  1  0  0  0  0
 37 23  1  0  0  0  0
M  END
>  <Pose>
1

>  <Score>
-5.35

$$$$
