
 OpenBabel03202210083D

 54 57  0  0  1  0  0  0  0  0999 V2000
   53.7500   81.3590   33.8800 B   0  0  0  0  0  0  0  0  0  0  0  0
   53.8300   81.2340   31.9620 C   0  0  0  0  0  0  0  0  0  0  0  0
   53.0840   82.1070   31.1670 C   0  0  0  0  0  0  0  0  0  0  0  0
   53.1030   82.0640   29.7960 C   0  0  0  0  0  0  0  0  0  0  0  0
   53.9280   81.0810   29.2230 C   0  0  0  0  0  0  0  0  0  0  0  0
   54.6670   80.2150   29.9940 C   0  0  0  0  0  0  0  0  0  0  0  0
   54.6290   80.2810   31.3690 C   0  0  0  0  0  0  0  0  0  0  0  0
   52.3370   82.9480   28.9130 C   0  0  1  0  0  0  0  0  0  0  0  0
   51.5820   83.9720   29.6020 N   0  0  0  0  0  0  0  0  0  0  0  0
   52.4940   85.0080   29.9230 C   0  0  0  0  0  0  0  0  0  0  0  0
   52.4240   85.8350   30.8670 O   0  0  0  0  0  0  0  0  0  0  0  0
   53.5590   84.9320   28.9230 C   0  0  0  0  0  0  0  0  0  0  0  0
   54.5830   85.6440   28.8060 O   0  0  0  0  0  0  0  0  0  0  0  0
   53.1930   83.8130   28.0410 C   0  0  0  0  0  0  0  0  0  0  0  0
   53.5910   83.6620   26.7980 C   0  0  0  0  0  0  0  0  0  0  0  0
   53.1720   82.5030   26.1330 O   0  0  0  0  0  0  0  0  0  0  0  0
   54.4360   84.6580   26.1080 C   0  0  0  0  0  0  0  0  0  0  0  0
   55.6720   84.5510   25.7200 O   0  0  0  0  0  0  0  0  0  0  0  0
   56.0920   85.6490   25.1330 C   0  0  0  0  0  0  0  0  0  0  0  0
   55.0600   86.5740   25.1210 C   0  0  0  0  0  0  0  0  0  0  0  0
   54.0130   85.9230   25.7460 C   0  0  0  0  0  0  0  0  0  0  0  0
   55.2430   87.8180   24.5580 C   0  0  0  0  0  0  0  0  0  0  0  0
   56.4380   88.1950   23.9890 C   0  0  0  0  0  0  0  0  0  0  0  0
   57.4750   87.2870   23.9930 C   0  0  0  0  0  0  0  0  0  0  0  0
   57.2940   86.0280   24.5620 C   0  0  0  0  0  0  0  0  0  0  0  0
   50.1590   84.0320   29.9270 C   0  0  0  0  0  0  0  0  0  0  0  0
   49.8460   83.1350   31.1100 C   0  0  0  0  0  0  0  0  0  0  0  0
   48.7470   83.6830   31.9810 C   0  0  0  0  0  0  0  0  0  0  0  0
   49.2330   84.8030   32.7210 N   0  0  0  0  0  4  0  0  0  0  0  0
   48.5130   85.0300   33.9560 C   0  0  0  0  0  0  0  0  0  0  0  0
   50.6300   84.7760   33.0280 C   0  0  0  0  0  0  0  0  0  0  0  0
   52.4720   82.8430   31.6600 H   0  0  0  0  0  0  0  0  0  0  0  0
   53.9650   81.0240   28.1390 H   0  0  0  0  0  0  0  0  0  0  0  0
   55.3050   79.4560   29.5500 H   0  0  0  0  0  0  0  0  0  0  0  0
   55.2120   79.5990   32.0040 H   0  0  0  0  0  0  0  0  0  0  0  0
   51.6520   82.3240   28.2900 H   0  0  0  0  0  0  0  0  0  0  0  0
   53.0380   86.3330   25.9060 H   0  0  0  0  0  0  0  0  0  0  0  0
   54.4370   88.5320   24.5490 H   0  0  0  0  0  0  0  0  0  0  0  0
   56.6300   89.1570   23.5360 H   0  0  0  0  0  0  0  0  0  0  0  0
   58.4310   87.5670   23.5470 H   0  0  0  0  0  0  0  0  0  0  0  0
   58.1380   85.3490   24.5420 H   0  0  0  0  0  0  0  0  0  0  0  0
   49.8290   85.0520   30.2040 H   0  0  0  0  0  0  0  0  0  0  0  0
   49.5570   83.7090   29.0620 H   0  0  0  0  0  0  0  0  0  0  0  0
   50.7680   83.1470   31.7360 H   0  0  0  0  0  0  0  0  0  0  0  0
   49.6530   82.1050   30.8060 H   0  0  0  0  0  0  0  0  0  0  0  0
   48.3750   82.9280   32.7090 H   0  0  0  0  0  0  0  0  0  0  0  0
   47.8960   84.0280   31.3510 H   0  0  0  0  0  0  0  0  0  0  0  0
   49.0640   85.6690   32.1250 H   0  0  0  0  0  0  0  0  0  0  0  0
   48.5960   86.1220   34.2160 H   0  0  0  0  0  0  0  0  0  0  0  0
   49.0060   84.4820   34.7800 H   0  0  0  0  0  0  0  0  0  0  0  0
   47.4610   84.7500   33.8120 H   0  0  0  0  0  0  0  0  0  0  0  0
   50.8750   84.2200   33.9530 H   0  0  0  0  0  0  0  0  0  0  0  0
   50.9680   85.8160   33.2070 H   0  0  0  0  0  0  0  0  0  0  0  0
   51.2480   84.4220   32.1500 H   0  0  0  0  0  0  0  0  0  0  0  0
  2  1  1  0  0  0  0
  3 32  1  0  0  0  0
  3  2  2  0  0  0  0
  4  3  1  0  0  0  0
  5  4  2  0  0  0  0
  5  6  1  0  0  0  0
  6  7  2  0  0  0  0
  7  2  1  0  0  0  0
  7 35  1  0  0  0  0
  8 36  1  6  0  0  0
  8  9  1  0  0  0  0
  8  4  1  0  0  0  0
  9 10  1  0  0  0  0
  9 26  1  0  0  0  0
 10 11  2  0  0  0  0
 12 10  1  0  0  0  0
 13 12  2  0  0  0  0
 14  8  1  0  0  0  0
 14 12  1  0  0  0  0
 15 14  2  0  0  0  0
 16 15  1  0  0  0  0
 17 15  1  0  0  0  0
 18 17  1  0  0  0  0
 19 18  1  0  0  0  0
 20 19  1  0  0  0  0
 20 21  1  0  0  0  0
 21 37  1  0  0  0  0
 21 17  2  0  0  0  0
 22 20  2  0  0  0  0
 23 24  2  0  0  0  0
 23 22  1  0  0  0  0
 24 25  1  0  0  0  0
 25 19  2  0  0  0  0
 26 42  1  0  0  0  0
 26 27  1  0  0  0  0
 27 44  1  0  0  0  0
 27 28  1  0  0  0  0
 28 46  1  0  0  0  0
 28 29  1  0  0  0  0
 29 31  1  0  0  0  0
 29 30  1  0  0  0  0
 30 49  1  0  0  0  0
 30 50  1  0  0  0  0
 31 53  1  0  0  0  0
 31 52  1  0  0  0  0
 33  5  1  0  0  0  0
 34  6  1  0  0  0  0
 38 22  1  0  0  0  0
 39 23  1  0  0  0  0
 40 24  1  0  0  0  0
 41 25  1  0  0  0  0
 43 26  1  0  0  0  0
 45 27  1  0  0  0  0
 47 28  1  0  0  0  0
 48 29  1  0  0  0  0
 51 30  1  0  0  0  0
 54 31  1  0  0  0  0
M  END
>  <Pose>
1

>  <Score>
-6.02

$$$$
