
 OpenBabel03202210083D

 47 50  0  0  0  0  0  0  0  0999 V2000
   52.5860   92.1300   18.8540 B   0  0  0  0  0  0  0  0  0  0  0  0
   53.2780   90.4560   19.3860 C   0  0  0  0  0  0  0  0  0  0  0  0
   54.3010   90.3990   20.3020 C   0  0  0  0  0  0  0  0  0  0  0  0
   54.8060   89.2440   20.7380 C   0  0  0  0  0  0  0  0  0  0  0  0
   54.2820   88.0030   20.2600 C   0  0  0  0  0  0  0  0  0  0  0  0
   53.2550   88.0260   19.3770 C   0  0  0  0  0  0  0  0  0  0  0  0
   52.7420   89.2480   18.9300 C   0  0  0  0  0  0  0  0  0  0  0  0
   54.6210   91.7130   21.0570 C   0  0  0  0  0  0  0  0  0  0  0  0
   55.0340   91.4380   22.1970 N   0  0  0  0  0  0  0  0  0  0  0  0
   55.4770   91.6610   23.3890 N   0  0  0  0  0  0  0  0  0  0  0  0
   55.1170   93.1410   23.6490 C   0  0  0  0  0  0  0  0  0  0  0  0
   53.9320   93.3840   23.4540 O   0  0  0  0  0  0  0  0  0  0  0  0
   56.0830   94.0810   24.0510 C   0  0  0  0  0  0  0  0  0  0  0  0
   57.2000   94.4540   23.5040 N   0  0  0  0  0  0  0  0  0  0  0  0
   57.6190   95.5320   24.0720 N   0  0  0  0  0  0  0  0  0  0  0  0
   56.7640   95.9610   25.0790 N   0  0  0  0  0  0  0  0  0  0  0  0
   55.7940   95.0740   25.0970 C   0  0  0  0  0  0  0  0  0  0  0  0
   54.6590   94.7510   25.9570 C   0  0  0  0  0  0  0  0  0  0  0  0
   53.4600   95.3270   26.0910 N   0  0  0  0  0  0  0  0  0  0  0  0
   52.9490   95.1180   27.4380 C   0  0  0  0  0  0  0  0  0  0  0  0
   52.4340   96.4410   27.9200 C   0  0  0  0  0  0  0  0  0  0  0  0
   52.7280   97.4330   26.7990 C   0  0  0  0  0  0  0  0  0  0  0  0
   52.8880   96.4670   25.5990 C   0  0  0  0  0  0  0  0  0  0  0  0
   57.0880   97.1530   25.7240 C   0  0  0  0  0  0  0  0  0  0  0  0
   58.1590   97.9420   25.3030 N   0  0  0  0  0  0  0  0  0  0  0  0
   58.2990   98.9020   26.1290 O   0  0  0  0  0  0  0  0  0  0  0  0
   57.4350   98.8530   27.0630 N   0  0  0  0  0  0  0  0  0  0  0  0
   56.6580   97.7570   26.8330 C   0  0  0  0  0  0  0  0  0  0  0  0
   55.5970   97.4190   27.7340 N   0  0  0  0  0  0  0  0  0  0  0  0
   55.6500   89.2360   21.4020 H   0  0  0  0  0  0  0  0  0  0  0  0
   54.6920   87.0860   20.5560 H   0  0  0  0  0  0  0  0  0  0  0  0
   52.7730   87.0880   18.9980 H   0  0  0  0  0  0  0  0  0  0  0  0
   51.8790   89.2220   18.2620 H   0  0  0  0  0  0  0  0  0  0  0  0
   54.4670   92.6090   20.6460 H   0  0  0  0  0  0  0  0  0  0  0  0
   55.9840   91.2140   24.1490 H   0  0  0  0  0  0  0  0  0  0  0  0
   54.6890   93.6980   26.4120 H   0  0  0  0  0  0  0  0  0  0  0  0
   55.1480   95.2130   27.0810 H   0  0  0  0  0  0  0  0  0  0  0  0
   53.7030   94.6500   28.0700 H   0  0  0  0  0  0  0  0  0  0  0  0
   52.0950   94.3660   27.4400 H   0  0  0  0  0  0  0  0  0  0  0  0
   51.3660   96.4080   28.1870 H   0  0  0  0  0  0  0  0  0  0  0  0
   52.9680   96.7290   28.8740 H   0  0  0  0  0  0  0  0  0  0  0  0
   51.8890   98.0950   26.6680 H   0  0  0  0  0  0  0  0  0  0  0  0
   53.7180   97.8560   26.9360 H   0  0  0  0  0  0  0  0  0  0  0  0
   51.7970   96.2460   25.3270 H   0  0  0  0  0  0  0  0  0  0  0  0
   53.3740   96.9960   24.7680 H   0  0  0  0  0  0  0  0  0  0  0  0
   54.9280   98.1640   27.9710 H   0  0  0  0  0  0  0  0  0  0  0  0
   55.5530   96.4980   28.1660 H   0  0  0  0  0  0  0  0  0  0  0  0
  1  2  1  0  0  0  0
  2  3  1  0  0  0  0
  3  4  2  0  0  0  0
  3  8  1  0  0  0  0
  4 30  1  0  0  0  0
  5 31  1  0  0  0  0
  5  4  1  0  0  0  0
  6  5  2  0  0  0  0
  7  6  1  0  0  0  0
  7  2  2  0  0  0  0
  8  9  1  0  0  0  0
  9 10  1  0  0  0  0
 10 11  1  0  0  0  0
 10 35  1  0  0  0  0
 11 13  1  0  0  0  0
 12 11  2  0  0  0  0
 13 17  2  0  0  0  0
 14 13  1  0  0  0  0
 14 15  2  0  0  0  0
 15 16  1  0  0  0  0
 16 17  1  0  0  0  0
 16 24  1  0  0  0  0
 17 18  1  0  0  0  0
 18 19  1  0  0  0  0
 18 36  1  0  0  0  0
 18 37  1  0  0  0  0
 19 20  1  0  0  0  0
 20 39  1  0  0  0  0
 20 21  1  0  0  0  0
 20 38  1  0  0  0  0
 21 40  1  0  0  0  0
 21 41  1  0  0  0  0
 22 43  1  0  0  0  0
 22 21  1  0  0  0  0
 23 19  1  0  0  0  0
 23 22  1  0  0  0  0
 24 28  1  0  0  0  0
 25 24  2  0  0  0  0
 25 26  1  0  0  0  0
 26 27  1  0  0  0  0
 28 27  2  0  0  0  0
 28 29  1  0  0  0  0
 29 46  1  0  0  0  0
 29 47  1  0  0  0  0
 32  6  1  0  0  0  0
 33  7  1  0  0  0  0
 34  8  1  0  0  0  0
 42 22  1  0  0  0  0
 44 23  1  0  0  0  0
 45 23  1  0  0  0  0
M  END
>  <Pose>
1

>  <Score>
-8.48

$$$$
