
 OpenBabel03202210083D

 51 54  0  0  1  0  0  0  0  0999 V2000
   54.0210   90.4780   17.0200 B   0  0  0  0  0  0  0  0  0  0  0  0
   54.1990   90.4680   18.9270 C   0  0  0  0  0  0  0  0  0  0  0  0
   55.4250   90.3850   19.5390 C   0  0  0  0  0  0  0  0  0  0  0  0
   55.5240   90.3810   20.9070 C   0  0  0  0  0  0  0  0  0  0  0  0
   54.4060   90.4580   21.7570 C   0  0  0  0  0  0  0  0  0  0  0  0
   53.2020   90.5380   21.1300 C   0  0  0  0  0  0  0  0  0  0  0  0
   53.1010   90.5440   19.7530 C   0  0  0  0  0  0  0  0  0  0  0  0
   54.6390   90.4230   23.1790 C   0  0  1  0  0  0  0  0  0  0  0  0
   55.7220   89.6330   23.6860 N   0  0  0  0  0  0  0  0  0  0  0  0
   55.8220   90.0480   25.0810 C   0  0  0  0  0  0  0  0  0  0  0  0
   56.2840   89.3660   26.0220 O   0  0  0  0  0  0  0  0  0  0  0  0
   55.2910   91.3950   25.1750 C   0  0  0  0  0  0  0  0  0  0  0  0
   55.1810   92.1410   26.1930 O   0  0  0  0  0  0  0  0  0  0  0  0
   54.8830   91.7510   23.8120 C   0  0  0  0  0  0  0  0  0  0  0  0
   54.7450   92.9610   23.3440 C   0  0  0  0  0  0  0  0  0  0  0  0
   54.2910   93.1170   22.0280 O   0  0  0  0  0  0  0  0  0  0  0  0
   55.0610   94.1490   24.1600 C   0  0  0  0  0  0  0  0  0  0  0  0
   56.2220   94.7940   24.1630 O   0  0  0  0  0  0  0  0  0  0  0  0
   56.2060   95.8080   24.9900 C   0  0  0  0  0  0  0  0  0  0  0  0
   54.9740   95.8860   25.6040 C   0  0  0  0  0  0  0  0  0  0  0  0
   54.2710   94.8240   25.0600 C   0  0  0  0  0  0  0  0  0  0  0  0
   54.7080   96.8770   26.5230 C   0  0  0  0  0  0  0  0  0  0  0  0
   55.6340   97.8320   26.8810 C   0  0  0  0  0  0  0  0  0  0  0  0
   56.8720   97.7570   26.2680 C   0  0  0  0  0  0  0  0  0  0  0  0
   57.1530   96.7730   25.3470 C   0  0  0  0  0  0  0  0  0  0  0  0
   56.5470   88.5950   23.1100 C   0  0  0  0  0  0  0  0  0  0  0  0
   56.3110   87.2060   23.5300 C   0  0  0  0  0  0  0  0  0  0  0  0
   54.9490   86.7380   23.5330 N   0  0  0  0  0  4  0  0  0  0  0  0
   54.6190   85.9950   22.3500 C   0  0  0  0  0  0  0  0  0  0  0  0
   54.5180   86.1380   24.7630 C   0  0  0  0  0  0  0  0  0  0  0  0
   56.3000   90.3250   18.9050 H   0  0  0  0  0  0  0  0  0  0  0  0
   56.5260   90.3120   21.3220 H   0  0  0  0  0  0  0  0  0  0  0  0
   52.3020   90.5790   21.7060 H   0  0  0  0  0  0  0  0  0  0  0  0
   52.1190   90.6090   19.2800 H   0  0  0  0  0  0  0  0  0  0  0  0
   53.7190   90.0380   23.7190 H   0  0  0  0  0  0  0  0  0  0  0  0
   53.2580   94.5550   25.3130 H   0  0  0  0  0  0  0  0  0  0  0  0
   53.7390   96.9210   26.9920 H   0  0  0  0  0  0  0  0  0  0  0  0
   55.4500   98.6200   27.6000 H   0  0  0  0  0  0  0  0  0  0  0  0
   57.6390   98.4800   26.5080 H   0  0  0  0  0  0  0  0  0  0  0  0
   58.1200   96.7130   24.8660 H   0  0  0  0  0  0  0  0  0  0  0  0
   57.6350   88.8420   23.2120 H   0  0  0  0  0  0  0  0  0  0  0  0
   56.3760   88.6400   21.9880 H   0  0  0  0  0  0  0  0  0  0  0  0
   56.6970   87.0380   24.5530 H   0  0  0  0  0  0  0  0  0  0  0  0
   56.8700   86.5190   22.8260 H   0  0  0  0  0  0  0  0  0  0  0  0
   54.3720   87.6440   23.4460 H   0  0  0  0  0  0  0  0  0  0  0  0
   55.5180   85.9960   21.7060 H   0  0  0  0  0  0  0  0  0  0  0  0
   54.2000   84.9860   22.5490 H   0  0  0  0  0  0  0  0  0  0  0  0
   53.8290   86.4930   21.7160 H   0  0  0  0  0  0  0  0  0  0  0  0
   55.2720   86.1270   25.5660 H   0  0  0  0  0  0  0  0  0  0  0  0
   53.6370   86.6830   25.2170 H   0  0  0  0  0  0  0  0  0  0  0  0
   54.0880   85.1080   24.5710 H   0  0  0  0  0  0  0  0  0  0  0  0
  1  2  1  0  0  0  0
  2  3  2  0  0  0  0
  2  7  1  0  0  0  0
  3  4  1  0  0  0  0
  4 32  1  0  0  0  0
  4  5  2  0  0  0  0
  5  8  1  0  0  0  0
  6 33  1  0  0  0  0
  6  5  1  0  0  0  0
  7  6  2  0  0  0  0
  8  9  1  0  0  0  0
  8 35  1  1  0  0  0
  8 14  1  0  0  0  0
  9 10  1  0  0  0  0
 10 12  1  0  0  0  0
 10 11  2  0  0  0  0
 12 13  2  0  0  0  0
 14 12  1  0  0  0  0
 15 14  2  0  0  0  0
 15 17  1  0  0  0  0
 16 15  1  0  0  0  0
 17 18  1  0  0  0  0
 17 21  2  0  0  0  0
 18 19  1  0  0  0  0
 19 25  2  0  0  0  0
 19 20  1  0  0  0  0
 20 22  2  0  0  0  0
 21 36  1  0  0  0  0
 21 20  1  0  0  0  0
 22 23  1  0  0  0  0
 22 37  1  0  0  0  0
 23 38  1  0  0  0  0
 24 39  1  0  0  0  0
 24 23  2  0  0  0  0
 25 24  1  0  0  0  0
 26 41  1  0  0  0  0
 26 27  1  0  0  0  0
 26  9  1  0  0  0  0
 27 28  1  0  0  0  0
 27 43  1  0  0  0  0
 28 30  1  0  0  0  0
 29 47  1  0  0  0  0
 29 28  1  0  0  0  0
 30 50  1  0  0  0  0
 30 49  1  0  0  0  0
 31  3  1  0  0  0  0
 34  7  1  0  0  0  0
 40 25  1  0  0  0  0
 42 26  1  0  0  0  0
 44 27  1  0  0  0  0
 45 28  1  0  0  0  0
 46 29  1  0  0  0  0
 48 29  1  0  0  0  0
 51 30  1  0  0  0  0
M  END
>  <Pose>
1

>  <Score>
-5.65

$$$$
