
 OpenBabel03202210083D

 48 51  0  0  0  0  0  0  0  0999 V2000
   54.6750   91.3190   16.5760 B   0  0  0  0  0  0  0  0  0  0  0  0
   53.4640   90.3010   17.6470 C   0  0  0  0  0  0  0  0  0  0  0  0
   53.8930   89.1440   18.2930 C   0  0  0  0  0  0  0  0  0  0  0  0
   53.0220   88.4150   19.0700 C   0  0  0  0  0  0  0  0  0  0  0  0
   51.7180   88.8200   19.2180 C   0  0  0  0  0  0  0  0  0  0  0  0
   51.3110   89.9650   18.5740 C   0  0  0  0  0  0  0  0  0  0  0  0
   52.1500   90.7210   17.7870 C   0  0  0  0  0  0  0  0  0  0  0  0
   53.4590   87.2170   19.7590 C   0  0  0  0  0  0  0  0  0  0  0  0
   54.2670   87.2870   20.8190 C   0  0  0  0  0  0  0  0  0  0  0  0
   54.7920   88.4390   21.4010 O   0  0  0  0  0  0  0  0  0  0  0  0
   55.5750   88.1230   22.4770 C   0  0  0  0  0  0  0  0  0  0  0  0
   55.6080   86.7450   22.6610 C   0  0  0  0  0  0  0  0  0  0  0  0
   56.3520   86.2420   23.7160 C   0  0  0  0  0  0  0  0  0  0  0  0
   57.0340   87.0960   24.5530 C   0  0  0  0  0  0  0  0  0  0  0  0
   56.9780   88.4750   24.3370 C   0  0  0  0  0  0  0  0  0  0  0  0
   56.2510   88.9990   23.3010 C   0  0  0  0  0  0  0  0  0  0  0  0
   56.2900   90.4440   23.0700 C   0  0  0  0  0  0  0  0  0  0  0  0
   55.1850   91.1910   23.5510 N   0  0  0  0  0  4  0  0  0  0  0  0
   55.0200   92.3600   22.7020 C   0  0  0  0  0  0  0  0  0  0  0  0
   54.6320   93.6100   23.4130 C   0  0  0  0  0  0  0  0  0  0  0  0
   55.4130   93.9290   24.5570 N   0  0  0  0  0  0  0  0  0  0  0  0
   56.2000   92.8220   24.9910 C   0  0  0  0  0  0  0  0  0  0  0  0
   55.3930   91.5690   24.9280 C   0  0  0  0  0  0  0  0  0  0  0  0
   54.5590   94.4410   25.6080 C   0  0  0  0  0  0  0  0  0  0  0  0
   57.6990   89.2500   25.2330 O   0  0  0  0  0  0  0  0  0  0  0  0
   54.7690   86.1600   21.6010 C   0  0  0  0  0  0  0  0  0  0  0  0
   54.5650   84.9290   21.4450 O   0  0  0  0  0  0  0  0  0  0  0  0
   54.9340   88.8530   18.1480 H   0  0  0  0  0  0  0  0  0  0  0  0
   51.0350   88.2400   19.8250 H   0  0  0  0  0  0  0  0  0  0  0  0
   50.2660   90.2740   18.7180 H   0  0  0  0  0  0  0  0  0  0  0  0
   51.7860   91.6310   17.3010 H   0  0  0  0  0  0  0  0  0  0  0  0
   53.1360   86.2530   19.4170 H   0  0  0  0  0  0  0  0  0  0  0  0
   56.3520   85.1680   23.8290 H   0  0  0  0  0  0  0  0  0  0  0  0
   57.5940   86.6470   25.3540 H   0  0  0  0  0  0  0  0  0  0  0  0
   57.2330   90.8310   23.5900 H   0  0  0  0  0  0  0  0  0  0  0  0
   56.4790   90.6420   22.0040 H   0  0  0  0  0  0  0  0  0  0  0  0
   54.2800   90.6310   23.5570 H   0  0  0  0  0  0  0  0  0  0  0  0
   54.2830   92.2050   21.8980 H   0  0  0  0  0  0  0  0  0  0  0  0
   55.9750   92.5750   22.1370 H   0  0  0  0  0  0  0  0  0  0  0  0
   54.7740   94.4550   22.6640 H   0  0  0  0  0  0  0  0  0  0  0  0
   53.5180   93.6770   23.6310 H   0  0  0  0  0  0  0  0  0  0  0  0
   57.0640   92.7040   24.2700 H   0  0  0  0  0  0  0  0  0  0  0  0
   56.6490   92.9680   26.0070 H   0  0  0  0  0  0  0  0  0  0  0  0
   54.4020   91.6910   25.4640 H   0  0  0  0  0  0  0  0  0  0  0  0
   55.9520   90.7730   25.4800 H   0  0  0  0  0  0  0  0  0  0  0  0
   53.5390   93.9820   25.6080 H   0  0  0  0  0  0  0  0  0  0  0  0
   54.9870   94.3480   26.6280 H   0  0  0  0  0  0  0  0  0  0  0  0
   54.3590   95.5260   25.3670 H   0  0  0  0  0  0  0  0  0  0  0  0
  1  2  1  0  0  0  0
  2  7  2  0  0  0  0
  2  3  1  0  0  0  0
  3  4  2  0  0  0  0
  4  5  1  0  0  0  0
  4  8  1  0  0  0  0
  5 29  1  0  0  0  0
  6 30  1  0  0  0  0
  6  5  2  0  0  0  0
  7  6  1  0  0  0  0
  8  9  2  0  0  0  0
  9 10  1  0  0  0  0
  9 26  1  0  0  0  0
 10 11  1  0  0  0  0
 11 12  2  0  0  0  0
 11 16  1  0  0  0  0
 12 13  1  0  0  0  0
 13 33  1  0  0  0  0
 13 14  2  0  0  0  0
 14 34  1  0  0  0  0
 15 14  1  0  0  0  0
 15 25  1  0  0  0  0
 16 15  2  0  0  0  0
 17 16  1  0  0  0  0
 17 18  1  0  0  0  0
 17 35  1  0  0  0  0
 18 37  1  0  0  0  0
 18 23  1  0  0  0  0
 19 20  1  0  0  0  0
 19 18  1  0  0  0  0
 20 41  1  0  0  0  0
 20 21  1  0  0  0  0
 21 22  1  0  0  0  0
 21 24  1  0  0  0  0
 22 43  1  0  0  0  0
 23 22  1  0  0  0  0
 23 44  1  0  0  0  0
 23 45  1  0  0  0  0
 24 46  1  0  0  0  0
 24 47  1  0  0  0  0
 26 12  1  0  0  0  0
 27 26  2  0  0  0  0
 28  3  1  0  0  0  0
 31  7  1  0  0  0  0
 32  8  1  0  0  0  0
 36 17  1  0  0  0  0
 38 19  1  0  0  0  0
 39 19  1  0  0  0  0
 40 20  1  0  0  0  0
 42 22  1  0  0  0  0
 48 24  1  0  0  0  0
M  END
>  <Pose>
1

>  <Score>
-6.10

$$$$
