
 OpenBabel03202210083D

 55 58  0  0  1  0  0  0  0  0999 V2000
   55.9750   80.6680   17.2640 B   0  0  0  0  0  0  0  0  0  0  0  0
   54.7010   82.0610   17.5910 C   0  0  0  0  0  0  0  0  0  0  0  0
   54.4520   82.4380   18.8920 C   0  0  0  0  0  0  0  0  0  0  0  0
   53.5400   83.4360   19.1470 C   0  0  0  0  0  0  0  0  0  0  0  0
   52.8360   84.1090   18.1580 C   0  0  0  0  0  0  0  0  0  0  0  0
   53.1070   83.7100   16.8690 C   0  0  0  0  0  0  0  0  0  0  0  0
   54.0340   82.6930   16.5910 C   0  0  0  0  0  0  0  0  0  0  0  0
   51.9350   85.1050   18.5200 N   0  0  0  0  0  0  0  0  0  0  0  0
   52.1940   86.3650   19.0870 C   0  0  0  0  0  0  0  0  0  0  0  0
   51.3580   87.2870   19.0100 O   0  0  0  0  0  0  0  0  0  0  0  0
   53.4570   86.6770   19.8050 C   0  0  0  0  0  0  0  0  0  0  0  0
   53.3630   86.3210   21.1890 N   0  0  0  0  0  0  0  0  0  0  0  0
   54.4900   86.1030   22.0210 C   0  0  0  0  0  0  0  0  0  0  0  0
   55.5290   85.6270   21.4900 O   0  0  0  0  0  0  0  0  0  0  0  0
   54.4180   86.4320   23.4700 C   0  0  2  0  0  0  0  0  0  0  0  0
   55.3660   87.3420   23.7550 O   0  0  0  0  0  0  0  0  0  0  0  0
   55.8630   87.3900   25.0190 C   0  0  2  0  0  0  0  0  0  0  0  0
   57.0480   88.1400   24.9820 O   0  0  0  0  0  0  0  0  0  0  0  0
   58.0790   87.2720   24.7200 C   0  0  0  0  0  0  0  0  0  0  0  0
   57.6020   85.9790   24.8020 O   0  0  0  0  0  0  0  0  0  0  0  0
   56.3860   86.0640   25.5190 C   0  0  2  0  0  0  0  0  0  0  0  0
   55.4720   84.9410   25.2140 C   0  0  1  0  0  0  0  0  0  0  0  0
   54.8520   84.4480   26.3850 O   0  0  0  0  0  0  0  0  0  0  0  0
   53.5320   84.2220   26.0870 C   0  0  0  0  0  0  0  0  0  0  0  0
   53.2340   85.1530   25.1270 O   0  0  0  0  0  0  0  0  0  0  0  0
   54.3600   85.2000   24.2920 C   0  0  1  0  0  0  0  0  0  0  0  0
   52.7380   84.4710   27.3750 C   0  0  0  0  0  0  0  0  0  0  0  0
   53.2420   82.8000   25.6820 C   0  0  0  0  0  0  0  0  0  0  0  0
   59.2000   87.3890   25.7540 C   0  0  0  0  0  0  0  0  0  0  0  0
   58.7210   87.5220   23.3660 C   0  0  0  0  0  0  0  0  0  0  0  0
   54.9790   81.9420   19.7250 H   0  0  0  0  0  0  0  0  0  0  0  0
   53.3860   83.6880   20.1870 H   0  0  0  0  0  0  0  0  0  0  0  0
   52.6180   84.1660   16.0470 H   0  0  0  0  0  0  0  0  0  0  0  0
   54.2010   82.4290   15.5690 H   0  0  0  0  0  0  0  0  0  0  0  0
   50.8990   84.8910   18.3460 H   0  0  0  0  0  0  0  0  0  0  0  0
   54.2500   86.0070   19.3570 H   0  0  0  0  0  0  0  0  0  0  0  0
   53.8100   87.7080   19.6310 H   0  0  0  0  0  0  0  0  0  0  0  0
   52.4160   86.2150   21.6090 H   0  0  0  0  0  0  0  0  0  0  0  0
   53.4130   86.9420   23.5920 H   0  0  0  0  0  0  0  0  0  0  0  0
   55.2130   87.8860   25.7680 H   0  0  0  0  0  0  0  0  0  0  0  0
   56.5920   86.1850   26.6030 H   0  0  0  0  0  0  0  0  0  0  0  0
   56.1070   84.0750   24.8610 H   0  0  0  0  0  0  0  0  0  0  0  0
   54.2470   84.3200   23.6090 H   0  0  0  0  0  0  0  0  0  0  0  0
   51.7230   84.0900   27.2050 H   0  0  0  0  0  0  0  0  0  0  0  0
   52.7840   85.5300   27.6680 H   0  0  0  0  0  0  0  0  0  0  0  0
   53.2480   83.8780   28.1620 H   0  0  0  0  0  0  0  0  0  0  0  0
   52.4320   82.7030   24.9570 H   0  0  0  0  0  0  0  0  0  0  0  0
   54.1520   82.3010   25.2900 H   0  0  0  0  0  0  0  0  0  0  0  0
   52.9370   82.1770   26.5740 H   0  0  0  0  0  0  0  0  0  0  0  0
   59.3780   88.4520   25.9510 H   0  0  0  0  0  0  0  0  0  0  0  0
   58.9810   86.7850   26.6530 H   0  0  0  0  0  0  0  0  0  0  0  0
   60.1070   86.9670   25.2720 H   0  0  0  0  0  0  0  0  0  0  0  0
   59.7660   87.8830   23.4550 H   0  0  0  0  0  0  0  0  0  0  0  0
   58.1520   88.2880   22.7870 H   0  0  0  0  0  0  0  0  0  0  0  0
   58.7710   86.5830   22.7600 H   0  0  0  0  0  0  0  0  0  0  0  0
  1  2  1  0  0  0  0
  2  3  1  0  0  0  0
  3  4  2  0  0  0  0
  3 31  1  0  0  0  0
  4 32  1  0  0  0  0
  5  8  1  0  0  0  0
  5  4  1  0  0  0  0
  6  5  2  0  0  0  0
  7  6  1  0  0  0  0
  7  2  2  0  0  0  0
  8  9  1  0  0  0  0
  9 11  1  0  0  0  0
 10  9  2  0  0  0  0
 11 12  1  0  0  0  0
 12 38  1  0  0  0  0
 12 13  1  0  0  0  0
 13 15  1  0  0  0  0
 14 13  2  0  0  0  0
 15 39  1  1  0  0  0
 15 16  1  0  0  0  0
 15 26  1  0  0  0  0
 16 17  1  0  0  0  0
 17 21  1  0  0  0  0
 17 40  1  1  0  0  0
 18 17  1  0  0  0  0
 19 20  1  0  0  0  0
 19 18  1  0  0  0  0
 19 29  1  0  0  0  0
 20 21  1  0  0  0  0
 21 41  1  1  0  0  0
 22 42  1  6  0  0  0
 22 21  1  0  0  0  0
 22 23  1  0  0  0  0
 24 23  1  0  0  0  0
 24 27  1  0  0  0  0
 25 24  1  0  0  0  0
 26 43  1  6  0  0  0
 26 25  1  0  0  0  0
 26 22  1  0  0  0  0
 27 45  1  0  0  0  0
 27 46  1  0  0  0  0
 28 24  1  0  0  0  0
 28 49  1  0  0  0  0
 29 50  1  0  0  0  0
 29 51  1  0  0  0  0
 30 53  1  0  0  0  0
 30 19  1  0  0  0  0
 33  6  1  0  0  0  0
 34  7  1  0  0  0  0
 35  8  1  0  0  0  0
 36 11  1  0  0  0  0
 37 11  1  0  0  0  0
 44 27  1  0  0  0  0
 47 28  1  0  0  0  0
 48 28  1  0  0  0  0
 52 29  1  0  0  0  0
 54 30  1  0  0  0  0
 55 30  1  0  0  0  0
M  END
>  <Pose>
1

>  <Score>
-7.18

$$$$
