
 OpenBabel03202210083D

 42 45  0  0  1  0  0  0  0  0999 V2000
   56.9460   96.5490   25.2930 Cl  0  0  0  0  0  0  0  0  0  0  0  0
   55.4090   96.6720   26.1150 C   0  0  0  0  0  0  0  0  0  0  0  0
   54.5450   95.6020   26.0230 C   0  0  0  0  0  0  0  0  0  0  0  0
   53.3440   95.7310   26.6790 C   0  0  0  0  0  0  0  0  0  0  0  0
   53.0040   96.8560   27.3950 C   0  0  0  0  0  0  0  0  0  0  0  0
   53.8960   97.9320   27.4770 C   0  0  0  0  0  0  0  0  0  0  0  0
   55.1010   97.8260   26.8290 C   0  0  0  0  0  0  0  0  0  0  0  0
   54.8730   94.3950   25.2730 C   0  0  0  0  0  0  0  0  0  0  0  0
   55.1390   93.1730   25.7640 N   0  0  0  0  0  0  0  0  0  0  0  0
   55.3880   92.3470   24.7690 O   0  0  0  0  0  0  0  0  0  0  0  0
   55.2940   92.9830   23.6290 C   0  0  0  0  0  0  0  0  0  0  0  0
   54.9740   94.2590   23.9390 N   0  0  0  0  0  0  0  0  0  0  0  0
   55.4980   92.4290   22.2420 C   0  0  0  0  0  0  0  0  0  0  0  0
   54.2610   91.8570   21.7430 N   0  0  0  0  0  0  0  0  0  0  0  0
   54.0340   91.6930   20.3650 C   0  0  0  0  0  0  0  0  0  0  0  0
   53.5990   92.6540   19.6940 O   0  0  0  0  0  0  0  0  0  0  0  0
   54.3050   90.4020   19.7140 C   0  0  1  0  0  0  0  0  0  0  0  0
   53.3260   89.3270   20.1490 C   0  0  0  0  0  0  0  0  0  0  0  0
   53.4920   88.0820   19.3440 C   0  0  0  0  0  0  0  0  0  0  0  0
   52.6300   87.9950   18.1280 C   0  0  0  0  0  0  0  0  0  0  0  0
   52.2950   89.3700   17.5580 C   0  0  0  0  0  0  0  0  0  0  0  0
   53.5450   90.0550   17.3230 N   0  0  0  0  0  0  0  0  0  0  0  0
   54.0030   90.3370   16.1330 N   0  0  0  0  0  0  0  0  0  0  0  0
   55.1510   90.9560   16.2600 N   0  0  0  0  0  0  0  0  0  0  0  0
   55.4060   91.0580   17.5500 N   0  0  0  0  0  0  0  0  0  0  0  0
   54.4050   90.4960   18.2500 C   0  0  0  0  0  0  0  0  0  0  0  0
   52.6360   94.9230   26.6380 H   0  0  0  0  0  0  0  0  0  0  0  0
   52.0650   96.9660   27.9150 H   0  0  0  0  0  0  0  0  0  0  0  0
   53.6500   98.8280   28.0350 H   0  0  0  0  0  0  0  0  0  0  0  0
   55.7910   98.6600   26.8930 H   0  0  0  0  0  0  0  0  0  0  0  0
   56.2990   91.6740   22.2600 H   0  0  0  0  0  0  0  0  0  0  0  0
   55.8410   93.2690   21.6050 H   0  0  0  0  0  0  0  0  0  0  0  0
   53.5260   91.5620   22.4150 H   0  0  0  0  0  0  0  0  0  0  0  0
   55.3040   90.0410   20.0720 H   0  0  0  0  0  0  0  0  0  0  0  0
   53.5810   89.0710   21.2210 H   0  0  0  0  0  0  0  0  0  0  0  0
   52.3070   89.7290   20.1880 H   0  0  0  0  0  0  0  0  0  0  0  0
   53.3100   87.1980   20.0190 H   0  0  0  0  0  0  0  0  0  0  0  0
   54.5640   87.9960   19.0510 H   0  0  0  0  0  0  0  0  0  0  0  0
   53.1650   87.3780   17.3770 H   0  0  0  0  0  0  0  0  0  0  0  0
   51.6480   87.5080   18.3310 H   0  0  0  0  0  0  0  0  0  0  0  0
   51.7740   89.2120   16.5940 H   0  0  0  0  0  0  0  0  0  0  0  0
   51.7010   89.9560   18.2590 H   0  0  0  0  0  0  0  0  0  0  0  0
  1  2  1  0  0  0  0
  2  7  1  0  0  0  0
  3  2  2  0  0  0  0
  3  4  1  0  0  0  0
  4  5  2  0  0  0  0
  5  6  1  0  0  0  0
  5 28  1  0  0  0  0
  6 29  1  0  0  0  0
  7 30  1  0  0  0  0
  7  6  2  0  0  0  0
  8  9  2  0  0  0  0
  8  3  1  0  0  0  0
 10  9  1  0  0  0  0
 11 12  2  0  0  0  0
 11 10  1  0  0  0  0
 12  8  1  0  0  0  0
 13 31  1  0  0  0  0
 13 11  1  0  0  0  0
 14 13  1  0  0  0  0
 14 33  1  0  0  0  0
 15 14  1  0  0  0  0
 16 15  2  0  0  0  0
 17 34  1  1  0  0  0
 17 18  1  0  0  0  0
 17 15  1  0  0  0  0
 18 36  1  0  0  0  0
 18 35  1  0  0  0  0
 19 37  1  0  0  0  0
 19 18  1  0  0  0  0
 20 40  1  0  0  0  0
 20 19  1  0  0  0  0
 21 20  1  0  0  0  0
 21 42  1  0  0  0  0
 22 21  1  0  0  0  0
 22 26  1  0  0  0  0
 23 24  2  0  0  0  0
 23 22  1  0  0  0  0
 24 25  1  0  0  0  0
 25 26  2  0  0  0  0
 26 17  1  0  0  0  0
 27  4  1  0  0  0  0
 32 13  1  0  0  0  0
 38 19  1  0  0  0  0
 39 20  1  0  0  0  0
 41 21  1  0  0  0  0
M  END
>  <Pose>
1

>  <Score>
-7.46

$$$$
