
 OpenBabel03202210083D

 52 55  0  0  1  0  0  0  0  0999 V2000
   50.1700   82.3250   22.4220 B   0  0  0  0  0  0  0  0  0  0  0  0
   51.4720   83.5180   23.2010 C   0  0  0  0  0  0  0  0  0  0  0  0
   52.4220   84.1110   22.4070 C   0  0  0  0  0  0  0  0  0  0  0  0
   53.4030   84.9830   22.9070 C   0  0  0  0  0  0  0  0  0  0  0  0
   53.3950   85.2470   24.2420 C   0  0  0  0  0  0  0  0  0  0  0  0
   52.4380   84.6520   25.0570 C   0  0  0  0  0  0  0  0  0  0  0  0
   51.4800   83.7910   24.5480 C   0  0  0  0  0  0  0  0  0  0  0  0
   54.3550   85.5670   21.9450 C   0  0  0  0  0  0  0  0  0  0  0  0
   55.0900   84.8720   21.2340 O   0  0  0  0  0  0  0  0  0  0  0  0
   54.3700   87.0170   21.8710 N   0  0  0  0  0  0  0  0  0  0  0  0
   55.6390   87.7030   21.8460 C   0  0  2  0  0  0  0  0  0  0  0  0
   56.3440   87.2020   23.1330 C   0  0  0  0  0  0  0  0  0  0  0  0
   55.5280   89.1880   21.9770 C   0  0  0  0  0  0  0  0  0  0  0  0
   55.3020   89.6550   23.1130 O   0  0  0  0  0  0  0  0  0  0  0  0
   55.6800   90.0460   20.8820 N   0  0  0  0  0  0  0  0  0  0  0  0
   56.1750   89.7970   19.5710 C   0  0  0  0  0  0  0  0  0  0  0  0
   55.4040   90.7850   18.6810 C   0  0  0  0  0  0  0  0  0  0  0  0
   54.0320   91.0900   19.2310 C   0  0  1  0  0  0  0  0  0  0  0  0
   53.3280   92.0210   18.3920 N   0  0  0  0  0  0  0  0  0  0  0  0
   52.0500   92.3310   19.0480 C   0  0  0  0  0  0  0  0  0  0  0  0
   51.1400   91.1430   19.0860 C   0  0  0  0  0  0  0  0  0  0  0  0
   51.8740   89.8640   19.2160 C   0  0  0  0  0  0  0  0  0  0  0  0
   51.4200   88.6090   19.2930 N   0  0  0  0  0  0  0  0  0  0  0  0
   52.4750   87.7770   19.4050 C   0  0  0  0  0  0  0  0  0  0  0  0
   53.5810   88.5340   19.3970 N   0  0  0  0  0  0  0  0  0  0  0  0
   53.2740   89.8340   19.2810 C   0  0  0  0  0  0  0  0  0  0  0  0
   54.0890   91.7790   20.6040 C   0  0  0  0  0  0  0  0  0  0  0  0
   55.4470   91.5140   21.0980 C   0  0  0  0  0  0  0  0  0  0  0  0
   52.4490   83.9020   21.3470 H   0  0  0  0  0  0  0  0  0  0  0  0
   54.1430   85.9190   24.6600 H   0  0  0  0  0  0  0  0  0  0  0  0
   52.4030   84.8490   26.0950 H   0  0  0  0  0  0  0  0  0  0  0  0
   50.7180   83.2990   25.1530 H   0  0  0  0  0  0  0  0  0  0  0  0
   53.4980   87.5410   21.8420 H   0  0  0  0  0  0  0  0  0  0  0  0
   56.3000   87.3780   21.0240 H   0  0  0  0  0  0  0  0  0  0  0  0
   55.5940   87.5160   23.9370 H   0  0  0  0  0  0  0  0  0  0  0  0
   56.4180   86.1310   23.1450 H   0  0  0  0  0  0  0  0  0  0  0  0
   57.2830   87.7350   23.2950 H   0  0  0  0  0  0  0  0  0  0  0  0
   57.2480   90.1220   19.5670 H   0  0  0  0  0  0  0  0  0  0  0  0
   56.1010   88.7750   19.2200 H   0  0  0  0  0  0  0  0  0  0  0  0
   55.2420   90.2430   17.7410 H   0  0  0  0  0  0  0  0  0  0  0  0
   56.0010   91.6670   18.4230 H   0  0  0  0  0  0  0  0  0  0  0  0
   53.8540   92.9270   18.3620 H   0  0  0  0  0  0  0  0  0  0  0  0
   52.1410   92.7090   20.0650 H   0  0  0  0  0  0  0  0  0  0  0  0
   51.5270   93.1300   18.4460 H   0  0  0  0  0  0  0  0  0  0  0  0
   50.4020   91.1300   18.2360 H   0  0  0  0  0  0  0  0  0  0  0  0
   50.4780   91.2110   20.0040 H   0  0  0  0  0  0  0  0  0  0  0  0
   50.4400   88.2480   19.2760 H   0  0  0  0  0  0  0  0  0  0  0  0
   52.4940   86.7090   19.4880 H   0  0  0  0  0  0  0  0  0  0  0  0
   53.2620   91.3750   21.1890 H   0  0  0  0  0  0  0  0  0  0  0  0
   54.0170   92.8990   20.4940 H   0  0  0  0  0  0  0  0  0  0  0  0
   55.7710   91.8080   22.0760 H   0  0  0  0  0  0  0  0  0  0  0  0
   56.1520   92.0700   20.3910 H   0  0  0  0  0  0  0  0  0  0  0  0
  1  2  1  0  0  0  0
  2  7  1  0  0  0  0
  3  4  1  0  0  0  0
  3  2  2  0  0  0  0
  4  5  2  0  0  0  0
  5 30  1  0  0  0  0
  5  6  1  0  0  0  0
  6 31  1  0  0  0  0
  7  6  2  0  0  0  0
  7 32  1  0  0  0  0
  8  4  1  0  0  0  0
  9  8  2  0  0  0  0
 10  8  1  0  0  0  0
 11 34  1  6  0  0  0
 11 10  1  0  0  0  0
 11 13  1  0  0  0  0
 11 12  1  0  0  0  0
 12 36  1  0  0  0  0
 12 37  1  0  0  0  0
 12 35  1  0  0  0  0
 13 14  2  0  0  0  0
 15 28  1  0  0  0  0
 15 13  1  0  0  0  0
 16 15  1  0  0  0  0
 17 18  1  0  0  0  0
 17 16  1  0  0  0  0
 18 26  1  1  0  0  0
 18 27  1  0  0  0  0
 19 20  1  0  0  0  0
 19 18  1  0  0  0  0
 20 21  1  0  0  0  0
 20 43  1  0  0  0  0
 21 22  1  0  0  0  0
 21 46  1  0  0  0  0
 22 26  2  0  0  0  0
 22 23  1  0  0  0  0
 23 24  1  0  0  0  0
 24 48  1  0  0  0  0
 25 24  2  0  0  0  0
 26 25  1  0  0  0  0
 27 28  1  0  0  0  0
 27 49  1  0  0  0  0
 28 51  1  0  0  0  0
 29  3  1  0  0  0  0
 33 10  1  0  0  0  0
 38 16  1  0  0  0  0
 39 16  1  0  0  0  0
 40 17  1  0  0  0  0
 41 17  1  0  0  0  0
 42 19  1  0  0  0  0
 44 20  1  0  0  0  0
 45 21  1  0  0  0  0
 47 23  1  0  0  0  0
 50 27  1  0  0  0  0
 52 28  1  0  0  0  0
M  END
>  <Pose>
1

>  <Score>
-6.82

$$$$
