
 OpenBabel03202210083D

 45 48  0  0  0  0  0  0  0  0999 V2000
   52.4540   88.6230   16.7630 B   0  0  0  0  0  0  0  0  0  0  0  0
   52.8760   89.8550   18.1790 C   0  0  0  0  0  0  0  0  0  0  0  0
   54.0720   89.7560   18.8660 C   0  0  0  0  0  0  0  0  0  0  0  0
   54.3840   90.6160   19.8660 N   0  0  0  0  0  0  0  0  0  0  0  0
   53.5390   91.5920   20.2180 C   0  0  0  0  0  0  0  0  0  0  0  0
   53.8530   92.4410   21.2090 N   0  0  0  0  0  0  0  0  0  0  0  0
   55.0090   92.3610   21.8880 C   0  0  0  0  0  0  0  0  0  0  0  0
   55.8780   91.3610   21.5280 C   0  0  0  0  0  0  0  0  0  0  0  0
   55.5670   90.4650   20.4950 C   0  0  0  0  0  0  0  0  0  0  0  0
   56.3840   89.5610   20.1910 O   0  0  0  0  0  0  0  0  0  0  0  0
   55.2960   93.3250   22.9690 C   0  0  0  0  0  0  0  0  0  0  0  0
   54.2310   93.2670   23.8780 O   0  0  0  0  0  0  0  0  0  0  0  0
   54.5040   93.5790   25.2380 C   0  0  0  0  0  0  0  0  0  0  0  0
   54.2360   92.6380   25.9720 O   0  0  0  0  0  0  0  0  0  0  0  0
   55.0320   94.8910   25.5590 C   0  0  0  0  0  0  0  0  0  0  0  0
   56.2740   95.2630   25.1270 N   0  0  0  0  0  0  0  0  0  0  0  0
   56.7780   96.4520   25.4060 N   0  0  0  0  0  0  0  0  0  0  0  0
   56.0910   97.3520   26.1290 C   0  0  0  0  0  0  0  0  0  0  0  0
   56.5890   98.4980   26.3930 O   0  0  0  0  0  0  0  0  0  0  0  0
   54.8350   97.0560   26.6020 C   0  0  0  0  0  0  0  0  0  0  0  0
   54.3250   95.7920   26.2930 C   0  0  0  0  0  0  0  0  0  0  0  0
   53.0680   95.5400   26.7840 C   0  0  0  0  0  0  0  0  0  0  0  0
   52.3650   96.4790   27.5320 C   0  0  0  0  0  0  0  0  0  0  0  0
   52.8980   97.7140   27.8180 C   0  0  0  0  0  0  0  0  0  0  0  0
   54.1530   97.9890   27.3370 C   0  0  0  0  0  0  0  0  0  0  0  0
   58.0960   96.8340   24.9430 C   0  0  0  0  0  0  0  0  0  0  0  0
   58.2690   98.3280   24.8680 C   0  0  0  0  0  0  0  0  0  0  0  0
   58.6880   98.8770   26.0660 O   0  0  0  0  0  0  0  0  0  0  0  0
   52.3490   91.7060   19.5490 C   0  0  0  0  0  0  0  0  0  0  0  0
   51.9960   90.8500   18.5270 C   0  0  0  0  0  0  0  0  0  0  0  0
   54.7470   88.9530   18.5620 H   0  0  0  0  0  0  0  0  0  0  0  0
   56.8230   91.2470   22.0380 H   0  0  0  0  0  0  0  0  0  0  0  0
   56.2860   93.1620   23.4380 H   0  0  0  0  0  0  0  0  0  0  0  0
   55.3830   94.3390   22.4890 H   0  0  0  0  0  0  0  0  0  0  0  0
   52.5920   94.6150   26.6070 H   0  0  0  0  0  0  0  0  0  0  0  0
   51.3760   96.2310   27.8970 H   0  0  0  0  0  0  0  0  0  0  0  0
   52.3480   98.4540   28.4050 H   0  0  0  0  0  0  0  0  0  0  0  0
   54.5870   98.9450   27.5470 H   0  0  0  0  0  0  0  0  0  0  0  0
   58.2660   96.4290   23.9260 H   0  0  0  0  0  0  0  0  0  0  0  0
   58.8670   96.4120   25.6050 H   0  0  0  0  0  0  0  0  0  0  0  0
   57.3500   98.8310   24.5140 H   0  0  0  0  0  0  0  0  0  0  0  0
   59.0610   98.5250   24.1180 H   0  0  0  0  0  0  0  0  0  0  0  0
   58.9140   99.8220   25.8970 H   0  0  0  0  0  0  0  0  0  0  0  0
   51.6420   92.5010   19.8260 H   0  0  0  0  0  0  0  0  0  0  0  0
   51.0580   90.9450   18.0040 H   0  0  0  0  0  0  0  0  0  0  0  0
  1  2  1  0  0  0  0
  2 30  2  0  0  0  0
  2  3  1  0  0  0  0
  3  4  1  0  0  0  0
  4  5  1  0  0  0  0
  4  9  1  0  0  0  0
  5  6  1  0  0  0  0
  6  7  2  0  0  0  0
  7 11  1  0  0  0  0
  8  7  1  0  0  0  0
  8 32  1  0  0  0  0
  9  8  1  0  0  0  0
 10  9  2  0  0  0  0
 11 33  1  0  0  0  0
 11 12  1  0  0  0  0
 12 13  1  0  0  0  0
 13 15  1  0  0  0  0
 13 14  2  0  0  0  0
 15 21  1  0  0  0  0
 16 17  1  0  0  0  0
 16 15  2  0  0  0  0
 17 18  1  0  0  0  0
 18 19  2  0  0  0  0
 18 20  1  0  0  0  0
 20 25  1  0  0  0  0
 21 20  2  0  0  0  0
 21 22  1  0  0  0  0
 22 23  2  0  0  0  0
 23 24  1  0  0  0  0
 23 36  1  0  0  0  0
 24 37  1  0  0  0  0
 25 38  1  0  0  0  0
 25 24  2  0  0  0  0
 26 17  1  0  0  0  0
 26 40  1  0  0  0  0
 27 26  1  0  0  0  0
 27 28  1  0  0  0  0
 29 44  1  0  0  0  0
 29  5  2  0  0  0  0
 30 29  1  0  0  0  0
 31  3  1  0  0  0  0
 34 11  1  0  0  0  0
 35 22  1  0  0  0  0
 39 26  1  0  0  0  0
 41 27  1  0  0  0  0
 42 27  1  0  0  0  0
 43 28  1  0  0  0  0
 45 30  1  0  0  0  0
M  END
>  <Pose>
1

>  <Score>
-7.17

$$$$
