
 OpenBabel03202210083D

 51 54  0  0  1  0  0  0  0  0999 V2000
   58.2810   87.3010   25.1510 B   0  0  0  0  0  0  0  0  0  0  0  0
   56.4900   86.6430   25.1490 C   0  0  0  0  0  0  0  0  0  0  0  0
   56.2090   85.3290   25.4690 C   0  0  0  0  0  0  0  0  0  0  0  0
   54.9330   84.8060   25.4810 C   0  0  0  0  0  0  0  0  0  0  0  0
   53.9080   85.6960   25.1460 C   0  0  0  0  0  0  0  0  0  0  0  0
   54.1870   87.0030   24.8280 C   0  0  0  0  0  0  0  0  0  0  0  0
   55.4700   87.5110   24.8210 C   0  0  0  0  0  0  0  0  0  0  0  0
   55.7150   88.9380   24.4670 C   0  0  0  0  0  0  0  0  0  0  0  0
   52.6380   85.1360   25.1710 O   0  0  0  0  0  0  0  0  0  0  0  0
   52.3780   83.7500   25.2910 C   0  0  0  0  0  0  0  0  0  0  0  0
   53.3080   83.1120   26.3760 C   0  0  2  0  0  0  0  0  0  0  0  0
   54.6400   83.4160   25.8000 C   0  0  0  0  0  0  0  0  0  0  0  0
   55.5520   82.6090   25.5500 O   0  0  0  0  0  0  0  0  0  0  0  0
   53.0270   81.8070   26.6370 N   0  0  0  0  0  0  0  0  0  0  0  0
   53.5000   81.1080   27.7540 C   0  0  0  0  0  0  0  0  0  0  0  0
   54.6730   80.2350   27.3620 C   0  0  0  0  0  0  0  0  0  0  0  0
   54.1380   79.2520   26.4950 O   0  0  0  0  0  0  0  0  0  0  0  0
   53.8730   79.9510   25.3050 C   0  0  0  0  0  0  0  0  0  0  0  0
   52.7370   80.9380   25.5840 C   0  0  0  0  0  0  0  0  0  0  0  0
   53.0660   83.9690   27.5670 C   0  0  0  0  0  0  0  0  0  0  0  0
   51.9650   83.6520   28.4220 N   0  0  0  0  0  0  0  0  0  0  0  0
   52.1340   83.7810   29.8190 C   0  0  0  0  0  0  0  0  0  0  0  0
   52.0900   85.2590   30.2350 C   0  0  0  0  0  0  0  0  0  0  0  0
   50.7830   85.6820   29.9720 O   0  0  0  0  0  0  0  0  0  0  0  0
   50.6440   85.7220   28.5800 C   0  0  0  0  0  0  0  0  0  0  0  0
   50.7800   84.3710   27.9480 C   0  0  0  0  0  0  0  0  0  0  0  0
   57.0190   84.6280   25.7340 H   0  0  0  0  0  0  0  0  0  0  0  0
   53.3690   87.6640   24.5730 H   0  0  0  0  0  0  0  0  0  0  0  0
   56.6790   89.0720   23.9390 H   0  0  0  0  0  0  0  0  0  0  0  0
   54.8450   89.2650   23.8540 H   0  0  0  0  0  0  0  0  0  0  0  0
   55.6970   89.5620   25.3850 H   0  0  0  0  0  0  0  0  0  0  0  0
   51.3200   83.6480   25.5810 H   0  0  0  0  0  0  0  0  0  0  0  0
   52.5480   83.2360   24.3180 H   0  0  0  0  0  0  0  0  0  0  0  0
   53.7550   81.6720   28.6460 H   0  0  0  0  0  0  0  0  0  0  0  0
   52.6960   80.3870   28.0730 H   0  0  0  0  0  0  0  0  0  0  0  0
   55.4680   80.8000   26.8830 H   0  0  0  0  0  0  0  0  0  0  0  0
   54.9930   79.6840   28.2680 H   0  0  0  0  0  0  0  0  0  0  0  0
   53.4770   79.2280   24.5720 H   0  0  0  0  0  0  0  0  0  0  0  0
   54.8040   80.4240   25.0050 H   0  0  0  0  0  0  0  0  0  0  0  0
   51.9000   80.2480   25.9510 H   0  0  0  0  0  0  0  0  0  0  0  0
   52.3640   81.3150   24.6410 H   0  0  0  0  0  0  0  0  0  0  0  0
   52.9360   85.0570   27.2940 H   0  0  0  0  0  0  0  0  0  0  0  0
   53.9630   83.9910   28.2600 H   0  0  0  0  0  0  0  0  0  0  0  0
   53.0520   83.3870   30.2110 H   0  0  0  0  0  0  0  0  0  0  0  0
   51.2390   83.3330   30.3210 H   0  0  0  0  0  0  0  0  0  0  0  0
   52.2930   85.2550   31.3370 H   0  0  0  0  0  0  0  0  0  0  0  0
   52.8460   85.8620   29.7100 H   0  0  0  0  0  0  0  0  0  0  0  0
   49.5860   86.0640   28.4050 H   0  0  0  0  0  0  0  0  0  0  0  0
   51.3010   86.4870   28.1250 H   0  0  0  0  0  0  0  0  0  0  0  0
   49.8660   83.7760   28.0880 H   0  0  0  0  0  0  0  0  0  0  0  0
   50.9180   84.5050   26.8560 H   0  0  0  0  0  0  0  0  0  0  0  0
  2  1  1  0  0  0  0
  2  3  1  0  0  0  0
  3  4  2  0  0  0  0
  3 27  1  0  0  0  0
  4 12  1  0  0  0  0
  5  9  1  0  0  0  0
  5  4  1  0  0  0  0
  6  5  2  0  0  0  0
  7  6  1  0  0  0  0
  7  2  2  0  0  0  0
  8  7  1  0  0  0  0
  8 31  1  0  0  0  0
  9 10  1  0  0  0  0
 10 32  1  0  0  0  0
 10 11  1  0  0  0  0
 11 14  1  0  0  0  0
 11 20  1  1  0  0  0
 12 11  1  0  0  0  0
 13 12  2  0  0  0  0
 14 15  1  0  0  0  0
 15 35  1  0  0  0  0
 15 34  1  0  0  0  0
 16 15  1  0  0  0  0
 16 37  1  0  0  0  0
 17 16  1  0  0  0  0
 18 19  1  0  0  0  0
 18 17  1  0  0  0  0
 19 40  1  0  0  0  0
 19 14  1  0  0  0  0
 20 43  1  0  0  0  0
 20 21  1  0  0  0  0
 21 22  1  0  0  0  0
 22 44  1  0  0  0  0
 22 23  1  0  0  0  0
 22 45  1  0  0  0  0
 23 46  1  0  0  0  0
 24 23  1  0  0  0  0
 25 24  1  0  0  0  0
 26 50  1  0  0  0  0
 26 21  1  0  0  0  0
 26 25  1  0  0  0  0
 28  6  1  0  0  0  0
 29  8  1  0  0  0  0
 30  8  1  0  0  0  0
 33 10  1  0  0  0  0
 36 16  1  0  0  0  0
 38 18  1  0  0  0  0
 39 18  1  0  0  0  0
 41 19  1  0  0  0  0
 42 20  1  0  0  0  0
 47 23  1  0  0  0  0
 48 25  1  0  0  0  0
 49 25  1  0  0  0  0
 51 26  1  0  0  0  0
M  END
>  <Pose>
1

>  <Score>
-3.67

$$$$
