
 OpenBabel03202210083D

 38 41  0  0  0  0  0  0  0  0999 V2000
   57.5000   96.9500   25.0280 B   0  0  0  0  0  0  0  0  0  0  0  0
   55.8100   96.9960   25.8820 C   0  0  0  0  0  0  0  0  0  0  0  0
   55.0160   95.9020   25.8160 C   0  0  0  0  0  0  0  0  0  0  0  0
   55.1910   94.7030   25.2270 N   0  0  0  0  0  0  0  0  0  0  0  0
   54.0740   94.0340   25.4980 N   0  0  0  0  0  0  0  0  0  0  0  0
   53.2360   94.7360   26.2080 N   0  0  0  0  0  0  0  0  0  0  0  0
   53.7910   95.9530   26.4440 C   0  0  0  0  0  0  0  0  0  0  0  0
   53.3820   97.0950   27.1250 C   0  0  0  0  0  0  0  0  0  0  0  0
   54.1670   98.1830   27.1930 N   0  0  0  0  0  0  0  0  0  0  0  0
   55.3660   98.1220   26.5740 C   0  0  0  0  0  0  0  0  0  0  0  0
   53.7830   99.3980   27.8930 C   0  0  0  0  0  0  0  0  0  0  0  0
   52.6050  100.0610   27.3420 C   0  0  0  0  0  0  0  0  0  0  0  0
   52.7960  100.7910   26.3220 O   0  0  0  0  0  0  0  0  0  0  0  0
   51.2400   99.9660   27.8500 C   0  0  0  0  0  0  0  0  0  0  0  0
   50.6030  101.1040   28.2560 C   0  0  0  0  0  0  0  0  0  0  0  0
   49.3230  101.0440   28.7430 C   0  0  0  0  0  0  0  0  0  0  0  0
   48.6330   99.8500   28.8430 C   0  0  0  0  0  0  0  0  0  0  0  0
   49.3110   98.7080   28.4220 C   0  0  0  0  0  0  0  0  0  0  0  0
   50.5870   98.7640   27.9340 C   0  0  0  0  0  0  0  0  0  0  0  0
   47.3450   99.7640   29.3300 C   0  0  0  0  0  0  0  0  0  0  0  0
   46.7350  100.9330   29.7300 C   0  0  0  0  0  0  0  0  0  0  0  0
   47.4140  102.1300   29.6340 C   0  0  0  0  0  0  0  0  0  0  0  0
   48.6980  102.2090   29.1480 C   0  0  0  0  0  0  0  0  0  0  0  0
   56.2640   94.1730   24.4750 C   0  0  0  0  0  0  0  0  0  0  0  0
   52.4270   97.0820   27.5920 H   0  0  0  0  0  0  0  0  0  0  0  0
   56.0130   98.9850   26.6160 H   0  0  0  0  0  0  0  0  0  0  0  0
   53.5860   99.1800   28.9770 H   0  0  0  0  0  0  0  0  0  0  0  0
   54.6370  100.0990   27.8660 H   0  0  0  0  0  0  0  0  0  0  0  0
   51.0770  102.0920   28.2100 H   0  0  0  0  0  0  0  0  0  0  0  0
   48.7570   97.7610   28.5040 H   0  0  0  0  0  0  0  0  0  0  0  0
   51.0900   97.8460   27.6140 H   0  0  0  0  0  0  0  0  0  0  0  0
   46.8580   98.7990   29.3840 H   0  0  0  0  0  0  0  0  0  0  0  0
   45.7140  100.8880   30.1180 H   0  0  0  0  0  0  0  0  0  0  0  0
   46.9190  103.0400   29.9530 H   0  0  0  0  0  0  0  0  0  0  0  0
   49.2290  103.1640   29.0760 H   0  0  0  0  0  0  0  0  0  0  0  0
   55.9240   93.2580   23.9480 H   0  0  0  0  0  0  0  0  0  0  0  0
   57.0840   93.8130   25.1680 H   0  0  0  0  0  0  0  0  0  0  0  0
   56.7410   94.7970   23.7360 H   0  0  0  0  0  0  0  0  0  0  0  0
  1  2  1  0  0  0  0
  2 10  2  0  0  0  0
  3  2  1  0  0  0  0
  3  7  2  0  0  0  0
  4  5  1  0  0  0  0
  4  3  1  0  0  0  0
  5  6  2  0  0  0  0
  6  7  1  0  0  0  0
  7  8  1  0  0  0  0
  8  9  1  0  0  0  0
  8 25  1  0  0  0  0
  9 11  1  0  0  0  0
 10 26  1  0  0  0  0
 10  9  1  0  0  0  0
 11 27  1  0  0  0  0
 12 14  1  0  0  0  0
 12 11  1  0  0  0  0
 13 12  2  0  0  0  0
 14 19  2  0  0  0  0
 14 15  1  0  0  0  0
 15 16  2  0  0  0  0
 16 17  1  0  0  0  0
 16 23  1  0  0  0  0
 17 20  1  0  0  0  0
 18 30  1  0  0  0  0
 18 17  2  0  0  0  0
 19 18  1  0  0  0  0
 20 32  1  0  0  0  0
 20 21  2  0  0  0  0
 21 33  1  0  0  0  0
 22 21  1  0  0  0  0
 22 34  1  0  0  0  0
 23 22  2  0  0  0  0
 24 37  1  0  0  0  0
 24  4  1  0  0  0  0
 28 11  1  0  0  0  0
 29 15  1  0  0  0  0
 31 19  1  0  0  0  0
 35 23  1  0  0  0  0
 36 24  1  0  0  0  0
 38 24  1  0  0  0  0
M  END
>  <Pose>
1

>  <Score>
-6.36

$$$$
