
 OpenBabel03202210083D

 66 69  0  0  1  0  0  0  0  0999 V2000
   48.3810   83.6720   27.9590 B   0  0  0  0  0  0  0  0  0  0  0  0
   50.0180   84.0530   28.8810 C   0  0  0  0  0  0  0  0  0  0  0  0
   51.1420   84.3940   28.1660 C   0  0  0  0  0  0  0  0  0  0  0  0
   52.3610   84.6810   28.8030 C   0  0  0  0  0  0  0  0  0  0  0  0
   52.3690   84.6020   30.1780 C   0  0  0  0  0  0  0  0  0  0  0  0
   51.2570   84.2620   30.9180 C   0  0  0  0  0  0  0  0  0  0  0  0
   50.0740   83.9860   30.2720 C   0  0  0  0  0  0  0  0  0  0  0  0
   48.8220   83.6120   30.9800 C   0  0  0  0  0  0  0  0  0  0  0  0
   51.2980   84.1620   32.8230 B   0  0  0  0  0  0  0  0  0  0  0  0
   53.5210   85.0330   28.0110 C   0  0  0  0  0  0  0  0  0  0  0  0
   54.5680   85.3870   28.5640 O   0  0  0  0  0  0  0  0  0  0  0  0
   53.4430   84.9650   26.5410 C   0  0  1  0  0  0  0  0  0  0  0  0
   52.0260   85.3250   26.1510 C   0  0  0  0  0  0  0  0  0  0  0  0
   51.0940   84.4630   26.7770 O   0  0  0  0  0  0  0  0  0  0  0  0
   54.4450   85.8330   25.8430 C   0  0  0  0  0  0  0  0  0  0  0  0
   53.9270   86.9570   25.1640 N   0  0  0  0  0  4  0  0  0  0  0  0
   54.9120   87.9960   25.1120 C   0  0  0  0  0  0  0  0  0  0  0  0
   56.0620   87.7360   24.2060 C   0  0  2  0  0  0  0  0  0  0  0  0
   55.9530   86.5610   23.3130 C   0  0  0  0  0  0  0  0  0  0  0  0
   54.5890   86.0760   23.0150 C   0  0  0  0  0  0  0  0  0  0  0  0
   53.4970   86.7270   23.8120 C   0  0  0  0  0  0  0  0  0  0  0  0
   57.3060   87.5410   25.0800 C   0  0  0  0  0  0  0  0  0  0  0  0
   53.6740   83.5120   26.1770 C   0  0  0  0  0  0  0  0  0  0  0  0
   54.8170   82.9100   26.7740 N   0  0  0  0  0  4  0  0  0  0  0  0
   55.4410   81.9730   25.8410 C   0  0  0  0  0  0  0  0  0  0  0  0
   55.0900   80.5450   26.1380 C   0  0  1  0  0  0  0  0  0  0  0  0
   53.6230   80.4470   26.4920 C   0  0  0  0  0  0  0  0  0  0  0  0
   53.4190   81.1570   27.7940 C   0  0  0  0  0  0  0  0  0  0  0  0
   54.5330   82.1580   27.9770 C   0  0  0  0  0  0  0  0  0  0  0  0
   55.2710   79.7590   24.8320 C   0  0  0  0  0  0  0  0  0  0  0  0
   53.2860   84.8150   30.7220 H   0  0  0  0  0  0  0  0  0  0  0  0
   48.0660   84.4020   30.7740 H   0  0  0  0  0  0  0  0  0  0  0  0
   48.9730   83.4140   32.0420 H   0  0  0  0  0  0  0  0  0  0  0  0
   48.4330   82.6960   30.4490 H   0  0  0  0  0  0  0  0  0  0  0  0
   51.7730   86.3490   26.4650 H   0  0  0  0  0  0  0  0  0  0  0  0
   51.8970   85.3140   25.0330 H   0  0  0  0  0  0  0  0  0  0  0  0
   55.1410   86.1950   26.6290 H   0  0  0  0  0  0  0  0  0  0  0  0
   55.0560   85.1850   25.1820 H   0  0  0  0  0  0  0  0  0  0  0  0
   53.0990   87.3420   25.6850 H   0  0  0  0  0  0  0  0  0  0  0  0
   54.3640   88.9360   24.8040 H   0  0  0  0  0  0  0  0  0  0  0  0
   55.2430   88.2010   26.1510 H   0  0  0  0  0  0  0  0  0  0  0  0
   56.2640   88.6650   23.6250 H   0  0  0  0  0  0  0  0  0  0  0  0
   56.4510   86.8260   22.3350 H   0  0  0  0  0  0  0  0  0  0  0  0
   56.5760   85.6950   23.6890 H   0  0  0  0  0  0  0  0  0  0  0  0
   54.5110   84.9540   23.1310 H   0  0  0  0  0  0  0  0  0  0  0  0
   54.3160   86.2370   21.9290 H   0  0  0  0  0  0  0  0  0  0  0  0
   52.5590   86.2030   23.6830 H   0  0  0  0  0  0  0  0  0  0  0  0
   53.3480   87.7520   23.3560 H   0  0  0  0  0  0  0  0  0  0  0  0
   58.2170   87.9240   24.5570 H   0  0  0  0  0  0  0  0  0  0  0  0
   57.1440   88.0040   26.0620 H   0  0  0  0  0  0  0  0  0  0  0  0
   57.4330   86.4530   25.2360 H   0  0  0  0  0  0  0  0  0  0  0  0
   53.7960   83.4990   25.0570 H   0  0  0  0  0  0  0  0  0  0  0  0
   52.7240   82.9300   26.3470 H   0  0  0  0  0  0  0  0  0  0  0  0
   55.5260   83.6160   26.9920 H   0  0  0  0  0  0  0  0  0  0  0  0
   56.5390   82.0720   25.8350 H   0  0  0  0  0  0  0  0  0  0  0  0
   55.0950   82.1740   24.7930 H   0  0  0  0  0  0  0  0  0  0  0  0
   55.7470   80.0640   26.8730 H   0  0  0  0  0  0  0  0  0  0  0  0
   53.3790   79.3680   26.5730 H   0  0  0  0  0  0  0  0  0  0  0  0
   53.0440   80.8660   25.6620 H   0  0  0  0  0  0  0  0  0  0  0  0
   52.4400   81.6080   27.9320 H   0  0  0  0  0  0  0  0  0  0  0  0
   53.5430   80.4040   28.6240 H   0  0  0  0  0  0  0  0  0  0  0  0
   55.4880   81.6090   28.2240 H   0  0  0  0  0  0  0  0  0  0  0  0
   54.3000   82.7580   28.8570 H   0  0  0  0  0  0  0  0  0  0  0  0
   56.0640   80.2360   24.2110 H   0  0  0  0  0  0  0  0  0  0  0  0
   54.3110   79.6720   24.2800 H   0  0  0  0  0  0  0  0  0  0  0  0
   55.6020   78.7210   25.0390 H   0  0  0  0  0  0  0  0  0  0  0  0
  1  2  1  0  0  0  0
  2  7  1  0  0  0  0
  3  4  1  0  0  0  0
  3  2  2  0  0  0  0
  4  5  2  0  0  0  0
  5 31  1  0  0  0  0
  5  6  1  0  0  0  0
  6  9  1  0  0  0  0
  7  6  2  0  0  0  0
  7  8  1  0  0  0  0
  8 33  1  0  0  0  0
 10 11  2  0  0  0  0
 10  4  1  0  0  0  0
 12 15  1  6  0  0  0
 12 10  1  0  0  0  0
 13 35  1  0  0  0  0
 13 12  1  0  0  0  0
 13 14  1  0  0  0  0
 14  3  1  0  0  0  0
 15 37  1  0  0  0  0
 16 39  1  0  0  0  0
 16 15  1  0  0  0  0
 17 16  1  0  0  0  0
 17 41  1  0  0  0  0
 18 42  1  6  0  0  0
 18 22  1  0  0  0  0
 18 17  1  0  0  0  0
 19 44  1  0  0  0  0
 19 18  1  0  0  0  0
 20 45  1  0  0  0  0
 20 19  1  0  0  0  0
 20 21  1  0  0  0  0
 21 16  1  0  0  0  0
 22 51  1  0  0  0  0
 22 50  1  0  0  0  0
 23 53  1  0  0  0  0
 23 12  1  0  0  0  0
 23 24  1  0  0  0  0
 24 54  1  0  0  0  0
 24 29  1  0  0  0  0
 25 26  1  0  0  0  0
 25 24  1  0  0  0  0
 26 27  1  0  0  0  0
 26 57  1  1  0  0  0
 27 58  1  0  0  0  0
 27 28  1  0  0  0  0
 28 60  1  0  0  0  0
 28 29  1  0  0  0  0
 28 61  1  0  0  0  0
 29 62  1  0  0  0  0
 29 63  1  0  0  0  0
 30 66  1  0  0  0  0
 30 26  1  0  0  0  0
 32  8  1  0  0  0  0
 34  8  1  0  0  0  0
 36 13  1  0  0  0  0
 38 15  1  0  0  0  0
 40 17  1  0  0  0  0
 43 19  1  0  0  0  0
 46 20  1  0  0  0  0
 47 21  1  0  0  0  0
 48 21  1  0  0  0  0
 49 22  1  0  0  0  0
 52 23  1  0  0  0  0
 55 25  1  0  0  0  0
 56 25  1  0  0  0  0
 59 27  1  0  0  0  0
 64 30  1  0  0  0  0
 65 30  1  0  0  0  0
M  END
>  <Pose>
1

>  <Score>
-5.41

$$$$
