
 OpenBabel03202210083D

 56 59  0  0  1  0  0  0  0  0999 V2000
   55.7900   80.1280   19.5520 B   0  0  0  0  0  0  0  0  0  0  0  0
   54.6870   81.6660   19.4360 C   0  0  0  0  0  0  0  0  0  0  0  0
   53.9250   82.0570   20.5420 C   0  0  0  0  0  0  0  0  0  0  0  0
   53.1240   83.1710   20.4990 C   0  0  0  0  0  0  0  0  0  0  0  0
   53.0960   83.8890   19.3270 C   0  0  0  0  0  0  0  0  0  0  0  0
   53.8440   83.5220   18.2090 C   0  0  0  0  0  0  0  0  0  0  0  0
   54.6580   82.3870   18.2700 C   0  0  0  0  0  0  0  0  0  0  0  0
   55.4650   81.9880   17.0840 C   0  0  0  0  0  0  0  0  0  0  0  0
   53.7630   84.3200   16.9570 C   0  0  0  0  0  0  0  0  0  0  0  0
   52.3110   83.6830   21.6400 C   0  0  2  0  0  0  0  0  0  0  0  0
   52.2420   82.7590   22.8170 C   0  0  2  0  0  0  0  0  0  0  0  0
   52.5920   81.3560   22.3580 C   0  0  0  0  0  0  0  0  0  0  0  0
   53.9080   81.3660   21.7460 O   0  0  0  0  0  0  0  0  0  0  0  0
   50.8600   82.7520   23.2460 N   0  0  0  0  0  0  0  0  0  0  0  0
   50.6990   82.6840   24.6610 C   0  0  0  0  0  0  0  0  0  0  0  0
   49.3340   82.2790   25.1390 C   0  0  0  0  0  0  0  0  0  0  0  0
   48.7040   81.3340   24.3770 O   0  0  0  0  0  0  0  0  0  0  0  0
   48.6120   81.8270   23.0690 C   0  0  0  0  0  0  0  0  0  0  0  0
   50.0740   81.7720   22.5550 C   0  0  0  0  0  0  0  0  0  0  0  0
   53.1900   83.0380   23.9200 C   0  0  0  0  0  0  0  0  0  0  0  0
   53.5320   84.3160   24.3490 N   0  0  0  0  0  0  0  0  0  0  0  0
   52.8160   84.6190   25.6360 C   0  0  0  0  0  0  0  0  0  0  0  0
   53.1010   83.5880   26.6640 C   0  0  0  0  0  0  0  0  0  0  0  0
   54.3410   83.0130   26.5810 O   0  0  0  0  0  0  0  0  0  0  0  0
   55.3070   83.7580   25.9700 C   0  0  0  0  0  0  0  0  0  0  0  0
   54.8910   84.5720   24.7870 C   0  0  0  0  0  0  0  0  0  0  0  0
   50.9980   83.9320   21.1340 O   0  0  0  0  0  0  0  0  0  0  0  0
   52.4860   84.7960   19.1870 H   0  0  0  0  0  0  0  0  0  0  0  0
   54.8780   81.7210   16.2010 H   0  0  0  0  0  0  0  0  0  0  0  0
   56.0670   81.0880   17.3560 H   0  0  0  0  0  0  0  0  0  0  0  0
   56.1460   82.8660   16.8870 H   0  0  0  0  0  0  0  0  0  0  0  0
   52.7550   84.1100   16.4980 H   0  0  0  0  0  0  0  0  0  0  0  0
   53.8410   85.4030   17.1100 H   0  0  0  0  0  0  0  0  0  0  0  0
   54.5290   83.9290   16.2480 H   0  0  0  0  0  0  0  0  0  0  0  0
   52.7060   84.6790   21.8370 H   0  0  0  0  0  0  0  0  0  0  0  0
   51.9110   80.9090   21.6480 H   0  0  0  0  0  0  0  0  0  0  0  0
   52.7390   80.7500   23.2870 H   0  0  0  0  0  0  0  0  0  0  0  0
   50.8780   83.6890   25.0860 H   0  0  0  0  0  0  0  0  0  0  0  0
   51.3880   81.8980   25.0260 H   0  0  0  0  0  0  0  0  0  0  0  0
   48.6710   83.1450   25.3410 H   0  0  0  0  0  0  0  0  0  0  0  0
   49.4700   81.8110   26.1540 H   0  0  0  0  0  0  0  0  0  0  0  0
   48.0460   81.1100   22.4700 H   0  0  0  0  0  0  0  0  0  0  0  0
   48.2470   82.8690   23.0490 H   0  0  0  0  0  0  0  0  0  0  0  0
   50.3860   80.7380   22.8470 H   0  0  0  0  0  0  0  0  0  0  0  0
   49.9920   81.9400   21.4830 H   0  0  0  0  0  0  0  0  0  0  0  0
   54.1740   82.5640   23.5240 H   0  0  0  0  0  0  0  0  0  0  0  0
   52.9790   82.3610   24.7890 H   0  0  0  0  0  0  0  0  0  0  0  0
   51.7410   84.7650   25.4240 H   0  0  0  0  0  0  0  0  0  0  0  0
   53.1980   85.6000   25.9720 H   0  0  0  0  0  0  0  0  0  0  0  0
   52.9320   83.9860   27.7080 H   0  0  0  0  0  0  0  0  0  0  0  0
   52.3440   82.7740   26.5360 H   0  0  0  0  0  0  0  0  0  0  0  0
   56.1030   83.0660   25.6380 H   0  0  0  0  0  0  0  0  0  0  0  0
   55.7680   84.3920   26.7810 H   0  0  0  0  0  0  0  0  0  0  0  0
   54.8050   85.6430   25.2160 H   0  0  0  0  0  0  0  0  0  0  0  0
   55.6410   84.7010   24.0250 H   0  0  0  0  0  0  0  0  0  0  0  0
   51.0640   84.7260   20.5480 H   0  0  0  0  0  0  0  0  0  0  0  0
  2  1  1  0  0  0  0
  2  3  1  0  0  0  0
  3 13  1  0  0  0  0
  4  3  2  0  0  0  0
  4 10  1  0  0  0  0
  5  4  1  0  0  0  0
  6  7  1  0  0  0  0
  6  5  2  0  0  0  0
  7  2  2  0  0  0  0
  8 30  1  0  0  0  0
  8  7  1  0  0  0  0
  9 33  1  0  0  0  0
  9  6  1  0  0  0  0
 10 35  1  1  0  0  0
 10 11  1  0  0  0  0
 11 14  1  0  0  0  0
 11 20  1  1  0  0  0
 12 11  1  0  0  0  0
 12 37  1  0  0  0  0
 13 12  1  0  0  0  0
 14 15  1  0  0  0  0
 15 39  1  0  0  0  0
 15 38  1  0  0  0  0
 15 16  1  0  0  0  0
 16 40  1  0  0  0  0
 16 41  1  0  0  0  0
 17 16  1  0  0  0  0
 18 17  1  0  0  0  0
 19 44  1  0  0  0  0
 19 18  1  0  0  0  0
 19 14  1  0  0  0  0
 20 21  1  0  0  0  0
 20 47  1  0  0  0  0
 21 26  1  0  0  0  0
 21 22  1  0  0  0  0
 22 49  1  0  0  0  0
 22 23  1  0  0  0  0
 23 50  1  0  0  0  0
 24 23  1  0  0  0  0
 25 24  1  0  0  0  0
 25 53  1  0  0  0  0
 26 54  1  0  0  0  0
 26 25  1  0  0  0  0
 27 10  1  0  0  0  0
 28  5  1  0  0  0  0
 29  8  1  0  0  0  0
 31  8  1  0  0  0  0
 32  9  1  0  0  0  0
 34  9  1  0  0  0  0
 36 12  1  0  0  0  0
 42 18  1  0  0  0  0
 43 18  1  0  0  0  0
 45 19  1  0  0  0  0
 46 20  1  0  0  0  0
 48 22  1  0  0  0  0
 51 23  1  0  0  0  0
 52 25  1  0  0  0  0
 55 26  1  0  0  0  0
 56 27  1  0  0  0  0
M  END
>  <Pose>
1

>  <Score>
-4.90

$$$$
