
 OpenBabel03202210083D

 56 59  0  0  1  0  0  0  0  0999 V2000
   57.5110   98.1610   25.9040 B   0  0  0  0  0  0  0  0  0  0  0  0
   56.8170   96.5070   25.2070 C   0  0  0  0  0  0  0  0  0  0  0  0
   55.5460   96.0890   25.5630 C   0  0  0  0  0  0  0  0  0  0  0  0
   55.0390   94.8940   25.0630 C   0  0  0  0  0  0  0  0  0  0  0  0
   55.7750   94.1050   24.2090 C   0  0  0  0  0  0  0  0  0  0  0  0
   57.0340   94.5500   23.8760 C   0  0  0  0  0  0  0  0  0  0  0  0
   57.5600   95.7250   24.3550 C   0  0  0  0  0  0  0  0  0  0  0  0
   55.2600   92.8600   23.6800 C   0  0  0  0  0  0  0  0  0  0  0  0
   54.6960   92.8540   22.5540 O   0  0  0  0  0  0  0  0  0  0  0  0
   55.3610   91.5660   24.4060 C   0  0  0  0  0  0  0  0  0  0  0  0
   55.5210   90.4620   23.5070 N   0  0  0  0  0  0  0  0  0  0  0  0
   55.3390   90.4730   22.2060 N   0  0  0  0  0  0  0  0  0  0  0  0
   55.5790   89.2600   21.6860 C   0  0  0  0  0  0  0  0  0  0  0  0
   55.9250   88.4600   22.7050 N   0  0  0  0  0  0  0  0  0  0  0  0
   55.8870   89.2200   23.8390 C   0  0  2  0  0  0  0  0  0  0  0  0
   56.1910   88.7600   25.1930 C   0  0  0  0  0  0  0  0  0  0  0  0
   57.5860   88.1960   25.3260 C   0  0  0  0  0  0  0  0  0  0  0  0
   57.7180   86.8470   24.6550 C   0  0  0  0  0  0  0  0  0  0  0  0
   57.6900   86.9280   23.1600 C   0  0  0  0  0  0  0  0  0  0  0  0
   56.2750   87.0560   22.6150 C   0  0  0  0  0  0  0  0  0  0  0  0
   55.4900   88.8490   20.2780 C   0  0  0  0  0  0  0  0  0  0  0  0
   55.3910   89.9620   19.3840 N   0  0  0  0  0  0  0  0  0  0  0  0
   54.1460   90.4870   18.9340 C   0  0  0  0  0  0  0  0  0  0  0  0
   53.9000   91.8390   18.8660 C   0  0  0  0  0  0  0  0  0  0  0  0
   52.6990   92.3330   18.4250 C   0  0  0  0  0  0  0  0  0  0  0  0
   51.7180   91.4720   18.0440 C   0  0  0  0  0  0  0  0  0  0  0  0
   51.9610   90.1170   18.1110 C   0  0  0  0  0  0  0  0  0  0  0  0
   53.1660   89.6100   18.5520 C   0  0  0  0  0  0  0  0  0  0  0  0
   50.5040   91.9380   17.5990 O   0  0  0  0  0  0  0  0  0  0  0  0
   50.2540   92.2570   16.2530 C   0  0  0  0  0  0  0  0  0  0  0  0
   54.9790   96.7100   26.2290 H   0  0  0  0  0  0  0  0  0  0  0  0
   54.0490   94.5900   25.3530 H   0  0  0  0  0  0  0  0  0  0  0  0
   57.6370   93.9340   23.1960 H   0  0  0  0  0  0  0  0  0  0  0  0
   58.5480   96.0200   24.0600 H   0  0  0  0  0  0  0  0  0  0  0  0
   56.1340   91.6010   25.1970 H   0  0  0  0  0  0  0  0  0  0  0  0
   54.3660   91.4350   24.9220 H   0  0  0  0  0  0  0  0  0  0  0  0
   56.1030   89.5800   25.9270 H   0  0  0  0  0  0  0  0  0  0  0  0
   55.4920   87.9520   25.5550 H   0  0  0  0  0  0  0  0  0  0  0  0
   58.3710   88.8750   24.9890 H   0  0  0  0  0  0  0  0  0  0  0  0
   57.7530   88.0220   26.4180 H   0  0  0  0  0  0  0  0  0  0  0  0
   57.0090   86.1180   25.0510 H   0  0  0  0  0  0  0  0  0  0  0  0
   58.7420   86.4680   24.9360 H   0  0  0  0  0  0  0  0  0  0  0  0
   58.2700   87.7690   22.7830 H   0  0  0  0  0  0  0  0  0  0  0  0
   58.1440   85.9780   22.7640 H   0  0  0  0  0  0  0  0  0  0  0  0
   55.5680   86.4030   23.1500 H   0  0  0  0  0  0  0  0  0  0  0  0
   56.2810   86.7560   21.5560 H   0  0  0  0  0  0  0  0  0  0  0  0
   54.5840   88.1980   20.1660 H   0  0  0  0  0  0  0  0  0  0  0  0
   56.3520   88.2270   19.9860 H   0  0  0  0  0  0  0  0  0  0  0  0
   56.2450   90.4240   19.0370 H   0  0  0  0  0  0  0  0  0  0  0  0
   54.7250   92.4890   19.1850 H   0  0  0  0  0  0  0  0  0  0  0  0
   52.5530   93.3960   18.3880 H   0  0  0  0  0  0  0  0  0  0  0  0
   51.1930   89.4000   17.8120 H   0  0  0  0  0  0  0  0  0  0  0  0
   53.3410   88.5250   18.5960 H   0  0  0  0  0  0  0  0  0  0  0  0
   49.3300   92.8410   16.1550 H   0  0  0  0  0  0  0  0  0  0  0  0
   51.1060   92.8540   15.8700 H   0  0  0  0  0  0  0  0  0  0  0  0
   50.1780   91.3430   15.6210 H   0  0  0  0  0  0  0  0  0  0  0  0
  2  3  1  0  0  0  0
  2  1  1  0  0  0  0
  3 31  1  0  0  0  0
  4 32  1  0  0  0  0
  4  3  2  0  0  0  0
  5  4  1  0  0  0  0
  6  5  2  0  0  0  0
  6  7  1  0  0  0  0
  7  2  2  0  0  0  0
  8  5  1  0  0  0  0
  8 10  1  0  0  0  0
  9  8  2  0  0  0  0
 10 36  1  0  0  0  0
 10 35  1  0  0  0  0
 11 15  1  0  0  0  0
 11 10  1  0  0  0  0
 12 11  1  0  0  0  0
 13 12  2  0  0  0  0
 13 14  1  0  0  0  0
 15 14  1  1  0  0  0
 15 16  1  0  0  0  0
 16 17  1  0  0  0  0
 16 38  1  0  0  0  0
 16 37  1  0  0  0  0
 17 40  1  0  0  0  0
 18 42  1  0  0  0  0
 18 41  1  0  0  0  0
 18 17  1  0  0  0  0
 19 18  1  0  0  0  0
 20 14  1  0  0  0  0
 20 45  1  0  0  0  0
 20 19  1  0  0  0  0
 21 13  1  0  0  0  0
 22 21  1  0  0  0  0
 23 22  1  0  0  0  0
 24 23  1  0  0  0  0
 24 50  1  0  0  0  0
 25 24  2  0  0  0  0
 26 27  2  0  0  0  0
 26 25  1  0  0  0  0
 27 28  1  0  0  0  0
 28 53  1  0  0  0  0
 28 23  2  0  0  0  0
 29 26  1  0  0  0  0
 30 29  1  0  0  0  0
 33  6  1  0  0  0  0
 34  7  1  0  0  0  0
 39 17  1  0  0  0  0
 43 19  1  0  0  0  0
 44 19  1  0  0  0  0
 46 20  1  0  0  0  0
 47 21  1  0  0  0  0
 48 21  1  0  0  0  0
 49 22  1  0  0  0  0
 51 25  1  0  0  0  0
 52 27  1  0  0  0  0
 54 30  1  0  0  0  0
 55 30  1  0  0  0  0
 56 30  1  0  0  0  0
M  END
>  <Pose>
1

>  <Score>
-7.32

$$$$
