
 OpenBabel03202210083D

 48 51  0  0  1  0  0  0  0  0999 V2000
   53.5270   82.0560   13.7890 Cl  0  0  0  0  0  0  0  0  0  0  0  0
   53.8390   82.5660   15.4410 C   0  0  0  0  0  0  0  0  0  0  0  0
   52.9030   83.3270   16.1360 C   0  0  0  0  0  0  0  0  0  0  0  0
   53.1160   83.7690   17.4190 C   0  0  0  0  0  0  0  0  0  0  0  0
   54.3380   83.4050   17.9970 C   0  0  0  0  0  0  0  0  0  0  0  0
   55.2860   82.6460   17.3200 C   0  0  0  0  0  0  0  0  0  0  0  0
   55.0360   82.2290   16.0400 C   0  0  0  0  0  0  0  0  0  0  0  0
   52.1240   84.4480   18.1740 N   0  0  0  0  0  4  0  0  0  0  0  0
   52.3470   85.8600   18.3610 C   0  0  0  0  0  0  0  0  0  0  0  0
   52.2170   86.2450   19.7750 C   0  0  2  0  0  0  0  0  0  0  0  0
   51.8660   85.0150   20.4270 N   0  0  0  0  0  0  0  0  0  0  0  0
   51.2030   84.7320   21.6770 C   0  0  0  0  0  0  0  0  0  0  0  0
   52.0100   83.9450   22.6590 C   0  0  0  0  0  0  0  0  0  0  0  0
   53.2740   83.3680   22.1240 C   0  0  0  0  0  0  0  0  0  0  0  0
   52.9060   82.1540   21.2410 C   0  0  0  0  0  0  0  0  0  0  0  0
   52.7180   82.7520   19.8580 C   0  0  0  0  0  0  0  0  0  0  0  0
   52.2780   83.9460   19.5320 C   0  0  0  0  0  0  0  0  0  0  0  0
   51.0990   87.1120   19.9280 O   0  0  0  0  0  0  0  0  0  0  0  0
   53.3240   86.9470   20.3770 C   0  0  0  0  0  0  0  0  0  0  0  0
   53.8300   88.1510   19.8850 C   0  0  0  0  0  0  0  0  0  0  0  0
   54.8790   88.8340   20.4820 C   0  0  0  0  0  0  0  0  0  0  0  0
   55.4580   88.2950   21.6320 C   0  0  0  0  0  0  0  0  0  0  0  0
   54.9940   87.1190   22.1460 C   0  0  0  0  0  0  0  0  0  0  0  0
   53.9300   86.4580   21.5120 C   0  0  0  0  0  0  0  0  0  0  0  0
   55.3410   90.0500   19.9280 N   0  0  0  0  0  0  0  0  0  0  0  0
   55.2360   90.2480   18.6770 O   0  0  0  0  0  0  0  0  0  0  0  0
   55.9000   91.0320   20.6550 O   0  0  0  0  0  0  0  0  0  0  0  0
   51.9970   83.5760   15.5580 H   0  0  0  0  0  0  0  0  0  0  0  0
   54.5370   83.7280   19.0050 H   0  0  0  0  0  0  0  0  0  0  0  0
   56.2460   82.3730   17.7950 H   0  0  0  0  0  0  0  0  0  0  0  0
   55.7530   81.6470   15.4990 H   0  0  0  0  0  0  0  0  0  0  0  0
   51.2050   84.1550   17.8630 H   0  0  0  0  0  0  0  0  0  0  0  0
   53.1710   86.1730   17.7520 H   0  0  0  0  0  0  0  0  0  0  0  0
   51.4370   86.3250   17.8280 H   0  0  0  0  0  0  0  0  0  0  0  0
   50.7630   85.6120   22.1800 H   0  0  0  0  0  0  0  0  0  0  0  0
   50.2780   84.0650   21.5130 H   0  0  0  0  0  0  0  0  0  0  0  0
   51.4140   83.1410   23.1480 H   0  0  0  0  0  0  0  0  0  0  0  0
   52.3290   84.6120   23.5330 H   0  0  0  0  0  0  0  0  0  0  0  0
   53.9140   84.0590   21.5390 H   0  0  0  0  0  0  0  0  0  0  0  0
   53.9220   82.9230   22.9300 H   0  0  0  0  0  0  0  0  0  0  0  0
   51.9920   81.7020   21.6060 H   0  0  0  0  0  0  0  0  0  0  0  0
   53.7740   81.4650   21.1740 H   0  0  0  0  0  0  0  0  0  0  0  0
   53.0010   82.0710   19.0750 H   0  0  0  0  0  0  0  0  0  0  0  0
   51.1260   87.4150   20.8950 H   0  0  0  0  0  0  0  0  0  0  0  0
   53.3790   88.5430   19.0180 H   0  0  0  0  0  0  0  0  0  0  0  0
   56.2730   88.8640   22.0660 H   0  0  0  0  0  0  0  0  0  0  0  0
   55.4600   86.6980   23.0580 H   0  0  0  0  0  0  0  0  0  0  0  0
   53.6490   85.5350   22.0110 H   0  0  0  0  0  0  0  0  0  0  0  0
  1  2  1  0  0  0  0
  2  7  2  0  0  0  0
  2  3  1  0  0  0  0
  3  4  2  0  0  0  0
  4  5  1  0  0  0  0
  4  8  1  0  0  0  0
  5 29  1  0  0  0  0
  6 30  1  0  0  0  0
  6  5  2  0  0  0  0
  7  6  1  0  0  0  0
  8  9  1  0  0  0  0
  8 17  1  0  0  0  0
  9 10  1  0  0  0  0
 10 18  1  1  0  0  0
 10 19  1  0  0  0  0
 10 11  1  0  0  0  0
 11 12  1  0  0  0  0
 12 35  1  0  0  0  0
 12 13  1  0  0  0  0
 13 37  1  0  0  0  0
 13 38  1  0  0  0  0
 14 13  1  0  0  0  0
 14 40  1  0  0  0  0
 15 41  1  0  0  0  0
 15 14  1  0  0  0  0
 16 15  1  0  0  0  0
 17 16  2  0  0  0  0
 17 11  1  0  0  0  0
 18 44  1  0  0  0  0
 19 24  1  0  0  0  0
 20 19  2  0  0  0  0
 20 21  1  0  0  0  0
 21 22  2  0  0  0  0
 22 46  1  0  0  0  0
 22 23  1  0  0  0  0
 23 47  1  0  0  0  0
 24 48  1  0  0  0  0
 24 23  2  0  0  0  0
 25 21  1  0  0  0  0
 25 27  2  0  0  0  0
 26 25  2  0  0  0  0
 28  3  1  0  0  0  0
 31  7  1  0  0  0  0
 32  8  1  0  0  0  0
 33  9  1  0  0  0  0
 34  9  1  0  0  0  0
 36 12  1  0  0  0  0
 39 14  1  0  0  0  0
 42 15  1  0  0  0  0
 43 16  1  0  0  0  0
 45 20  1  0  0  0  0
M  END
>  <Pose>
1

>  <Score>
-6.15

$$$$
