
 OpenBabel03202210083D

 49 52  0  0  0  0  0  0  0  0999 V2000
   50.2990  100.6500   29.5100 B   0  0  0  0  0  0  0  0  0  0  0  0
   51.5350   99.4780   28.6330 C   0  0  0  0  0  0  0  0  0  0  0  0
   51.8360   98.2350   29.1530 C   0  0  0  0  0  0  0  0  0  0  0  0
   52.7350   97.3870   28.5110 C   0  0  0  0  0  0  0  0  0  0  0  0
   53.3590   97.7560   27.3380 C   0  0  0  0  0  0  0  0  0  0  0  0
   53.0550   98.9980   26.8250 C   0  0  0  0  0  0  0  0  0  0  0  0
   52.1630   99.8390   27.4580 C   0  0  0  0  0  0  0  0  0  0  0  0
   54.2820   96.9160   26.6550 N   0  0  0  0  0  0  0  0  0  0  0  0
   54.1200   95.6800   26.1550 C   0  0  0  0  0  0  0  0  0  0  0  0
   53.0310   95.0560   26.2370 O   0  0  0  0  0  0  0  0  0  0  0  0
   55.2860   95.2230   25.5630 C   0  0  0  0  0  0  0  0  0  0  0  0
   56.1720   96.2000   25.7060 C   0  0  0  0  0  0  0  0  0  0  0  0
   57.3010   95.7570   25.1330 N   0  0  0  0  0  0  0  0  0  0  0  0
   57.1090   94.5410   24.6520 N   0  0  0  0  0  0  0  0  0  0  0  0
   55.8760   94.1950   24.9070 N   0  0  0  0  0  0  0  0  0  0  0  0
   55.2210   92.9540   24.5690 C   0  0  0  0  0  0  0  0  0  0  0  0
   54.9220   92.9380   23.0880 C   0  0  0  0  0  0  0  0  0  0  0  0
   53.9790   93.6320   22.6480 O   0  0  0  0  0  0  0  0  0  0  0  0
   55.6970   92.1520   22.2230 N   0  0  0  0  0  0  0  0  0  0  0  0
   55.2100   91.1600   21.3480 C   0  0  0  0  0  0  0  0  0  0  0  0
   54.4700   91.3790   20.2140 C   0  0  0  0  0  0  0  0  0  0  0  0
   54.0070   90.3610   19.4080 C   0  0  0  0  0  0  0  0  0  0  0  0
   54.3070   89.0630   19.7650 C   0  0  0  0  0  0  0  0  0  0  0  0
   55.0530   88.7990   20.9020 C   0  0  0  0  0  0  0  0  0  0  0  0
   55.5010   89.8250   21.6890 C   0  0  0  0  0  0  0  0  0  0  0  0
   53.8500   88.0200   18.9640 O   0  0  0  0  0  0  0  0  0  0  0  0
   52.4640   87.7450   18.9160 C   0  0  0  0  0  0  0  0  0  0  0  0
   53.2570   90.6140   18.2610 O   0  0  0  0  0  0  0  0  0  0  0  0
   53.9680   90.7820   17.0280 C   0  0  0  0  0  0  0  0  0  0  0  0
   55.5640   97.2420   26.3750 C   0  0  0  0  0  0  0  0  0  0  0  0
   56.1220   98.3470   26.6840 O   0  0  0  0  0  0  0  0  0  0  0  0
   51.3390   97.9510   30.0800 H   0  0  0  0  0  0  0  0  0  0  0  0
   52.9630   96.4200   28.9240 H   0  0  0  0  0  0  0  0  0  0  0  0
   53.5500   99.2810   25.8980 H   0  0  0  0  0  0  0  0  0  0  0  0
   51.9430  100.8190   27.0270 H   0  0  0  0  0  0  0  0  0  0  0  0
   58.2060   96.2620   25.0580 H   0  0  0  0  0  0  0  0  0  0  0  0
   57.8160   93.9300   24.1440 H   0  0  0  0  0  0  0  0  0  0  0  0
   54.2490   92.8200   25.1000 H   0  0  0  0  0  0  0  0  0  0  0  0
   55.8750   92.0880   24.7590 H   0  0  0  0  0  0  0  0  0  0  0  0
   56.7540   92.3310   22.2290 H   0  0  0  0  0  0  0  0  0  0  0  0
   54.2280   92.3880   19.9070 H   0  0  0  0  0  0  0  0  0  0  0  0
   55.2720   87.7600   21.1560 H   0  0  0  0  0  0  0  0  0  0  0  0
   56.0940   89.6000   22.5930 H   0  0  0  0  0  0  0  0  0  0  0  0
   51.9640   88.7050   18.6440 H   0  0  0  0  0  0  0  0  0  0  0  0
   52.1170   87.4300   19.9080 H   0  0  0  0  0  0  0  0  0  0  0  0
   52.2740   86.9830   18.1240 H   0  0  0  0  0  0  0  0  0  0  0  0
   54.4770   89.8190   16.7480 H   0  0  0  0  0  0  0  0  0  0  0  0
   53.2770   91.0840   16.2170 H   0  0  0  0  0  0  0  0  0  0  0  0
   54.7480   91.5640   17.1350 H   0  0  0  0  0  0  0  0  0  0  0  0
  2  3  1  0  0  0  0
  2  1  1  0  0  0  0
  3 32  1  0  0  0  0
  4 33  1  0  0  0  0
  4  3  2  0  0  0  0
  5  4  1  0  0  0  0
  6  5  2  0  0  0  0
  6  7  1  0  0  0  0
  7  2  2  0  0  0  0
  8  5  1  0  0  0  0
  9 10  2  0  0  0  0
  9  8  1  0  0  0  0
 11 12  2  0  0  0  0
 11  9  1  0  0  0  0
 12 30  1  0  0  0  0
 13 12  1  0  0  0  0
 14 15  1  0  0  0  0
 14 13  1  0  0  0  0
 15 11  1  0  0  0  0
 16 39  1  0  0  0  0
 16 15  1  0  0  0  0
 16 38  1  0  0  0  0
 17 16  1  0  0  0  0
 18 17  2  0  0  0  0
 19 40  1  0  0  0  0
 19 17  1  0  0  0  0
 20 25  1  0  0  0  0
 20 19  1  0  0  0  0
 21 20  2  0  0  0  0
 22 23  2  0  0  0  0
 22 21  1  0  0  0  0
 23 24  1  0  0  0  0
 24 42  1  0  0  0  0
 24 25  2  0  0  0  0
 25 43  1  0  0  0  0
 26 23  1  0  0  0  0
 27 26  1  0  0  0  0
 27 45  1  0  0  0  0
 28 22  1  0  0  0  0
 29 49  1  0  0  0  0
 29 28  1  0  0  0  0
 30  8  1  0  0  0  0
 30 31  2  0  0  0  0
 34  6  1  0  0  0  0
 35  7  1  0  0  0  0
 36 13  1  0  0  0  0
 37 14  1  0  0  0  0
 41 21  1  0  0  0  0
 44 27  1  0  0  0  0
 46 27  1  0  0  0  0
 47 29  1  0  0  0  0
 48 29  1  0  0  0  0
M  END
>  <Pose>
1

>  <Score>
-10.05

$$$$
