
 OpenBabel03202210083D

 41 44  0  0  1  0  0  0  0  0999 V2000
   47.7590   99.1780   28.9470 Cl  0  0  0  0  0  0  0  0  0  0  0  0
   49.2560   99.7400   28.2340 C   0  0  0  0  0  0  0  0  0  0  0  0
   50.3300   98.8870   28.1550 C   0  0  0  0  0  0  0  0  0  0  0  0
   50.5490   97.6110   28.5170 N   0  0  0  0  0  0  0  0  0  0  0  0
   51.8020   97.2210   28.2150 C   0  0  0  0  0  0  0  0  0  0  0  0
   52.4000   98.3180   27.6320 C   0  0  0  0  0  0  0  0  0  0  0  0
   51.5000   99.3610   27.5860 C   0  0  0  0  0  0  0  0  0  0  0  0
   51.5500  100.6600   27.1230 C   0  0  0  0  0  0  0  0  0  0  0  0
   50.4920  101.5330   27.1910 C   0  0  0  0  0  0  0  0  0  0  0  0
   49.3180  101.0520   27.7630 C   0  0  0  0  0  0  0  0  0  0  0  0
   53.8080   98.1310   27.2030 C   0  0  0  0  0  0  0  0  0  0  0  0
   53.7950   96.9210   26.4130 N   0  0  0  0  0  0  0  0  0  0  0  0
   53.5140   95.7420   27.1350 C   0  0  0  0  0  0  0  0  0  0  0  0
   52.6430   96.0120   28.3420 C   0  0  0  0  0  0  0  0  0  0  0  0
   54.7450   96.8760   25.3840 C   0  0  0  0  0  0  0  0  0  0  0  0
   55.9020   95.9740   25.6880 C   0  0  1  0  0  0  0  0  0  0  0  0
   55.8150   94.6470   25.0170 C   0  0  0  0  0  0  0  0  0  0  0  0
   56.9760   94.4110   24.2300 N   0  0  0  0  0  0  0  0  0  0  0  0
   57.8250   95.5560   24.2900 C   0  0  0  0  0  0  0  0  0  0  0  0
   57.1530   96.5930   25.1250 C   0  0  0  0  0  0  0  0  0  0  0  0
   56.0990   95.8550   27.0700 O   0  0  0  0  0  0  0  0  0  0  0  0
   49.8570   96.9590   28.9810 H   0  0  0  0  0  0  0  0  0  0  0  0
   52.4710  101.0030   26.6850 H   0  0  0  0  0  0  0  0  0  0  0  0
   50.5370  102.5520   26.8250 H   0  0  0  0  0  0  0  0  0  0  0  0
   48.4730  101.7250   27.8250 H   0  0  0  0  0  0  0  0  0  0  0  0
   54.3980   97.9920   28.1540 H   0  0  0  0  0  0  0  0  0  0  0  0
   54.1910   98.9390   26.5830 H   0  0  0  0  0  0  0  0  0  0  0  0
   52.9340   95.0080   26.5080 H   0  0  0  0  0  0  0  0  0  0  0  0
   54.4300   95.2270   27.5260 H   0  0  0  0  0  0  0  0  0  0  0  0
   51.9780   95.1430   28.5310 H   0  0  0  0  0  0  0  0  0  0  0  0
   53.2690   96.1010   29.2660 H   0  0  0  0  0  0  0  0  0  0  0  0
   55.1490   97.8550   25.0580 H   0  0  0  0  0  0  0  0  0  0  0  0
   54.2500   96.4510   24.4610 H   0  0  0  0  0  0  0  0  0  0  0  0
   55.5790   93.8020   25.7060 H   0  0  0  0  0  0  0  0  0  0  0  0
   54.9390   94.6870   24.3070 H   0  0  0  0  0  0  0  0  0  0  0  0
   57.4790   93.5240   24.4690 H   0  0  0  0  0  0  0  0  0  0  0  0
   58.8380   95.2850   24.6480 H   0  0  0  0  0  0  0  0  0  0  0  0
   57.9750   96.0010   23.2700 H   0  0  0  0  0  0  0  0  0  0  0  0
   57.8820   96.8690   25.9370 H   0  0  0  0  0  0  0  0  0  0  0  0
   56.9200   97.5260   24.5600 H   0  0  0  0  0  0  0  0  0  0  0  0
   56.5330   96.7020   27.3560 H   0  0  0  0  0  0  0  0  0  0  0  0
  2  1  1  0  0  0  0
  3  2  1  0  0  0  0
  3  4  1  0  0  0  0
  4 22  1  0  0  0  0
  5 14  1  0  0  0  0
  5  4  1  0  0  0  0
  6  5  2  0  0  0  0
  7  6  1  0  0  0  0
  7  3  2  0  0  0  0
  8  9  2  0  0  0  0
  8  7  1  0  0  0  0
  9 10  1  0  0  0  0
 10 25  1  0  0  0  0
 10  2  2  0  0  0  0
 11  6  1  0  0  0  0
 11 26  1  0  0  0  0
 12 13  1  0  0  0  0
 12 11  1  0  0  0  0
 13 29  1  0  0  0  0
 13 14  1  0  0  0  0
 14 30  1  0  0  0  0
 14 31  1  0  0  0  0
 15 16  1  0  0  0  0
 15 12  1  0  0  0  0
 16 21  1  1  0  0  0
 17 16  1  0  0  0  0
 17 34  1  0  0  0  0
 18 19  1  0  0  0  0
 18 36  1  0  0  0  0
 18 17  1  0  0  0  0
 19 37  1  0  0  0  0
 19 20  1  0  0  0  0
 20 16  1  0  0  0  0
 20 39  1  0  0  0  0
 21 41  1  0  0  0  0
 23  8  1  0  0  0  0
 24  9  1  0  0  0  0
 27 11  1  0  0  0  0
 28 13  1  0  0  0  0
 32 15  1  0  0  0  0
 33 15  1  0  0  0  0
 35 17  1  0  0  0  0
 38 19  1  0  0  0  0
 40 20  1  0  0  0  0
M  END
>  <Pose>
1

>  <Score>
-5.54

$$$$
