
 OpenBabel03202210083D

 43 46  0  0  0  0  0  0  0  0999 V2000
   53.1180   96.8430   27.3560 B   0  0  0  0  0  0  0  0  0  0  0  0
   54.5100   96.1850   26.2330 C   0  0  0  0  0  0  0  0  0  0  0  0
   54.2800   95.0890   25.3880 C   0  0  0  0  0  0  0  0  0  0  0  0
   55.2920   94.6250   24.5830 C   0  0  0  0  0  0  0  0  0  0  0  0
   56.5110   95.2480   24.6250 C   0  0  0  0  0  0  0  0  0  0  0  0
   56.7510   96.3430   25.4640 C   0  0  0  0  0  0  0  0  0  0  0  0
   55.7330   96.8000   26.2650 C   0  0  0  0  0  0  0  0  0  0  0  0
   55.0780   93.5190   23.7240 N   0  0  0  0  0  0  0  0  0  0  0  0
   54.1850   93.4530   22.7310 N   0  0  0  0  0  0  0  0  0  0  0  0
   54.2470   92.2840   22.1330 N   0  0  0  0  0  0  0  0  0  0  0  0
   55.1920   91.5370   22.7200 C   0  0  0  0  0  0  0  0  0  0  0  0
   55.7050   92.3300   23.7190 C   0  0  0  0  0  0  0  0  0  0  0  0
   55.5990   90.1560   22.3710 C   0  0  0  0  0  0  0  0  0  0  0  0
   55.9010   89.4110   23.3680 O   0  0  0  0  0  0  0  0  0  0  0  0
   55.6640   89.6590   21.0680 N   0  0  0  0  0  0  0  0  0  0  0  0
   54.7630   88.6180   20.6580 C   0  0  0  0  0  0  0  0  0  0  0  0
   53.8330   89.1770   19.6170 C   0  0  0  0  0  0  0  0  0  0  0  0
   54.5860   89.9470   18.6670 N   0  0  0  0  0  0  0  0  0  0  0  0
   56.0450   89.7220   18.6810 C   0  0  0  0  0  0  0  0  0  0  0  0
   56.5890   90.1060   20.0500 C   0  0  0  0  0  0  0  0  0  0  0  0
   54.1050   90.8780   17.7470 C   0  0  0  0  0  0  0  0  0  0  0  0
   54.9930   91.3410   16.9210 O   0  0  0  0  0  0  0  0  0  0  0  0
   52.7630   91.4170   17.5600 C   0  0  0  0  0  0  0  0  0  0  0  0
   51.5570   90.8660   18.1780 C   0  0  0  0  0  0  0  0  0  0  0  0
   52.0520   92.2600   18.5520 C   0  0  0  0  0  0  0  0  0  0  0  0
   53.2890   94.6580   25.4180 H   0  0  0  0  0  0  0  0  0  0  0  0
   57.3470   94.9360   24.0210 H   0  0  0  0  0  0  0  0  0  0  0  0
   57.7070   96.8370   25.5020 H   0  0  0  0  0  0  0  0  0  0  0  0
   55.9140   97.6550   26.9230 H   0  0  0  0  0  0  0  0  0  0  0  0
   56.4920   92.0370   24.3960 H   0  0  0  0  0  0  0  0  0  0  0  0
   54.2320   88.1430   21.5030 H   0  0  0  0  0  0  0  0  0  0  0  0
   55.4000   87.8120   20.2260 H   0  0  0  0  0  0  0  0  0  0  0  0
   53.2570   88.3520   19.1180 H   0  0  0  0  0  0  0  0  0  0  0  0
   53.0970   89.8570   20.0890 H   0  0  0  0  0  0  0  0  0  0  0  0
   56.2000   88.6700   18.4190 H   0  0  0  0  0  0  0  0  0  0  0  0
   56.4850   90.4040   17.9510 H   0  0  0  0  0  0  0  0  0  0  0  0
   56.7560   91.1800   20.1360 H   0  0  0  0  0  0  0  0  0  0  0  0
   57.5360   89.5700   20.1910 H   0  0  0  0  0  0  0  0  0  0  0  0
   52.5820   91.8410   16.5000 H   0  0  0  0  0  0  0  0  0  0  0  0
   50.5840   90.8490   17.5860 H   0  0  0  0  0  0  0  0  0  0  0  0
   51.5330   90.1170   18.9830 H   0  0  0  0  0  0  0  0  0  0  0  0
   52.3760   92.4680   19.5580 H   0  0  0  0  0  0  0  0  0  0  0  0
   51.3990   93.1040   18.1640 H   0  0  0  0  0  0  0  0  0  0  0  0
  2  7  1  0  0  0  0
  2  1  1  0  0  0  0
  3 26  1  0  0  0  0
  3  2  2  0  0  0  0
  4  5  2  0  0  0  0
  4  3  1  0  0  0  0
  5  6  1  0  0  0  0
  6 28  1  0  0  0  0
  6  7  2  0  0  0  0
  7 29  1  0  0  0  0
  8  4  1  0  0  0  0
  9  8  1  0  0  0  0
 10 11  1  0  0  0  0
 10  9  2  0  0  0  0
 11 12  2  0  0  0  0
 12  8  1  0  0  0  0
 12 30  1  0  0  0  0
 13 11  1  0  0  0  0
 13 14  2  0  0  0  0
 15 13  1  0  0  0  0
 16 15  1  0  0  0  0
 16 31  1  0  0  0  0
 17 34  1  0  0  0  0
 17 16  1  0  0  0  0
 18 19  1  0  0  0  0
 18 17  1  0  0  0  0
 19 20  1  0  0  0  0
 20 37  1  0  0  0  0
 20 38  1  0  0  0  0
 20 15  1  0  0  0  0
 21 18  1  0  0  0  0
 22 21  2  0  0  0  0
 23 21  1  0  0  0  0
 23 24  1  0  0  0  0
 23 25  1  0  0  0  0
 24 25  1  0  0  0  0
 24 41  1  0  0  0  0
 25 42  1  0  0  0  0
 27  5  1  0  0  0  0
 32 16  1  0  0  0  0
 33 17  1  0  0  0  0
 35 19  1  0  0  0  0
 36 19  1  0  0  0  0
 39 23  1  0  0  0  0
 40 24  1  0  0  0  0
 43 25  1  0  0  0  0
M  END
>  <Pose>
1

>  <Score>
-6.54

$$$$
