
 OpenBabel03202210083D

 44 47  0  0  1  0  0  0  0  0999 V2000
   51.8670  100.6990   27.5990 Cl  0  0  0  0  0  0  0  0  0  0  0  0
   52.1990   98.9830   27.4920 C   0  0  0  0  0  0  0  0  0  0  0  0
   51.3680   98.1180   28.1400 C   0  0  0  0  0  0  0  0  0  0  0  0
   51.6060   96.7640   28.0730 C   0  0  0  0  0  0  0  0  0  0  0  0
   52.7010   96.3030   27.3370 C   0  0  0  0  0  0  0  0  0  0  0  0
   53.5430   97.1710   26.6810 C   0  0  0  0  0  0  0  0  0  0  0  0
   53.2850   98.5080   26.7630 C   0  0  0  0  0  0  0  0  0  0  0  0
   54.6800   96.6190   25.9440 C   0  0  0  0  0  0  0  0  0  0  0  0
   55.9630   97.0550   25.8520 N   0  0  0  0  0  0  0  0  0  0  0  0
   56.6560   96.2290   25.0600 C   0  0  2  0  0  0  0  0  0  0  0  0
   55.8430   95.2260   24.6070 N   0  0  0  0  0  0  0  0  0  0  0  0
   54.6430   95.4780   25.1540 C   0  0  0  0  0  0  0  0  0  0  0  0
   56.2220   94.1230   23.7730 C   0  0  0  0  0  0  0  0  0  0  0  0
   55.2760   93.1490   23.3010 C   0  0  2  0  0  0  0  0  0  0  0  0
   54.0120   93.5330   23.4520 O   0  0  0  0  0  0  0  0  0  0  0  0
   55.3940   91.8450   22.6990 C   0  0  0  0  0  0  0  0  0  0  0  0
   55.6890   90.7240   23.5080 C   0  0  0  0  0  0  0  0  0  0  0  0
   55.8190   89.4470   23.0280 C   0  0  0  0  0  0  0  0  0  0  0  0
   55.6450   89.2760   21.6700 C   0  0  0  0  0  0  0  0  0  0  0  0
   55.3570   90.3520   20.8610 C   0  0  0  0  0  0  0  0  0  0  0  0
   55.2260   91.6510   21.3550 C   0  0  0  0  0  0  0  0  0  0  0  0
   56.1160   88.3380   23.8560 N   0  0  0  0  0  0  0  0  0  0  0  0
   56.7380   87.3800   23.3840 O   0  0  0  0  0  0  0  0  0  0  0  0
   55.7350   88.2940   25.1650 O   0  0  0  0  0  0  0  0  0  0  0  0
   58.0660   96.6640   24.9440 C   0  0  0  0  0  0  0  0  0  0  0  0
   57.9650   98.1180   25.3130 C   0  0  0  0  0  0  0  0  0  0  0  0
   56.8390   98.1290   26.3210 C   0  0  0  0  0  0  0  0  0  0  0  0
   49.9810   98.6790   29.0750 Cl  0  0  0  0  0  0  0  0  0  0  0  0
   50.9420   96.1000   28.5900 H   0  0  0  0  0  0  0  0  0  0  0  0
   52.8330   95.2300   27.3240 H   0  0  0  0  0  0  0  0  0  0  0  0
   53.8860   99.2700   26.2970 H   0  0  0  0  0  0  0  0  0  0  0  0
   53.7560   94.8570   24.9890 H   0  0  0  0  0  0  0  0  0  0  0  0
   56.8110   94.5850   22.9080 H   0  0  0  0  0  0  0  0  0  0  0  0
   57.0570   93.6060   24.3560 H   0  0  0  0  0  0  0  0  0  0  0  0
   55.8280   90.8550   24.5820 H   0  0  0  0  0  0  0  0  0  0  0  0
   55.7460   88.2680   21.2770 H   0  0  0  0  0  0  0  0  0  0  0  0
   55.2200   90.2060   19.7840 H   0  0  0  0  0  0  0  0  0  0  0  0
   54.9980   92.4200   20.6480 H   0  0  0  0  0  0  0  0  0  0  0  0
   58.4500   96.6030   23.9110 H   0  0  0  0  0  0  0  0  0  0  0  0
   58.7370   96.1210   25.6630 H   0  0  0  0  0  0  0  0  0  0  0  0
   57.6620   98.6650   24.3930 H   0  0  0  0  0  0  0  0  0  0  0  0
   58.9000   98.5260   25.7510 H   0  0  0  0  0  0  0  0  0  0  0  0
   57.2820   97.8920   27.3100 H   0  0  0  0  0  0  0  0  0  0  0  0
   56.3290   99.1240   26.3110 H   0  0  0  0  0  0  0  0  0  0  0  0
  2  1  1  0  0  0  0
  2  3  1  0  0  0  0
  3 28  1  0  0  0  0
  4  3  2  0  0  0  0
  4 29  1  0  0  0  0
  5  4  1  0  0  0  0
  6  7  1  0  0  0  0
  6  5  2  0  0  0  0
  7  2  2  0  0  0  0
  8  6  1  0  0  0  0
  9  8  1  0  0  0  0
  9 27  1  0  0  0  0
 10 11  1  1  0  0  0
 10  9  1  0  0  0  0
 11 12  1  0  0  0  0
 12  8  2  0  0  0  0
 13 34  1  0  0  0  0
 13 11  1  0  0  0  0
 14 15  1  1  0  0  0
 14 13  1  0  0  0  0
 16 14  1  0  0  0  0
 16 17  1  0  0  0  0
 17 35  1  0  0  0  0
 18 17  2  0  0  0  0
 18 22  1  0  0  0  0
 19 18  1  0  0  0  0
 20 21  1  0  0  0  0
 20 19  2  0  0  0  0
 21 16  2  0  0  0  0
 22 24  2  0  0  0  0
 23 22  2  0  0  0  0
 25 10  1  0  0  0  0
 25 26  1  0  0  0  0
 25 40  1  0  0  0  0
 26 42  1  0  0  0  0
 26 27  1  0  0  0  0
 27 43  1  0  0  0  0
 30  5  1  0  0  0  0
 31  7  1  0  0  0  0
 32 12  1  0  0  0  0
 33 13  1  0  0  0  0
 36 19  1  0  0  0  0
 37 20  1  0  0  0  0
 38 21  1  0  0  0  0
 39 25  1  0  0  0  0
 41 26  1  0  0  0  0
 44 27  1  0  0  0  0
M  END
>  <Pose>
1

>  <Score>
-7.35

$$$$
