
 OpenBabel03202210083D

 55 58  0  0  0  0  0  0  0  0999 V2000
   53.8350   91.2700   19.3850 S   0  0  0  0  0  0  0  0  0  0  0  0
   54.1370   91.5170   17.9040 O   0  0  0  0  0  0  0  0  0  0  0  0
   52.7080   92.2630   19.6800 O   0  0  0  0  0  0  0  0  0  0  0  0
   55.1760   91.6710   20.2640 N   0  0  0  0  0  0  0  0  0  0  0  0
   55.5960   91.0040   21.4090 C   0  0  0  0  0  0  0  0  0  0  0  0
   55.1060   91.5370   22.7160 C   0  0  0  0  0  0  0  0  0  0  0  0
   54.7160   93.0030   22.5410 C   0  0  0  0  0  0  0  0  0  0  0  0
   55.8380   93.5700   21.6560 C   0  0  0  0  0  0  0  0  0  0  0  0
   55.5130   93.0900   20.2500 C   0  0  0  0  0  0  0  0  0  0  0  0
   54.6180   93.7030   23.8100 C   0  0  0  0  0  0  0  0  0  0  0  0
   53.5960   93.5480   24.5280 O   0  0  0  0  0  0  0  0  0  0  0  0
   55.6360   94.5500   24.2600 N   0  0  0  0  0  0  0  0  0  0  0  0
   56.9140   94.7080   23.5570 C   0  0  0  0  0  0  0  0  0  0  0  0
   57.8000   95.5340   24.4660 C   0  0  0  0  0  0  0  0  0  0  0  0
   57.2230   96.8480   24.6750 N   0  0  0  0  0  0  0  0  0  0  0  0
   55.9070   96.7570   25.2810 C   0  0  0  0  0  0  0  0  0  0  0  0
   55.4920   95.3090   25.4710 C   0  0  0  0  0  0  0  0  0  0  0  0
   58.0990   97.6790   25.4730 C   0  0  0  0  0  0  0  0  0  0  0  0
   53.2320   89.6400   19.4710 C   0  0  0  0  0  0  0  0  0  0  0  0
   53.8520   88.7260   20.3400 C   0  0  0  0  0  0  0  0  0  0  0  0
   53.4670   87.4130   20.4260 C   0  0  0  0  0  0  0  0  0  0  0  0
   52.4460   86.9590   19.6490 C   0  0  0  0  0  0  0  0  0  0  0  0
   51.8030   87.8060   18.7830 C   0  0  0  0  0  0  0  0  0  0  0  0
   52.2130   89.1380   18.7160 C   0  0  0  0  0  0  0  0  0  0  0  0
   51.3040   90.1960   17.6490 Cl  0  0  0  0  0  0  0  0  0  0  0  0
   52.0590   85.5770   19.7490 N   0  0  0  0  0  0  0  0  0  0  0  0
   52.7450   84.7240   20.6490 C   0  0  0  0  0  0  0  0  0  0  0  0
   52.2390   83.6580   21.0570 O   0  0  0  0  0  0  0  0  0  0  0  0
   54.1000   85.1430   21.0940 C   0  0  0  0  0  0  0  0  0  0  0  0
   54.1090   86.5310   21.3040 O   0  0  0  0  0  0  0  0  0  0  0  0
   55.4490   89.9240   21.3600 H   0  0  0  0  0  0  0  0  0  0  0  0
   56.7520   91.0890   21.4110 H   0  0  0  0  0  0  0  0  0  0  0  0
   55.9530   91.5390   23.4470 H   0  0  0  0  0  0  0  0  0  0  0  0
   54.2970   90.9790   23.1940 H   0  0  0  0  0  0  0  0  0  0  0  0
   53.7780   93.0310   21.9640 H   0  0  0  0  0  0  0  0  0  0  0  0
   55.9330   94.6480   21.7110 H   0  0  0  0  0  0  0  0  0  0  0  0
   56.7740   93.0430   22.0000 H   0  0  0  0  0  0  0  0  0  0  0  0
   56.3260   93.3350   19.5470 H   0  0  0  0  0  0  0  0  0  0  0  0
   54.6080   93.6360   19.9240 H   0  0  0  0  0  0  0  0  0  0  0  0
   56.6840   95.3160   22.6320 H   0  0  0  0  0  0  0  0  0  0  0  0
   57.3570   93.7410   23.3170 H   0  0  0  0  0  0  0  0  0  0  0  0
   57.9150   94.9570   25.4260 H   0  0  0  0  0  0  0  0  0  0  0  0
   58.7980   95.6310   23.9980 H   0  0  0  0  0  0  0  0  0  0  0  0
   55.1550   97.2620   24.6610 H   0  0  0  0  0  0  0  0  0  0  0  0
   55.9780   97.1940   26.2980 H   0  0  0  0  0  0  0  0  0  0  0  0
   56.0880   94.8270   26.2850 H   0  0  0  0  0  0  0  0  0  0  0  0
   54.4550   95.2850   25.8060 H   0  0  0  0  0  0  0  0  0  0  0  0
   57.7250   98.7180   25.4090 H   0  0  0  0  0  0  0  0  0  0  0  0
   59.1150   97.6550   25.0530 H   0  0  0  0  0  0  0  0  0  0  0  0
   58.0730   97.4000   26.5560 H   0  0  0  0  0  0  0  0  0  0  0  0
   54.6700   89.1030   20.9570 H   0  0  0  0  0  0  0  0  0  0  0  0
   51.0020   87.4530   18.1720 H   0  0  0  0  0  0  0  0  0  0  0  0
   51.2800   85.2220   19.1610 H   0  0  0  0  0  0  0  0  0  0  0  0
   54.3890   84.6230   22.0340 H   0  0  0  0  0  0  0  0  0  0  0  0
   54.8590   84.9130   20.3330 H   0  0  0  0  0  0  0  0  0  0  0  0
  1 19  1  0  0  0  0
  1  3  2  0  0  0  0
  1  4  1  0  0  0  0
  2  1  2  0  0  0  0
  4  5  1  0  0  0  0
  5 32  1  0  0  0  0
  5  6  1  0  0  0  0
  6 34  1  0  0  0  0
  6 33  1  0  0  0  0
  7  6  1  0  0  0  0
  7 10  1  0  0  0  0
  8 36  1  0  0  0  0
  8 37  1  0  0  0  0
  8  7  1  0  0  0  0
  9  4  1  0  0  0  0
  9  8  1  0  0  0  0
 10 12  1  0  0  0  0
 10 11  2  0  0  0  0
 12 17  1  0  0  0  0
 13 12  1  0  0  0  0
 13 14  1  0  0  0  0
 14 15  1  0  0  0  0
 14 42  1  0  0  0  0
 15 16  1  0  0  0  0
 15 18  1  0  0  0  0
 16 17  1  0  0  0  0
 16 45  1  0  0  0  0
 17 47  1  0  0  0  0
 17 46  1  0  0  0  0
 18 50  1  0  0  0  0
 19 20  1  0  0  0  0
 20 21  2  0  0  0  0
 20 51  1  0  0  0  0
 21 30  1  0  0  0  0
 22 26  1  0  0  0  0
 22 21  1  0  0  0  0
 23 22  2  0  0  0  0
 24 23  1  0  0  0  0
 24 19  2  0  0  0  0
 25 24  1  0  0  0  0
 26 27  1  0  0  0  0
 27 28  2  0  0  0  0
 27 29  1  0  0  0  0
 29 30  1  0  0  0  0
 29 54  1  0  0  0  0
 31  5  1  0  0  0  0
 35  7  1  0  0  0  0
 38  9  1  0  0  0  0
 39  9  1  0  0  0  0
 40 13  1  0  0  0  0
 41 13  1  0  0  0  0
 43 14  1  0  0  0  0
 44 16  1  0  0  0  0
 48 18  1  0  0  0  0
 49 18  1  0  0  0  0
 52 23  1  0  0  0  0
 53 26  1  0  0  0  0
 55 29  1  0  0  0  0
M  END
>  <Pose>
1

>  <Score>
-6.18

$$$$
