
 OpenBabel03202210083D

 36 39  0  0  1  0  0  0  0  0999 V2000
   50.0360   98.7020   29.1530 Cl  0  0  0  0  0  0  0  0  0  0  0  0
   51.4840   98.2910   28.2450 C   0  0  0  0  0  0  0  0  0  0  0  0
   51.7970   96.9900   27.9150 C   0  0  0  0  0  0  0  0  0  0  0  0
   52.9230   96.6730   27.2100 N   0  0  0  0  0  0  0  0  0  0  0  0
   53.7840   97.6220   26.8000 C   0  0  0  0  0  0  0  0  0  0  0  0
   54.9030   97.3090   26.0990 N   0  0  0  0  0  0  0  0  0  0  0  0
   55.2040   96.0320   25.7790 C   0  0  0  0  0  0  0  0  0  0  0  0
   54.3510   95.0440   26.1790 C   0  0  2  0  0  0  0  0  0  0  0  0
   54.6360   93.6100   25.8510 C   0  0  0  0  0  0  0  0  0  0  0  0
   55.4320   93.6580   24.6120 N   0  0  0  0  0  0  0  0  0  0  0  0
   56.6860   94.3430   24.7520 C   0  0  0  0  0  0  0  0  0  0  0  0
   56.4570   95.8220   25.0090 C   0  0  0  0  0  0  0  0  0  0  0  0
   54.9010   93.0560   23.4760 C   0  0  0  0  0  0  0  0  0  0  0  0
   53.9900   93.6750   22.8240 O   0  0  0  0  0  0  0  0  0  0  0  0
   55.2900   91.7470   22.9360 C   0  0  0  0  0  0  0  0  0  0  0  0
   55.5410   90.6950   23.7210 N   0  0  0  0  0  0  0  0  0  0  0  0
   55.8950   89.5070   23.2210 C   0  0  0  0  0  0  0  0  0  0  0  0
   56.0220   89.2990   21.8630 C   0  0  0  0  0  0  0  0  0  0  0  0
   55.7650   90.3680   21.0890 N   0  0  0  0  0  0  0  0  0  0  0  0
   55.4110   91.5630   21.5630 C   0  0  0  0  0  0  0  0  0  0  0  0
   53.2160   95.3990   26.8950 C   0  0  0  0  0  0  0  0  0  0  0  0
   52.4310   94.5030   27.2640 O   0  0  0  0  0  0  0  0  0  0  0  0
   53.4760   98.9330   27.1280 C   0  0  0  0  0  0  0  0  0  0  0  0
   52.3480   99.2840   27.8390 C   0  0  0  0  0  0  0  0  0  0  0  0
   51.1520   96.1820   28.2110 H   0  0  0  0  0  0  0  0  0  0  0  0
   53.7120   93.0330   25.7190 H   0  0  0  0  0  0  0  0  0  0  0  0
   55.2580   93.2290   26.6990 H   0  0  0  0  0  0  0  0  0  0  0  0
   57.4420   94.1470   24.0070 H   0  0  0  0  0  0  0  0  0  0  0  0
   57.1320   93.9650   25.7270 H   0  0  0  0  0  0  0  0  0  0  0  0
   56.4420   96.3410   24.0420 H   0  0  0  0  0  0  0  0  0  0  0  0
   57.3230   96.2160   25.5850 H   0  0  0  0  0  0  0  0  0  0  0  0
   56.0970   88.6580   23.8690 H   0  0  0  0  0  0  0  0  0  0  0  0
   56.3090   88.3350   21.4530 H   0  0  0  0  0  0  0  0  0  0  0  0
   55.2190   92.3760   20.9080 H   0  0  0  0  0  0  0  0  0  0  0  0
   54.1590   99.7080   26.8070 H   0  0  0  0  0  0  0  0  0  0  0  0
   52.1080  100.3120   28.0950 H   0  0  0  0  0  0  0  0  0  0  0  0
  2  1  1  0  0  0  0
  3 25  1  0  0  0  0
  3  2  1  0  0  0  0
  4  3  1  0  0  0  0
  5 23  2  0  0  0  0
  5  4  1  0  0  0  0
  6  5  1  0  0  0  0
  7  6  2  0  0  0  0
  8  7  1  6  0  0  0
  8 21  1  0  0  0  0
  9  8  1  0  0  0  0
  9 27  1  0  0  0  0
 10 11  1  0  0  0  0
 10  9  1  0  0  0  0
 11 12  1  0  0  0  0
 11 29  1  0  0  0  0
 12 31  1  0  0  0  0
 12  7  1  0  0  0  0
 13 10  1  0  0  0  0
 14 13  2  0  0  0  0
 15 13  1  0  0  0  0
 15 16  1  0  0  0  0
 17 16  2  0  0  0  0
 17 32  1  0  0  0  0
 18 17  1  0  0  0  0
 19 20  1  0  0  0  0
 19 18  2  0  0  0  0
 20 15  2  0  0  0  0
 21  4  1  0  0  0  0
 21 22  2  0  0  0  0
 23 24  1  0  0  0  0
 24 36  1  0  0  0  0
 24  2  2  0  0  0  0
 26  9  1  0  0  0  0
 28 11  1  0  0  0  0
 30 12  1  0  0  0  0
 33 18  1  0  0  0  0
 34 20  1  0  0  0  0
 35 23  1  0  0  0  0
M  END
>  <Pose>
1

>  <Score>
-6.49

$$$$
