
 OpenBabel03202210083D

 46 49  0  0  1  0  0  0  0  0999 V2000
   45.4110  103.4400   32.5020 B   0  0  0  0  0  0  0  0  0  0  0  0
   46.9010  103.1200   31.3230 C   0  0  0  0  0  0  0  0  0  0  0  0
   46.9540  101.9920   30.5400 C   0  0  0  0  0  0  0  0  0  0  0  0
   47.9760  101.7400   29.7090 N   0  0  0  0  0  0  0  0  0  0  0  0
   49.0170  102.6050   29.6050 C   0  0  0  0  0  0  0  0  0  0  0  0
   50.0560  102.4010   28.7920 N   0  0  0  0  0  0  0  0  0  0  0  0
   50.1460  101.3080   28.0100 C   0  0  0  0  0  0  0  0  0  0  0  0
   49.1060  100.4050   28.0890 C   0  0  0  0  0  0  0  0  0  0  0  0
   48.0360  100.6280   28.9330 C   0  0  0  0  0  0  0  0  0  0  0  0
   47.0640   99.8280   29.0360 O   0  0  0  0  0  0  0  0  0  0  0  0
   51.2870  101.0550   27.0990 C   0  0  0  0  0  0  0  0  0  0  0  0
   52.3280  100.3490   27.7150 O   0  0  0  0  0  0  0  0  0  0  0  0
   52.3610   98.9890   27.9190 C   0  0  0  0  0  0  0  0  0  0  0  0
   52.4090   98.6130   29.1250 O   0  0  0  0  0  0  0  0  0  0  0  0
   52.3400   98.0050   26.8030 C   0  0  0  0  0  0  0  0  0  0  0  0
   53.4690   97.0770   26.8860 N   0  0  0  0  0  0  0  0  0  0  0  0
   53.4140   95.6590   27.0210 C   0  0  0  0  0  0  0  0  0  0  0  0
   52.3890   94.9410   26.9130 O   0  0  0  0  0  0  0  0  0  0  0  0
   54.7850   95.1780   27.3110 C   0  0  2  0  0  0  0  0  0  0  0  0
   55.6000   96.2060   26.5610 C   0  0  1  0  0  0  0  0  0  0  0  0
   55.5990   95.9790   25.0620 C   0  0  0  0  0  0  0  0  0  0  0  0
   54.9430   94.6840   24.6610 C   0  0  0  0  0  0  0  0  0  0  0  0
   55.4260   93.5450   25.5130 C   0  0  0  0  0  0  0  0  0  0  0  0
   55.0440   93.7780   26.9320 C   0  0  0  0  0  0  0  0  0  0  0  0
   54.8380   97.4410   26.8550 C   0  0  0  0  0  0  0  0  0  0  0  0
   55.2980   98.6100   27.0470 O   0  0  0  0  0  0  0  0  0  0  0  0
   48.9980  103.7610   30.3820 C   0  0  0  0  0  0  0  0  0  0  0  0
   47.9420  104.0080   31.2330 C   0  0  0  0  0  0  0  0  0  0  0  0
   46.1400  101.2910   30.6060 H   0  0  0  0  0  0  0  0  0  0  0  0
   49.0860   99.4900   27.4950 H   0  0  0  0  0  0  0  0  0  0  0  0
   50.9000  100.4470   26.2570 H   0  0  0  0  0  0  0  0  0  0  0  0
   51.6550  102.0580   26.7640 H   0  0  0  0  0  0  0  0  0  0  0  0
   51.4180   97.4060   26.7780 H   0  0  0  0  0  0  0  0  0  0  0  0
   52.3940   98.5770   25.8590 H   0  0  0  0  0  0  0  0  0  0  0  0
   54.9770   95.3440   28.3860 H   0  0  0  0  0  0  0  0  0  0  0  0
   56.6420   96.2610   26.9540 H   0  0  0  0  0  0  0  0  0  0  0  0
   56.6470   95.9700   24.6590 H   0  0  0  0  0  0  0  0  0  0  0  0
   55.0950   96.7920   24.5170 H   0  0  0  0  0  0  0  0  0  0  0  0
   55.2920   94.4520   23.6160 H   0  0  0  0  0  0  0  0  0  0  0  0
   53.8490   94.7370   24.5960 H   0  0  0  0  0  0  0  0  0  0  0  0
   56.5290   93.4670   25.3610 H   0  0  0  0  0  0  0  0  0  0  0  0
   54.9890   92.6060   25.0910 H   0  0  0  0  0  0  0  0  0  0  0  0
   55.8900   93.3950   27.5740 H   0  0  0  0  0  0  0  0  0  0  0  0
   54.1690   93.1590   27.2330 H   0  0  0  0  0  0  0  0  0  0  0  0
   49.8160  104.4490   30.3050 H   0  0  0  0  0  0  0  0  0  0  0  0
   47.9140  104.8980   31.8400 H   0  0  0  0  0  0  0  0  0  0  0  0
  2  1  1  0  0  0  0
  3 29  1  0  0  0  0
  3  2  1  0  0  0  0
  4  3  1  0  0  0  0
  5  4  1  0  0  0  0
  5 27  2  0  0  0  0
  6  5  1  0  0  0  0
  7  8  1  0  0  0  0
  7  6  2  0  0  0  0
  8  9  1  0  0  0  0
  9 10  2  0  0  0  0
  9  4  1  0  0  0  0
 11 12  1  0  0  0  0
 11  7  1  0  0  0  0
 12 13  1  0  0  0  0
 13 14  2  0  0  0  0
 15 16  1  0  0  0  0
 15 13  1  0  0  0  0
 16 17  1  0  0  0  0
 17 19  1  0  0  0  0
 18 17  2  0  0  0  0
 19 35  1  1  0  0  0
 20 25  1  0  0  0  0
 20 36  1  1  0  0  0
 20 19  1  0  0  0  0
 21 20  1  0  0  0  0
 22 21  1  0  0  0  0
 22 23  1  0  0  0  0
 23 24  1  0  0  0  0
 24 44  1  0  0  0  0
 24 19  1  0  0  0  0
 24 43  1  0  0  0  0
 25 16  1  0  0  0  0
 25 26  2  0  0  0  0
 27 28  1  0  0  0  0
 28  2  2  0  0  0  0
 28 46  1  0  0  0  0
 30  8  1  0  0  0  0
 31 11  1  0  0  0  0
 32 11  1  0  0  0  0
 33 15  1  0  0  0  0
 34 15  1  0  0  0  0
 37 21  1  0  0  0  0
 38 21  1  0  0  0  0
 39 22  1  0  0  0  0
 40 22  1  0  0  0  0
 41 23  1  0  0  0  0
 42 23  1  0  0  0  0
 45 27  1  0  0  0  0
M  END
>  <Pose>
1

>  <Score>
-6.61

$$$$
