
 OpenBabel03202210083D

 56 59  0  0  0  0  0  0  0  0999 V2000
   52.3270   84.4770   23.1010 Cl  0  0  0  0  0  0  0  0  0  0  0  0
   52.0970   83.4620   24.4790 C   0  0  0  0  0  0  0  0  0  0  0  0
   52.9530   83.5930   25.5510 C   0  0  0  0  0  0  0  0  0  0  0  0
   52.7110   82.7460   26.6310 C   0  0  0  0  0  0  0  0  0  0  0  0
   51.6740   81.8340   26.6160 C   0  0  0  0  0  0  0  0  0  0  0  0
   50.8490   81.7390   25.5270 C   0  0  0  0  0  0  0  0  0  0  0  0
   51.0580   82.5520   24.4570 C   0  0  0  0  0  0  0  0  0  0  0  0
   54.0160   84.4970   25.6130 N   0  0  0  0  0  0  0  0  0  0  0  0
   55.4210   84.1540   25.6170 C   0  0  0  0  0  0  0  0  0  0  0  0
   56.2220   85.3960   25.2330 C   0  0  0  0  0  0  0  0  0  0  0  0
   55.5380   86.0980   24.1580 N   0  0  0  0  0  0  0  0  0  0  0  0
   54.1770   86.5290   24.3750 C   0  0  0  0  0  0  0  0  0  0  0  0
   53.7000   85.9320   25.6780 C   0  0  0  0  0  0  0  0  0  0  0  0
   56.1760   86.3660   22.9150 C   0  0  0  0  0  0  0  0  0  0  0  0
   55.9680   85.5670   21.9500 O   0  0  0  0  0  0  0  0  0  0  0  0
   57.0640   87.5100   22.6770 C   0  0  0  0  0  0  0  0  0  0  0  0
   56.3890   88.6510   22.0610 N   0  0  0  0  0  0  0  0  0  0  0  0
   56.1470   88.8910   20.7880 N   0  0  0  0  0  0  0  0  0  0  0  0
   55.5020   90.0430   20.5900 C   0  0  0  0  0  0  0  0  0  0  0  0
   55.3090   90.5970   21.8430 C   0  0  0  0  0  0  0  0  0  0  0  0
   55.8690   89.7130   22.7370 C   0  0  0  0  0  0  0  0  0  0  0  0
   55.8970   89.8980   24.2030 C   0  0  0  0  0  0  0  0  0  0  0  0
   55.0770   90.6100   19.2970 C   0  0  0  0  0  0  0  0  0  0  0  0
   55.9290   90.9280   18.4430 O   0  0  0  0  0  0  0  0  0  0  0  0
   53.6980   90.7810   19.0460 N   0  0  0  0  0  0  0  0  0  0  0  0
   53.0960   92.0360   18.6960 C   0  0  0  0  0  0  0  0  0  0  0  0
   51.6280   91.7340   18.3710 C   0  0  0  0  0  0  0  0  0  0  0  0
   51.5220   90.7330   17.4310 O   0  0  0  0  0  0  0  0  0  0  0  0
   52.0450   89.5270   17.8330 C   0  0  0  0  0  0  0  0  0  0  0  0
   52.8000   89.6260   19.1420 C   0  0  0  0  0  0  0  0  0  0  0  0
   53.3280   82.7800   27.5050 H   0  0  0  0  0  0  0  0  0  0  0  0
   51.4990   81.1820   27.4610 H   0  0  0  0  0  0  0  0  0  0  0  0
   50.0250   81.0080   25.5250 H   0  0  0  0  0  0  0  0  0  0  0  0
   50.4050   82.4890   23.5780 H   0  0  0  0  0  0  0  0  0  0  0  0
   55.7880   83.8390   26.6050 H   0  0  0  0  0  0  0  0  0  0  0  0
   55.6330   83.4130   24.8190 H   0  0  0  0  0  0  0  0  0  0  0  0
   57.1860   85.0330   24.8220 H   0  0  0  0  0  0  0  0  0  0  0  0
   56.3920   86.0540   26.1070 H   0  0  0  0  0  0  0  0  0  0  0  0
   54.0710   87.6300   24.3560 H   0  0  0  0  0  0  0  0  0  0  0  0
   53.5250   86.0580   23.5880 H   0  0  0  0  0  0  0  0  0  0  0  0
   54.3170   86.3620   26.5070 H   0  0  0  0  0  0  0  0  0  0  0  0
   52.6160   86.0970   25.8450 H   0  0  0  0  0  0  0  0  0  0  0  0
   57.9460   87.2370   22.0640 H   0  0  0  0  0  0  0  0  0  0  0  0
   57.4350   87.8660   23.6570 H   0  0  0  0  0  0  0  0  0  0  0  0
   54.8170   91.5320   22.0580 H   0  0  0  0  0  0  0  0  0  0  0  0
   54.8680   90.0520   24.5810 H   0  0  0  0  0  0  0  0  0  0  0  0
   56.3190   89.0030   24.6970 H   0  0  0  0  0  0  0  0  0  0  0  0
   56.5620   90.7570   24.4690 H   0  0  0  0  0  0  0  0  0  0  0  0
   53.5800   92.4780   17.8000 H   0  0  0  0  0  0  0  0  0  0  0  0
   53.1020   92.7850   19.4950 H   0  0  0  0  0  0  0  0  0  0  0  0
   51.0550   91.5570   19.2950 H   0  0  0  0  0  0  0  0  0  0  0  0
   51.2370   92.6660   17.9080 H   0  0  0  0  0  0  0  0  0  0  0  0
   51.2230   88.7780   17.9800 H   0  0  0  0  0  0  0  0  0  0  0  0
   52.7500   89.1280   17.0790 H   0  0  0  0  0  0  0  0  0  0  0  0
   53.3930   88.7050   19.3000 H   0  0  0  0  0  0  0  0  0  0  0  0
   52.0650   89.7840   19.9500 H   0  0  0  0  0  0  0  0  0  0  0  0
  1  2  1  0  0  0  0
  2  3  1  0  0  0  0
  3  8  1  0  0  0  0
  3  4  2  0  0  0  0
  4 31  1  0  0  0  0
  5  4  1  0  0  0  0
  5 32  1  0  0  0  0
  6  5  2  0  0  0  0
  7  2  2  0  0  0  0
  7  6  1  0  0  0  0
  8  9  1  0  0  0  0
  8 13  1  0  0  0  0
  9 35  1  0  0  0  0
 10  9  1  0  0  0  0
 10 38  1  0  0  0  0
 11 12  1  0  0  0  0
 11 10  1  0  0  0  0
 12 13  1  0  0  0  0
 13 42  1  0  0  0  0
 13 41  1  0  0  0  0
 14 11  1  0  0  0  0
 15 14  2  0  0  0  0
 16 14  1  0  0  0  0
 16 44  1  0  0  0  0
 17 16  1  0  0  0  0
 17 21  1  0  0  0  0
 18 17  1  0  0  0  0
 19 18  2  0  0  0  0
 19 20  1  0  0  0  0
 20 45  1  0  0  0  0
 20 21  2  0  0  0  0
 21 22  1  0  0  0  0
 22 48  1  0  0  0  0
 22 46  1  0  0  0  0
 22 47  1  0  0  0  0
 23 19  1  0  0  0  0
 24 23  2  0  0  0  0
 25 30  1  0  0  0  0
 25 23  1  0  0  0  0
 26 25  1  0  0  0  0
 26 50  1  0  0  0  0
 27 26  1  0  0  0  0
 27 51  1  0  0  0  0
 28 29  1  0  0  0  0
 28 27  1  0  0  0  0
 29 53  1  0  0  0  0
 29 30  1  0  0  0  0
 30 55  1  0  0  0  0
 30 56  1  0  0  0  0
 33  6  1  0  0  0  0
 34  7  1  0  0  0  0
 36  9  1  0  0  0  0
 37 10  1  0  0  0  0
 39 12  1  0  0  0  0
 40 12  1  0  0  0  0
 43 16  1  0  0  0  0
 49 26  1  0  0  0  0
 52 27  1  0  0  0  0
 54 29  1  0  0  0  0
M  END
>  <Pose>
1

>  <Score>
-6.49

$$$$
