
 OpenBabel03202210083D

 45 48  0  0  1  0  0  0  0  0999 V2000
   54.9430   92.9550   23.4390 Cl  0  0  0  0  0  0  0  0  0  0  0  0
   55.8690   94.2260   24.2430 C   0  0  0  0  0  0  0  0  0  0  0  0
   55.3960   94.7790   25.4090 C   0  0  0  0  0  0  0  0  0  0  0  0
   56.1000   95.7840   26.0730 C   0  0  0  0  0  0  0  0  0  0  0  0
   57.2870   96.1880   25.4960 C   0  0  0  0  0  0  0  0  0  0  0  0
   57.7540   95.6250   24.3230 C   0  0  0  0  0  0  0  0  0  0  0  0
   57.0550   94.6310   23.6700 C   0  0  0  0  0  0  0  0  0  0  0  0
   55.5770   96.3730   27.3280 C   0  0  0  0  0  0  0  0  0  0  0  0
   55.0850   97.7810   27.1340 C   0  0  0  0  0  0  0  0  0  0  0  0
   53.7080   97.9730   27.5280 N   0  0  0  0  0  0  0  0  0  0  0  0
   53.0790   99.0030   28.3110 C   0  0  2  0  0  0  0  0  0  0  0  0
   51.9020   98.2550   28.9030 C   0  0  2  0  0  0  0  0  0  0  0  0
   51.4560   97.5240   27.7680 O   0  0  0  0  0  0  0  0  0  0  0  0
   52.6530   97.0890   27.1640 C   0  0  0  0  0  0  0  0  0  0  0  0
   52.7220   96.0600   26.4200 O   0  0  0  0  0  0  0  0  0  0  0  0
   51.0380   99.4050   29.2710 C   0  0  0  0  0  0  0  0  0  0  0  0
   51.0210  100.1630   27.9990 N   0  0  0  0  0  0  0  0  0  0  0  0
   52.3120   99.9860   27.4090 C   0  0  0  0  0  0  0  0  0  0  0  0
   49.8780  100.8620   27.6000 C   0  0  0  0  0  0  0  0  0  0  0  0
   49.8120  101.3590   26.4010 O   0  0  0  0  0  0  0  0  0  0  0  0
   48.6980  101.1120   28.4060 C   0  0  0  0  0  0  0  0  0  0  0  0
   47.8660  100.1820   28.9490 N   0  0  0  0  0  0  0  0  0  0  0  0
   46.9060  100.8130   29.6220 C   0  0  0  0  0  0  0  0  0  0  0  0
   47.1010  102.1290   29.5230 N   0  0  0  0  0  0  0  0  0  0  0  0
   48.2080  102.3300   28.7730 C   0  0  0  0  0  0  0  0  0  0  0  0
   48.0200   98.7580   28.8070 C   0  0  0  0  0  0  0  0  0  0  0  0
   54.4560   94.4640   25.8720 H   0  0  0  0  0  0  0  0  0  0  0  0
   57.8430   96.9760   26.0100 H   0  0  0  0  0  0  0  0  0  0  0  0
   58.6950   95.9660   23.8950 H   0  0  0  0  0  0  0  0  0  0  0  0
   57.4080   94.1810   22.7530 H   0  0  0  0  0  0  0  0  0  0  0  0
   56.4210   96.4240   28.0460 H   0  0  0  0  0  0  0  0  0  0  0  0
   54.8090   95.7200   27.8140 H   0  0  0  0  0  0  0  0  0  0  0  0
   55.2320   98.0100   26.0400 H   0  0  0  0  0  0  0  0  0  0  0  0
   55.7360   98.5100   27.6580 H   0  0  0  0  0  0  0  0  0  0  0  0
   53.7110   99.4980   29.0360 H   0  0  0  0  0  0  0  0  0  0  0  0
   52.1830   97.5990   29.7400 H   0  0  0  0  0  0  0  0  0  0  0  0
   50.0460   99.1620   29.6280 H   0  0  0  0  0  0  0  0  0  0  0  0
   51.6090  100.0530   29.9690 H   0  0  0  0  0  0  0  0  0  0  0  0
   52.9040  100.8970   27.2680 H   0  0  0  0  0  0  0  0  0  0  0  0
   52.2220   99.4920   26.3960 H   0  0  0  0  0  0  0  0  0  0  0  0
   46.0620  100.3930   30.1870 H   0  0  0  0  0  0  0  0  0  0  0  0
   48.5740  103.3450   28.5510 H   0  0  0  0  0  0  0  0  0  0  0  0
   48.9040   98.3630   29.3470 H   0  0  0  0  0  0  0  0  0  0  0  0
   48.0970   98.4590   27.7340 H   0  0  0  0  0  0  0  0  0  0  0  0
   47.1240   98.2390   29.2040 H   0  0  0  0  0  0  0  0  0  0  0  0
  1  2  1  0  0  0  0
  2  3  1  0  0  0  0
  3 27  1  0  0  0  0
  3  4  2  0  0  0  0
  4  8  1  0  0  0  0
  5 28  1  0  0  0  0
  5  4  1  0  0  0  0
  6  5  2  0  0  0  0
  7  2  2  0  0  0  0
  7  6  1  0  0  0  0
  8 32  1  0  0  0  0
  8 31  1  0  0  0  0
  9  8  1  0  0  0  0
  9 10  1  0  0  0  0
  9 34  1  0  0  0  0
 10 11  1  0  0  0  0
 11 12  1  0  0  0  0
 11 35  1  1  0  0  0
 12 16  1  0  0  0  0
 12 36  1  1  0  0  0
 13 12  1  0  0  0  0
 14 10  1  0  0  0  0
 14 13  1  0  0  0  0
 15 14  2  0  0  0  0
 16 37  1  0  0  0  0
 16 38  1  0  0  0  0
 17 16  1  0  0  0  0
 18 17  1  0  0  0  0
 18 11  1  0  0  0  0
 19 17  1  0  0  0  0
 19 21  1  0  0  0  0
 20 19  2  0  0  0  0
 21 25  2  0  0  0  0
 21 22  1  0  0  0  0
 22 23  1  0  0  0  0
 23 41  1  0  0  0  0
 24 23  2  0  0  0  0
 25 24  1  0  0  0  0
 26 22  1  0  0  0  0
 26 45  1  0  0  0  0
 26 43  1  0  0  0  0
 29  6  1  0  0  0  0
 30  7  1  0  0  0  0
 33  9  1  0  0  0  0
 39 18  1  0  0  0  0
 40 18  1  0  0  0  0
 42 25  1  0  0  0  0
 44 26  1  0  0  0  0
M  END
>  <Pose>
1

>  <Score>
-7.40

$$$$
