
 OpenBabel03202210083D

 53 56  0  0  0  0  0  0  0  0999 V2000
   55.3450   96.0450   26.1740 Cl  0  0  0  0  0  0  0  0  0  0  0  0
   55.8930   94.8880   24.9620 C   0  0  0  0  0  0  0  0  0  0  0  0
   55.0230   93.8640   24.6110 C   0  0  0  0  0  0  0  0  0  0  0  0
   55.4250   92.9530   23.6760 C   0  0  0  0  0  0  0  0  0  0  0  0
   56.7060   93.0850   23.1030 C   0  0  0  0  0  0  0  0  0  0  0  0
   57.5410   94.1020   23.4670 C   0  0  0  0  0  0  0  0  0  0  0  0
   57.1480   95.0320   24.4130 C   0  0  0  0  0  0  0  0  0  0  0  0
   54.5420   91.8580   23.2110 C   0  0  0  0  0  0  0  0  0  0  0  0
   55.1970   90.6530   22.8120 N   0  0  0  0  0  0  0  0  0  0  0  0
   55.7780   89.8110   23.6910 C   0  0  0  0  0  0  0  0  0  0  0  0
   56.3510   88.7990   22.9580 C   0  0  0  0  0  0  0  0  0  0  0  0
   56.1060   89.0480   21.6860 N   0  0  0  0  0  0  0  0  0  0  0  0
   55.3920   90.1960   21.5720 C   0  0  0  0  0  0  0  0  0  0  0  0
   55.0150   90.7930   20.3220 N   0  0  0  0  0  0  0  0  0  0  0  0
   55.5240   90.1720   19.0820 C   0  0  0  0  0  0  0  0  0  0  0  0
   54.4150   89.7940   18.1540 C   0  0  0  0  0  0  0  0  0  0  0  0
   53.2290   90.5790   18.4070 N   0  0  0  0  0  0  0  0  0  0  0  0
   53.4180   91.9390   18.8670 C   0  0  0  0  0  0  0  0  0  0  0  0
   54.1810   91.9320   20.1800 C   0  0  0  0  0  0  0  0  0  0  0  0
   51.9340   90.0320   18.2020 C   0  0  0  0  0  0  0  0  0  0  0  0
   50.9260   90.7720   18.2090 O   0  0  0  0  0  0  0  0  0  0  0  0
   51.7390   88.5810   17.9730 C   0  0  0  0  0  0  0  0  0  0  0  0
   51.8690   87.8890   19.3280 C   0  0  0  0  0  0  0  0  0  0  0  0
   57.0080   87.8150   23.6350 N   0  0  0  0  0  0  0  0  0  0  0  0
   57.1010   87.8210   24.9690 C   0  0  0  0  0  0  0  0  0  0  0  0
   57.7220   86.8870   25.5500 O   0  0  0  0  0  0  0  0  0  0  0  0
   56.5590   88.7870   25.7210 N   0  0  0  0  0  0  0  0  0  0  0  0
   55.9000   89.7790   25.0760 C   0  0  0  0  0  0  0  0  0  0  0  0
   55.3920   90.6850   25.7730 O   0  0  0  0  0  0  0  0  0  0  0  0
   57.6270   86.7330   22.8730 C   0  0  0  0  0  0  0  0  0  0  0  0
   54.0520   93.8120   25.1080 H   0  0  0  0  0  0  0  0  0  0  0  0
   57.0220   92.3490   22.3520 H   0  0  0  0  0  0  0  0  0  0  0  0
   58.5300   94.2350   23.0510 H   0  0  0  0  0  0  0  0  0  0  0  0
   57.7940   95.8490   24.7160 H   0  0  0  0  0  0  0  0  0  0  0  0
   53.9290   92.2490   22.3420 H   0  0  0  0  0  0  0  0  0  0  0  0
   53.7890   91.7070   24.0120 H   0  0  0  0  0  0  0  0  0  0  0  0
   56.2210   90.9050   18.6330 H   0  0  0  0  0  0  0  0  0  0  0  0
   56.0560   89.2270   19.3540 H   0  0  0  0  0  0  0  0  0  0  0  0
   54.7420   90.0310   17.1030 H   0  0  0  0  0  0  0  0  0  0  0  0
   54.1610   88.7140   18.2060 H   0  0  0  0  0  0  0  0  0  0  0  0
   54.0660   92.4520   18.0960 H   0  0  0  0  0  0  0  0  0  0  0  0
   52.5000   92.5300   18.9320 H   0  0  0  0  0  0  0  0  0  0  0  0
   53.4570   91.9690   21.0130 H   0  0  0  0  0  0  0  0  0  0  0  0
   54.7770   92.8980   20.2310 H   0  0  0  0  0  0  0  0  0  0  0  0
   50.7050   88.3820   17.5770 H   0  0  0  0  0  0  0  0  0  0  0  0
   52.4210   88.1740   17.2170 H   0  0  0  0  0  0  0  0  0  0  0  0
   50.8850   87.6800   19.7950 H   0  0  0  0  0  0  0  0  0  0  0  0
   52.4450   88.5020   20.0530 H   0  0  0  0  0  0  0  0  0  0  0  0
   52.4390   86.9370   19.2050 H   0  0  0  0  0  0  0  0  0  0  0  0
   56.6560   88.7540   26.7600 H   0  0  0  0  0  0  0  0  0  0  0  0
   57.5640   85.7820   23.4490 H   0  0  0  0  0  0  0  0  0  0  0  0
   58.7110   87.0200   22.7550 H   0  0  0  0  0  0  0  0  0  0  0  0
   57.1940   86.6590   21.8680 H   0  0  0  0  0  0  0  0  0  0  0  0
  2  1  1  0  0  0  0
  3  2  1  0  0  0  0
  3 31  1  0  0  0  0
  4  3  2  0  0  0  0
  5  6  2  0  0  0  0
  5  4  1  0  0  0  0
  6  7  1  0  0  0  0
  7 34  1  0  0  0  0
  7  2  2  0  0  0  0
  8  4  1  0  0  0  0
  8 36  1  0  0  0  0
  9  8  1  0  0  0  0
  9 10  1  0  0  0  0
 10 28  1  0  0  0  0
 11 24  1  0  0  0  0
 11 10  2  0  0  0  0
 12 11  1  0  0  0  0
 13 12  2  0  0  0  0
 13  9  1  0  0  0  0
 14 13  1  0  0  0  0
 15 38  1  0  0  0  0
 15 14  1  0  0  0  0
 16 40  1  0  0  0  0
 16 17  1  0  0  0  0
 16 15  1  0  0  0  0
 17 18  1  0  0  0  0
 18 42  1  0  0  0  0
 18 19  1  0  0  0  0
 19 44  1  0  0  0  0
 19 14  1  0  0  0  0
 19 43  1  0  0  0  0
 20 21  2  0  0  0  0
 20 17  1  0  0  0  0
 22 20  1  0  0  0  0
 22 23  1  0  0  0  0
 23 47  1  0  0  0  0
 23 48  1  0  0  0  0
 24 25  1  0  0  0  0
 25 26  2  0  0  0  0
 25 27  1  0  0  0  0
 27 50  1  0  0  0  0
 28 27  1  0  0  0  0
 28 29  2  0  0  0  0
 30 51  1  0  0  0  0
 30 24  1  0  0  0  0
 32  5  1  0  0  0  0
 33  6  1  0  0  0  0
 35  8  1  0  0  0  0
 37 15  1  0  0  0  0
 39 16  1  0  0  0  0
 41 18  1  0  0  0  0
 45 22  1  0  0  0  0
 46 22  1  0  0  0  0
 49 23  1  0  0  0  0
 52 30  1  0  0  0  0
 53 30  1  0  0  0  0
M  END
>  <Pose>
1

>  <Score>
-5.46

$$$$
