
 OpenBabel03202210083D

 60 64  0  0  1  0  0  0  0  0999 V2000
   52.7360   96.6840   27.2360 Cl  0  0  0  0  0  0  0  0  0  0  0  0
   53.8300   95.7140   26.2370 C   0  0  0  0  0  0  0  0  0  0  0  0
   55.0210   96.2450   25.8050 C   0  0  0  0  0  0  0  0  0  0  0  0
   55.8810   95.4860   25.0230 C   0  0  0  0  0  0  0  0  0  0  0  0
   55.6100   94.2000   24.6410 C   0  0  0  0  0  0  0  0  0  0  0  0
   54.3880   93.6830   25.0980 C   0  0  0  0  0  0  0  0  0  0  0  0
   53.5270   94.4270   25.8740 C   0  0  0  0  0  0  0  0  0  0  0  0
   56.7060   93.6930   23.8310 C   0  0  1  0  0  0  0  0  0  0  0  0
   57.3000   92.5620   24.5380 N   0  0  0  0  0  0  0  0  0  0  0  0
   56.7970   91.4260   23.8160 C   0  0  1  0  0  0  0  0  0  0  0  0
   56.9620   91.8700   22.3800 C   0  0  2  0  0  0  0  0  0  0  0  0
   56.3540   93.2530   22.4530 C   0  0  1  0  0  0  0  0  0  0  0  0
   54.9510   93.0520   22.1540 C   0  0  0  0  0  0  0  0  0  0  0  0
   54.0160   93.8560   22.3660 O   0  0  0  0  0  0  0  0  0  0  0  0
   54.7800   91.7690   21.5680 N   0  0  0  0  0  0  0  0  0  0  0  0
   56.0530   91.1280   21.4700 C   0  0  0  0  0  0  0  0  0  0  0  0
   56.4030   90.1400   20.7820 O   0  0  0  0  0  0  0  0  0  0  0  0
   53.5580   91.1330   21.1100 C   0  0  0  0  0  0  0  0  0  0  0  0
   53.5730   90.8770   19.6590 C   0  0  0  0  0  0  0  0  0  0  0  0
   53.3490   89.5870   19.2290 C   0  0  0  0  0  0  0  0  0  0  0  0
   53.3650   89.3530   17.8610 C   0  0  0  0  0  0  0  0  0  0  0  0
   53.5930   90.3590   16.9660 C   0  0  0  0  0  0  0  0  0  0  0  0
   53.8120   91.6330   17.4340 C   0  0  0  0  0  0  0  0  0  0  0  0
   53.8100   91.9290   18.7790 C   0  0  0  0  0  0  0  0  0  0  0  0
   53.1200   88.5880   20.1520 O   0  0  0  0  0  0  0  0  0  0  0  0
   52.8210   87.2640   19.8370 C   0  0  0  0  0  0  0  0  0  0  0  0
   57.5950   90.1780   24.1210 C   0  0  0  0  0  0  0  0  0  0  0  0
   56.6090   89.0300   24.1700 C   0  0  0  0  0  0  0  0  0  0  0  0
   55.8880   88.9790   25.4660 C   0  0  0  0  0  0  0  0  0  0  0  0
   56.5200   89.2080   26.5370 O   0  0  0  0  0  0  0  0  0  0  0  0
   54.5020   88.6710   25.4300 N   0  0  0  0  0  0  0  0  0  0  0  0
   57.6820   94.8070   23.7650 C   0  0  0  0  0  0  0  0  0  0  0  0
   58.8000   94.8250   23.1700 O   0  0  0  0  0  0  0  0  0  0  0  0
   57.1420   95.8830   24.4990 N   0  0  0  0  0  0  0  0  0  0  0  0
   55.3610   97.6420   26.1930 C   0  0  0  0  0  0  0  0  0  0  0  0
   54.1090   92.6750   24.8360 H   0  0  0  0  0  0  0  0  0  0  0  0
   52.5900   93.9940   26.2090 H   0  0  0  0  0  0  0  0  0  0  0  0
   57.0260   92.5940   25.5430 H   0  0  0  0  0  0  0  0  0  0  0  0
   55.7470   91.1820   23.9800 H   0  0  0  0  0  0  0  0  0  0  0  0
   58.0060   91.8680   22.0470 H   0  0  0  0  0  0  0  0  0  0  0  0
   56.7950   93.8940   21.6560 H   0  0  0  0  0  0  0  0  0  0  0  0
   53.3930   90.1770   21.6430 H   0  0  0  0  0  0  0  0  0  0  0  0
   52.7180   91.8030   21.4180 H   0  0  0  0  0  0  0  0  0  0  0  0
   53.1890   88.3460   17.5170 H   0  0  0  0  0  0  0  0  0  0  0  0
   53.5960   90.1260   15.8930 H   0  0  0  0  0  0  0  0  0  0  0  0
   53.9940   92.4340   16.7330 H   0  0  0  0  0  0  0  0  0  0  0  0
   53.9860   92.9490   19.1470 H   0  0  0  0  0  0  0  0  0  0  0  0
   52.6320   86.7240   20.7920 H   0  0  0  0  0  0  0  0  0  0  0  0
   53.7320   86.7950   19.4030 H   0  0  0  0  0  0  0  0  0  0  0  0
   51.9410   87.2010   19.1830 H   0  0  0  0  0  0  0  0  0  0  0  0
   58.1800   90.2670   25.0510 H   0  0  0  0  0  0  0  0  0  0  0  0
   58.2410   89.9930   23.2280 H   0  0  0  0  0  0  0  0  0  0  0  0
   55.8970   89.0440   23.3080 H   0  0  0  0  0  0  0  0  0  0  0  0
   57.1950   88.0960   24.0700 H   0  0  0  0  0  0  0  0  0  0  0  0
   53.8940   89.2260   24.8040 H   0  0  0  0  0  0  0  0  0  0  0  0
   54.1700   87.8880   26.0490 H   0  0  0  0  0  0  0  0  0  0  0  0
   57.6120   96.8190   24.6280 H   0  0  0  0  0  0  0  0  0  0  0  0
   55.2220   98.3300   25.3480 H   0  0  0  0  0  0  0  0  0  0  0  0
   54.7540   97.9710   27.0360 H   0  0  0  0  0  0  0  0  0  0  0  0
   56.4450   97.7250   26.4860 H   0  0  0  0  0  0  0  0  0  0  0  0
  2  1  1  0  0  0  0
  3 35  1  0  0  0  0
  3  2  2  0  0  0  0
  4  3  1  0  0  0  0
  5  4  2  0  0  0  0
  5  6  1  0  0  0  0
  6  7  2  0  0  0  0
  7 37  1  0  0  0  0
  7  2  1  0  0  0  0
  8 32  1  6  0  0  0
  8  9  1  0  0  0  0
  8  5  1  0  0  0  0
  9 38  1  0  0  0  0
 10 39  1  1  0  0  0
 10 27  1  0  0  0  0
 10  9  1  0  0  0  0
 11 40  1  6  0  0  0
 11 12  1  0  0  0  0
 11 10  1  0  0  0  0
 12 41  1  6  0  0  0
 12  8  1  0  0  0  0
 13 14  2  0  0  0  0
 13 12  1  0  0  0  0
 15 13  1  0  0  0  0
 16 15  1  0  0  0  0
 16 11  1  0  0  0  0
 17 16  2  0  0  0  0
 18 43  1  0  0  0  0
 18 15  1  0  0  0  0
 18 42  1  0  0  0  0
 19 18  1  0  0  0  0
 20 19  1  0  0  0  0
 20 25  1  0  0  0  0
 21 20  2  0  0  0  0
 22 23  2  0  0  0  0
 22 21  1  0  0  0  0
 23 24  1  0  0  0  0
 24 47  1  0  0  0  0
 24 19  2  0  0  0  0
 26 25  1  0  0  0  0
 26 48  1  0  0  0  0
 27 28  1  0  0  0  0
 27 51  1  0  0  0  0
 28 29  1  0  0  0  0
 29 30  2  0  0  0  0
 31 29  1  0  0  0  0
 31 56  1  0  0  0  0
 32 34  1  0  0  0  0
 33 32  2  0  0  0  0
 34 57  1  0  0  0  0
 34  4  1  0  0  0  0
 35 60  1  0  0  0  0
 35 59  1  0  0  0  0
 36  6  1  0  0  0  0
 44 21  1  0  0  0  0
 45 22  1  0  0  0  0
 46 23  1  0  0  0  0
 49 26  1  0  0  0  0
 50 26  1  0  0  0  0
 52 27  1  0  0  0  0
 53 28  1  0  0  0  0
 54 28  1  0  0  0  0
 55 31  1  0  0  0  0
 58 35  1  0  0  0  0
M  END
>  <Pose>
1

>  <Score>
-5.82

$$$$
