
 OpenBabel03202210083D

 42 45  0  0  1  0  0  0  0  0999 V2000
   55.2370   88.4570   25.5520 Cl  0  0  0  0  0  0  0  0  0  0  0  0
   55.6400   88.6850   23.8650 C   0  0  0  0  0  0  0  0  0  0  0  0
   55.5540   89.9110   23.2490 C   0  0  0  0  0  0  0  0  0  0  0  0
   55.8640   90.1210   21.9110 C   0  0  0  0  0  0  0  0  0  0  0  0
   56.2820   89.0120   21.1830 C   0  0  0  0  0  0  0  0  0  0  0  0
   56.3770   87.7720   21.7750 C   0  0  0  0  0  0  0  0  0  0  0  0
   56.0580   87.6130   23.1070 C   0  0  0  0  0  0  0  0  0  0  0  0
   55.7550   91.4640   21.2870 C   0  0  1  0  0  0  0  0  0  0  0  0
   54.5310   91.6710   20.5660 N   0  0  0  0  0  0  0  0  0  0  0  0
   53.5790   92.3500   21.3780 C   0  0  0  0  0  0  0  0  0  0  0  0
   52.3340   92.4520   21.1800 O   0  0  0  0  0  0  0  0  0  0  0  0
   54.3070   92.9350   22.5240 C   0  0  0  0  0  0  0  0  0  0  0  0
   53.7820   93.6010   23.4450 O   0  0  0  0  0  0  0  0  0  0  0  0
   55.6990   92.5560   22.3200 C   0  0  0  0  0  0  0  0  0  0  0  0
   56.7070   93.0840   22.9800 C   0  0  0  0  0  0  0  0  0  0  0  0
   57.9910   92.5730   22.7020 O   0  0  0  0  0  0  0  0  0  0  0  0
   56.5800   94.1530   23.9620 C   0  0  0  0  0  0  0  0  0  0  0  0
   57.4170   95.2740   23.8750 C   0  0  0  0  0  0  0  0  0  0  0  0
   57.3000   96.3130   24.7720 C   0  0  0  0  0  0  0  0  0  0  0  0
   56.3670   96.3080   25.7880 C   0  0  0  0  0  0  0  0  0  0  0  0
   55.5350   95.2160   25.8900 C   0  0  0  0  0  0  0  0  0  0  0  0
   55.6550   94.1650   24.9800 C   0  0  0  0  0  0  0  0  0  0  0  0
   54.2860   91.2610   19.2380 C   0  0  1  0  0  0  0  0  0  0  0  0
   54.0720   89.9310   19.0550 N   0  0  0  0  0  0  0  0  0  0  0  0
   53.8280   89.4180   17.8500 C   0  0  0  0  0  0  0  0  0  0  0  0
   53.7950   90.2770   16.7750 C   0  0  0  0  0  0  0  0  0  0  0  0
   54.0140   91.6220   16.9840 C   0  0  0  0  0  0  0  0  0  0  0  0
   54.2610   92.1300   18.2040 N   0  0  0  0  0  0  0  0  0  0  0  0
   55.2200   90.7350   23.8630 H   0  0  0  0  0  0  0  0  0  0  0  0
   56.5260   89.1590   20.1350 H   0  0  0  0  0  0  0  0  0  0  0  0
   56.7080   86.8970   21.1970 H   0  0  0  0  0  0  0  0  0  0  0  0
   56.1380   86.6360   23.5630 H   0  0  0  0  0  0  0  0  0  0  0  0
   56.6400   91.5830   20.6260 H   0  0  0  0  0  0  0  0  0  0  0  0
   58.1490   95.2720   23.0720 H   0  0  0  0  0  0  0  0  0  0  0  0
   57.9680   97.1570   24.6670 H   0  0  0  0  0  0  0  0  0  0  0  0
   56.2560   97.1120   26.5010 H   0  0  0  0  0  0  0  0  0  0  0  0
   54.7860   95.1880   26.6900 H   0  0  0  0  0  0  0  0  0  0  0  0
   54.9600   93.3260   25.0830 H   0  0  0  0  0  0  0  0  0  0  0  0
   54.0920   89.2640   19.8760 H   0  0  0  0  0  0  0  0  0  0  0  0
   53.6660   88.3530   17.7480 H   0  0  0  0  0  0  0  0  0  0  0  0
   53.5980   89.8720   15.7910 H   0  0  0  0  0  0  0  0  0  0  0  0
   53.9760   92.2550   16.1080 H   0  0  0  0  0  0  0  0  0  0  0  0
  2  1  1  0  0  0  0
  3 29  1  0  0  0  0
  3  2  1  0  0  0  0
  4  3  2  0  0  0  0
  5  6  2  0  0  0  0
  5  4  1  0  0  0  0
  6  7  1  0  0  0  0
  7 32  1  0  0  0  0
  7  2  2  0  0  0  0
  8 33  1  6  0  0  0
  8  4  1  0  0  0  0
  8 14  1  0  0  0  0
  9  8  1  0  0  0  0
  9 10  1  0  0  0  0
 10 12  1  0  0  0  0
 11 10  2  0  0  0  0
 12 13  2  0  0  0  0
 14 12  1  0  0  0  0
 14 15  2  0  0  0  0
 15 17  1  0  0  0  0
 16 15  1  0  0  0  0
 17 22  1  0  0  0  0
 18 17  2  0  0  0  0
 18 19  1  0  0  0  0
 19 20  2  0  0  0  0
 20 21  1  0  0  0  0
 20 36  1  0  0  0  0
 21 37  1  0  0  0  0
 22 38  1  0  0  0  0
 22 21  2  0  0  0  0
 23  9  1  1  0  0  0
 24 23  1  0  0  0  0
 24 39  1  0  0  0  0
 25 24  1  0  0  0  0
 26 27  1  0  0  0  0
 26 25  2  0  0  0  0
 27 28  2  0  0  0  0
 28 23  1  0  0  0  0
 30  5  1  0  0  0  0
 31  6  1  0  0  0  0
 34 18  1  0  0  0  0
 35 19  1  0  0  0  0
 40 25  1  0  0  0  0
 41 26  1  0  0  0  0
 42 27  1  0  0  0  0
M  END
>  <Pose>
1

>  <Score>
-4.78

$$$$
