
 OpenBabel03202210083D

 44 47  0  0  0  0  0  0  0  0999 V2000
   57.7640   97.8730   24.8200 S   0  0  0  0  0  0  0  0  0  0  0  0
   58.3760   97.0190   23.8260 O   0  0  0  0  0  0  0  0  0  0  0  0
   58.6920   98.1600   25.9620 O   0  0  0  0  0  0  0  0  0  0  0  0
   57.2310   99.4670   24.1480 C   0  0  0  0  0  0  0  0  0  0  0  0
   56.3070   97.1520   25.5270 C   0  0  0  0  0  0  0  0  0  0  0  0
   55.9210   97.5600   26.7410 N   0  0  0  0  0  0  0  0  0  0  0  0
   54.8120   97.1550   27.3520 C   0  0  0  0  0  0  0  0  0  0  0  0
   53.9970   96.2440   26.6600 C   0  0  0  0  0  0  0  0  0  0  0  0
   54.3910   95.8350   25.4360 C   0  0  0  0  0  0  0  0  0  0  0  0
   55.5470   96.2890   24.8760 N   0  0  0  0  0  0  0  0  0  0  0  0
   53.5950   94.9250   24.7560 O   0  0  0  0  0  0  0  0  0  0  0  0
   52.7210   95.9380   27.3120 C   0  0  0  0  0  0  0  0  0  0  0  0
   52.1410   97.2050   27.6360 N   0  0  0  0  0  0  0  0  0  0  0  0
   52.8870   97.5950   28.9140 C   0  0  0  0  0  0  0  0  0  0  0  0
   54.3580   97.6120   28.6920 C   0  0  0  0  0  0  0  0  0  0  0  0
   52.5120   98.3720   26.7570 C   0  0  0  0  0  0  0  0  0  0  0  0
   51.4480   99.3700   27.2240 C   0  0  0  0  0  0  0  0  0  0  0  0
   50.2620   99.0580   27.7630 C   0  0  0  0  0  0  0  0  0  0  0  0
   49.3040  100.0190   28.1850 C   0  0  0  0  0  0  0  0  0  0  0  0
   49.6990  101.3470   27.9980 C   0  0  0  0  0  0  0  0  0  0  0  0
   48.8200  102.3160   28.3850 C   0  0  0  0  0  0  0  0  0  0  0  0
   47.5530  102.0590   28.9540 C   0  0  0  0  0  0  0  0  0  0  0  0
   47.2030  100.7070   29.1270 C   0  0  0  0  0  0  0  0  0  0  0  0
   48.0960   99.7510   28.7320 C   0  0  0  0  0  0  0  0  0  0  0  0
   50.8420  101.6570   27.4910 O   0  0  0  0  0  0  0  0  0  0  0  0
   51.7280  100.7290   27.0980 C   0  0  0  0  0  0  0  0  0  0  0  0
   52.8640  101.0560   26.5810 O   0  0  0  0  0  0  0  0  0  0  0  0
   49.8930   97.3850   28.0180 Cl  0  0  0  0  0  0  0  0  0  0  0  0
   56.4620   99.8910   24.8870 H   0  0  0  0  0  0  0  0  0  0  0  0
   56.6550   99.2620   23.2000 H   0  0  0  0  0  0  0  0  0  0  0  0
   58.0670  100.1470   23.9760 H   0  0  0  0  0  0  0  0  0  0  0  0
   53.7390   93.9110   24.7790 H   0  0  0  0  0  0  0  0  0  0  0  0
   52.0690   95.2080   26.7800 H   0  0  0  0  0  0  0  0  0  0  0  0
   52.9880   95.4520   28.3380 H   0  0  0  0  0  0  0  0  0  0  0  0
   52.4530   98.6080   29.1870 H   0  0  0  0  0  0  0  0  0  0  0  0
   52.5640   96.8480   29.6330 H   0  0  0  0  0  0  0  0  0  0  0  0
   54.6600   98.7050   28.8280 H   0  0  0  0  0  0  0  0  0  0  0  0
   54.8580   97.0690   29.4960 H   0  0  0  0  0  0  0  0  0  0  0  0
   53.4880   98.7580   26.9750 H   0  0  0  0  0  0  0  0  0  0  0  0
   52.2930   98.0490   25.7350 H   0  0  0  0  0  0  0  0  0  0  0  0
   49.0470  103.3780   28.3180 H   0  0  0  0  0  0  0  0  0  0  0  0
   46.8590  102.8740   29.2410 H   0  0  0  0  0  0  0  0  0  0  0  0
   46.2750  100.5330   29.5770 H   0  0  0  0  0  0  0  0  0  0  0  0
   47.8180   98.6860   28.7780 H   0  0  0  0  0  0  0  0  0  0  0  0
  1  5  1  0  0  0  0
  1  3  2  0  0  0  0
  2  1  2  0  0  0  0
  4  1  1  0  0  0  0
  4 29  1  0  0  0  0
  5  6  2  0  0  0  0
  6  7  1  0  0  0  0
  7 15  1  0  0  0  0
  8 12  1  0  0  0  0
  8  7  2  0  0  0  0
  9  8  1  0  0  0  0
 10  9  2  0  0  0  0
 10  5  1  0  0  0  0
 11 32  1  0  0  0  0
 11  9  1  0  0  0  0
 12 13  1  0  0  0  0
 12 34  1  0  0  0  0
 13 14  1  0  0  0  0
 14 35  1  0  0  0  0
 14 36  1  0  0  0  0
 15 37  1  0  0  0  0
 15 14  1  0  0  0  0
 15 38  1  0  0  0  0
 16 39  1  0  0  0  0
 16 17  1  0  0  0  0
 16 13  1  0  0  0  0
 17 18  2  0  0  0  0
 18 28  1  0  0  0  0
 18 19  1  0  0  0  0
 19 24  1  0  0  0  0
 20 19  2  0  0  0  0
 20 21  1  0  0  0  0
 21 22  2  0  0  0  0
 22 23  1  0  0  0  0
 22 42  1  0  0  0  0
 23 43  1  0  0  0  0
 24 44  1  0  0  0  0
 24 23  2  0  0  0  0
 25 20  1  0  0  0  0
 26 17  1  0  0  0  0
 26 25  1  0  0  0  0
 27 26  2  0  0  0  0
 30  4  1  0  0  0  0
 31  4  1  0  0  0  0
 33 12  1  0  0  0  0
 40 16  1  0  0  0  0
 41 21  1  0  0  0  0
M  END
>  <Pose>
1

>  <Score>
-6.82

$$$$
