
 OpenBabel03202210083D

 32 35  0  0  1  0  0  0  0  0999 V2000
   52.7840   83.7460   20.5830 Cl  0  0  0  0  0  0  0  0  0  0  0  0
   53.3900   85.4000   20.7000 C   0  0  0  0  0  0  0  0  0  0  0  0
   54.1730   85.8100   21.7520 C   0  0  0  0  0  0  0  0  0  0  0  0
   54.6420   87.1300   21.8220 C   0  0  0  0  0  0  0  0  0  0  0  0
   54.3390   88.0470   20.8550 C   0  0  0  0  0  0  0  0  0  0  0  0
   53.5370   87.6350   19.7750 C   0  0  0  0  0  0  0  0  0  0  0  0
   53.0950   86.3360   19.7370 C   0  0  0  0  0  0  0  0  0  0  0  0
   54.9130   89.3160   21.1210 N   0  0  0  0  0  0  0  0  0  0  0  0
   55.6250   89.1870   22.3390 C   0  0  0  0  0  0  0  0  0  0  0  0
   56.2670   90.1320   22.8830 O   0  0  0  0  0  0  0  0  0  0  0  0
   55.4890   87.8010   22.8390 C   0  0  1  0  0  0  0  0  0  0  0  0
   54.7860   87.8870   24.1770 C   0  0  0  0  0  0  0  0  0  0  0  0
   55.8000   88.4800   25.1130 C   0  0  0  0  0  0  0  0  0  0  0  0
   55.5800   89.4910   25.8050 O   0  0  0  0  0  0  0  0  0  0  0  0
   57.0660   87.8130   25.1760 N   0  0  0  0  0  0  0  0  0  0  0  0
   57.5460   87.1150   24.0340 C   0  0  0  0  0  0  0  0  0  0  0  0
   58.6780   86.3980   23.7950 N   0  0  0  0  0  0  0  0  0  0  0  0
   58.6270   85.9510   22.5640 N   0  0  0  0  0  0  0  0  0  0  0  0
   57.4960   86.3420   21.9550 C   0  0  0  0  0  0  0  0  0  0  0  0
   56.7830   87.0990   22.8940 C   0  0  0  0  0  0  0  0  0  0  0  0
   54.7820   90.5140   20.2860 C   0  0  0  0  0  0  0  0  0  0  0  0
   54.4330   85.1320   22.5240 H   0  0  0  0  0  0  0  0  0  0  0  0
   53.2990   88.3640   19.0110 H   0  0  0  0  0  0  0  0  0  0  0  0
   52.4730   86.0280   18.8940 H   0  0  0  0  0  0  0  0  0  0  0  0
   54.4150   86.9290   24.5440 H   0  0  0  0  0  0  0  0  0  0  0  0
   53.9930   88.6530   24.0680 H   0  0  0  0  0  0  0  0  0  0  0  0
   57.6420   87.8310   26.0460 H   0  0  0  0  0  0  0  0  0  0  0  0
   59.4270   86.2600   24.5130 H   0  0  0  0  0  0  0  0  0  0  0  0
   57.1430   86.1520   20.9580 H   0  0  0  0  0  0  0  0  0  0  0  0
   55.2340   91.3530   20.8520 H   0  0  0  0  0  0  0  0  0  0  0  0
   55.2200   90.3770   19.2920 H   0  0  0  0  0  0  0  0  0  0  0  0
   53.6960   90.7620   20.1200 H   0  0  0  0  0  0  0  0  0  0  0  0
  1  2  1  0  0  0  0
  2  3  1  0  0  0  0
  3  4  2  0  0  0  0
  3 22  1  0  0  0  0
  5  8  1  0  0  0  0
  5  4  1  0  0  0  0
  6  5  2  0  0  0  0
  7  6  1  0  0  0  0
  7  2  2  0  0  0  0
  8  9  1  0  0  0  0
  9 11  1  0  0  0  0
  9 10  2  0  0  0  0
 11  4  1  6  0  0  0
 11 20  1  0  0  0  0
 11 12  1  0  0  0  0
 12 25  1  0  0  0  0
 12 13  1  0  0  0  0
 13 15  1  0  0  0  0
 13 14  2  0  0  0  0
 15 27  1  0  0  0  0
 16 15  1  0  0  0  0
 17 16  1  0  0  0  0
 17 28  1  0  0  0  0
 18 17  1  0  0  0  0
 19 18  2  0  0  0  0
 19 20  1  0  0  0  0
 20 16  2  0  0  0  0
 21 30  1  0  0  0  0
 21  8  1  0  0  0  0
 23  6  1  0  0  0  0
 24  7  1  0  0  0  0
 26 12  1  0  0  0  0
 29 19  1  0  0  0  0
 31 21  1  0  0  0  0
 32 21  1  0  0  0  0
M  END
>  <Pose>
1

>  <Score>
-5.56

$$$$
