
 OpenBabel03202210083D

 61 64  0  0  1  0  0  0  0  0999 V2000
   53.2170   81.2030   25.1000 Cl  0  0  0  0  0  0  0  0  0  0  0  0
   53.5600   82.8890   24.6920 C   0  0  0  0  0  0  0  0  0  0  0  0
   53.9500   83.7750   25.6740 C   0  0  0  0  0  0  0  0  0  0  0  0
   54.2140   85.0670   25.3570 C   0  0  0  0  0  0  0  0  0  0  0  0
   54.0910   85.5130   24.0340 C   0  0  0  0  0  0  0  0  0  0  0  0
   53.6990   84.6130   23.0720 C   0  0  0  0  0  0  0  0  0  0  0  0
   53.4260   83.2860   23.3790 C   0  0  0  0  0  0  0  0  0  0  0  0
   54.3670   86.8680   23.6930 N   0  0  0  0  0  0  0  0  0  0  0  0
   55.2910   87.6270   24.5220 C   0  0  2  0  0  0  0  0  0  0  0  0
   54.8850   87.4080   25.8910 N   0  0  0  0  0  0  0  0  0  0  0  0
   54.6340   86.0800   26.3220 C   0  0  0  0  0  0  0  0  0  0  0  0
   54.7540   85.7130   27.5200 O   0  0  0  0  0  0  0  0  0  0  0  0
   55.1630   89.0720   24.1710 C   0  0  0  0  0  0  0  0  0  0  0  0
   56.0420   89.4890   23.0140 C   0  0  0  0  0  0  0  0  0  0  0  0
   55.9390   88.5730   21.8970 N   0  0  0  0  0  0  0  0  0  0  0  0
   56.3000   87.1730   21.9880 C   0  0  0  0  0  0  0  0  0  0  0  0
   56.0210   86.4840   20.9790 O   0  0  0  0  0  0  0  0  0  0  0  0
   56.9440   86.4290   23.0830 C   0  0  0  0  0  0  0  0  0  0  0  0
   56.7030   87.0880   24.4080 C   0  0  0  0  0  0  0  0  0  0  0  0
   55.4520   89.0010   20.6490 C   0  0  0  0  0  0  0  0  0  0  0  0
   56.1090   90.0300   19.8750 C   0  0  0  0  0  0  0  0  0  0  0  0
   57.4160   90.0680   20.1390 O   0  0  0  0  0  0  0  0  0  0  0  0
   55.6140   90.9250   18.9540 N   0  0  0  0  0  0  0  0  0  0  0  0
   55.7100   90.5830   17.5110 C   0  0  0  0  0  0  0  0  0  0  0  0
   54.3220   90.9340   16.9520 C   0  0  0  0  0  0  0  0  0  0  0  0
   53.3380   90.9610   17.9810 N   0  0  0  0  0  0  0  0  0  0  0  0
   53.4610   92.0210   18.9360 C   0  0  0  0  0  0  0  0  0  0  0  0
   54.9850   92.1610   19.2100 C   0  0  0  0  0  0  0  0  0  0  0  0
   52.0040   90.6690   17.5810 C   0  0  0  0  0  0  0  0  0  0  0  0
   51.5800   89.2430   17.8640 C   0  0  0  0  0  0  0  0  0  0  0  0
   50.9820   91.6110   18.1590 C   0  0  0  0  0  0  0  0  0  0  0  0
   54.0590   83.4760   26.7080 H   0  0  0  0  0  0  0  0  0  0  0  0
   53.6060   84.9750   22.0380 H   0  0  0  0  0  0  0  0  0  0  0  0
   53.1190   82.5900   22.6140 H   0  0  0  0  0  0  0  0  0  0  0  0
   53.8850   87.2520   22.8540 H   0  0  0  0  0  0  0  0  0  0  0  0
   54.7670   88.1760   26.5800 H   0  0  0  0  0  0  0  0  0  0  0  0
   55.5330   89.6580   25.0610 H   0  0  0  0  0  0  0  0  0  0  0  0
   54.1040   89.3050   24.0270 H   0  0  0  0  0  0  0  0  0  0  0  0
   55.8310   90.5220   22.7460 H   0  0  0  0  0  0  0  0  0  0  0  0
   57.0840   89.4500   23.3870 H   0  0  0  0  0  0  0  0  0  0  0  0
   56.5320   85.3900   23.1150 H   0  0  0  0  0  0  0  0  0  0  0  0
   58.0610   86.3670   22.9300 H   0  0  0  0  0  0  0  0  0  0  0  0
   57.4440   87.8810   24.6300 H   0  0  0  0  0  0  0  0  0  0  0  0
   56.8920   86.3020   25.2000 H   0  0  0  0  0  0  0  0  0  0  0  0
   54.3520   89.3420   20.7260 H   0  0  0  0  0  0  0  0  0  0  0  0
   55.3290   88.0810   20.0010 H   0  0  0  0  0  0  0  0  0  0  0  0
   56.4810   91.2240   17.0390 H   0  0  0  0  0  0  0  0  0  0  0  0
   55.9700   89.5340   17.3810 H   0  0  0  0  0  0  0  0  0  0  0  0
   54.3980   91.8790   16.3650 H   0  0  0  0  0  0  0  0  0  0  0  0
   54.0650   90.1120   16.2550 H   0  0  0  0  0  0  0  0  0  0  0  0
   53.0320   91.6850   19.9020 H   0  0  0  0  0  0  0  0  0  0  0  0
   53.0370   92.9810   18.6340 H   0  0  0  0  0  0  0  0  0  0  0  0
   55.1580   92.6700   20.1450 H   0  0  0  0  0  0  0  0  0  0  0  0
   55.3870   92.8980   18.4230 H   0  0  0  0  0  0  0  0  0  0  0  0
   51.9530   90.7910   16.4730 H   0  0  0  0  0  0  0  0  0  0  0  0
   52.2590   88.5660   17.2950 H   0  0  0  0  0  0  0  0  0  0  0  0
   51.5550   89.0340   18.9320 H   0  0  0  0  0  0  0  0  0  0  0  0
   50.5700   89.1150   17.4040 H   0  0  0  0  0  0  0  0  0  0  0  0
   50.7690   91.4150   19.2230 H   0  0  0  0  0  0  0  0  0  0  0  0
   51.3630   92.6620   17.9950 H   0  0  0  0  0  0  0  0  0  0  0  0
   50.0520   91.4790   17.5640 H   0  0  0  0  0  0  0  0  0  0  0  0
  2  1  1  0  0  0  0
  2  3  1  0  0  0  0
  3 32  1  0  0  0  0
  4  3  2  0  0  0  0
  4 11  1  0  0  0  0
  5  4  1  0  0  0  0
  6  7  1  0  0  0  0
  6  5  2  0  0  0  0
  7  2  2  0  0  0  0
  8  5  1  0  0  0  0
  9  8  1  6  0  0  0
  9 10  1  0  0  0  0
 10 11  1  0  0  0  0
 10 36  1  0  0  0  0
 11 12  2  0  0  0  0
 13  9  1  0  0  0  0
 13 37  1  0  0  0  0
 14 40  1  0  0  0  0
 14 13  1  0  0  0  0
 15 16  1  0  0  0  0
 15 14  1  0  0  0  0
 16 18  1  0  0  0  0
 17 16  2  0  0  0  0
 18 41  1  0  0  0  0
 18 19  1  0  0  0  0
 19  9  1  0  0  0  0
 19 43  1  0  0  0  0
 19 44  1  0  0  0  0
 20 45  1  0  0  0  0
 20 15  1  0  0  0  0
 21 22  2  0  0  0  0
 21 20  1  0  0  0  0
 23 28  1  0  0  0  0
 23 21  1  0  0  0  0
 24 23  1  0  0  0  0
 25 24  1  0  0  0  0
 25 26  1  0  0  0  0
 26 27  1  0  0  0  0
 27 28  1  0  0  0  0
 27 51  1  0  0  0  0
 28 53  1  0  0  0  0
 29 30  1  0  0  0  0
 29 26  1  0  0  0  0
 29 31  1  0  0  0  0
 30 57  1  0  0  0  0
 31 59  1  0  0  0  0
 33  6  1  0  0  0  0
 34  7  1  0  0  0  0
 35  8  1  0  0  0  0
 38 13  1  0  0  0  0
 39 14  1  0  0  0  0
 42 18  1  0  0  0  0
 46 20  1  0  0  0  0
 47 24  1  0  0  0  0
 48 24  1  0  0  0  0
 49 25  1  0  0  0  0
 50 25  1  0  0  0  0
 52 27  1  0  0  0  0
 54 28  1  0  0  0  0
 55 29  1  0  0  0  0
 56 30  1  0  0  0  0
 58 30  1  0  0  0  0
 60 31  1  0  0  0  0
 61 31  1  0  0  0  0
M  END
>  <Pose>
1

>  <Score>
-6.10

$$$$
