
 OpenBabel03202210083D

 37 40  0  0  0  0  0  0  0  0999 V2000
   53.8730   98.1140   27.3380 B   0  0  0  0  0  0  0  0  0  0  0  0
   55.0590   97.0170   26.3160 C   0  0  0  0  0  0  0  0  0  0  0  0
   56.2370   97.5310   25.8200 C   0  0  0  0  0  0  0  0  0  0  0  0
   57.1040   96.7590   25.0820 C   0  0  0  0  0  0  0  0  0  0  0  0
   58.2990   96.9880   24.4850 N   0  0  0  0  0  0  0  0  0  0  0  0
   58.6760   95.8620   23.9080 N   0  0  0  0  0  0  0  0  0  0  0  0
   57.8010   94.9130   24.0920 N   0  0  0  0  0  0  0  0  0  0  0  0
   56.7910   95.4460   24.8320 C   0  0  0  0  0  0  0  0  0  0  0  0
   55.6090   94.9230   25.3270 C   0  0  0  0  0  0  0  0  0  0  0  0
   54.7390   95.7070   26.0710 C   0  0  0  0  0  0  0  0  0  0  0  0
   55.3000   93.5250   25.0480 C   0  0  0  0  0  0  0  0  0  0  0  0
   55.8890   92.6420   25.7000 O   0  0  0  0  0  0  0  0  0  0  0  0
   54.3580   93.1340   24.0630 N   0  0  0  0  0  0  0  0  0  0  0  0
   54.6430   93.2710   22.6560 C   0  0  0  0  0  0  0  0  0  0  0  0
   54.8640   91.9040   22.0680 C   0  0  0  0  0  0  0  0  0  0  0  0
   54.2870   91.3940   20.9680 N   0  0  0  0  0  0  0  0  0  0  0  0
   54.7250   90.1370   20.7390 C   0  0  0  0  0  0  0  0  0  0  0  0
   55.5930   89.8650   21.7210 N   0  0  0  0  0  0  0  0  0  0  0  0
   55.6780   90.9340   22.5280 N   0  0  0  0  0  0  0  0  0  0  0  0
   54.1630   89.4490   19.5440 C   0  0  0  0  0  0  0  0  0  0  0  0
   54.4330   90.4120   18.3790 C   0  0  0  0  0  0  0  0  0  0  0  0
   53.9000   91.7840   18.6320 C   0  0  0  0  0  0  0  0  0  0  0  0
   53.3250   91.9210   20.0250 C   0  0  0  0  0  0  0  0  0  0  0  0
   56.4890   98.5630   26.0130 H   0  0  0  0  0  0  0  0  0  0  0  0
   57.7800   93.9200   23.7820 H   0  0  0  0  0  0  0  0  0  0  0  0
   53.8250   95.2500   26.4360 H   0  0  0  0  0  0  0  0  0  0  0  0
   53.4480   92.7420   24.3540 H   0  0  0  0  0  0  0  0  0  0  0  0
   53.8820   93.8400   22.1220 H   0  0  0  0  0  0  0  0  0  0  0  0
   55.6240   93.8150   22.5790 H   0  0  0  0  0  0  0  0  0  0  0  0
   53.0900   89.2620   19.6700 H   0  0  0  0  0  0  0  0  0  0  0  0
   54.7460   88.5280   19.2920 H   0  0  0  0  0  0  0  0  0  0  0  0
   55.5370   90.4710   18.3080 H   0  0  0  0  0  0  0  0  0  0  0  0
   54.0630   89.9870   17.4270 H   0  0  0  0  0  0  0  0  0  0  0  0
   53.1510   92.1040   17.8680 H   0  0  0  0  0  0  0  0  0  0  0  0
   54.7200   92.5250   18.5580 H   0  0  0  0  0  0  0  0  0  0  0  0
   52.4230   91.2700   20.0830 H   0  0  0  0  0  0  0  0  0  0  0  0
   53.0700   92.9570   20.2720 H   0  0  0  0  0  0  0  0  0  0  0  0
  2  1  1  0  0  0  0
  3 24  1  0  0  0  0
  3  2  2  0  0  0  0
  4  3  1  0  0  0  0
  5  4  1  0  0  0  0
  6  7  1  0  0  0  0
  6  5  2  0  0  0  0
  7  8  1  0  0  0  0
  8  4  2  0  0  0  0
  8  9  1  0  0  0  0
  9 10  2  0  0  0  0
 10  2  1  0  0  0  0
 10 26  1  0  0  0  0
 11  9  1  0  0  0  0
 11 12  2  0  0  0  0
 13 27  1  0  0  0  0
 13 11  1  0  0  0  0
 14 13  1  0  0  0  0
 15 19  2  0  0  0  0
 15 14  1  0  0  0  0
 16 15  1  0  0  0  0
 17 16  1  0  0  0  0
 17 18  2  0  0  0  0
 18 19  1  0  0  0  0
 20 30  1  0  0  0  0
 20 17  1  0  0  0  0
 21 22  1  0  0  0  0
 21 20  1  0  0  0  0
 22 23  1  0  0  0  0
 23 36  1  0  0  0  0
 23 37  1  0  0  0  0
 23 16  1  0  0  0  0
 25  7  1  0  0  0  0
 28 14  1  0  0  0  0
 29 14  1  0  0  0  0
 31 20  1  0  0  0  0
 32 21  1  0  0  0  0
 33 21  1  0  0  0  0
 34 22  1  0  0  0  0
 35 22  1  0  0  0  0
M  END
>  <Pose>
1

>  <Score>
-8.54

$$$$
