
 OpenBabel03202210083D

 40 43  0  0  0  0  0  0  0  0999 V2000
   47.5990  102.2790   28.9820 Cl  0  0  0  0  0  0  0  0  0  0  0  0
   48.8690  101.1390   28.5370 C   0  0  0  0  0  0  0  0  0  0  0  0
   49.9930  101.5310   27.8420 C   0  0  0  0  0  0  0  0  0  0  0  0
   50.9560  100.5950   27.5200 C   0  0  0  0  0  0  0  0  0  0  0  0
   52.1430  100.6690   26.8580 N   0  0  0  0  0  0  0  0  0  0  0  0
   52.6990   99.4450   26.8200 C   0  0  0  0  0  0  0  0  0  0  0  0
   51.9010   98.5540   27.4460 N   0  0  0  0  0  0  0  0  0  0  0  0
   50.8410   99.2640   27.8700 C   0  0  0  0  0  0  0  0  0  0  0  0
   49.7230   98.8640   28.5640 C   0  0  0  0  0  0  0  0  0  0  0  0
   48.7650   99.8050   28.8820 C   0  0  0  0  0  0  0  0  0  0  0  0
   52.1730   97.1410   27.6030 C   0  0  0  0  0  0  0  0  0  0  0  0
   53.4670   96.8970   28.3470 C   0  0  0  0  0  0  0  0  0  0  0  0
   54.5480   96.8630   27.3680 N   0  0  0  0  0  0  0  0  0  0  0  0
   55.4640   97.8570   27.3160 C   0  0  0  0  0  0  0  0  0  0  0  0
   56.4960   97.8560   26.4050 C   0  0  0  0  0  0  0  0  0  0  0  0
   56.6180   96.7540   25.4580 C   0  0  0  0  0  0  0  0  0  0  0  0
   57.6970   97.0200   24.7090 N   0  0  0  0  0  0  0  0  0  0  0  0
   58.2580   98.1770   25.0940 N   0  0  0  0  0  0  0  0  0  0  0  0
   57.5510   98.6930   26.1110 C   0  0  0  0  0  0  0  0  0  0  0  0
   57.8300   99.7700   26.6840 O   0  0  0  0  0  0  0  0  0  0  0  0
   55.6640   95.7530   25.5400 C   0  0  0  0  0  0  0  0  0  0  0  0
   54.6830   95.8620   26.4870 C   0  0  0  0  0  0  0  0  0  0  0  0
   55.7530   94.6340   24.6090 C   0  0  0  0  0  0  0  0  0  0  0  0
   56.8780   94.1280   24.3680 O   0  0  0  0  0  0  0  0  0  0  0  0
   54.6440   94.1210   23.9900 O   0  0  0  0  0  0  0  0  0  0  0  0
   54.7420   93.0810   23.0300 C   0  0  0  0  0  0  0  0  0  0  0  0
   50.0920  102.5700   27.5640 H   0  0  0  0  0  0  0  0  0  0  0  0
   53.6390   99.2460   26.3510 H   0  0  0  0  0  0  0  0  0  0  0  0
   49.6360   97.8110   28.8380 H   0  0  0  0  0  0  0  0  0  0  0  0
   47.8830   99.5010   29.4270 H   0  0  0  0  0  0  0  0  0  0  0  0
   51.3590   96.6160   28.1450 H   0  0  0  0  0  0  0  0  0  0  0  0
   52.2520   96.6740   26.6050 H   0  0  0  0  0  0  0  0  0  0  0  0
   53.4770   95.9390   28.8760 H   0  0  0  0  0  0  0  0  0  0  0  0
   53.6170   97.7100   29.0750 H   0  0  0  0  0  0  0  0  0  0  0  0
   55.3880   98.6800   28.0090 H   0  0  0  0  0  0  0  0  0  0  0  0
   59.1190   98.5660   24.6310 H   0  0  0  0  0  0  0  0  0  0  0  0
   53.9290   95.0660   26.5470 H   0  0  0  0  0  0  0  0  0  0  0  0
   55.8070   92.7540   22.9820 H   0  0  0  0  0  0  0  0  0  0  0  0
   54.4120   93.4450   22.0260 H   0  0  0  0  0  0  0  0  0  0  0  0
   54.1570   92.1900   23.3540 H   0  0  0  0  0  0  0  0  0  0  0  0
  2 10  1  0  0  0  0
  2  1  1  0  0  0  0
  3  2  2  0  0  0  0
  4  3  1  0  0  0  0
  4  8  2  0  0  0  0
  5  4  1  0  0  0  0
  6  5  2  0  0  0  0
  6  7  1  0  0  0  0
  7 11  1  0  0  0  0
  7  8  1  0  0  0  0
  8  9  1  0  0  0  0
  9 29  1  0  0  0  0
  9 10  2  0  0  0  0
 10 30  1  0  0  0  0
 11 31  1  0  0  0  0
 11 12  1  0  0  0  0
 12 33  1  0  0  0  0
 12 34  1  0  0  0  0
 13 12  1  0  0  0  0
 14 13  1  0  0  0  0
 14 35  1  0  0  0  0
 15 14  1  0  0  0  0
 16 21  1  0  0  0  0
 16 15  2  0  0  0  0
 17 18  1  0  0  0  0
 17 16  1  0  0  0  0
 18 19  1  0  0  0  0
 19 15  1  0  0  0  0
 19 20  2  0  0  0  0
 21 22  2  0  0  0  0
 22 37  1  0  0  0  0
 22 13  1  0  0  0  0
 23 21  1  0  0  0  0
 24 23  2  0  0  0  0
 25 23  1  0  0  0  0
 26 40  1  0  0  0  0
 26 25  1  0  0  0  0
 27  3  1  0  0  0  0
 28  6  1  0  0  0  0
 32 11  1  0  0  0  0
 36 18  1  0  0  0  0
 38 26  1  0  0  0  0
 39 26  1  0  0  0  0
M  END
>  <Pose>
1

>  <Score>
-7.19

$$$$
