
 OpenBabel03202210083D

 50 53  0  0  1  0  0  0  0  0999 V2000
   55.7920   90.0810   24.6840 Cl  0  0  0  0  0  0  0  0  0  0  0  0
   56.0980   88.3850   24.8760 C   0  0  0  0  0  0  0  0  0  0  0  0
   55.0520   87.4780   24.9650 C   0  0  0  0  0  0  0  0  0  0  0  0
   55.2800   86.1260   25.1180 C   0  0  0  0  0  0  0  0  0  0  0  0
   56.5770   85.6960   25.1810 C   0  0  0  0  0  0  0  0  0  0  0  0
   57.6580   86.5790   25.0940 C   0  0  0  0  0  0  0  0  0  0  0  0
   57.3940   87.9220   24.9410 C   0  0  0  0  0  0  0  0  0  0  0  0
   56.6080   84.2870   25.3590 N   0  0  0  0  0  0  0  0  0  0  0  0
   55.2690   83.8190   25.4120 C   0  0  0  0  0  0  0  0  0  0  0  0
   55.0050   82.5880   25.6010 O   0  0  0  0  0  0  0  0  0  0  0  0
   54.3940   84.9680   25.2180 C   0  0  2  0  0  0  0  0  0  0  0  0
   53.5500   84.8230   24.0290 N   0  0  0  0  0  0  0  0  0  0  0  0
   52.5620   83.8790   24.5020 C   0  0  1  0  0  0  0  0  0  0  0  0
   52.2530   84.2650   25.9120 C   0  0  2  0  0  0  0  0  0  0  0  0
   53.3690   85.1990   26.2730 C   0  0  1  0  0  0  0  0  0  0  0  0
   53.8100   84.8670   27.6500 C   0  0  0  0  0  0  0  0  0  0  0  0
   54.6540   85.5790   28.2550 O   0  0  0  0  0  0  0  0  0  0  0  0
   53.1220   83.6940   28.0520 N   0  0  0  0  0  0  0  0  0  0  0  0
   52.4890   83.1520   26.8870 C   0  0  0  0  0  0  0  0  0  0  0  0
   52.1680   81.9790   26.6740 O   0  0  0  0  0  0  0  0  0  0  0  0
   53.0620   83.1550   29.3580 C   0  0  0  0  0  0  0  0  0  0  0  0
   51.7680   83.1360   30.0710 C   0  0  0  0  0  0  0  0  0  0  0  0
   51.1190   84.4340   30.3660 C   0  0  0  0  0  0  0  0  0  0  0  0
   51.9020   85.3730   31.0190 O   0  0  0  0  0  0  0  0  0  0  0  0
   51.2290   85.7250   32.2140 C   0  0  0  0  0  0  0  0  0  0  0  0
   51.3410   83.8330   23.6200 C   0  0  1  0  0  0  0  0  0  0  0  0
   50.7550   85.0920   23.6410 O   0  0  0  0  0  0  0  0  0  0  0  0
   51.6640   83.4350   22.2030 C   0  0  0  0  0  0  0  0  0  0  0  0
   54.0130   87.8320   24.9140 H   0  0  0  0  0  0  0  0  0  0  0  0
   58.6870   86.2280   25.1440 H   0  0  0  0  0  0  0  0  0  0  0  0
   58.2560   88.5860   24.8760 H   0  0  0  0  0  0  0  0  0  0  0  0
   57.4780   83.6810   25.4360 H   0  0  0  0  0  0  0  0  0  0  0  0
   53.0750   85.7470   23.9140 H   0  0  0  0  0  0  0  0  0  0  0  0
   52.9840   82.8550   24.4900 H   0  0  0  0  0  0  0  0  0  0  0  0
   51.2510   84.6690   26.0670 H   0  0  0  0  0  0  0  0  0  0  0  0
   53.0470   86.2680   26.2090 H   0  0  0  0  0  0  0  0  0  0  0  0
   53.8660   83.5780   30.0370 H   0  0  0  0  0  0  0  0  0  0  0  0
   53.3880   82.0670   29.2790 H   0  0  0  0  0  0  0  0  0  0  0  0
   51.7740   82.4870   30.9870 H   0  0  0  0  0  0  0  0  0  0  0  0
   51.0470   82.5750   29.3930 H   0  0  0  0  0  0  0  0  0  0  0  0
   50.7470   84.9560   29.4330 H   0  0  0  0  0  0  0  0  0  0  0  0
   50.1810   84.2630   30.9510 H   0  0  0  0  0  0  0  0  0  0  0  0
   50.2550   86.1360   31.8760 H   0  0  0  0  0  0  0  0  0  0  0  0
   51.7390   86.5490   32.7440 H   0  0  0  0  0  0  0  0  0  0  0  0
   51.0580   84.8550   32.8540 H   0  0  0  0  0  0  0  0  0  0  0  0
   50.6370   83.1140   24.0380 H   0  0  0  0  0  0  0  0  0  0  0  0
   51.4230   85.8250   23.6580 H   0  0  0  0  0  0  0  0  0  0  0  0
   51.9700   82.3790   22.1470 H   0  0  0  0  0  0  0  0  0  0  0  0
   52.3870   84.1230   21.7210 H   0  0  0  0  0  0  0  0  0  0  0  0
   50.7210   83.5220   21.6190 H   0  0  0  0  0  0  0  0  0  0  0  0
  1  2  1  0  0  0  0
  2  7  2  0  0  0  0
  2  3  1  0  0  0  0
  3  4  2  0  0  0  0
  4  5  1  0  0  0  0
  5  8  1  0  0  0  0
  6 30  1  0  0  0  0
  6  5  2  0  0  0  0
  7  6  1  0  0  0  0
  8  9  1  0  0  0  0
  8 32  1  0  0  0  0
  9 10  2  0  0  0  0
 11  4  1  6  0  0  0
 11  9  1  0  0  0  0
 11 15  1  0  0  0  0
 12 13  1  0  0  0  0
 12 11  1  0  0  0  0
 13 34  1  1  0  0  0
 13 14  1  0  0  0  0
 14 35  1  1  0  0  0
 14 15  1  0  0  0  0
 14 19  1  0  0  0  0
 15 36  1  6  0  0  0
 15 16  1  0  0  0  0
 16 18  1  0  0  0  0
 16 17  2  0  0  0  0
 18 21  1  0  0  0  0
 19 18  1  0  0  0  0
 20 19  2  0  0  0  0
 21 37  1  0  0  0  0
 21 22  1  0  0  0  0
 22 23  1  0  0  0  0
 22 39  1  0  0  0  0
 23 42  1  0  0  0  0
 23 24  1  0  0  0  0
 24 25  1  0  0  0  0
 25 44  1  0  0  0  0
 25 45  1  0  0  0  0
 26 27  1  0  0  0  0
 26 46  1  1  0  0  0
 26 13  1  0  0  0  0
 27 47  1  0  0  0  0
 28 26  1  0  0  0  0
 29  3  1  0  0  0  0
 31  7  1  0  0  0  0
 33 12  1  0  0  0  0
 38 21  1  0  0  0  0
 40 22  1  0  0  0  0
 41 23  1  0  0  0  0
 43 25  1  0  0  0  0
 48 28  1  0  0  0  0
 49 28  1  0  0  0  0
 50 28  1  0  0  0  0
M  END
>  <Pose>
1

>  <Score>
-5.81

$$$$
