
 OpenBabel03202210083D

 43 46  0  0  1  0  0  0  0  0999 V2000
   53.0460   82.8650   17.3050 Cl  0  0  0  0  0  0  0  0  0  0  0  0
   52.5100   83.4930   18.8410 C   0  0  0  0  0  0  0  0  0  0  0  0
   52.4660   82.7330   19.9280 N   0  0  0  0  0  4  0  0  0  0  0  0
   52.0710   83.1330   21.1410 C   0  0  0  0  0  0  0  0  0  0  0  0
   51.9470   82.5580   22.3480 N   0  0  0  0  0  0  0  0  0  0  0  0
   51.4890   83.4660   23.2260 C   0  0  0  0  0  0  0  0  0  0  0  0
   51.3310   84.6150   22.5430 N   0  0  0  0  0  0  0  0  0  0  0  0
   51.6740   84.4630   21.2550 C   0  0  1  0  0  0  0  0  0  0  0  0
   51.7160   85.2590   20.1360 C   0  0  0  0  0  0  0  0  0  0  0  0
   52.1260   84.7840   18.9520 N   0  0  0  0  0  0  0  0  0  0  0  0
   51.2980   86.6340   20.2990 N   0  0  0  0  0  0  0  0  0  0  0  0
   51.5740   87.5690   19.2740 C   0  0  0  0  0  0  0  0  0  0  0  0
   52.8090   88.3250   19.4090 C   0  0  0  0  0  0  0  0  0  0  0  0
   53.7480   87.6520   20.1090 O   0  0  0  0  0  0  0  0  0  0  0  0
   53.1790   89.5650   18.9660 N   0  0  0  0  0  0  0  0  0  0  0  0
   54.3460   89.9340   18.2410 C   0  0  0  0  0  0  0  0  0  0  0  0
   55.2400   90.8760   19.0440 C   0  0  0  0  0  0  0  0  0  0  0  0
   54.3480   91.6340   19.8740 N   0  0  0  0  0  0  0  0  0  0  0  0
   53.0660   91.9830   19.3340 C   0  0  0  0  0  0  0  0  0  0  0  0
   52.2360   90.6950   19.3130 C   0  0  0  0  0  0  0  0  0  0  0  0
   54.6860   92.0420   21.1770 C   0  0  0  0  0  0  0  0  0  0  0  0
   54.0500   93.0800   21.7940 N   0  0  0  0  0  0  0  0  0  0  0  0
   54.3190   93.5130   23.0120 C   0  0  0  0  0  0  0  0  0  0  0  0
   55.2920   92.9360   23.7790 C   0  0  0  0  0  0  0  0  0  0  0  0
   55.9800   91.8740   23.2120 C   0  0  0  0  0  0  0  0  0  0  0  0
   55.6790   91.4360   21.9310 C   0  0  0  0  0  0  0  0  0  0  0  0
   51.2750   83.3390   24.2900 H   0  0  0  0  0  0  0  0  0  0  0  0
   50.9860   85.5390   22.9160 H   0  0  0  0  0  0  0  0  0  0  0  0
   50.8160   86.9170   21.1570 H   0  0  0  0  0  0  0  0  0  0  0  0
   51.4880   87.0960   18.2440 H   0  0  0  0  0  0  0  0  0  0  0  0
   50.7320   88.3490   19.3300 H   0  0  0  0  0  0  0  0  0  0  0  0
   54.9240   89.0920   17.9150 H   0  0  0  0  0  0  0  0  0  0  0  0
   53.9950   90.5410   17.3270 H   0  0  0  0  0  0  0  0  0  0  0  0
   55.7490   91.5810   18.3430 H   0  0  0  0  0  0  0  0  0  0  0  0
   55.9920   90.2990   19.5610 H   0  0  0  0  0  0  0  0  0  0  0  0
   53.1260   92.3280   18.2800 H   0  0  0  0  0  0  0  0  0  0  0  0
   52.5410   92.7010   19.9850 H   0  0  0  0  0  0  0  0  0  0  0  0
   51.4680   90.7590   18.5540 H   0  0  0  0  0  0  0  0  0  0  0  0
   51.8500   90.4350   20.3030 H   0  0  0  0  0  0  0  0  0  0  0  0
   53.7550   94.3580   23.4310 H   0  0  0  0  0  0  0  0  0  0  0  0
   55.5020   93.2930   24.7620 H   0  0  0  0  0  0  0  0  0  0  0  0
   56.7660   91.3940   23.8110 H   0  0  0  0  0  0  0  0  0  0  0  0
   56.2330   90.6210   21.5420 H   0  0  0  0  0  0  0  0  0  0  0  0
  1  2  1  0  0  0  0
  2 10  1  0  0  0  0
  2  3  2  0  0  0  0
  3  4  2  0  0  0  0
  4  8  1  0  0  0  0
  4  5  1  0  0  0  0
  5  6  2  0  0  0  0
  6 27  1  0  0  0  0
  7 28  1  0  0  0  0
  7  6  1  0  0  0  0
  8  9  1  1  0  0  0
  8  7  1  0  0  0  0
  9 11  1  0  0  0  0
 10  9  2  0  0  0  0
 11 29  1  0  0  0  0
 12 31  1  0  0  0  0
 12 13  1  0  0  0  0
 12 11  1  0  0  0  0
 13 14  2  0  0  0  0
 15 20  1  0  0  0  0
 15 13  1  0  0  0  0
 16 15  1  0  0  0  0
 16 17  1  0  0  0  0
 17 35  1  0  0  0  0
 17 18  1  0  0  0  0
 18 21  1  0  0  0  0
 19 18  1  0  0  0  0
 19 37  1  0  0  0  0
 20 19  1  0  0  0  0
 20 39  1  0  0  0  0
 21 22  2  0  0  0  0
 21 26  1  0  0  0  0
 22 23  1  0  0  0  0
 23 40  1  0  0  0  0
 23 24  2  0  0  0  0
 24 41  1  0  0  0  0
 25 24  1  0  0  0  0
 25 42  1  0  0  0  0
 26 25  2  0  0  0  0
 30 12  1  0  0  0  0
 32 16  1  0  0  0  0
 33 16  1  0  0  0  0
 34 17  1  0  0  0  0
 36 19  1  0  0  0  0
 38 20  1  0  0  0  0
 43 26  1  0  0  0  0
M  END
>  <Pose>
1

>  <Score>
-7.44

$$$$
