
 OpenBabel03202210083D

 53 56  0  0  1  0  0  0  0  0999 V2000
   53.2890   91.5680   18.0620 B   0  0  0  0  0  0  0  0  0  0  0  0
   53.5170   89.8960   18.9460 C   0  0  0  0  0  0  0  0  0  0  0  0
   54.5340   89.7750   19.8660 C   0  0  0  0  0  0  0  0  0  0  0  0
   54.6860   88.5600   20.4970 C   0  0  0  0  0  0  0  0  0  0  0  0
   53.8350   87.4880   20.2090 C   0  0  0  0  0  0  0  0  0  0  0  0
   52.8240   87.6410   19.2800 C   0  0  0  0  0  0  0  0  0  0  0  0
   52.6610   88.8380   18.6470 C   0  0  0  0  0  0  0  0  0  0  0  0
   51.9010   86.5100   18.9540 C   0  0  0  0  0  0  0  0  0  0  0  0
   56.0810   88.3600   21.7750 B   0  0  0  0  0  0  0  0  0  0  0  0
   55.3460   90.8270   20.1310 O   0  0  0  0  0  0  0  0  0  0  0  0
   55.6700   91.3690   21.3780 C   0  0  0  0  0  0  0  0  0  0  0  0
   54.4220   92.0960   21.8770 C   0  0  1  0  0  0  0  0  0  0  0  0
   53.6680   91.2870   22.7250 O   0  0  0  0  0  0  0  0  0  0  0  0
   54.8980   93.3040   22.6180 C   0  0  0  0  0  0  0  0  0  0  0  0
   55.0770   93.0880   24.0410 N   0  0  0  0  0  4  0  0  0  0  0  0
   56.4790   93.0120   24.2820 C   0  0  0  0  0  0  0  0  0  0  0  0
   56.9870   93.8900   25.3820 C   0  0  1  0  0  0  0  0  0  0  0  0
   57.0250   95.3390   25.0490 C   0  0  0  0  0  0  0  0  0  0  0  0
   56.1100   96.1560   25.7950 N   0  0  0  0  0  0  0  0  0  0  0  0
   54.9910   95.7030   26.3920 C   0  0  0  0  0  0  0  0  0  0  0  0
   54.1210   96.4790   27.1010 C   0  0  0  0  0  0  0  0  0  0  0  0
   54.3890   97.8270   27.2270 C   0  0  0  0  0  0  0  0  0  0  0  0
   55.5290   98.2990   26.6210 C   0  0  0  0  0  0  0  0  0  0  0  0
   56.3840   97.4870   25.9140 C   0  0  0  0  0  0  0  0  0  0  0  0
   57.4190   97.9550   25.3710 O   0  0  0  0  0  0  0  0  0  0  0  0
   54.7560   94.2200   26.2150 C   0  0  1  0  0  0  0  0  0  0  0  0
   54.3400   94.0120   24.8130 C   0  0  0  0  0  0  0  0  0  0  0  0
   56.0790   93.5940   26.5820 C   0  0  0  0  0  0  0  0  0  0  0  0
   53.9460   86.5320   20.6970 H   0  0  0  0  0  0  0  0  0  0  0  0
   51.8580   88.9280   17.9220 H   0  0  0  0  0  0  0  0  0  0  0  0
   51.7370   86.4930   17.8610 H   0  0  0  0  0  0  0  0  0  0  0  0
   50.8930   86.7080   19.4190 H   0  0  0  0  0  0  0  0  0  0  0  0
   52.2910   85.5400   19.3370 H   0  0  0  0  0  0  0  0  0  0  0  0
   56.0420   90.6450   22.1140 H   0  0  0  0  0  0  0  0  0  0  0  0
   56.4470   92.1470   21.2400 H   0  0  0  0  0  0  0  0  0  0  0  0
   53.8120   92.3060   20.9970 H   0  0  0  0  0  0  0  0  0  0  0  0
   54.1140   91.3370   23.6180 H   0  0  0  0  0  0  0  0  0  0  0  0
   55.8790   93.6050   22.1990 H   0  0  0  0  0  0  0  0  0  0  0  0
   54.2230   94.1750   22.4930 H   0  0  0  0  0  0  0  0  0  0  0  0
   54.6720   92.1200   24.2240 H   0  0  0  0  0  0  0  0  0  0  0  0
   56.8110   91.9610   24.5340 H   0  0  0  0  0  0  0  0  0  0  0  0
   57.0980   93.2620   23.3700 H   0  0  0  0  0  0  0  0  0  0  0  0
   58.0000   93.4940   25.6830 H   0  0  0  0  0  0  0  0  0  0  0  0
   58.0590   95.7260   25.2860 H   0  0  0  0  0  0  0  0  0  0  0  0
   56.9110   95.5380   23.9490 H   0  0  0  0  0  0  0  0  0  0  0  0
   53.2520   96.0120   27.5400 H   0  0  0  0  0  0  0  0  0  0  0  0
   53.7050   98.4460   27.7860 H   0  0  0  0  0  0  0  0  0  0  0  0
   55.7700   99.3560   26.7000 H   0  0  0  0  0  0  0  0  0  0  0  0
   54.0190   93.8800   26.9740 H   0  0  0  0  0  0  0  0  0  0  0  0
   53.2680   93.6510   24.8470 H   0  0  0  0  0  0  0  0  0  0  0  0
   54.2660   94.9710   24.2190 H   0  0  0  0  0  0  0  0  0  0  0  0
   56.0310   92.5190   26.7490 H   0  0  0  0  0  0  0  0  0  0  0  0
   56.5540   94.1420   27.4390 H   0  0  0  0  0  0  0  0  0  0  0  0
  1  2  1  0  0  0  0
  2  3  1  0  0  0  0
  3 10  1  0  0  0  0
  3  4  2  0  0  0  0
  4  9  1  0  0  0  0
  5  4  1  0  0  0  0
  5 29  1  0  0  0  0
  6  5  2  0  0  0  0
  7  2  2  0  0  0  0
  7  6  1  0  0  0  0
  8  6  1  0  0  0  0
  8 33  1  0  0  0  0
  8 32  1  0  0  0  0
 10 11  1  0  0  0  0
 11 12  1  0  0  0  0
 11 34  1  0  0  0  0
 12 36  1  6  0  0  0
 12 14  1  0  0  0  0
 12 13  1  0  0  0  0
 13 37  1  0  0  0  0
 14 15  1  0  0  0  0
 15 40  1  0  0  0  0
 15 16  1  0  0  0  0
 15 27  1  0  0  0  0
 16 41  1  0  0  0  0
 16 17  1  0  0  0  0
 17 43  1  1  0  0  0
 17 28  1  0  0  0  0
 18 44  1  0  0  0  0
 18 17  1  0  0  0  0
 18 19  1  0  0  0  0
 19 24  1  0  0  0  0
 19 20  1  0  0  0  0
 20 21  2  0  0  0  0
 21 22  1  0  0  0  0
 21 46  1  0  0  0  0
 22 47  1  0  0  0  0
 23 48  1  0  0  0  0
 23 22  2  0  0  0  0
 24 23  1  0  0  0  0
 25 24  2  0  0  0  0
 26 20  1  0  0  0  0
 26 28  1  0  0  0  0
 26 49  1  1  0  0  0
 27 50  1  0  0  0  0
 27 26  1  0  0  0  0
 28 52  1  0  0  0  0
 28 53  1  0  0  0  0
 30  7  1  0  0  0  0
 31  8  1  0  0  0  0
 35 11  1  0  0  0  0
 38 14  1  0  0  0  0
 39 14  1  0  0  0  0
 42 16  1  0  0  0  0
 45 18  1  0  0  0  0
 51 27  1  0  0  0  0
M  END
>  <Pose>
1

>  <Score>
-6.62

$$$$
