
 OpenBabel03202210083D

 39 42  0  0  0  0  0  0  0  0999 V2000
   55.5270   89.4090   20.6710 B   0  0  0  0  0  0  0  0  0  0  0  0
   56.0940   88.8860   22.4000 C   0  0  0  0  0  0  0  0  0  0  0  0
   55.8000   89.7300   23.4710 C   0  0  0  0  0  0  0  0  0  0  0  0
   56.2450   89.2850   24.7020 C   0  0  0  0  0  0  0  0  0  0  0  0
   56.9350   88.0820   24.8670 C   0  0  0  0  0  0  0  0  0  0  0  0
   57.1940   87.2940   23.7740 C   0  0  0  0  0  0  0  0  0  0  0  0
   56.7710   87.6980   22.5270 C   0  0  0  0  0  0  0  0  0  0  0  0
   55.1010   90.9380   23.2620 N   0  0  0  0  0  0  0  0  0  0  0  0
   55.4880   92.0550   22.5220 C   0  0  0  0  0  0  0  0  0  0  0  0
   56.4840   92.0330   21.7770 O   0  0  0  0  0  0  0  0  0  0  0  0
   54.7300   93.3320   22.5880 C   0  0  0  0  0  0  0  0  0  0  0  0
   54.7950   93.9060   23.9410 N   0  0  0  0  0  0  0  0  0  0  0  0
   55.5730   93.5170   24.9380 N   0  0  0  0  0  0  0  0  0  0  0  0
   55.3500   94.2730   26.0070 N   0  0  0  0  0  0  0  0  0  0  0  0
   54.4000   95.1780   25.6910 C   0  0  0  0  0  0  0  0  0  0  0  0
   54.0850   94.9180   24.4110 N   0  0  0  0  0  0  0  0  0  0  0  0
   53.8460   96.2070   26.5580 C   0  0  0  0  0  0  0  0  0  0  0  0
   54.6200   97.3120   26.8290 C   0  0  0  0  0  0  0  0  0  0  0  0
   54.0920   98.2900   27.6540 C   0  0  0  0  0  0  0  0  0  0  0  0
   52.8380   98.1870   28.2000 C   0  0  0  0  0  0  0  0  0  0  0  0
   52.0590   97.0790   27.9310 C   0  0  0  0  0  0  0  0  0  0  0  0
   52.5880   96.1030   27.1050 C   0  0  0  0  0  0  0  0  0  0  0  0
   55.9330   97.4900   26.2980 N   0  0  0  0  0  0  0  0  0  0  0  0
   56.8740   98.2250   26.8760 N   0  0  0  0  0  0  0  0  0  0  0  0
   57.9590   98.1820   26.1360 N   0  0  0  0  0  0  0  0  0  0  0  0
   57.7060   97.4140   25.0790 N   0  0  0  0  0  0  0  0  0  0  0  0
   56.4330   96.9800   25.1820 C   0  0  0  0  0  0  0  0  0  0  0  0
   56.0780   89.8460   25.5900 H   0  0  0  0  0  0  0  0  0  0  0  0
   57.2690   87.7600   25.8340 H   0  0  0  0  0  0  0  0  0  0  0  0
   57.7220   86.3580   23.8480 H   0  0  0  0  0  0  0  0  0  0  0  0
   56.9910   87.0540   21.6890 H   0  0  0  0  0  0  0  0  0  0  0  0
   54.1500   91.0060   23.7330 H   0  0  0  0  0  0  0  0  0  0  0  0
   53.6840   93.2310   22.2720 H   0  0  0  0  0  0  0  0  0  0  0  0
   55.1910   94.1160   21.9310 H   0  0  0  0  0  0  0  0  0  0  0  0
   54.6930   99.1650   27.8740 H   0  0  0  0  0  0  0  0  0  0  0  0
   52.4110   98.9510   28.8510 H   0  0  0  0  0  0  0  0  0  0  0  0
   51.0610   96.9810   28.3550 H   0  0  0  0  0  0  0  0  0  0  0  0
   51.9600   95.2450   26.9080 H   0  0  0  0  0  0  0  0  0  0  0  0
   55.8970   96.3370   24.4980 H   0  0  0  0  0  0  0  0  0  0  0  0
  1  2  1  0  0  0  0
  2  7  2  0  0  0  0
  2  3  1  0  0  0  0
  3  4  2  0  0  0  0
  4  5  1  0  0  0  0
  4 28  1  0  0  0  0
  5 29  1  0  0  0  0
  6 30  1  0  0  0  0
  6  5  2  0  0  0  0
  7  6  1  0  0  0  0
  8  3  1  0  0  0  0
  8 32  1  0  0  0  0
  9 11  1  0  0  0  0
  9  8  1  0  0  0  0
 10  9  2  0  0  0  0
 11 12  1  0  0  0  0
 12 16  1  0  0  0  0
 12 13  1  0  0  0  0
 13 14  1  0  0  0  0
 15 14  2  0  0  0  0
 15 17  1  0  0  0  0
 16 15  1  0  0  0  0
 17 18  2  0  0  0  0
 17 22  1  0  0  0  0
 18 19  1  0  0  0  0
 19 35  1  0  0  0  0
 19 20  2  0  0  0  0
 20 36  1  0  0  0  0
 21 20  1  0  0  0  0
 21 37  1  0  0  0  0
 22 21  2  0  0  0  0
 23 18  1  0  0  0  0
 23 24  1  0  0  0  0
 25 24  2  0  0  0  0
 26 27  2  0  0  0  0
 26 25  1  0  0  0  0
 27 23  1  0  0  0  0
 31  7  1  0  0  0  0
 33 11  1  0  0  0  0
 34 11  1  0  0  0  0
 38 22  1  0  0  0  0
 39 27  1  0  0  0  0
M  END
>  <Pose>
1

>  <Score>
-8.36

$$$$
