
 OpenBabel03202210083D

 54 58  0  0  1  0  0  0  0  0999 V2000
   50.4020   87.5120   21.6670 Cl  0  0  0  0  0  0  0  0  0  0  0  0
   51.3020   88.2570   20.3370 C   0  0  0  0  0  0  0  0  0  0  0  0
   52.3860   89.0630   20.5830 C   0  0  0  0  0  0  0  0  0  0  0  0
   53.0760   89.6350   19.5480 C   0  0  0  0  0  0  0  0  0  0  0  0
   52.6750   89.3960   18.2580 C   0  0  0  0  0  0  0  0  0  0  0  0
   51.5780   88.5810   17.9770 C   0  0  0  0  0  0  0  0  0  0  0  0
   50.9050   88.0210   19.0390 C   0  0  0  0  0  0  0  0  0  0  0  0
   53.5040   90.0710   17.3300 N   0  0  0  0  0  0  0  0  0  0  0  0
   54.4770   90.7700   18.0920 C   0  0  0  0  0  0  0  0  0  0  0  0
   55.3870   91.4890   17.6260 O   0  0  0  0  0  0  0  0  0  0  0  0
   54.2590   90.5260   19.5310 C   0  0  1  0  0  0  0  0  0  0  0  0
   54.0400   91.7430   20.2720 N   0  0  0  0  0  0  0  0  0  0  0  0
   54.6620   91.5930   21.5500 C   0  0  1  0  0  0  0  0  0  0  0  0
   55.8750   90.7160   21.3480 C   0  0  2  0  0  0  0  0  0  0  0  0
   55.4740   89.9190   20.1330 C   0  0  1  0  0  0  0  0  0  0  0  0
   55.2990   88.5180   20.5880 C   0  0  0  0  0  0  0  0  0  0  0  0
   54.6550   87.5840   20.0470 O   0  0  0  0  0  0  0  0  0  0  0  0
   56.0380   88.4120   21.8230 N   0  0  0  0  0  0  0  0  0  0  0  0
   56.0640   89.7180   22.4320 C   0  0  0  0  0  0  0  0  0  0  0  0
   56.2170   89.9880   23.6520 O   0  0  0  0  0  0  0  0  0  0  0  0
   56.6500   87.2190   22.3690 C   0  0  0  0  0  0  0  0  0  0  0  0
   55.7180   86.5600   23.3320 C   0  0  0  0  0  0  0  0  0  0  0  0
   55.8890   86.7050   24.6920 C   0  0  0  0  0  0  0  0  0  0  0  0
   55.0110   86.0840   25.5640 C   0  0  0  0  0  0  0  0  0  0  0  0
   53.9560   85.3150   25.1150 C   0  0  0  0  0  0  0  0  0  0  0  0
   53.7760   85.1630   23.7580 C   0  0  0  0  0  0  0  0  0  0  0  0
   54.6550   85.7860   22.9020 C   0  0  0  0  0  0  0  0  0  0  0  0
   56.9590   87.4840   25.1450 O   0  0  0  0  0  0  0  0  0  0  0  0
   58.2880   86.9840   24.9610 C   0  0  0  0  0  0  0  0  0  0  0  0
   55.0320   92.9290   22.1580 C   0  0  2  0  0  0  0  0  0  0  0  0
   54.1840   93.1480   23.2400 O   0  0  0  0  0  0  0  0  0  0  0  0
   54.6840   93.9890   21.1180 C   0  0  0  0  0  0  0  0  0  0  0  0
   52.6410   89.2040   21.6250 H   0  0  0  0  0  0  0  0  0  0  0  0
   51.2570   88.3880   16.9630 H   0  0  0  0  0  0  0  0  0  0  0  0
   50.0370   87.3730   18.8840 H   0  0  0  0  0  0  0  0  0  0  0  0
   53.4480   90.0820   16.2700 H   0  0  0  0  0  0  0  0  0  0  0  0
   53.0380   91.9440   20.3410 H   0  0  0  0  0  0  0  0  0  0  0  0
   53.9830   91.0920   22.2390 H   0  0  0  0  0  0  0  0  0  0  0  0
   56.7960   91.3100   21.1990 H   0  0  0  0  0  0  0  0  0  0  0  0
   56.3190   90.0140   19.4090 H   0  0  0  0  0  0  0  0  0  0  0  0
   56.9140   86.4730   21.5890 H   0  0  0  0  0  0  0  0  0  0  0  0
   57.6000   87.4470   22.8990 H   0  0  0  0  0  0  0  0  0  0  0  0
   55.1370   86.1910   26.6260 H   0  0  0  0  0  0  0  0  0  0  0  0
   53.2590   84.8230   25.7800 H   0  0  0  0  0  0  0  0  0  0  0  0
   52.9660   84.5730   23.3440 H   0  0  0  0  0  0  0  0  0  0  0  0
   54.5070   85.6640   21.8590 H   0  0  0  0  0  0  0  0  0  0  0  0
   58.3560   86.0210   25.4930 H   0  0  0  0  0  0  0  0  0  0  0  0
   58.9990   87.7340   25.3700 H   0  0  0  0  0  0  0  0  0  0  0  0
   58.5270   86.8220   23.9080 H   0  0  0  0  0  0  0  0  0  0  0  0
   56.0780   92.9770   22.4760 H   0  0  0  0  0  0  0  0  0  0  0  0
   54.0840   92.3160   23.7540 H   0  0  0  0  0  0  0  0  0  0  0  0
   54.1800   94.8650   21.5960 H   0  0  0  0  0  0  0  0  0  0  0  0
   55.5740   94.2890   20.5330 H   0  0  0  0  0  0  0  0  0  0  0  0
   53.9420   93.5940   20.3840 H   0  0  0  0  0  0  0  0  0  0  0  0
  2  3  1  0  0  0  0
  2  1  1  0  0  0  0
  3 33  1  0  0  0  0
  4  3  2  0  0  0  0
  5  4  1  0  0  0  0
  6  5  2  0  0  0  0
  6  7  1  0  0  0  0
  7  2  2  0  0  0  0
  8  9  1  0  0  0  0
  8  5  1  0  0  0  0
 10  9  2  0  0  0  0
 11  9  1  6  0  0  0
 11  4  1  0  0  0  0
 11 15  1  0  0  0  0
 11 12  1  0  0  0  0
 12 37  1  0  0  0  0
 12 13  1  0  0  0  0
 13 30  1  0  0  0  0
 13 38  1  1  0  0  0
 14 39  1  6  0  0  0
 14 13  1  0  0  0  0
 14 19  1  0  0  0  0
 15 40  1  6  0  0  0
 15 16  1  0  0  0  0
 15 14  1  0  0  0  0
 16 18  1  0  0  0  0
 17 16  2  0  0  0  0
 18 21  1  0  0  0  0
 18 19  1  0  0  0  0
 19 20  2  0  0  0  0
 21 42  1  0  0  0  0
 21 22  1  0  0  0  0
 22 23  1  0  0  0  0
 23 28  1  0  0  0  0
 23 24  2  0  0  0  0
 24 43  1  0  0  0  0
 25 24  1  0  0  0  0
 25 44  1  0  0  0  0
 26 25  2  0  0  0  0
 27 22  2  0  0  0  0
 27 26  1  0  0  0  0
 29 28  1  0  0  0  0
 29 48  1  0  0  0  0
 29 47  1  0  0  0  0
 30 50  1  1  0  0  0
 30 31  1  0  0  0  0
 31 51  1  0  0  0  0
 32 52  1  0  0  0  0
 32 30  1  0  0  0  0
 34  6  1  0  0  0  0
 35  7  1  0  0  0  0
 36  8  1  0  0  0  0
 41 21  1  0  0  0  0
 45 26  1  0  0  0  0
 46 27  1  0  0  0  0
 49 29  1  0  0  0  0
 53 32  1  0  0  0  0
 54 32  1  0  0  0  0
M  END
>  <Pose>
1

>  <Score>
-5.06

$$$$
