
 OpenBabel03202210083D

 53 56  0  0  0  0  0  0  0  0999 V2000
   59.3590   95.2640   22.7980 B   0  0  0  0  0  0  0  0  0  0  0  0
   57.8680   95.5070   23.9790 C   0  0  0  0  0  0  0  0  0  0  0  0
   56.8210   94.5820   23.9750 C   0  0  0  0  0  0  0  0  0  0  0  0
   55.7500   94.7790   24.8410 C   0  0  0  0  0  0  0  0  0  0  0  0
   55.6950   95.8540   25.6970 C   0  0  0  0  0  0  0  0  0  0  0  0
   54.5480   95.8130   26.4350 N   0  0  0  0  0  0  0  0  0  0  0  0
   53.9000   94.7140   26.0310 C   0  0  0  0  0  0  0  0  0  0  0  0
   54.6030   94.0440   25.0500 C   0  0  0  0  0  0  0  0  0  0  0  0
   54.1600   96.7880   27.4320 C   0  0  0  0  0  0  0  0  0  0  0  0
   52.7970   97.3560   27.1550 C   0  0  0  0  0  0  0  0  0  0  0  0
   52.5180   97.7000   25.9900 O   0  0  0  0  0  0  0  0  0  0  0  0
   51.8520   97.5000   28.1820 N   0  0  0  0  0  0  0  0  0  0  0  0
   52.1220   98.2010   29.4180 C   0  0  0  0  0  0  0  0  0  0  0  0
   51.0090   99.2200   29.5990 C   0  0  0  0  0  0  0  0  0  0  0  0
   50.1780   99.2890   28.4710 N   0  0  0  0  0  0  0  0  0  0  0  0
   49.5390   98.1320   27.9940 C   0  0  0  0  0  0  0  0  0  0  0  0
   50.4930   96.9460   28.0800 C   0  0  0  0  0  0  0  0  0  0  0  0
   50.1220  100.4730   27.7190 C   0  0  0  0  0  0  0  0  0  0  0  0
   49.6780  101.6680   28.4850 C   0  0  0  0  0  0  0  0  0  0  0  0
   50.0360  102.7860   28.0380 O   0  0  0  0  0  0  0  0  0  0  0  0
   48.8990  101.6040   29.6510 N   0  0  0  0  0  0  0  0  0  0  0  0
   49.5120  101.7840   30.9520 C   0  0  0  0  0  0  0  0  0  0  0  0
   48.7450  102.8820   31.6570 C   0  0  0  0  0  0  0  0  0  0  0  0
   47.4580  102.3640   31.8670 O   0  0  0  0  0  0  0  0  0  0  0  0
   46.7810  102.1910   30.6840 C   0  0  0  0  0  0  0  0  0  0  0  0
   47.4710  101.3600   29.6590 C   0  0  0  0  0  0  0  0  0  0  0  0
   56.7220   96.7680   25.7080 C   0  0  0  0  0  0  0  0  0  0  0  0
   57.7960   96.5780   24.8440 C   0  0  0  0  0  0  0  0  0  0  0  0
   56.8840   93.7540   23.3000 H   0  0  0  0  0  0  0  0  0  0  0  0
   52.9420   94.3910   26.4260 H   0  0  0  0  0  0  0  0  0  0  0  0
   54.3600   93.1380   24.5220 H   0  0  0  0  0  0  0  0  0  0  0  0
   54.1260   96.3480   28.4530 H   0  0  0  0  0  0  0  0  0  0  0  0
   54.8440   97.6650   27.4350 H   0  0  0  0  0  0  0  0  0  0  0  0
   53.1260   98.6280   29.4570 H   0  0  0  0  0  0  0  0  0  0  0  0
   52.0580   97.4950   30.2930 H   0  0  0  0  0  0  0  0  0  0  0  0
   51.5340  100.2150   29.6960 H   0  0  0  0  0  0  0  0  0  0  0  0
   50.4940   99.0850   30.5770 H   0  0  0  0  0  0  0  0  0  0  0  0
   48.5670   97.8930   28.4350 H   0  0  0  0  0  0  0  0  0  0  0  0
   49.3450   98.2610   26.8880 H   0  0  0  0  0  0  0  0  0  0  0  0
   50.2990   96.4490   29.0510 H   0  0  0  0  0  0  0  0  0  0  0  0
   50.4310   96.2860   27.2170 H   0  0  0  0  0  0  0  0  0  0  0  0
   51.1230  100.6400   27.2310 H   0  0  0  0  0  0  0  0  0  0  0  0
   49.4200  100.3050   26.8560 H   0  0  0  0  0  0  0  0  0  0  0  0
   49.3210  100.8480   31.5530 H   0  0  0  0  0  0  0  0  0  0  0  0
   50.5940  101.9750   30.8870 H   0  0  0  0  0  0  0  0  0  0  0  0
   49.1960  103.0420   32.6660 H   0  0  0  0  0  0  0  0  0  0  0  0
   48.7480  103.7910   31.0430 H   0  0  0  0  0  0  0  0  0  0  0  0
   45.8100  101.6960   30.9250 H   0  0  0  0  0  0  0  0  0  0  0  0
   46.5110  103.2050   30.3210 H   0  0  0  0  0  0  0  0  0  0  0  0
   47.2820  100.2880   29.8680 H   0  0  0  0  0  0  0  0  0  0  0  0
   47.0030  101.5650   28.6760 H   0  0  0  0  0  0  0  0  0  0  0  0
   56.7160   97.6310   26.3690 H   0  0  0  0  0  0  0  0  0  0  0  0
   58.5930   97.3090   24.8690 H   0  0  0  0  0  0  0  0  0  0  0  0
  1  2  1  0  0  0  0
  2 28  1  0  0  0  0
  3  2  2  0  0  0  0
  3  4  1  0  0  0  0
  4  8  1  0  0  0  0
  4  5  2  0  0  0  0
  5 27  1  0  0  0  0
  5  6  1  0  0  0  0
  6  9  1  0  0  0  0
  7 30  1  0  0  0  0
  7  6  1  0  0  0  0
  8  7  2  0  0  0  0
  9 33  1  0  0  0  0
  9 32  1  0  0  0  0
 10  9  1  0  0  0  0
 10 12  1  0  0  0  0
 11 10  2  0  0  0  0
 12 13  1  0  0  0  0
 13 34  1  0  0  0  0
 13 14  1  0  0  0  0
 13 35  1  0  0  0  0
 14 36  1  0  0  0  0
 14 37  1  0  0  0  0
 15 14  1  0  0  0  0
 16 17  1  0  0  0  0
 16 38  1  0  0  0  0
 16 15  1  0  0  0  0
 17 12  1  0  0  0  0
 17 40  1  0  0  0  0
 18 15  1  0  0  0  0
 18 19  1  0  0  0  0
 19 21  1  0  0  0  0
 20 19  2  0  0  0  0
 21 26  1  0  0  0  0
 21 22  1  0  0  0  0
 22 44  1  0  0  0  0
 22 23  1  0  0  0  0
 23 24  1  0  0  0  0
 23 46  1  0  0  0  0
 25 48  1  0  0  0  0
 25 24  1  0  0  0  0
 26 50  1  0  0  0  0
 26 25  1  0  0  0  0
 27 52  1  0  0  0  0
 28 53  1  0  0  0  0
 28 27  2  0  0  0  0
 29  3  1  0  0  0  0
 31  8  1  0  0  0  0
 39 16  1  0  0  0  0
 41 17  1  0  0  0  0
 42 18  1  0  0  0  0
 43 18  1  0  0  0  0
 45 22  1  0  0  0  0
 47 23  1  0  0  0  0
 49 25  1  0  0  0  0
 51 26  1  0  0  0  0
M  END
>  <Pose>
1

>  <Score>
-5.72

$$$$
