
 OpenBabel03202210083D

 47 50  0  0  1  0  0  0  0  0999 V2000
   54.6560   81.7920   29.6280 Cl  0  0  0  0  0  0  0  0  0  0  0  0
   54.5010   81.9710   27.9010 C   0  0  0  0  0  0  0  0  0  0  0  0
   54.5480   83.2350   27.3560 C   0  0  0  0  0  0  0  0  0  0  0  0
   54.4350   83.4560   25.9780 C   0  0  0  0  0  0  0  0  0  0  0  0
   54.2740   82.3410   25.1990 C   0  0  0  0  0  0  0  0  0  0  0  0
   54.2260   81.0720   25.7360 C   0  0  0  0  0  0  0  0  0  0  0  0
   54.3410   80.8620   27.1130 C   0  0  0  0  0  0  0  0  0  0  0  0
   54.5110   84.7980   25.5170 N   0  0  0  0  0  0  0  0  0  0  0  0
   53.5240   85.7890   25.7520 C   0  0  0  0  0  0  0  0  0  0  0  0
   52.4820   85.5300   26.3680 O   0  0  0  0  0  0  0  0  0  0  0  0
   53.7220   87.1250   25.2690 N   0  0  0  0  0  0  0  0  0  0  0  0
   54.9050   87.4810   24.5550 C   0  0  0  0  0  0  0  0  0  0  0  0
   55.3180   88.6510   24.4930 O   0  0  0  0  0  0  0  0  0  0  0  0
   55.6690   86.3880   23.8550 C   0  0  1  0  0  0  0  0  0  0  0  0
   55.6740   85.2350   24.7810 C   0  0  0  0  0  0  0  0  0  0  0  0
   56.7430   84.5530   24.9780 O   0  0  0  0  0  0  0  0  0  0  0  0
   55.0100   86.0880   22.5490 C   0  0  0  0  0  0  0  0  0  0  0  0
   53.7820   85.6730   22.3140 C   0  0  0  0  0  0  0  0  0  0  0  0
   53.6040   85.5210   20.8440 C   0  0  2  0  0  0  0  0  0  0  0  0
   55.0140   85.3270   20.4180 N   0  0  0  0  0  0  0  0  0  0  0  0
   55.6830   86.1970   21.2880 N   0  0  0  0  0  0  0  0  0  0  0  0
   53.1900   86.8280   20.2670 C   0  0  0  0  0  0  0  0  0  0  0  0
   54.0650   87.9350   20.2480 C   0  0  0  0  0  0  0  0  0  0  0  0
   53.7440   89.1390   19.7020 C   0  0  0  0  0  0  0  0  0  0  0  0
   52.4990   89.3140   19.1260 C   0  0  0  0  0  0  0  0  0  0  0  0
   51.6200   88.2560   19.1270 C   0  0  0  0  0  0  0  0  0  0  0  0
   51.9590   87.0430   19.6850 C   0  0  0  0  0  0  0  0  0  0  0  0
   52.1550   90.5370   18.5610 O   0  0  0  0  0  0  0  0  0  0  0  0
   54.6510   90.2090   19.7140 O   0  0  0  0  0  0  0  0  0  0  0  0
   55.9540   90.0060   20.2150 C   0  0  0  0  0  0  0  0  0  0  0  0
   54.6790   84.1310   27.9830 H   0  0  0  0  0  0  0  0  0  0  0  0
   54.1790   82.4610   24.1410 H   0  0  0  0  0  0  0  0  0  0  0  0
   54.0960   80.1880   25.1190 H   0  0  0  0  0  0  0  0  0  0  0  0
   54.3060   79.8660   27.5290 H   0  0  0  0  0  0  0  0  0  0  0  0
   52.9940   87.8280   25.4500 H   0  0  0  0  0  0  0  0  0  0  0  0
   56.7260   86.6790   23.7020 H   0  0  0  0  0  0  0  0  0  0  0  0
   53.0010   85.4640   23.0250 H   0  0  0  0  0  0  0  0  0  0  0  0
   52.9660   84.6890   20.5600 H   0  0  0  0  0  0  0  0  0  0  0  0
   55.2880   84.3340   20.5520 H   0  0  0  0  0  0  0  0  0  0  0  0
   56.4820   86.7920   21.0930 H   0  0  0  0  0  0  0  0  0  0  0  0
   55.0280   87.7690   20.7040 H   0  0  0  0  0  0  0  0  0  0  0  0
   50.6570   88.4330   18.6750 H   0  0  0  0  0  0  0  0  0  0  0  0
   51.2420   86.2270   19.6670 H   0  0  0  0  0  0  0  0  0  0  0  0
   51.2450   90.9310   18.7620 H   0  0  0  0  0  0  0  0  0  0  0  0
   56.5420   89.3580   19.5550 H   0  0  0  0  0  0  0  0  0  0  0  0
   56.4330   91.0180   20.2460 H   0  0  0  0  0  0  0  0  0  0  0  0
   55.8720   89.6350   21.2640 H   0  0  0  0  0  0  0  0  0  0  0  0
  2  1  1  0  0  0  0
  3  2  1  0  0  0  0
  3 31  1  0  0  0  0
  4  3  2  0  0  0  0
  5  6  2  0  0  0  0
  5  4  1  0  0  0  0
  6  7  1  0  0  0  0
  7 34  1  0  0  0  0
  7  2  2  0  0  0  0
  8  9  1  0  0  0  0
  8  4  1  0  0  0  0
  9 10  2  0  0  0  0
 11 35  1  0  0  0  0
 11  9  1  0  0  0  0
 12 11  1  0  0  0  0
 13 12  2  0  0  0  0
 14 36  1  6  0  0  0
 14 12  1  0  0  0  0
 14 15  1  0  0  0  0
 15 16  2  0  0  0  0
 15  8  1  0  0  0  0
 17 14  1  0  0  0  0
 18 17  2  0  0  0  0
 18 37  1  0  0  0  0
 19 38  1  6  0  0  0
 19 18  1  0  0  0  0
 20 39  1  0  0  0  0
 20 19  1  0  0  0  0
 20 21  1  0  0  0  0
 21 17  1  0  0  0  0
 22 19  1  0  0  0  0
 23 22  1  0  0  0  0
 23 41  1  0  0  0  0
 24 29  1  0  0  0  0
 24 23  2  0  0  0  0
 25 26  2  0  0  0  0
 25 24  1  0  0  0  0
 26 27  1  0  0  0  0
 27 22  2  0  0  0  0
 28 44  1  0  0  0  0
 28 25  1  0  0  0  0
 29 30  1  0  0  0  0
 30 46  1  0  0  0  0
 30 47  1  0  0  0  0
 32  5  1  0  0  0  0
 33  6  1  0  0  0  0
 40 21  1  0  0  0  0
 42 26  1  0  0  0  0
 43 27  1  0  0  0  0
 45 30  1  0  0  0  0
M  END
>  <Pose>
1

>  <Score>
-6.22

$$$$
