
 OpenBabel03202210083D

 47 50  0  0  0  0  0  0  0  0999 V2000
   55.2450   91.2910   21.1870 S   0  0  0  0  0  0  0  0  0  0  0  0
   56.1660   92.3900   21.6060 O   0  0  0  0  0  0  0  0  0  0  0  0
   53.9010   91.5350   21.8140 O   0  0  0  0  0  0  0  0  0  0  0  0
   55.0660   91.2960   19.5070 N   0  0  0  0  0  0  0  0  0  0  0  0
   53.9930   92.0970   19.0010 C   0  0  0  0  0  0  0  0  0  0  0  0
   52.6750   91.3470   18.9620 C   0  0  0  0  0  0  0  0  0  0  0  0
   52.8850   90.0640   18.3470 N   0  0  0  0  0  0  0  0  0  0  0  0
   54.1910   89.7810   17.7880 C   0  0  0  0  0  0  0  0  0  0  0  0
   55.2100   90.0270   18.8790 C   0  0  0  0  0  0  0  0  0  0  0  0
   51.8680   89.0690   18.2660 C   0  0  0  0  0  0  0  0  0  0  0  0
   50.7300   89.3280   17.8110 O   0  0  0  0  0  0  0  0  0  0  0  0
   52.1280   87.7010   18.7180 C   0  0  0  0  0  0  0  0  0  0  0  0
   53.0480   86.8410   18.2010 N   0  0  0  0  0  0  0  0  0  0  0  0
   52.9910   85.6830   18.8770 C   0  0  0  0  0  0  0  0  0  0  0  0
   52.0450   85.8150   19.8060 N   0  0  0  0  0  0  0  0  0  0  0  0
   51.5020   87.0380   19.7310 C   0  0  0  0  0  0  0  0  0  0  0  0
   51.7910   84.7770   20.6260 C   0  0  0  0  0  0  0  0  0  0  0  0
   52.4470   83.5780   20.5690 C   0  0  0  0  0  0  0  0  0  0  0  0
   53.4370   83.4210   19.6050 C   0  0  0  0  0  0  0  0  0  0  0  0
   53.6870   84.4890   18.7730 C   0  0  0  0  0  0  0  0  0  0  0  0
   52.0880   82.2420   21.6560 Cl  0  0  0  0  0  0  0  0  0  0  0  0
   55.8440   89.8100   21.8190 N   0  0  0  0  0  0  0  0  0  0  0  0
   55.1380   88.6580   21.2890 C   0  0  0  0  0  0  0  0  0  0  0  0
   55.3110   87.5330   22.2810 C   0  0  0  0  0  0  0  0  0  0  0  0
   56.5500   87.5890   22.9110 O   0  0  0  0  0  0  0  0  0  0  0  0
   56.6750   88.6910   23.7540 C   0  0  0  0  0  0  0  0  0  0  0  0
   55.7060   89.7470   23.2620 C   0  0  0  0  0  0  0  0  0  0  0  0
   54.2340   92.3530   17.9400 H   0  0  0  0  0  0  0  0  0  0  0  0
   53.9410   93.0370   19.5550 H   0  0  0  0  0  0  0  0  0  0  0  0
   52.2810   91.2640   20.0120 H   0  0  0  0  0  0  0  0  0  0  0  0
   51.9100   91.9230   18.4010 H   0  0  0  0  0  0  0  0  0  0  0  0
   54.3380   90.5260   16.9590 H   0  0  0  0  0  0  0  0  0  0  0  0
   54.2580   88.7600   17.4080 H   0  0  0  0  0  0  0  0  0  0  0  0
   56.2330   89.9960   18.4050 H   0  0  0  0  0  0  0  0  0  0  0  0
   55.1380   89.2110   19.6030 H   0  0  0  0  0  0  0  0  0  0  0  0
   50.7040   87.3870   20.3890 H   0  0  0  0  0  0  0  0  0  0  0  0
   51.0160   84.8670   21.3990 H   0  0  0  0  0  0  0  0  0  0  0  0
   54.0010   82.5010   19.4970 H   0  0  0  0  0  0  0  0  0  0  0  0
   54.4560   84.4110   18.0020 H   0  0  0  0  0  0  0  0  0  0  0  0
   55.5090   88.3710   20.2840 H   0  0  0  0  0  0  0  0  0  0  0  0
   54.0620   88.9310   21.2380 H   0  0  0  0  0  0  0  0  0  0  0  0
   55.2780   86.5640   21.7400 H   0  0  0  0  0  0  0  0  0  0  0  0
   54.5420   87.5190   23.0690 H   0  0  0  0  0  0  0  0  0  0  0  0
   57.7010   89.1280   23.5970 H   0  0  0  0  0  0  0  0  0  0  0  0
   56.5150   88.4390   24.8170 H   0  0  0  0  0  0  0  0  0  0  0  0
   54.6720   89.4900   23.5730 H   0  0  0  0  0  0  0  0  0  0  0  0
   55.9200   90.7430   23.6940 H   0  0  0  0  0  0  0  0  0  0  0  0
  1  2  2  0  0  0  0
  1  3  2  0  0  0  0
  1 22  1  0  0  0  0
  4  1  1  0  0  0  0
  5  4  1  0  0  0  0
  5 29  1  0  0  0  0
  6  5  1  0  0  0  0
  6 30  1  0  0  0  0
  7  6  1  0  0  0  0
  8  7  1  0  0  0  0
  8  9  1  0  0  0  0
  9  4  1  0  0  0  0
  9 35  1  0  0  0  0
 10  7  1  0  0  0  0
 10 12  1  0  0  0  0
 11 10  2  0  0  0  0
 12 16  2  0  0  0  0
 13 12  1  0  0  0  0
 13 14  2  0  0  0  0
 14 15  1  0  0  0  0
 15 17  1  0  0  0  0
 16 15  1  0  0  0  0
 16 36  1  0  0  0  0
 17 37  1  0  0  0  0
 18 17  2  0  0  0  0
 18 21  1  0  0  0  0
 19 18  1  0  0  0  0
 20 14  1  0  0  0  0
 20 19  2  0  0  0  0
 22 27  1  0  0  0  0
 23 22  1  0  0  0  0
 23 24  1  0  0  0  0
 24 25  1  0  0  0  0
 24 43  1  0  0  0  0
 25 26  1  0  0  0  0
 26 45  1  0  0  0  0
 27 46  1  0  0  0  0
 27 47  1  0  0  0  0
 27 26  1  0  0  0  0
 28  5  1  0  0  0  0
 31  6  1  0  0  0  0
 32  8  1  0  0  0  0
 33  8  1  0  0  0  0
 34  9  1  0  0  0  0
 38 19  1  0  0  0  0
 39 20  1  0  0  0  0
 40 23  1  0  0  0  0
 41 23  1  0  0  0  0
 42 24  1  0  0  0  0
 44 26  1  0  0  0  0
M  END
>  <Pose>
1

>  <Score>
-5.84

$$$$
