
 OpenBabel03202210083D

 61 64  0  0  1  0  0  0  0  0999 V2000
   53.8040   90.3870   19.4480 S   0  0  0  0  0  0  0  0  0  0  0  0
   54.4350   90.7420   18.1030 O   0  0  0  0  0  0  0  0  0  0  0  0
   52.6310   91.3630   19.5600 O   0  0  0  0  0  0  0  0  0  0  0  0
   54.8280   90.6520   20.7270 N   0  0  0  0  0  0  0  0  0  0  0  0
   54.4440   90.9780   22.0130 C   0  0  1  0  0  0  0  0  0  0  0  0
   54.7920   89.7530   22.8700 C   0  0  0  0  0  0  0  0  0  0  0  0
   56.0820   89.2920   22.2280 C   0  0  0  0  0  0  0  0  0  0  0  0
   55.9570   89.7270   20.7880 C   0  0  0  0  0  0  0  0  0  0  0  0
   55.2910   92.1460   22.4880 C   0  0  0  0  0  0  0  0  0  0  0  0
   56.0720   92.6190   21.6510 O   0  0  0  0  0  0  0  0  0  0  0  0
   55.1500   92.6150   23.8050 N   0  0  0  0  0  0  0  0  0  0  0  0
   55.6590   93.9140   24.1730 C   0  0  0  0  0  0  0  0  0  0  0  0
   55.4320   94.3200   25.5780 C   0  0  0  0  0  0  0  0  0  0  0  0
   55.9100   95.6040   25.9530 N   0  0  0  0  0  0  0  0  0  0  0  0
   55.0000   96.6850   25.7560 C   0  0  0  0  0  0  0  0  0  0  0  0
   55.1400   97.6290   26.9340 C   0  0  0  0  0  0  0  0  0  0  0  0
   56.6040   97.9780   27.1090 C   0  0  0  0  0  0  0  0  0  0  0  0
   57.1710   98.3310   25.7610 C   0  0  0  0  0  0  0  0  0  0  0  0
   57.5190   97.1660   24.9120 C   0  0  0  0  0  0  0  0  0  0  0  0
   57.2390   95.8300   25.4900 C   0  0  0  0  0  0  0  0  0  0  0  0
   53.1290   88.7870   19.3530 C   0  0  0  0  0  0  0  0  0  0  0  0
   53.6530   87.7830   20.1840 C   0  0  0  0  0  0  0  0  0  0  0  0
   53.2440   86.4800   20.1530 C   0  0  0  0  0  0  0  0  0  0  0  0
   52.2550   86.1510   19.2430 C   0  0  0  0  0  0  0  0  0  0  0  0
   51.7020   87.0750   18.4080 C   0  0  0  0  0  0  0  0  0  0  0  0
   52.1550   88.3870   18.4830 C   0  0  0  0  0  0  0  0  0  0  0  0
   51.3240   89.5320   17.4540 Cl  0  0  0  0  0  0  0  0  0  0  0  0
   51.8110   84.7860   19.2040 N   0  0  0  0  0  0  0  0  0  0  0  0
   52.3940   83.8320   20.0880 C   0  0  0  0  0  0  0  0  0  0  0  0
   52.3800   82.6230   19.7980 O   0  0  0  0  0  0  0  0  0  0  0  0
   53.0000   84.3480   21.3410 C   0  0  0  0  0  0  0  0  0  0  0  0
   53.7640   85.4940   20.9760 O   0  0  0  0  0  0  0  0  0  0  0  0
   53.3960   91.1780   22.2420 H   0  0  0  0  0  0  0  0  0  0  0  0
   54.8610   89.9760   23.9290 H   0  0  0  0  0  0  0  0  0  0  0  0
   53.9950   89.0060   22.7060 H   0  0  0  0  0  0  0  0  0  0  0  0
   56.9050   89.8250   22.7630 H   0  0  0  0  0  0  0  0  0  0  0  0
   56.2100   88.2030   22.2610 H   0  0  0  0  0  0  0  0  0  0  0  0
   55.7920   88.8600   20.1070 H   0  0  0  0  0  0  0  0  0  0  0  0
   56.8580   90.2910   20.4940 H   0  0  0  0  0  0  0  0  0  0  0  0
   54.6920   92.0580   24.5550 H   0  0  0  0  0  0  0  0  0  0  0  0
   56.7770   93.8740   24.0180 H   0  0  0  0  0  0  0  0  0  0  0  0
   55.3000   94.7060   23.4980 H   0  0  0  0  0  0  0  0  0  0  0  0
   55.8760   93.5700   26.2460 H   0  0  0  0  0  0  0  0  0  0  0  0
   54.3250   94.3060   25.7760 H   0  0  0  0  0  0  0  0  0  0  0  0
   53.9560   96.3650   25.6010 H   0  0  0  0  0  0  0  0  0  0  0  0
   55.2990   97.2460   24.8470 H   0  0  0  0  0  0  0  0  0  0  0  0
   54.6130   98.6060   26.7340 H   0  0  0  0  0  0  0  0  0  0  0  0
   54.6830   97.2320   27.8590 H   0  0  0  0  0  0  0  0  0  0  0  0
   56.7850   98.7680   27.8280 H   0  0  0  0  0  0  0  0  0  0  0  0
   57.1270   97.0650   27.4600 H   0  0  0  0  0  0  0  0  0  0  0  0
   58.0340   99.0350   25.9490 H   0  0  0  0  0  0  0  0  0  0  0  0
   56.4220   98.9520   25.2100 H   0  0  0  0  0  0  0  0  0  0  0  0
   57.0900   97.2610   23.8720 H   0  0  0  0  0  0  0  0  0  0  0  0
   58.6340   97.2090   24.7270 H   0  0  0  0  0  0  0  0  0  0  0  0
   57.9450   95.5980   26.3140 H   0  0  0  0  0  0  0  0  0  0  0  0
   57.4710   95.0730   24.6940 H   0  0  0  0  0  0  0  0  0  0  0  0
   54.4330   88.0620   20.8950 H   0  0  0  0  0  0  0  0  0  0  0  0
   50.9270   86.7780   17.7070 H   0  0  0  0  0  0  0  0  0  0  0  0
   51.0610   84.5220   18.5180 H   0  0  0  0  0  0  0  0  0  0  0  0
   53.6290   83.6250   21.8620 H   0  0  0  0  0  0  0  0  0  0  0  0
   52.1770   84.7310   22.0040 H   0  0  0  0  0  0  0  0  0  0  0  0
  1  3  2  0  0  0  0
  1  4  1  0  0  0  0
  2  1  2  0  0  0  0
  4  8  1  0  0  0  0
  4  5  1  0  0  0  0
  5 33  1  1  0  0  0
  5  9  1  0  0  0  0
  5  6  1  0  0  0  0
  6 34  1  0  0  0  0
  7 37  1  0  0  0  0
  7 36  1  0  0  0  0
  7  6  1  0  0  0  0
  8  7  1  0  0  0  0
  9 11  1  0  0  0  0
 10  9  2  0  0  0  0
 11 12  1  0  0  0  0
 11 40  1  0  0  0  0
 12 13  1  0  0  0  0
 13 44  1  0  0  0  0
 13 14  1  0  0  0  0
 13 43  1  0  0  0  0
 15 14  1  0  0  0  0
 15 16  1  0  0  0  0
 16 17  1  0  0  0  0
 16 48  1  0  0  0  0
 17 50  1  0  0  0  0
 17 49  1  0  0  0  0
 18 51  1  0  0  0  0
 18 17  1  0  0  0  0
 19 20  1  0  0  0  0
 19 18  1  0  0  0  0
 20 14  1  0  0  0  0
 20 55  1  0  0  0  0
 21  1  1  0  0  0  0
 21 22  1  0  0  0  0
 22 57  1  0  0  0  0
 23 22  2  0  0  0  0
 23 32  1  0  0  0  0
 24 23  1  0  0  0  0
 25 26  1  0  0  0  0
 25 24  2  0  0  0  0
 26 21  2  0  0  0  0
 27 26  1  0  0  0  0
 28 24  1  0  0  0  0
 28 29  1  0  0  0  0
 29 31  1  0  0  0  0
 30 29  2  0  0  0  0
 31 60  1  0  0  0  0
 31 61  1  0  0  0  0
 32 31  1  0  0  0  0
 35  6  1  0  0  0  0
 38  8  1  0  0  0  0
 39  8  1  0  0  0  0
 41 12  1  0  0  0  0
 42 12  1  0  0  0  0
 45 15  1  0  0  0  0
 46 15  1  0  0  0  0
 47 16  1  0  0  0  0
 52 18  1  0  0  0  0
 53 19  1  0  0  0  0
 54 19  1  0  0  0  0
 56 20  1  0  0  0  0
 58 25  1  0  0  0  0
 59 28  1  0  0  0  0
M  END
>  <Pose>
1

>  <Score>
-8.12

$$$$
