
 OpenBabel03202210083D

 42 45  0  0  0  0  0  0  0  0999 V2000
   51.5680   97.6000   28.1710 Cl  0  0  0  0  0  0  0  0  0  0  0  0
   52.9090   96.9330   27.2290 C   0  0  0  0  0  0  0  0  0  0  0  0
   52.9440   95.5850   26.9410 C   0  0  0  0  0  0  0  0  0  0  0  0
   53.9620   95.0260   26.2140 C   0  0  0  0  0  0  0  0  0  0  0  0
   55.0060   95.8060   25.7380 C   0  0  0  0  0  0  0  0  0  0  0  0
   54.9530   97.1570   26.0370 C   0  0  0  0  0  0  0  0  0  0  0  0
   53.9300   97.7220   26.7680 C   0  0  0  0  0  0  0  0  0  0  0  0
   56.0760   95.2630   24.9830 N   0  0  0  0  0  0  0  0  0  0  0  0
   57.3440   95.6070   25.0870 N   0  0  0  0  0  0  0  0  0  0  0  0
   57.9990   94.8590   24.2070 N   0  0  0  0  0  0  0  0  0  0  0  0
   57.1660   94.0400   23.5410 C   0  0  0  0  0  0  0  0  0  0  0  0
   55.9480   94.3060   24.0430 C   0  0  0  0  0  0  0  0  0  0  0  0
   55.0950   93.4620   23.3570 C   0  0  0  0  0  0  0  0  0  0  0  0
   53.8470   93.4390   23.5730 O   0  0  0  0  0  0  0  0  0  0  0  0
   55.7510   92.7030   22.4640 N   0  0  0  0  0  0  0  0  0  0  0  0
   57.0400   93.0620   22.5770 C   0  0  0  0  0  0  0  0  0  0  0  0
   57.9810   92.5610   21.8920 O   0  0  0  0  0  0  0  0  0  0  0  0
   55.1520   91.7360   21.6030 C   0  0  0  0  0  0  0  0  0  0  0  0
   55.5830   90.4260   21.5540 C   0  0  0  0  0  0  0  0  0  0  0  0
   55.0200   89.4740   20.7290 C   0  0  0  0  0  0  0  0  0  0  0  0
   53.9740   89.8510   19.9130 C   0  0  0  0  0  0  0  0  0  0  0  0
   53.5020   91.1470   19.9210 C   0  0  0  0  0  0  0  0  0  0  0  0
   54.1030   92.0720   20.7690 C   0  0  0  0  0  0  0  0  0  0  0  0
   52.4470   91.4900   19.0850 O   0  0  0  0  0  0  0  0  0  0  0  0
   52.6520   91.8990   17.7610 C   0  0  0  0  0  0  0  0  0  0  0  0
   55.4970   88.1490   20.7170 O   0  0  0  0  0  0  0  0  0  0  0  0
   56.1510   87.6480   21.8600 C   0  0  0  0  0  0  0  0  0  0  0  0
   52.1170   94.9690   27.3190 H   0  0  0  0  0  0  0  0  0  0  0  0
   53.9840   93.9680   25.9920 H   0  0  0  0  0  0  0  0  0  0  0  0
   55.7820   97.7750   25.6580 H   0  0  0  0  0  0  0  0  0  0  0  0
   53.9250   98.7670   26.9770 H   0  0  0  0  0  0  0  0  0  0  0  0
   57.7330   96.3280   25.7400 H   0  0  0  0  0  0  0  0  0  0  0  0
   59.0290   94.8990   24.0490 H   0  0  0  0  0  0  0  0  0  0  0  0
   56.4160   90.1720   22.2180 H   0  0  0  0  0  0  0  0  0  0  0  0
   53.5280   89.1000   19.2610 H   0  0  0  0  0  0  0  0  0  0  0  0
   53.7260   93.1070   20.7740 H   0  0  0  0  0  0  0  0  0  0  0  0
   53.0660   92.9380   17.7970 H   0  0  0  0  0  0  0  0  0  0  0  0
   53.2940   91.2150   17.1840 H   0  0  0  0  0  0  0  0  0  0  0  0
   51.6420   91.9020   17.2570 H   0  0  0  0  0  0  0  0  0  0  0  0
   55.6140   87.8680   22.7950 H   0  0  0  0  0  0  0  0  0  0  0  0
   56.2690   86.5510   21.7780 H   0  0  0  0  0  0  0  0  0  0  0  0
   57.1780   88.0770   21.9730 H   0  0  0  0  0  0  0  0  0  0  0  0
  2  1  1  0  0  0  0
  3  2  1  0  0  0  0
  3 28  1  0  0  0  0
  4  3  2  0  0  0  0
  5  6  2  0  0  0  0
  5  4  1  0  0  0  0
  6  7  1  0  0  0  0
  7 31  1  0  0  0  0
  7  2  2  0  0  0  0
  8  9  1  0  0  0  0
  8  5  1  0  0  0  0
  9 32  1  0  0  0  0
 10  9  1  0  0  0  0
 11 12  2  0  0  0  0
 11 10  1  0  0  0  0
 12  8  1  0  0  0  0
 13 14  2  0  0  0  0
 13 12  1  0  0  0  0
 15 16  1  0  0  0  0
 15 13  1  0  0  0  0
 16 11  1  0  0  0  0
 17 16  2  0  0  0  0
 18 15  1  0  0  0  0
 19 18  1  0  0  0  0
 19 34  1  0  0  0  0
 20 19  2  0  0  0  0
 21 22  2  0  0  0  0
 21 20  1  0  0  0  0
 22 23  1  0  0  0  0
 23 36  1  0  0  0  0
 23 18  2  0  0  0  0
 24 22  1  0  0  0  0
 25 37  1  0  0  0  0
 25 24  1  0  0  0  0
 26 20  1  0  0  0  0
 26 27  1  0  0  0  0
 27 42  1  0  0  0  0
 27 40  1  0  0  0  0
 29  4  1  0  0  0  0
 30  6  1  0  0  0  0
 33 10  1  0  0  0  0
 35 21  1  0  0  0  0
 38 25  1  0  0  0  0
 39 25  1  0  0  0  0
 41 27  1  0  0  0  0
M  END
>  <Pose>
1

>  <Score>
-6.07

$$$$
