
 OpenBabel03202210083D

 43 47  0  0  0  0  0  0  0  0999 V2000
   57.5370   86.6710   24.8130 Cl  0  0  0  0  0  0  0  0  0  0  0  0
   56.8070   87.6280   23.5420 C   0  0  0  0  0  0  0  0  0  0  0  0
   56.3760   88.9300   23.7330 C   0  0  0  0  0  0  0  0  0  0  0  0
   55.8040   89.6720   22.7260 C   0  0  0  0  0  0  0  0  0  0  0  0
   55.6760   89.0580   21.5040 C   0  0  0  0  0  0  0  0  0  0  0  0
   56.0860   87.7690   21.2580 C   0  0  0  0  0  0  0  0  0  0  0  0
   56.6630   87.0420   22.3020 C   0  0  0  0  0  0  0  0  0  0  0  0
   55.0660   89.8230   20.4000 C   0  0  0  0  0  0  0  0  0  0  0  0
   54.8260   89.5100   19.1790 N   0  0  0  0  0  0  0  0  0  0  0  0
   54.2110   90.5900   18.4540 C   0  0  0  0  0  0  0  0  0  0  0  0
   54.0930   91.6920   19.4590 C   0  0  0  0  0  0  0  0  0  0  0  0
   54.6500   91.1460   20.6680 N   0  0  0  0  0  0  0  0  0  0  0  0
   54.8110   91.7400   21.9730 C   0  0  0  0  0  0  0  0  0  0  0  0
   54.4970   92.9570   22.4570 N   0  0  0  0  0  0  0  0  0  0  0  0
   54.8450   93.0250   23.7310 N   0  0  0  0  0  0  0  0  0  0  0  0
   55.3780   91.8270   24.0230 C   0  0  0  0  0  0  0  0  0  0  0  0
   55.8220   91.5370   25.1700 O   0  0  0  0  0  0  0  0  0  0  0  0
   55.3700   91.0070   22.9500 N   0  0  0  0  0  0  0  0  0  0  0  0
   54.6860   94.1650   24.6460 C   0  0  0  0  0  0  0  0  0  0  0  0
   55.9110   95.0010   24.5590 C   0  0  0  0  0  0  0  0  0  0  0  0
   56.8530   94.5490   23.8600 O   0  0  0  0  0  0  0  0  0  0  0  0
   56.0220   96.2490   25.2290 N   0  0  0  0  0  0  0  0  0  0  0  0
   57.2230   97.0610   25.2630 C   0  0  0  0  0  0  0  0  0  0  0  0
   56.9520   98.1800   26.2320 C   0  0  0  0  0  0  0  0  0  0  0  0
   55.8260   97.6060   27.0680 C   0  0  0  0  0  0  0  0  0  0  0  0
   54.9890   96.9240   25.9800 C   0  0  0  0  0  0  0  0  0  0  0  0
   56.4960   89.3630   24.6960 H   0  0  0  0  0  0  0  0  0  0  0  0
   55.9740   87.3170   20.2980 H   0  0  0  0  0  0  0  0  0  0  0  0
   56.9760   86.0350   22.0850 H   0  0  0  0  0  0  0  0  0  0  0  0
   53.1790   90.3200   18.1080 H   0  0  0  0  0  0  0  0  0  0  0  0
   54.8330   90.9100   17.5850 H   0  0  0  0  0  0  0  0  0  0  0  0
   53.0410   92.0280   19.5910 H   0  0  0  0  0  0  0  0  0  0  0  0
   54.7540   92.5360   19.1480 H   0  0  0  0  0  0  0  0  0  0  0  0
   54.5380   93.7870   25.6790 H   0  0  0  0  0  0  0  0  0  0  0  0
   53.8110   94.7320   24.2960 H   0  0  0  0  0  0  0  0  0  0  0  0
   57.3780   97.4380   24.2330 H   0  0  0  0  0  0  0  0  0  0  0  0
   58.0640   96.4190   25.6070 H   0  0  0  0  0  0  0  0  0  0  0  0
   56.5320   99.0600   25.6930 H   0  0  0  0  0  0  0  0  0  0  0  0
   57.8310   98.4510   26.8500 H   0  0  0  0  0  0  0  0  0  0  0  0
   55.2710   98.3850   27.5940 H   0  0  0  0  0  0  0  0  0  0  0  0
   56.2420   96.8250   27.7600 H   0  0  0  0  0  0  0  0  0  0  0  0
   54.2170   96.2750   26.3850 H   0  0  0  0  0  0  0  0  0  0  0  0
   54.6030   97.7370   25.3300 H   0  0  0  0  0  0  0  0  0  0  0  0
  2  3  1  0  0  0  0
  2  1  1  0  0  0  0
  3 27  1  0  0  0  0
  4 18  1  0  0  0  0
  4  3  2  0  0  0  0
  5  4  1  0  0  0  0
  6  5  1  0  0  0  0
  6  7  1  0  0  0  0
  7  2  2  0  0  0  0
  8 12  1  0  0  0  0
  8  5  2  0  0  0  0
  9  8  1  0  0  0  0
 10  9  1  0  0  0  0
 10 11  1  0  0  0  0
 11 32  1  0  0  0  0
 11 12  1  0  0  0  0
 12 13  1  0  0  0  0
 13 14  2  0  0  0  0
 13 18  1  0  0  0  0
 14 15  1  0  0  0  0
 15 16  1  0  0  0  0
 15 19  1  0  0  0  0
 16 17  2  0  0  0  0
 18 16  1  0  0  0  0
 19 34  1  0  0  0  0
 20 19  1  0  0  0  0
 20 22  1  0  0  0  0
 21 20  2  0  0  0  0
 22 23  1  0  0  0  0
 22 26  1  0  0  0  0
 23 37  1  0  0  0  0
 23 24  1  0  0  0  0
 24 39  1  0  0  0  0
 24 25  1  0  0  0  0
 25 40  1  0  0  0  0
 25 41  1  0  0  0  0
 26 42  1  0  0  0  0
 26 25  1  0  0  0  0
 28  6  1  0  0  0  0
 29  7  1  0  0  0  0
 30 10  1  0  0  0  0
 31 10  1  0  0  0  0
 33 11  1  0  0  0  0
 35 19  1  0  0  0  0
 36 23  1  0  0  0  0
 38 24  1  0  0  0  0
 43 26  1  0  0  0  0
M  END
>  <Pose>
1

>  <Score>
-6.94

$$$$
