
 OpenBabel03162216073D

 38 42  0  0  1  0  0  0  0  0999 V2000
   53.0760   92.0920   18.3250 B   0  0  0  0  0  0  0  0  0  0  0  0
   53.8250   90.6810   19.3460 C   0  0  0  0  0  0  0  0  0  0  0  0
   53.4850   89.3810   19.0580 C   0  0  0  0  0  0  0  0  0  0  0  0
   54.0450   88.3760   19.8150 C   0  0  0  0  0  0  0  0  0  0  0  0
   54.9250   88.6350   20.8430 C   0  0  0  0  0  0  0  0  0  0  0  0
   55.2700   89.9470   21.1350 C   0  0  0  0  0  0  0  0  0  0  0  0
   54.7010   90.9630   20.3640 C   0  0  0  0  0  0  0  0  0  0  0  0
   55.5020   87.5800   21.6210 N   0  0  0  0  0  0  0  0  0  0  0  0
   54.7230   86.5810   22.2610 C   0  0  0  0  0  0  0  0  0  0  0  0
   53.5390   86.3050   21.9510 O   0  0  0  0  0  0  0  0  0  0  0  0
   55.5360   85.9400   23.3290 C   0  0  2  0  0  0  0  0  0  0  0  0
   55.3060   86.5680   24.6690 C   0  0  1  0  0  0  0  0  0  0  0  0
   56.5780   86.3900   25.2570 O   0  0  0  0  0  0  0  0  0  0  0  0
   57.3140   87.1260   24.2940 C   0  0  1  0  0  0  0  0  0  0  0  0
   56.9700   86.3890   23.0460 C   0  0  2  0  0  0  0  0  0  0  0  0
   56.8800   87.3310   21.8980 C   0  0  0  0  0  0  0  0  0  0  0  0
   57.8490   87.8060   21.2990 O   0  0  0  0  0  0  0  0  0  0  0  0
   56.5430   88.3960   24.3190 C   0  0  0  0  0  0  0  0  0  0  0  0
   55.2770   88.0290   24.4920 C   0  0  0  0  0  0  0  0  0  0  0  0
   54.2200   85.9840   25.4670 C   0  0  0  0  0  0  0  0  0  0  0  0
   54.5120   85.8580   26.7970 O   0  0  0  0  0  0  0  0  0  0  0  0
   54.6420   84.5250   27.0970 C   0  0  0  0  0  0  0  0  0  0  0  0
   54.3970   83.7810   25.8250 C   0  0  0  0  0  0  0  0  0  0  0  0
   53.8410   84.7420   24.9900 O   0  0  0  0  0  0  0  0  0  0  0  0
   52.7910   89.1220   18.2530 H   0  0  0  0  0  0  0  0  0  0  0  0
   53.7930   87.3250   19.6100 H   0  0  0  0  0  0  0  0  0  0  0  0
   55.9590   90.1350   21.9400 H   0  0  0  0  0  0  0  0  0  0  0  0
   54.9690   91.9850   20.5920 H   0  0  0  0  0  0  0  0  0  0  0  0
   55.4130   84.8580   23.3130 H   0  0  0  0  0  0  0  0  0  0  0  0
   58.3600   87.2170   24.5320 H   0  0  0  0  0  0  0  0  0  0  0  0
   57.6140   85.5390   22.8190 H   0  0  0  0  0  0  0  0  0  0  0  0
   56.9940   89.3740   24.2130 H   0  0  0  0  0  0  0  0  0  0  0  0
   54.4650   88.7490   24.4820 H   0  0  0  0  0  0  0  0  0  0  0  0
   53.3240   86.6520   25.3640 H   0  0  0  0  0  0  0  0  0  0  0  0
   53.9410   84.1770   27.8800 H   0  0  0  0  0  0  0  0  0  0  0  0
   55.7060   84.3480   27.4040 H   0  0  0  0  0  0  0  0  0  0  0  0
   53.6730   82.9310   25.9940 H   0  0  0  0  0  0  0  0  0  0  0  0
   55.3330   83.3880   25.3540 H   0  0  0  0  0  0  0  0  0  0  0  0
  1  2  1  0  0  0  0
  2  7  1  0  0  0  0
  3  2  2  0  0  0  0
  3  4  1  0  0  0  0
  4  5  2  0  0  0  0
  5  6  1  0  0  0  0
  5  8  1  0  0  0  0
  6 27  1  0  0  0  0
  7 28  1  0  0  0  0
  7  6  2  0  0  0  0
  8 16  1  0  0  0  0
  8  9  1  0  0  0  0
  9 11  1  0  0  0  0
 10  9  2  0  0  0  0
 11 29  1  1  0  0  0
 11 12  1  0  0  0  0
 12 13  1  0  0  0  0
 12 20  1  1  0  0  0
 14 18  1  0  0  0  0
 14 30  1  1  0  0  0
 14 13  1  0  0  0  0
 15 31  1  6  0  0  0
 15 11  1  0  0  0  0
 15 14  1  0  0  0  0
 16 15  1  0  0  0  0
 17 16  2  0  0  0  0
 18 19  2  0  0  0  0
 19 12  1  0  0  0  0
 20 21  1  0  0  0  0
 21 22  1  0  0  0  0
 22 36  1  0  0  0  0
 22 35  1  0  0  0  0
 23 37  1  0  0  0  0
 23 22  1  0  0  0  0
 24 20  1  0  0  0  0
 24 23  1  0  0  0  0
 25  3  1  0  0  0  0
 26  4  1  0  0  0  0
 32 18  1  0  0  0  0
 33 19  1  0  0  0  0
 34 20  1  0  0  0  0
 38 23  1  0  0  0  0
M  END
>  <Pose>
1

>  <Score>
-4.55

$$$$
