
 OpenBabel03202210083D

 38 42  0  0  1  0  0  0  0  0999 V2000
   53.3940   92.1130   18.1480 B   0  0  0  0  0  0  0  0  0  0  0  0
   54.1110   90.7490   19.2550 C   0  0  0  0  0  0  0  0  0  0  0  0
   53.7600   89.4400   19.0300 C   0  0  0  0  0  0  0  0  0  0  0  0
   54.2970   88.4710   19.8480 C   0  0  0  0  0  0  0  0  0  0  0  0
   55.1630   88.7740   20.8750 C   0  0  0  0  0  0  0  0  0  0  0  0
   55.5190   90.0960   21.1040 C   0  0  0  0  0  0  0  0  0  0  0  0
   54.9740   91.0760   20.2710 C   0  0  0  0  0  0  0  0  0  0  0  0
   55.7160   87.7550   21.7180 N   0  0  0  0  0  0  0  0  0  0  0  0
   54.9170   86.7860   22.3790 C   0  0  0  0  0  0  0  0  0  0  0  0
   53.7430   86.4960   22.0470 O   0  0  0  0  0  0  0  0  0  0  0  0
   55.6970   86.1950   23.4990 C   0  0  2  0  0  0  0  0  0  0  0  0
   55.4280   86.8830   24.8010 C   0  0  1  0  0  0  0  0  0  0  0  0
   56.6830   86.7320   25.4340 O   0  0  0  0  0  0  0  0  0  0  0  0
   57.4480   87.4240   24.4610 C   0  0  1  0  0  0  0  0  0  0  0  0
   57.1400   86.6310   23.2380 C   0  0  2  0  0  0  0  0  0  0  0  0
   57.0850   87.5200   22.0460 C   0  0  0  0  0  0  0  0  0  0  0  0
   58.0720   87.9670   21.4550 O   0  0  0  0  0  0  0  0  0  0  0  0
   56.6780   88.6940   24.4060 C   0  0  0  0  0  0  0  0  0  0  0  0
   55.4070   88.3340   24.5570 C   0  0  0  0  0  0  0  0  0  0  0  0
   54.3190   86.3360   25.5920 C   0  0  0  0  0  0  0  0  0  0  0  0
   54.6770   85.9300   26.8490 O   0  0  0  0  0  0  0  0  0  0  0  0
   54.6060   84.5610   26.9080 C   0  0  0  0  0  0  0  0  0  0  0  0
   54.1530   84.1030   25.5600 C   0  0  0  0  0  0  0  0  0  0  0  0
   53.7070   85.2720   24.9540 O   0  0  0  0  0  0  0  0  0  0  0  0
   53.0760   89.1460   18.2290 H   0  0  0  0  0  0  0  0  0  0  0  0
   54.0360   87.4120   19.6950 H   0  0  0  0  0  0  0  0  0  0  0  0
   56.1980   90.3180   21.9090 H   0  0  0  0  0  0  0  0  0  0  0  0
   55.2510   92.1050   20.4500 H   0  0  0  0  0  0  0  0  0  0  0  0
   55.5730   85.1130   23.5280 H   0  0  0  0  0  0  0  0  0  0  0  0
   58.4860   87.5250   24.7250 H   0  0  0  0  0  0  0  0  0  0  0  0
   57.7890   85.7710   23.0690 H   0  0  0  0  0  0  0  0  0  0  0  0
   57.1330   89.6650   24.2680 H   0  0  0  0  0  0  0  0  0  0  0  0
   54.5960   89.0530   24.4900 H   0  0  0  0  0  0  0  0  0  0  0  0
   53.5410   87.1390   25.6900 H   0  0  0  0  0  0  0  0  0  0  0  0
   53.9120   84.1870   27.6870 H   0  0  0  0  0  0  0  0  0  0  0  0
   55.6440   84.1730   27.0770 H   0  0  0  0  0  0  0  0  0  0  0  0
   53.3120   83.3550   25.6550 H   0  0  0  0  0  0  0  0  0  0  0  0
   54.9770   83.6650   24.9410 H   0  0  0  0  0  0  0  0  0  0  0  0
  1  2  1  0  0  0  0
  2  7  1  0  0  0  0
  3  2  2  0  0  0  0
  3  4  1  0  0  0  0
  4  5  2  0  0  0  0
  5  6  1  0  0  0  0
  5  8  1  0  0  0  0
  6 27  1  0  0  0  0
  7 28  1  0  0  0  0
  7  6  2  0  0  0  0
  8 16  1  0  0  0  0
  8  9  1  0  0  0  0
  9 11  1  0  0  0  0
 10  9  2  0  0  0  0
 11 29  1  1  0  0  0
 11 12  1  0  0  0  0
 12 13  1  0  0  0  0
 12 20  1  1  0  0  0
 14 30  1  1  0  0  0
 14 13  1  0  0  0  0
 15 31  1  6  0  0  0
 15 11  1  0  0  0  0
 15 14  1  0  0  0  0
 16 15  1  0  0  0  0
 17 16  2  0  0  0  0
 18 14  1  0  0  0  0
 18 19  2  0  0  0  0
 19 12  1  0  0  0  0
 20 34  1  0  0  0  0
 20 21  1  0  0  0  0
 21 22  1  0  0  0  0
 22 36  1  0  0  0  0
 22 35  1  0  0  0  0
 23 37  1  0  0  0  0
 23 22  1  0  0  0  0
 24 23  1  0  0  0  0
 24 20  1  0  0  0  0
 25  3  1  0  0  0  0
 26  4  1  0  0  0  0
 32 18  1  0  0  0  0
 33 19  1  0  0  0  0
 38 23  1  0  0  0  0
M  END
>  <Pose>
1

>  <Score>
-4.66

$$$$
