
 OpenBabel03202210083D

 58 61  0  0  0  0  0  0  0  0999 V2000
   51.5440   89.3730   17.4470 Cl  0  0  0  0  0  0  0  0  0  0  0  0
   52.7290   89.4910   18.7270 C   0  0  0  0  0  0  0  0  0  0  0  0
   53.0440   90.7030   19.3340 C   0  0  0  0  0  0  0  0  0  0  0  0
   53.9770   90.7930   20.3390 C   0  0  0  0  0  0  0  0  0  0  0  0
   54.6130   89.6450   20.7510 C   0  0  0  0  0  0  0  0  0  0  0  0
   54.2930   88.4260   20.1380 C   0  0  0  0  0  0  0  0  0  0  0  0
   53.3590   88.3360   19.1310 C   0  0  0  0  0  0  0  0  0  0  0  0
   53.0440   87.1080   18.5200 O   0  0  0  0  0  0  0  0  0  0  0  0
   52.1260   86.2080   19.0900 C   0  0  0  0  0  0  0  0  0  0  0  0
   55.5050   89.7160   21.7090 O   0  0  0  0  0  0  0  0  0  0  0  0
   55.8260   90.8410   22.3000 C   0  0  0  0  0  0  0  0  0  0  0  0
   56.7000   90.8700   23.2300 O   0  0  0  0  0  0  0  0  0  0  0  0
   55.2430   92.0620   21.9600 C   0  0  0  0  0  0  0  0  0  0  0  0
   54.3030   92.0040   20.9560 C   0  0  0  0  0  0  0  0  0  0  0  0
   53.6200   93.2160   20.5150 C   0  0  0  0  0  0  0  0  0  0  0  0
   55.6480   93.2980   22.6670 C   0  0  0  0  0  0  0  0  0  0  0  0
   54.7220   93.6090   23.7910 C   0  0  0  0  0  0  0  0  0  0  0  0
   53.5360   93.1350   23.7220 O   0  0  0  0  0  0  0  0  0  0  0  0
   55.0460   94.3690   24.9010 N   0  0  0  0  0  0  0  0  0  0  0  0
   54.4370   94.1890   26.1820 C   0  0  0  0  0  0  0  0  0  0  0  0
   53.7580   95.5040   26.5680 C   0  0  0  0  0  0  0  0  0  0  0  0
   54.7110   96.5610   26.5220 N   0  0  0  0  0  0  0  0  0  0  0  0
   56.0810   96.1990   26.1000 C   0  0  0  0  0  0  0  0  0  0  0  0
   56.0450   95.4090   24.8110 C   0  0  0  0  0  0  0  0  0  0  0  0
   54.4560   97.9130   26.8350 C   0  0  0  0  0  0  0  0  0  0  0  0
   55.5370   98.6830   26.7690 O   0  0  0  0  0  0  0  0  0  0  0  0
   53.2550   98.5990   27.2080 C   0  0  0  0  0  0  0  0  0  0  0  0
   52.5510   98.1870   28.3680 C   0  0  0  0  0  0  0  0  0  0  0  0
   51.3970   98.8130   28.7560 C   0  0  0  0  0  0  0  0  0  0  0  0
   50.7910   98.4270   29.7900 O   0  0  0  0  0  0  0  0  0  0  0  0
   50.8660   99.8370   28.0750 N   0  0  0  0  0  0  0  0  0  0  0  0
   51.5280  100.2250   26.9840 C   0  0  0  0  0  0  0  0  0  0  0  0
   51.0640  101.1950   26.3010 O   0  0  0  0  0  0  0  0  0  0  0  0
   52.6930   99.6160   26.5660 N   0  0  0  0  0  0  0  0  0  0  0  0
   49.6450  100.4830   28.4990 C   0  0  0  0  0  0  0  0  0  0  0  0
   52.5530   91.6130   19.0220 H   0  0  0  0  0  0  0  0  0  0  0  0
   54.8030   87.5370   20.4750 H   0  0  0  0  0  0  0  0  0  0  0  0
   51.2380   86.7020   19.5250 H   0  0  0  0  0  0  0  0  0  0  0  0
   51.8840   85.4410   18.3340 H   0  0  0  0  0  0  0  0  0  0  0  0
   52.6550   85.7410   19.9720 H   0  0  0  0  0  0  0  0  0  0  0  0
   53.8080   93.2970   19.4020 H   0  0  0  0  0  0  0  0  0  0  0  0
   53.9810   94.1380   20.9500 H   0  0  0  0  0  0  0  0  0  0  0  0
   52.5140   93.1200   20.5900 H   0  0  0  0  0  0  0  0  0  0  0  0
   55.9190   94.1400   22.0440 H   0  0  0  0  0  0  0  0  0  0  0  0
   56.6150   93.0120   23.1920 H   0  0  0  0  0  0  0  0  0  0  0  0
   55.1770   93.9810   26.9850 H   0  0  0  0  0  0  0  0  0  0  0  0
   53.7170   93.3470   26.2150 H   0  0  0  0  0  0  0  0  0  0  0  0
   52.9550   95.7240   25.8220 H   0  0  0  0  0  0  0  0  0  0  0  0
   53.2640   95.3610   27.5540 H   0  0  0  0  0  0  0  0  0  0  0  0
   56.6660   97.1200   26.0510 H   0  0  0  0  0  0  0  0  0  0  0  0
   56.4720   95.5370   26.8850 H   0  0  0  0  0  0  0  0  0  0  0  0
   55.7520   96.1000   24.0030 H   0  0  0  0  0  0  0  0  0  0  0  0
   57.0190   94.9660   24.5570 H   0  0  0  0  0  0  0  0  0  0  0  0
   52.9780   97.3590   28.9190 H   0  0  0  0  0  0  0  0  0  0  0  0
   53.1320   99.9970   25.7060 H   0  0  0  0  0  0  0  0  0  0  0  0
   49.2950  101.1380   27.6730 H   0  0  0  0  0  0  0  0  0  0  0  0
   49.8400  101.1820   29.3600 H   0  0  0  0  0  0  0  0  0  0  0  0
   48.8500   99.7680   28.7790 H   0  0  0  0  0  0  0  0  0  0  0  0
  1  2  1  0  0  0  0
  2  7  2  0  0  0  0
  2  3  1  0  0  0  0
  3  4  2  0  0  0  0
  4  5  1  0  0  0  0
  4 14  1  0  0  0  0
  5 10  1  0  0  0  0
  6 37  1  0  0  0  0
  6  5  2  0  0  0  0
  7  6  1  0  0  0  0
  8  9  1  0  0  0  0
  8  7  1  0  0  0  0
  9 38  1  0  0  0  0
  9 40  1  0  0  0  0
 10 11  1  0  0  0  0
 11 12  2  0  0  0  0
 13 11  1  0  0  0  0
 13 16  1  0  0  0  0
 14 13  2  0  0  0  0
 15 43  1  0  0  0  0
 15 42  1  0  0  0  0
 15 14  1  0  0  0  0
 16 45  1  0  0  0  0
 16 17  1  0  0  0  0
 17 19  1  0  0  0  0
 18 17  2  0  0  0  0
 19 20  1  0  0  0  0
 20 47  1  0  0  0  0
 20 21  1  0  0  0  0
 20 46  1  0  0  0  0
 21 49  1  0  0  0  0
 22 21  1  0  0  0  0
 22 25  1  0  0  0  0
 23 22  1  0  0  0  0
 23 51  1  0  0  0  0
 24 19  1  0  0  0  0
 24 23  1  0  0  0  0
 25 27  1  0  0  0  0
 26 25  2  0  0  0  0
 27 28  2  0  0  0  0
 28 29  1  0  0  0  0
 28 54  1  0  0  0  0
 29 30  2  0  0  0  0
 31 35  1  0  0  0  0
 31 29  1  0  0  0  0
 32 31  1  0  0  0  0
 33 32  2  0  0  0  0
 34 32  1  0  0  0  0
 34 27  1  0  0  0  0
 35 58  1  0  0  0  0
 35 57  1  0  0  0  0
 36  3  1  0  0  0  0
 39  9  1  0  0  0  0
 41 15  1  0  0  0  0
 44 16  1  0  0  0  0
 48 21  1  0  0  0  0
 50 23  1  0  0  0  0
 52 24  1  0  0  0  0
 53 24  1  0  0  0  0
 55 34  1  0  0  0  0
 56 35  1  0  0  0  0
M  END
>  <Pose>
1

>  <Score>
-8.20

$$$$
