
 OpenBabel03202210083D

 35 38  0  0  1  0  0  0  0  0999 V2000
   55.3620   94.0340   25.3540 Cl  0  0  0  0  0  0  0  0  0  0  0  0
   54.8210   95.6090   25.9250 C   0  0  0  0  0  0  0  0  0  0  0  0
   55.7050   96.6630   25.8740 C   0  0  0  0  0  0  0  0  0  0  0  0
   55.2820   97.8590   26.3110 N   0  0  0  0  0  0  0  0  0  0  0  0
   54.0290   98.0630   26.7950 C   0  0  0  0  0  0  0  0  0  0  0  0
   53.1570   97.0420   26.8480 N   0  0  0  0  0  0  0  0  0  0  0  0
   52.0100   97.4860   27.3540 N   0  0  0  0  0  0  0  0  0  0  0  0
   52.1070   98.8000   27.6400 C   0  0  0  0  0  0  0  0  0  0  0  0
   53.3730   99.1320   27.2820 N   0  0  0  0  0  0  0  0  0  0  0  0
   51.1070   99.6510   28.1940 N   0  0  0  0  0  0  0  0  0  0  0  0
   50.5850  100.8260   27.5910 C   0  0  0  0  0  0  0  0  0  0  0  0
   50.6200  101.1610   26.3790 O   0  0  0  0  0  0  0  0  0  0  0  0
   49.9410  101.6770   28.6490 C   0  0  2  0  0  0  0  0  0  0  0  0
   49.8370  100.8100   29.8520 C   0  0  1  0  0  0  0  0  0  0  0  0
   48.4150  100.5050   30.2860 C   0  0  0  0  0  0  0  0  0  0  0  0
   47.6860  100.0470   29.0600 C   0  0  0  0  0  0  0  0  0  0  0  0
   47.7760  100.8530   28.0170 C   0  0  0  0  0  0  0  0  0  0  0  0
   48.5680  102.0960   28.1680 C   0  0  0  0  0  0  0  0  0  0  0  0
   50.4280   99.5240   29.4340 C   0  0  0  0  0  0  0  0  0  0  0  0
   50.3500   98.4340   30.0890 O   0  0  0  0  0  0  0  0  0  0  0  0
   53.5510   95.8200   26.4150 C   0  0  0  0  0  0  0  0  0  0  0  0
   52.7270   94.8520   26.4640 O   0  0  0  0  0  0  0  0  0  0  0  0
   57.0950   96.4540   25.3430 C   0  0  0  0  0  0  0  0  0  0  0  0
   55.9510   98.6650   26.2760 H   0  0  0  0  0  0  0  0  0  0  0  0
   50.5710  102.5800   28.8120 H   0  0  0  0  0  0  0  0  0  0  0  0
   50.4110  101.2890   30.6740 H   0  0  0  0  0  0  0  0  0  0  0  0
   48.4350   99.6840   31.0250 H   0  0  0  0  0  0  0  0  0  0  0  0
   47.9480  101.4250   30.6750 H   0  0  0  0  0  0  0  0  0  0  0  0
   47.1390   99.1150   29.0710 H   0  0  0  0  0  0  0  0  0  0  0  0
   47.2910  100.6170   27.0910 H   0  0  0  0  0  0  0  0  0  0  0  0
   48.6330  102.6290   27.1900 H   0  0  0  0  0  0  0  0  0  0  0  0
   48.1060  102.7540   28.9420 H   0  0  0  0  0  0  0  0  0  0  0  0
   57.6450   95.7210   25.9450 H   0  0  0  0  0  0  0  0  0  0  0  0
   57.0510   96.1260   24.2730 H   0  0  0  0  0  0  0  0  0  0  0  0
   57.6730   97.4010   25.3730 H   0  0  0  0  0  0  0  0  0  0  0  0
  1  2  1  0  0  0  0
  2 21  1  0  0  0  0
  3  2  2  0  0  0  0
  3  4  1  0  0  0  0
  4  5  1  0  0  0  0
  5  6  1  0  0  0  0
  5  9  2  0  0  0  0
  6  7  1  0  0  0  0
  7  8  2  0  0  0  0
  8 10  1  0  0  0  0
  9  8  1  0  0  0  0
 10 19  1  0  0  0  0
 11 10  1  0  0  0  0
 11 13  1  0  0  0  0
 12 11  2  0  0  0  0
 13 25  1  1  0  0  0
 13 14  1  0  0  0  0
 14 15  1  0  0  0  0
 14 26  1  1  0  0  0
 15 28  1  0  0  0  0
 15 27  1  0  0  0  0
 16 29  1  0  0  0  0
 16 15  1  0  0  0  0
 17 18  1  0  0  0  0
 17 16  2  0  0  0  0
 18 13  1  0  0  0  0
 18 32  1  0  0  0  0
 19 14  1  0  0  0  0
 19 20  2  0  0  0  0
 21 22  2  0  0  0  0
 21  6  1  0  0  0  0
 23 35  1  0  0  0  0
 23  3  1  0  0  0  0
 23 33  1  0  0  0  0
 24  4  1  0  0  0  0
 30 17  1  0  0  0  0
 31 18  1  0  0  0  0
 34 23  1  0  0  0  0
M  END
>  <Pose>
1

>  <Score>
-6.22

$$$$
