
 OpenBabel03202210083D

 47 50  0  0  1  0  0  0  0  0999 V2000
   57.7070   95.5880   24.3330 Cl  0  0  0  0  0  0  0  0  0  0  0  0
   56.1330   95.2640   25.0210 C   0  0  0  0  0  0  0  0  0  0  0  0
   55.3890   94.2350   24.4860 C   0  0  0  0  0  0  0  0  0  0  0  0
   54.1490   93.9830   25.0320 C   0  0  0  0  0  0  0  0  0  0  0  0
   53.6520   94.7340   26.0870 C   0  0  0  0  0  0  0  0  0  0  0  0
   54.3910   95.7660   26.6300 C   0  0  0  0  0  0  0  0  0  0  0  0
   55.6310   96.0180   26.0840 C   0  0  0  0  0  0  0  0  0  0  0  0
   53.1940   92.6700   24.3510 Cl  0  0  0  0  0  0  0  0  0  0  0  0
   55.8940   93.4290   23.3700 C   0  0  0  0  0  0  0  0  0  0  0  0
   55.2170   92.4680   22.8590 N   0  0  0  0  0  0  0  0  0  0  0  0
   55.7720   91.7500   21.7980 N   0  0  0  0  0  0  0  0  0  0  0  0
   55.7240   90.3320   21.7340 C   0  0  0  0  0  0  0  0  0  0  0  0
   54.9790   89.6140   20.8790 N   0  0  0  0  0  0  0  0  0  0  0  0
   55.2310   88.3240   21.1600 C   0  0  0  0  0  0  0  0  0  0  0  0
   54.7790   87.1590   20.6340 N   0  0  0  0  0  0  0  0  0  0  0  0
   55.1890   85.9630   21.0990 C   0  0  0  0  0  0  0  0  0  0  0  0
   56.0770   85.9000   22.1150 N   0  0  0  0  0  0  0  0  0  0  0  0
   56.5730   87.0120   22.6890 C   0  0  0  0  0  0  0  0  0  0  0  0
   56.1360   88.2260   22.1960 C   0  0  0  0  0  0  0  0  0  0  0  0
   56.4300   89.5020   22.5380 N   0  0  0  0  0  0  0  0  0  0  0  0
   57.5010   86.9130   23.7510 N   0  0  0  0  0  0  0  0  0  0  0  0
   54.0780   90.0430   19.8490 C   0  0  1  0  0  0  0  0  0  0  0  0
   54.7390   90.5630   18.7390 O   0  0  0  0  0  0  0  0  0  0  0  0
   53.7140   90.5850   17.7940 C   0  0  2  0  0  0  0  0  0  0  0  0
   53.2530   89.1360   17.8360 C   0  0  1  0  0  0  0  0  0  0  0  0
   53.2440   88.8860   19.3300 C   0  0  2  0  0  0  0  0  0  0  0  0
   51.9160   88.9850   19.7530 O   0  0  0  0  0  0  0  0  0  0  0  0
   51.9940   88.9780   17.2760 O   0  0  0  0  0  0  0  0  0  0  0  0
   54.1950   90.9800   16.4250 C   0  0  0  0  0  0  0  0  0  0  0  0
   55.4870   91.4450   16.4200 O   0  0  0  0  0  0  0  0  0  0  0  0
   52.6800   94.5430   26.5210 H   0  0  0  0  0  0  0  0  0  0  0  0
   54.0450   96.3780   27.4520 H   0  0  0  0  0  0  0  0  0  0  0  0
   56.2340   96.8310   26.4970 H   0  0  0  0  0  0  0  0  0  0  0  0
   56.8670   93.6430   22.9580 H   0  0  0  0  0  0  0  0  0  0  0  0
   56.2330   92.3120   21.0430 H   0  0  0  0  0  0  0  0  0  0  0  0
   54.8320   85.0300   20.6850 H   0  0  0  0  0  0  0  0  0  0  0  0
   57.2080   86.9830   24.7410 H   0  0  0  0  0  0  0  0  0  0  0  0
   58.5020   86.7670   23.5310 H   0  0  0  0  0  0  0  0  0  0  0  0
   53.3710   90.8310   20.1930 H   0  0  0  0  0  0  0  0  0  0  0  0
   52.9090   91.2080   18.1760 H   0  0  0  0  0  0  0  0  0  0  0  0
   54.0200   88.4840   17.3370 H   0  0  0  0  0  0  0  0  0  0  0  0
   53.6890   87.9070   19.5980 H   0  0  0  0  0  0  0  0  0  0  0  0
   51.7540   88.4860   20.5790 H   0  0  0  0  0  0  0  0  0  0  0  0
   51.6980   88.0470   17.4670 H   0  0  0  0  0  0  0  0  0  0  0  0
   53.5120   91.7770   16.0600 H   0  0  0  0  0  0  0  0  0  0  0  0
   54.0250   90.1090   15.7580 H   0  0  0  0  0  0  0  0  0  0  0  0
   55.9020   91.3740   15.5330 H   0  0  0  0  0  0  0  0  0  0  0  0
  1  2  1  0  0  0  0
  2  7  1  0  0  0  0
  3  2  2  0  0  0  0
  3  4  1  0  0  0  0
  4  5  2  0  0  0  0
  5 31  1  0  0  0  0
  5  6  1  0  0  0  0
  6 32  1  0  0  0  0
  7 33  1  0  0  0  0
  7  6  2  0  0  0  0
  8  4  1  0  0  0  0
  9  3  1  0  0  0  0
 10  9  2  0  0  0  0
 11 10  1  0  0  0  0
 12 11  1  0  0  0  0
 12 20  2  0  0  0  0
 13 14  1  0  0  0  0
 13 12  1  0  0  0  0
 14 19  2  0  0  0  0
 15 16  2  0  0  0  0
 15 14  1  0  0  0  0
 16 17  1  0  0  0  0
 17 18  2  0  0  0  0
 18 21  1  0  0  0  0
 19 20  1  0  0  0  0
 19 18  1  0  0  0  0
 21 37  1  0  0  0  0
 22 39  1  1  0  0  0
 22 13  1  0  0  0  0
 23 22  1  0  0  0  0
 24 25  1  0  0  0  0
 24 40  1  1  0  0  0
 24 23  1  0  0  0  0
 25 41  1  6  0  0  0
 25 26  1  0  0  0  0
 26 42  1  1  0  0  0
 26 27  1  0  0  0  0
 26 22  1  0  0  0  0
 27 43  1  0  0  0  0
 28 44  1  0  0  0  0
 28 25  1  0  0  0  0
 29 24  1  0  0  0  0
 30 29  1  0  0  0  0
 34  9  1  0  0  0  0
 35 11  1  0  0  0  0
 36 16  1  0  0  0  0
 38 21  1  0  0  0  0
 45 29  1  0  0  0  0
 46 29  1  0  0  0  0
 47 30  1  0  0  0  0
M  END
>  <Pose>
1

>  <Score>
-8.01

$$$$
