
 OpenBabel03202210083D

 49 52  0  0  1  0  0  0  0  0999 V2000
   46.4070  102.5640   31.6740 Cl  0  0  0  0  0  0  0  0  0  0  0  0
   47.4390  102.1500   30.3220 C   0  0  0  0  0  0  0  0  0  0  0  0
   48.6040  102.8560   30.0580 C   0  0  0  0  0  0  0  0  0  0  0  0
   49.3930  102.5120   28.9920 C   0  0  0  0  0  0  0  0  0  0  0  0
   49.0780  101.4530   28.1270 C   0  0  0  0  0  0  0  0  0  0  0  0
   47.9250  100.7740   28.4060 C   0  0  0  0  0  0  0  0  0  0  0  0
   47.1160  101.1110   29.4840 C   0  0  0  0  0  0  0  0  0  0  0  0
   49.9220  101.1480   27.0380 N   0  0  0  0  0  0  0  0  0  0  0  0
   51.2580  100.7390   27.0660 C   0  0  0  0  0  0  0  0  0  0  0  0
   51.9380  100.7460   26.0080 O   0  0  0  0  0  0  0  0  0  0  0  0
   51.9270  100.2770   28.3400 C   0  0  0  0  0  0  0  0  0  0  0  0
   52.1140   98.8440   28.2070 N   0  0  0  0  0  0  0  0  0  0  0  0
   52.1280   98.1960   29.5350 C   0  0  0  0  0  0  0  0  0  0  0  0
   52.9280   96.9060   29.2590 C   0  0  0  0  0  0  0  0  0  0  0  0
   52.5000   96.5370   27.9020 N   0  0  0  0  0  0  0  0  0  0  0  0
   51.1130   96.7500   27.6280 C   0  0  0  0  0  0  0  0  0  0  0  0
   50.9310   98.2720   27.5200 C   0  0  0  0  0  0  0  0  0  0  0  0
   53.4560   96.0380   27.0050 C   0  0  2  0  0  0  0  0  0  0  0  0
   53.2530   94.8410   26.3750 N   0  0  0  0  0  0  0  0  0  0  0  0
   54.1190   94.2950   25.5220 C   0  0  0  0  0  0  0  0  0  0  0  0
   55.2620   94.9320   25.2470 N   0  0  0  0  0  0  0  0  0  0  0  0
   55.5710   96.1030   25.7950 C   0  0  0  0  0  0  0  0  0  0  0  0
   56.6270   96.9350   25.6990 N   0  0  0  0  0  0  0  0  0  0  0  0
   56.3750   97.9510   26.4850 N   0  0  0  0  0  0  0  0  0  0  0  0
   55.2010   97.7990   27.0800 N   0  0  0  0  0  0  0  0  0  0  0  0
   54.6540   96.6640   26.6900 C   0  0  0  0  0  0  0  0  0  0  0  0
   57.8290   96.7840   24.9010 C   0  0  0  0  0  0  0  0  0  0  0  0
   58.2990   98.1140   24.3540 C   0  0  0  0  0  0  0  0  0  0  0  0
   48.8490  103.6700   30.7230 H   0  0  0  0  0  0  0  0  0  0  0  0
   50.2940  103.0720   28.8030 H   0  0  0  0  0  0  0  0  0  0  0  0
   47.5790   99.9510   27.8090 H   0  0  0  0  0  0  0  0  0  0  0  0
   46.2070  100.5300   29.6560 H   0  0  0  0  0  0  0  0  0  0  0  0
   49.4890  101.2720   26.0700 H   0  0  0  0  0  0  0  0  0  0  0  0
   52.8500  100.8480   28.4500 H   0  0  0  0  0  0  0  0  0  0  0  0
   51.2070  100.5470   29.1390 H   0  0  0  0  0  0  0  0  0  0  0  0
   51.1300   97.8730   29.8570 H   0  0  0  0  0  0  0  0  0  0  0  0
   52.5770   98.8250   30.2910 H   0  0  0  0  0  0  0  0  0  0  0  0
   53.9850   97.2200   29.2940 H   0  0  0  0  0  0  0  0  0  0  0  0
   52.7000   96.1290   29.9840 H   0  0  0  0  0  0  0  0  0  0  0  0
   50.4780   96.3680   28.4700 H   0  0  0  0  0  0  0  0  0  0  0  0
   50.7720   96.3340   26.6760 H   0  0  0  0  0  0  0  0  0  0  0  0
   50.8610   98.5820   26.4880 H   0  0  0  0  0  0  0  0  0  0  0  0
   49.9900   98.5470   28.0450 H   0  0  0  0  0  0  0  0  0  0  0  0
   53.8770   93.3270   25.0580 H   0  0  0  0  0  0  0  0  0  0  0  0
   58.6180   96.3430   25.5430 H   0  0  0  0  0  0  0  0  0  0  0  0
   57.6980   96.0990   24.0400 H   0  0  0  0  0  0  0  0  0  0  0  0
   58.9710   98.5580   25.1220 H   0  0  0  0  0  0  0  0  0  0  0  0
   58.8240   97.9110   23.4010 H   0  0  0  0  0  0  0  0  0  0  0  0
   57.4320   98.7800   24.1230 H   0  0  0  0  0  0  0  0  0  0  0  0
  2  1  1  0  0  0  0
  3  2  1  0  0  0  0
  3 29  1  0  0  0  0
  4  3  2  0  0  0  0
  5  6  2  0  0  0  0
  5  4  1  0  0  0  0
  6  7  1  0  0  0  0
  7 32  1  0  0  0  0
  7  2  2  0  0  0  0
  8  9  1  0  0  0  0
  8  5  1  0  0  0  0
  9 11  1  0  0  0  0
 10  9  2  0  0  0  0
 11 34  1  0  0  0  0
 11 35  1  0  0  0  0
 12 11  1  0  0  0  0
 12 13  1  0  0  0  0
 13 36  1  0  0  0  0
 13 37  1  0  0  0  0
 14 38  1  0  0  0  0
 14 13  1  0  0  0  0
 14 39  1  0  0  0  0
 15 14  1  0  0  0  0
 16 15  1  0  0  0  0
 16 40  1  0  0  0  0
 17 16  1  0  0  0  0
 17 43  1  0  0  0  0
 17 12  1  0  0  0  0
 18 15  1  1  0  0  0
 19 18  1  0  0  0  0
 20 19  2  0  0  0  0
 21 20  1  0  0  0  0
 21 22  1  0  0  0  0
 22 26  2  0  0  0  0
 23 22  1  0  0  0  0
 23 24  1  0  0  0  0
 24 25  2  0  0  0  0
 26 18  1  0  0  0  0
 26 25  1  0  0  0  0
 27 45  1  0  0  0  0
 27 23  1  0  0  0  0
 28 27  1  0  0  0  0
 28 47  1  0  0  0  0
 30  4  1  0  0  0  0
 31  6  1  0  0  0  0
 33  8  1  0  0  0  0
 41 16  1  0  0  0  0
 42 17  1  0  0  0  0
 44 20  1  0  0  0  0
 46 27  1  0  0  0  0
 48 28  1  0  0  0  0
 49 28  1  0  0  0  0
M  END
>  <Pose>
1

>  <Score>
-7.64

$$$$
