
 OpenBabel03202210083D

 49 52  0  0  1  0  0  0  0  0999 V2000
   54.1410   96.7440   27.1590 Cl  0  0  0  0  0  0  0  0  0  0  0  0
   55.1980   95.9620   26.0020 C   0  0  0  0  0  0  0  0  0  0  0  0
   56.4380   96.4890   25.7290 C   0  0  0  0  0  0  0  0  0  0  0  0
   57.2030   95.8150   24.8100 C   0  0  0  0  0  0  0  0  0  0  0  0
   56.7800   94.6510   24.1650 C   0  0  0  0  0  0  0  0  0  0  0  0
   55.5460   94.1180   24.4300 C   0  0  0  0  0  0  0  0  0  0  0  0
   54.7720   94.8190   25.3740 C   0  0  0  0  0  0  0  0  0  0  0  0
   55.0140   92.9430   23.8550 N   0  0  0  0  0  0  0  0  0  0  0  0
   54.7400   92.8050   22.4850 C   0  0  0  0  0  0  0  0  0  0  0  0
   53.7090   93.2510   21.9580 O   0  0  0  0  0  0  0  0  0  0  0  0
   55.6970   92.0970   21.5670 C   0  0  0  0  0  0  0  0  0  0  0  0
   55.5000   90.6820   21.5580 N   0  0  0  0  0  0  0  0  0  0  0  0
   56.0950   89.8310   22.4220 C   0  0  0  0  0  0  0  0  0  0  0  0
   55.8570   88.5050   22.3500 N   0  0  0  0  0  0  0  0  0  0  0  0
   55.0390   87.9620   21.4410 C   0  0  0  0  0  0  0  0  0  0  0  0
   54.7960   86.6440   21.3610 N   0  0  0  0  0  0  0  0  0  0  0  0
   53.9790   86.0740   20.4590 C   0  0  0  0  0  0  0  0  0  0  0  0
   53.3700   86.9140   19.5780 N   0  0  0  0  0  0  0  0  0  0  0  0
   53.5850   88.2380   19.6230 C   0  0  0  0  0  0  0  0  0  0  0  0
   54.4260   88.8120   20.5530 C   0  0  1  0  0  0  0  0  0  0  0  0
   54.6590   90.1710   20.6160 C   0  0  0  0  0  0  0  0  0  0  0  0
   54.0690   90.8960   19.7770 O   0  0  0  0  0  0  0  0  0  0  0  0
   53.7490   84.6780   20.4080 N   0  0  0  0  0  0  0  0  0  0  0  0
   53.0300   84.0590   21.4970 C   0  0  0  0  0  0  0  0  0  0  0  0
   52.0840   83.0040   20.9250 C   0  0  0  0  0  0  0  0  0  0  0  0
   52.7330   82.1610   20.0260 O   0  0  0  0  0  0  0  0  0  0  0  0
   53.0400   82.9340   18.9050 C   0  0  0  0  0  0  0  0  0  0  0  0
   54.1980   83.8420   19.3190 C   0  0  0  0  0  0  0  0  0  0  0  0
   56.8960   97.6550   26.3570 O   0  0  0  0  0  0  0  0  0  0  0  0
   57.7550   98.5330   25.6660 C   0  0  0  0  0  0  0  0  0  0  0  0
   58.1970   96.2200   24.5770 H   0  0  0  0  0  0  0  0  0  0  0  0
   57.4380   94.2070   23.4640 H   0  0  0  0  0  0  0  0  0  0  0  0
   53.7870   94.3850   25.5800 H   0  0  0  0  0  0  0  0  0  0  0  0
   54.8040   92.1100   24.5010 H   0  0  0  0  0  0  0  0  0  0  0  0
   55.6270   92.4670   20.5370 H   0  0  0  0  0  0  0  0  0  0  0  0
   56.7220   92.3020   21.9320 H   0  0  0  0  0  0  0  0  0  0  0  0
   56.7560   90.2720   23.1560 H   0  0  0  0  0  0  0  0  0  0  0  0
   53.1030   88.9270   18.9210 H   0  0  0  0  0  0  0  0  0  0  0  0
   53.7150   83.5560   22.2140 H   0  0  0  0  0  0  0  0  0  0  0  0
   52.3970   84.8300   21.9730 H   0  0  0  0  0  0  0  0  0  0  0  0
   51.7290   82.3730   21.7620 H   0  0  0  0  0  0  0  0  0  0  0  0
   51.2580   83.5000   20.3750 H   0  0  0  0  0  0  0  0  0  0  0  0
   52.1670   83.5550   18.6600 H   0  0  0  0  0  0  0  0  0  0  0  0
   53.3210   82.3430   18.0300 H   0  0  0  0  0  0  0  0  0  0  0  0
   55.0790   83.2250   19.5920 H   0  0  0  0  0  0  0  0  0  0  0  0
   54.3970   84.5070   18.4520 H   0  0  0  0  0  0  0  0  0  0  0  0
   57.2930   98.7440   24.6750 H   0  0  0  0  0  0  0  0  0  0  0  0
   58.7480   98.1030   25.4770 H   0  0  0  0  0  0  0  0  0  0  0  0
   57.7940   99.5080   26.1920 H   0  0  0  0  0  0  0  0  0  0  0  0
  2  1  1  0  0  0  0
  3  2  1  0  0  0  0
  3 29  1  0  0  0  0
  4  3  2  0  0  0  0
  5  6  2  0  0  0  0
  5  4  1  0  0  0  0
  6  7  1  0  0  0  0
  7 33  1  0  0  0  0
  7  2  2  0  0  0  0
  8  6  1  0  0  0  0
  8 34  1  0  0  0  0
  9  8  1  0  0  0  0
 10  9  2  0  0  0  0
 11 36  1  0  0  0  0
 11  9  1  0  0  0  0
 12 11  1  0  0  0  0
 12 13  1  0  0  0  0
 13 37  1  0  0  0  0
 14 13  1  0  0  0  0
 15 14  2  0  0  0  0
 16 15  1  0  0  0  0
 17 16  2  0  0  0  0
 18 19  2  0  0  0  0
 18 17  1  0  0  0  0
 20 19  1  1  0  0  0
 20 21  1  0  0  0  0
 20 15  1  0  0  0  0
 21 12  1  0  0  0  0
 22 21  2  0  0  0  0
 23 17  1  0  0  0  0
 23 24  1  0  0  0  0
 24 40  1  0  0  0  0
 24 39  1  0  0  0  0
 25 24  1  0  0  0  0
 25 41  1  0  0  0  0
 26 25  1  0  0  0  0
 27 28  1  0  0  0  0
 27 26  1  0  0  0  0
 28 45  1  0  0  0  0
 28 23  1  0  0  0  0
 30 49  1  0  0  0  0
 30 29  1  0  0  0  0
 31  4  1  0  0  0  0
 32  5  1  0  0  0  0
 35 11  1  0  0  0  0
 38 19  1  0  0  0  0
 42 25  1  0  0  0  0
 43 27  1  0  0  0  0
 44 27  1  0  0  0  0
 46 28  1  0  0  0  0
 47 30  1  0  0  0  0
 48 30  1  0  0  0  0
M  END
>  <Pose>
1

>  <Score>
-8.97

$$$$
