
 OpenBabel03202210083D

 50 53  0  0  1  0  0  0  0  0999 V2000
   54.2330   83.1630   15.1210 Cl  0  0  0  0  0  0  0  0  0  0  0  0
   53.8310   83.8650   16.6770 C   0  0  0  0  0  0  0  0  0  0  0  0
   52.7470   83.4210   17.4220 C   0  0  0  0  0  0  0  0  0  0  0  0
   52.4950   84.0290   18.6490 C   0  0  0  0  0  0  0  0  0  0  0  0
   53.2790   85.0440   19.1330 C   0  0  0  0  0  0  0  0  0  0  0  0
   54.3600   85.4910   18.3930 C   0  0  0  0  0  0  0  0  0  0  0  0
   54.6110   84.8880   17.1770 C   0  0  0  0  0  0  0  0  0  0  0  0
   52.9820   85.6340   20.4360 C   0  0  2  0  0  0  0  0  0  0  0  0
   53.5050   86.9080   20.7410 N   0  0  0  0  0  4  0  0  0  0  0  0
   54.7610   86.7920   21.3540 C   0  0  0  0  0  0  0  0  0  0  0  0
   55.6870   87.5120   21.9360 C   0  0  0  0  0  0  0  0  0  0  0  0
   56.9200   86.9090   22.4550 C   0  0  0  0  0  0  0  0  0  0  0  0
   57.3170   85.5700   22.0370 C   0  0  0  0  0  0  0  0  0  0  0  0
   56.3190   84.8390   21.1730 C   0  0  0  0  0  0  0  0  0  0  0  0
   55.0090   85.3580   21.3450 N   0  0  0  0  0  0  0  0  0  0  0  0
   53.6720   84.8120   21.5390 C   0  0  2  0  0  0  0  0  0  0  0  0
   53.6630   83.3530   21.3500 C   0  0  0  0  0  0  0  0  0  0  0  0
   53.1870   87.9650   19.8950 C   0  0  0  0  0  0  0  0  0  0  0  0
   54.1980   88.8650   19.6010 C   0  0  0  0  0  0  0  0  0  0  0  0
   54.0110   89.9580   18.7890 C   0  0  0  0  0  0  0  0  0  0  0  0
   52.7740   90.2350   18.1970 C   0  0  0  0  0  0  0  0  0  0  0  0
   51.7910   89.3270   18.5070 C   0  0  0  0  0  0  0  0  0  0  0  0
   51.9850   88.2380   19.3190 C   0  0  0  0  0  0  0  0  0  0  0  0
   52.5990   91.3340   17.3790 O   0  0  0  0  0  0  0  0  0  0  0  0
   53.7100   92.1140   17.0180 C   0  0  0  0  0  0  0  0  0  0  0  0
   51.6400   85.5930   20.7360 O   0  0  0  0  0  0  0  0  0  0  0  0
   52.1300   82.6240   17.0480 H   0  0  0  0  0  0  0  0  0  0  0  0
   51.6300   83.6070   19.1560 H   0  0  0  0  0  0  0  0  0  0  0  0
   54.9630   86.2820   18.8050 H   0  0  0  0  0  0  0  0  0  0  0  0
   55.4660   85.2770   16.6400 H   0  0  0  0  0  0  0  0  0  0  0  0
   52.8900   87.1880   21.6320 H   0  0  0  0  0  0  0  0  0  0  0  0
   55.5440   88.6050   22.0770 H   0  0  0  0  0  0  0  0  0  0  0  0
   56.8760   86.9800   23.5780 H   0  0  0  0  0  0  0  0  0  0  0  0
   57.7430   87.6460   22.1780 H   0  0  0  0  0  0  0  0  0  0  0  0
   57.5750   84.9470   22.9550 H   0  0  0  0  0  0  0  0  0  0  0  0
   58.2760   85.6080   21.4640 H   0  0  0  0  0  0  0  0  0  0  0  0
   56.3320   83.7780   21.4820 H   0  0  0  0  0  0  0  0  0  0  0  0
   56.6410   84.8310   20.1120 H   0  0  0  0  0  0  0  0  0  0  0  0
   53.2990   85.0850   22.5180 H   0  0  0  0  0  0  0  0  0  0  0  0
   52.6360   82.9540   21.4010 H   0  0  0  0  0  0  0  0  0  0  0  0
   54.3020   82.9390   20.5640 H   0  0  0  0  0  0  0  0  0  0  0  0
   54.1180   82.9510   22.3110 H   0  0  0  0  0  0  0  0  0  0  0  0
   55.2260   88.7520   19.9890 H   0  0  0  0  0  0  0  0  0  0  0  0
   54.8070   90.6690   18.5600 H   0  0  0  0  0  0  0  0  0  0  0  0
   50.8010   89.5140   18.0600 H   0  0  0  0  0  0  0  0  0  0  0  0
   51.1370   87.6250   19.4740 H   0  0  0  0  0  0  0  0  0  0  0  0
   54.2700   91.6700   16.1500 H   0  0  0  0  0  0  0  0  0  0  0  0
   54.4480   92.2730   17.8140 H   0  0  0  0  0  0  0  0  0  0  0  0
   53.3970   93.1320   16.6500 H   0  0  0  0  0  0  0  0  0  0  0  0
   51.2670   86.3630   21.2030 H   0  0  0  0  0  0  0  0  0  0  0  0
  1  2  1  0  0  0  0
  2  7  2  0  0  0  0
  2  3  1  0  0  0  0
  3  4  2  0  0  0  0
  4  5  1  0  0  0  0
  4 28  1  0  0  0  0
  5  8  1  0  0  0  0
  6 29  1  0  0  0  0
  6  5  2  0  0  0  0
  7  6  1  0  0  0  0
  8 26  1  1  0  0  0
  8  9  1  0  0  0  0
  8 16  1  0  0  0  0
  9 10  1  0  0  0  0
  9 31  1  0  0  0  0
 10 11  2  0  0  0  0
 11 32  1  0  0  0  0
 11 12  1  0  0  0  0
 12 33  1  0  0  0  0
 13 12  1  0  0  0  0
 13 35  1  0  0  0  0
 14 15  1  0  0  0  0
 14 37  1  0  0  0  0
 14 13  1  0  0  0  0
 15 10  1  0  0  0  0
 15 16  1  0  0  0  0
 16 39  1  1  0  0  0
 17 40  1  0  0  0  0
 17 16  1  0  0  0  0
 17 42  1  0  0  0  0
 18  9  1  0  0  0  0
 19 18  1  0  0  0  0
 19 43  1  0  0  0  0
 20 19  2  0  0  0  0
 21 22  2  0  0  0  0
 21 20  1  0  0  0  0
 22 23  1  0  0  0  0
 23 46  1  0  0  0  0
 23 18  2  0  0  0  0
 24 21  1  0  0  0  0
 25 24  1  0  0  0  0
 25 48  1  0  0  0  0
 26 50  1  0  0  0  0
 27  3  1  0  0  0  0
 30  7  1  0  0  0  0
 34 12  1  0  0  0  0
 36 13  1  0  0  0  0
 38 14  1  0  0  0  0
 41 17  1  0  0  0  0
 44 20  1  0  0  0  0
 45 22  1  0  0  0  0
 47 25  1  0  0  0  0
 49 25  1  0  0  0  0
M  END
>  <Pose>
1

>  <Score>
-4.44

$$$$
