
 OpenBabel03202210083D

 41 44  0  0  0  0  0  0  0  0999 V2000
   51.6800   80.5180   24.2620 Cl  0  0  0  0  0  0  0  0  0  0  0  0
   52.4850   82.0920   24.2960 C   0  0  0  0  0  0  0  0  0  0  0  0
   52.2320   83.0380   23.3250 C   0  0  0  0  0  0  0  0  0  0  0  0
   52.8920   84.2500   23.4050 C   0  0  0  0  0  0  0  0  0  0  0  0
   53.7880   84.5480   24.4100 C   0  0  0  0  0  0  0  0  0  0  0  0
   54.0150   83.5760   25.3630 C   0  0  0  0  0  0  0  0  0  0  0  0
   53.3730   82.3410   25.3230 C   0  0  0  0  0  0  0  0  0  0  0  0
   54.4480   85.7940   24.4690 N   0  0  0  0  0  0  0  0  0  0  0  0
   55.0080   86.4680   23.4370 C   0  0  0  0  0  0  0  0  0  0  0  0
   55.0120   86.0550   22.2480 O   0  0  0  0  0  0  0  0  0  0  0  0
   55.5680   87.6590   23.8680 C   0  0  0  0  0  0  0  0  0  0  0  0
   55.3500   87.7130   25.1720 C   0  0  0  0  0  0  0  0  0  0  0  0
   55.8970   88.8750   25.5890 N   0  0  0  0  0  0  0  0  0  0  0  0
   56.4370   89.5010   24.5340 N   0  0  0  0  0  0  0  0  0  0  0  0
   56.2370   88.7530   23.4620 N   0  0  0  0  0  0  0  0  0  0  0  0
   56.6530   89.0490   22.1070 C   0  0  0  0  0  0  0  0  0  0  0  0
   55.7160   89.9540   21.3960 C   0  0  0  0  0  0  0  0  0  0  0  0
   55.0480   89.6220   20.2390 C   0  0  0  0  0  0  0  0  0  0  0  0
   54.1760   90.4670   19.5820 C   0  0  0  0  0  0  0  0  0  0  0  0
   53.9510   91.7190   20.1010 C   0  0  0  0  0  0  0  0  0  0  0  0
   54.5970   92.0930   21.2560 C   0  0  0  0  0  0  0  0  0  0  0  0
   55.4670   91.2250   21.8950 C   0  0  0  0  0  0  0  0  0  0  0  0
   53.5480   90.0280   18.4090 O   0  0  0  0  0  0  0  0  0  0  0  0
   54.0350   90.3890   17.1320 C   0  0  0  0  0  0  0  0  0  0  0  0
   54.6650   86.5740   25.5420 C   0  0  0  0  0  0  0  0  0  0  0  0
   54.3100   86.3310   26.7170 O   0  0  0  0  0  0  0  0  0  0  0  0
   51.5310   82.8010   22.5410 H   0  0  0  0  0  0  0  0  0  0  0  0
   52.7050   85.0010   22.6560 H   0  0  0  0  0  0  0  0  0  0  0  0
   54.7220   83.8300   26.1440 H   0  0  0  0  0  0  0  0  0  0  0  0
   53.5880   81.6060   26.1010 H   0  0  0  0  0  0  0  0  0  0  0  0
   55.8970   89.2180   26.5670 H   0  0  0  0  0  0  0  0  0  0  0  0
   56.9350   90.4160   24.5140 H   0  0  0  0  0  0  0  0  0  0  0  0
   57.6630   89.5010   22.1070 H   0  0  0  0  0  0  0  0  0  0  0  0
   56.6530   88.0690   21.5460 H   0  0  0  0  0  0  0  0  0  0  0  0
   55.2130   88.6220   19.8030 H   0  0  0  0  0  0  0  0  0  0  0  0
   53.2620   92.4110   19.5980 H   0  0  0  0  0  0  0  0  0  0  0  0
   54.4170   93.0790   21.6600 H   0  0  0  0  0  0  0  0  0  0  0  0
   55.9700   91.5270   22.8020 H   0  0  0  0  0  0  0  0  0  0  0  0
   53.7940   91.4470   16.8780 H   0  0  0  0  0  0  0  0  0  0  0  0
   53.5570   89.7590   16.3640 H   0  0  0  0  0  0  0  0  0  0  0  0
   55.1490   90.3010   17.1110 H   0  0  0  0  0  0  0  0  0  0  0  0
  1  2  1  0  0  0  0
  2  7  1  0  0  0  0
  3  4  1  0  0  0  0
  3  2  2  0  0  0  0
  4  5  2  0  0  0  0
  5  8  1  0  0  0  0
  5  6  1  0  0  0  0
  6 29  1  0  0  0  0
  7  6  2  0  0  0  0
  7 30  1  0  0  0  0
  8 25  1  0  0  0  0
  9 11  1  0  0  0  0
  9  8  1  0  0  0  0
 10  9  2  0  0  0  0
 11 12  2  0  0  0  0
 12 25  1  0  0  0  0
 12 13  1  0  0  0  0
 13 31  1  0  0  0  0
 14 13  1  0  0  0  0
 15 11  1  0  0  0  0
 15 14  1  0  0  0  0
 16 33  1  0  0  0  0
 16 15  1  0  0  0  0
 17 22  1  0  0  0  0
 17 16  1  0  0  0  0
 18 17  2  0  0  0  0
 19 20  2  0  0  0  0
 19 18  1  0  0  0  0
 20 21  1  0  0  0  0
 21 37  1  0  0  0  0
 21 22  2  0  0  0  0
 22 38  1  0  0  0  0
 23 19  1  0  0  0  0
 24 23  1  0  0  0  0
 25 26  2  0  0  0  0
 27  3  1  0  0  0  0
 28  4  1  0  0  0  0
 32 14  1  0  0  0  0
 34 16  1  0  0  0  0
 35 18  1  0  0  0  0
 36 20  1  0  0  0  0
 39 24  1  0  0  0  0
 40 24  1  0  0  0  0
 41 24  1  0  0  0  0
M  END
>  <Pose>
1

>  <Score>
-6.82

$$$$
