
 OpenBabel03202210083D

 56 59  0  0  1  0  0  0  0  0999 V2000
   55.8290   86.7600   21.9610 S   0  0  0  0  0  0  0  0  0  0  0  0
   57.1740   86.5240   21.3960 O   0  0  0  0  0  0  0  0  0  0  0  0
   55.1180   85.4340   22.0840 O   0  0  0  0  0  0  0  0  0  0  0  0
   55.8280   87.5050   23.4980 N   0  0  0  0  0  0  0  0  0  0  0  0
   54.7050   88.3190   23.7600 C   0  0  0  0  0  0  0  0  0  0  0  0
   54.7550   88.7030   25.2540 C   0  0  0  0  0  0  0  0  0  0  0  0
   55.8860   89.5920   25.3290 N   0  0  0  0  0  0  0  0  0  0  0  0
   57.1630   88.8990   25.0540 C   0  0  0  0  0  0  0  0  0  0  0  0
   57.0860   87.8930   23.9800 C   0  0  0  0  0  0  0  0  0  0  0  0
   55.9230   90.9560   25.6150 C   0  0  0  0  0  0  0  0  0  0  0  0
   55.1960   91.2800   26.6670 O   0  0  0  0  0  0  0  0  0  0  0  0
   56.5770   92.0970   25.0280 C   0  0  0  0  0  0  0  0  0  0  0  0
   55.8760   93.3450   25.0020 N   0  0  0  0  0  0  0  0  0  0  0  0
   54.6840   93.6160   24.2620 C   0  0  0  0  0  0  0  0  0  0  0  0
   54.1090   92.7570   23.5100 O   0  0  0  0  0  0  0  0  0  0  0  0
   54.2980   94.9480   24.5210 N   0  0  0  0  0  0  0  0  0  0  0  0
   54.9980   95.4000   25.7140 C   0  0  1  0  0  0  0  0  0  0  0  0
   55.4190   96.8270   25.6710 C   0  0  1  0  0  0  0  0  0  0  0  0
   55.3480   97.3720   27.1020 C   0  0  0  0  0  0  0  0  0  0  0  0
   53.8730   97.5320   27.4150 C   0  0  0  0  0  0  0  0  0  0  0  0
   53.1450   96.2670   27.0320 C   0  0  0  0  0  0  0  0  0  0  0  0
   54.1010   95.0910   26.8910 C   0  0  0  0  0  0  0  0  0  0  0  0
   56.8440   97.0370   25.2130 C   0  0  0  0  0  0  0  0  0  0  0  0
   56.2150   94.5350   25.7170 C   0  0  0  0  0  0  0  0  0  0  0  0
   57.3150   94.7950   26.2420 O   0  0  0  0  0  0  0  0  0  0  0  0
   54.8910   87.7980   20.8730 C   0  0  0  0  0  0  0  0  0  0  0  0
   53.4900   87.4490   19.9700 S   0  0  0  0  0  0  0  0  0  0  0  0
   53.2610   88.9620   19.2240 C   0  0  0  0  0  0  0  0  0  0  0  0
   54.3020   89.7100   19.7080 C   0  0  0  0  0  0  0  0  0  0  0  0
   55.1430   89.1010   20.5620 C   0  0  0  0  0  0  0  0  0  0  0  0
   51.9870   89.4500   18.0960 Cl  0  0  0  0  0  0  0  0  0  0  0  0
   54.6930   89.2430   23.1450 H   0  0  0  0  0  0  0  0  0  0  0  0
   53.7790   87.7700   23.5300 H   0  0  0  0  0  0  0  0  0  0  0  0
   53.8080   89.0520   25.6080 H   0  0  0  0  0  0  0  0  0  0  0  0
   55.0570   87.7180   25.7430 H   0  0  0  0  0  0  0  0  0  0  0  0
   57.4280   88.4030   26.0170 H   0  0  0  0  0  0  0  0  0  0  0  0
   57.9660   89.6400   24.8700 H   0  0  0  0  0  0  0  0  0  0  0  0
   57.6960   88.2680   23.1040 H   0  0  0  0  0  0  0  0  0  0  0  0
   57.6430   86.9600   24.2920 H   0  0  0  0  0  0  0  0  0  0  0  0
   57.6150   92.2710   25.4880 H   0  0  0  0  0  0  0  0  0  0  0  0
   56.8870   91.8770   23.9460 H   0  0  0  0  0  0  0  0  0  0  0  0
   53.6380   95.5230   23.9750 H   0  0  0  0  0  0  0  0  0  0  0  0
   54.7300   97.4290   25.0340 H   0  0  0  0  0  0  0  0  0  0  0  0
   55.7740   96.6070   27.7600 H   0  0  0  0  0  0  0  0  0  0  0  0
   55.8870   98.3340   27.1970 H   0  0  0  0  0  0  0  0  0  0  0  0
   53.5180   98.4090   26.8060 H   0  0  0  0  0  0  0  0  0  0  0  0
   53.6860   97.7610   28.4730 H   0  0  0  0  0  0  0  0  0  0  0  0
   52.6450   96.4380   26.0550 H   0  0  0  0  0  0  0  0  0  0  0  0
   52.3390   96.0450   27.7730 H   0  0  0  0  0  0  0  0  0  0  0  0
   53.4440   94.2120   26.6270 H   0  0  0  0  0  0  0  0  0  0  0  0
   54.6430   94.9100   27.8240 H   0  0  0  0  0  0  0  0  0  0  0  0
   57.1900   96.3100   24.4730 H   0  0  0  0  0  0  0  0  0  0  0  0
   56.9040   98.0630   24.7430 H   0  0  0  0  0  0  0  0  0  0  0  0
   57.5580   97.1090   26.0840 H   0  0  0  0  0  0  0  0  0  0  0  0
   54.3960   90.7720   19.3740 H   0  0  0  0  0  0  0  0  0  0  0  0
   56.0150   89.6250   21.0070 H   0  0  0  0  0  0  0  0  0  0  0  0
  1  3  2  0  0  0  0
  1  4  1  0  0  0  0
  2  1  2  0  0  0  0
  4  5  1  0  0  0  0
  4  9  1  0  0  0  0
  5  6  1  0  0  0  0
  6  7  1  0  0  0  0
  6 34  1  0  0  0  0
  6 35  1  0  0  0  0
  7 10  1  0  0  0  0
  8  7  1  0  0  0  0
  8 36  1  0  0  0  0
  9 39  1  0  0  0  0
  9  8  1  0  0  0  0
 10 11  2  0  0  0  0
 12 40  1  0  0  0  0
 12 10  1  0  0  0  0
 13 12  1  0  0  0  0
 13 24  1  0  0  0  0
 14 16  1  0  0  0  0
 14 13  1  0  0  0  0
 15 14  2  0  0  0  0
 16 17  1  0  0  0  0
 17 24  1  1  0  0  0
 17 22  1  0  0  0  0
 18 43  1  6  0  0  0
 18 17  1  0  0  0  0
 18 19  1  0  0  0  0
 19 45  1  0  0  0  0
 19 20  1  0  0  0  0
 19 44  1  0  0  0  0
 20 47  1  0  0  0  0
 21 20  1  0  0  0  0
 21 49  1  0  0  0  0
 22 21  1  0  0  0  0
 22 51  1  0  0  0  0
 23 18  1  0  0  0  0
 23 54  1  0  0  0  0
 24 25  2  0  0  0  0
 26  1  1  0  0  0  0
 27 26  1  0  0  0  0
 28 29  2  0  0  0  0
 28 27  1  0  0  0  0
 29 30  1  0  0  0  0
 30 26  2  0  0  0  0
 30 56  1  0  0  0  0
 31 28  1  0  0  0  0
 32  5  1  0  0  0  0
 33  5  1  0  0  0  0
 37  8  1  0  0  0  0
 38  9  1  0  0  0  0
 41 12  1  0  0  0  0
 42 16  1  0  0  0  0
 46 20  1  0  0  0  0
 48 21  1  0  0  0  0
 50 22  1  0  0  0  0
 52 23  1  0  0  0  0
 53 23  1  0  0  0  0
 55 29  1  0  0  0  0
M  END
>  <Pose>
1

>  <Score>
-6.63

$$$$
