
 OpenBabel03202210083D

 39 42  0  0  0  0  0  0  0  0999 V2000
   53.4320   81.9960   27.9110 Cl  0  0  0  0  0  0  0  0  0  0  0  0
   54.0450   83.3470   26.9730 C   0  0  0  0  0  0  0  0  0  0  0  0
   55.3590   83.3830   26.5430 C   0  0  0  0  0  0  0  0  0  0  0  0
   55.8240   84.4560   25.8060 C   0  0  0  0  0  0  0  0  0  0  0  0
   55.0180   85.5190   25.4700 C   0  0  0  0  0  0  0  0  0  0  0  0
   53.7060   85.4880   25.8970 C   0  0  0  0  0  0  0  0  0  0  0  0
   53.2290   84.4170   26.6360 C   0  0  0  0  0  0  0  0  0  0  0  0
   55.5180   86.6440   24.6930 C   0  0  0  0  0  0  0  0  0  0  0  0
   55.7810   87.8690   25.1730 N   0  0  0  0  0  0  0  0  0  0  0  0
   56.2130   88.6400   24.2210 O   0  0  0  0  0  0  0  0  0  0  0  0
   56.2470   87.9580   23.1030 C   0  0  0  0  0  0  0  0  0  0  0  0
   55.8120   86.7010   23.3860 N   0  0  0  0  0  0  0  0  0  0  0  0
   56.6850   88.5040   21.8040 C   0  0  0  0  0  0  0  0  0  0  0  0
   55.7650   89.5580   21.3700 N   0  0  0  0  0  0  0  0  0  0  0  0
   55.0050   89.3390   20.2780 C   0  0  0  0  0  0  0  0  0  0  0  0
   54.1260   90.2920   19.8300 C   0  0  0  0  0  0  0  0  0  0  0  0
   54.0190   91.5640   20.5530 C   0  0  0  0  0  0  0  0  0  0  0  0
   53.0940   92.2990   19.9000 N   0  0  0  0  0  0  0  0  0  0  0  0
   52.6370   91.6140   18.8720 N   0  0  0  0  0  0  0  0  0  0  0  0
   53.2180   90.4080   18.7790 C   0  0  0  0  0  0  0  0  0  0  0  0
   53.0090   89.5180   17.9210 O   0  0  0  0  0  0  0  0  0  0  0  0
   54.8170   91.7420   21.6640 C   0  0  0  0  0  0  0  0  0  0  0  0
   55.6530   90.7190   22.0130 C   0  0  0  0  0  0  0  0  0  0  0  0
   54.7370   92.9970   22.4110 C   0  0  0  0  0  0  0  0  0  0  0  0
   53.7180   93.7000   22.3620 O   0  0  0  0  0  0  0  0  0  0  0  0
   55.7960   93.4330   23.1900 O   0  0  0  0  0  0  0  0  0  0  0  0
   55.6380   94.0610   24.4400 C   0  0  0  0  0  0  0  0  0  0  0  0
   56.0150   82.5510   26.7990 H   0  0  0  0  0  0  0  0  0  0  0  0
   56.8520   84.4800   25.4710 H   0  0  0  0  0  0  0  0  0  0  0  0
   53.0650   86.3240   25.6340 H   0  0  0  0  0  0  0  0  0  0  0  0
   52.2050   84.3880   26.9720 H   0  0  0  0  0  0  0  0  0  0  0  0
   57.6720   88.9760   21.9400 H   0  0  0  0  0  0  0  0  0  0  0  0
   56.7010   87.7180   21.0120 H   0  0  0  0  0  0  0  0  0  0  0  0
   55.0790   88.4050   19.7430 H   0  0  0  0  0  0  0  0  0  0  0  0
   51.9180   91.9660   18.2140 H   0  0  0  0  0  0  0  0  0  0  0  0
   56.2770   90.8760   22.8940 H   0  0  0  0  0  0  0  0  0  0  0  0
   54.5890   94.2610   24.6960 H   0  0  0  0  0  0  0  0  0  0  0  0
   56.0590   93.4250   25.2730 H   0  0  0  0  0  0  0  0  0  0  0  0
   56.2780   94.9670   24.4290 H   0  0  0  0  0  0  0  0  0  0  0  0
  2  1  1  0  0  0  0
  3 28  1  0  0  0  0
  3  2  2  0  0  0  0
  4  3  1  0  0  0  0
  5  4  2  0  0  0  0
  5  6  1  0  0  0  0
  6  7  2  0  0  0  0
  7 31  1  0  0  0  0
  7  2  1  0  0  0  0
  8  9  2  0  0  0  0
  8  5  1  0  0  0  0
 10  9  1  0  0  0  0
 11 12  2  0  0  0  0
 11 10  1  0  0  0  0
 12  8  1  0  0  0  0
 13 32  1  0  0  0  0
 13 11  1  0  0  0  0
 14 13  1  0  0  0  0
 14 23  1  0  0  0  0
 15 14  1  0  0  0  0
 16 15  1  0  0  0  0
 16 17  2  0  0  0  0
 17 22  1  0  0  0  0
 18 17  1  0  0  0  0
 19 18  1  0  0  0  0
 20 19  1  0  0  0  0
 20 16  1  0  0  0  0
 21 20  2  0  0  0  0
 22 23  2  0  0  0  0
 22 24  1  0  0  0  0
 23 36  1  0  0  0  0
 24 26  1  0  0  0  0
 25 24  2  0  0  0  0
 26 27  1  0  0  0  0
 27 37  1  0  0  0  0
 27 38  1  0  0  0  0
 29  4  1  0  0  0  0
 30  6  1  0  0  0  0
 33 13  1  0  0  0  0
 34 15  1  0  0  0  0
 35 19  1  0  0  0  0
 39 27  1  0  0  0  0
M  END
>  <Pose>
1

>  <Score>
-6.16

$$$$
