
 OpenBabel03202210083D

 58 61  0  0  1  0  0  0  0  0999 V2000
   50.5680   98.3550   29.1840 Cl  0  0  0  0  0  0  0  0  0  0  0  0
   51.9770   97.8650   28.2560 C   0  0  0  0  0  0  0  0  0  0  0  0
   52.2110   96.5660   27.8840 C   0  0  0  0  0  0  0  0  0  0  0  0
   53.3260   96.1870   27.1520 C   0  0  0  0  0  0  0  0  0  0  0  0
   53.8060   95.0330   26.6600 N   0  0  0  0  0  0  0  0  0  0  0  0
   54.9630   95.2310   26.0070 C   0  0  0  0  0  0  0  0  0  0  0  0
   55.2000   96.5710   26.1050 N   0  0  0  0  0  0  0  0  0  0  0  0
   54.2230   97.1720   26.7940 C   0  0  0  0  0  0  0  0  0  0  0  0
   54.0260   98.4910   27.1470 C   0  0  0  0  0  0  0  0  0  0  0  0
   52.8940   98.8250   27.8830 C   0  0  0  0  0  0  0  0  0  0  0  0
   56.3820   97.1930   25.5120 C   0  0  0  0  0  0  0  0  0  0  0  0
   55.8300   94.2460   25.3140 C   0  0  0  0  0  0  0  0  0  0  0  0
   55.1240   92.9890   24.9230 C   0  0  0  0  0  0  0  0  0  0  0  0
   54.8230   92.9030   23.4730 C   0  0  0  0  0  0  0  0  0  0  0  0
   54.1560   93.8230   22.9350 O   0  0  0  0  0  0  0  0  0  0  0  0
   55.2650   91.8180   22.6940 N   0  0  0  0  0  0  0  0  0  0  0  0
   55.4400   91.9110   21.2440 C   0  0  0  0  0  0  0  0  0  0  0  0
   54.4180   90.9580   20.6550 C   0  0  2  0  0  0  0  0  0  0  0  0
   54.5890   89.5670   21.2190 C   0  0  1  0  0  0  0  0  0  0  0  0
   55.8070   89.5150   22.1490 C   0  0  0  0  0  0  0  0  0  0  0  0
   55.5850   90.5210   23.2650 C   0  0  0  0  0  0  0  0  0  0  0  0
   53.5040   89.1930   22.0480 O   0  0  0  0  0  0  0  0  0  0  0  0
   54.6990   88.4990   20.1730 C   0  0  0  0  0  0  0  0  0  0  0  0
   54.3040   91.0150   19.2410 N   0  0  0  0  0  0  0  0  0  0  0  0
   53.0990   91.2000   18.6270 C   0  0  0  0  0  0  0  0  0  0  0  0
   52.9860   91.2540   17.2540 C   0  0  0  0  0  0  0  0  0  0  0  0
   54.1140   91.1210   16.4750 C   0  0  0  0  0  0  0  0  0  0  0  0
   54.0530   91.1660   15.1990 O   0  0  0  0  0  0  0  0  0  0  0  0
   55.2980   90.9400   17.0870 N   0  0  0  0  0  0  0  0  0  0  0  0
   55.3590   90.8920   18.4490 C   0  0  0  0  0  0  0  0  0  0  0  0
   56.4880   90.7210   18.9620 O   0  0  0  0  0  0  0  0  0  0  0  0
   51.6920   91.4530   16.5550 C   0  0  0  0  0  0  0  0  0  0  0  0
   51.4970   95.8030   28.1720 H   0  0  0  0  0  0  0  0  0  0  0  0
   54.7300   99.2600   26.8660 H   0  0  0  0  0  0  0  0  0  0  0  0
   52.7330   99.8530   28.1620 H   0  0  0  0  0  0  0  0  0  0  0  0
   56.3050   97.2090   24.3880 H   0  0  0  0  0  0  0  0  0  0  0  0
   57.3000   96.6050   25.7360 H   0  0  0  0  0  0  0  0  0  0  0  0
   56.4610   98.2420   25.8860 H   0  0  0  0  0  0  0  0  0  0  0  0
   56.7570   94.0310   25.9040 H   0  0  0  0  0  0  0  0  0  0  0  0
   56.1880   94.7310   24.3810 H   0  0  0  0  0  0  0  0  0  0  0  0
   55.7850   92.1210   25.2070 H   0  0  0  0  0  0  0  0  0  0  0  0
   54.2020   92.9160   25.5380 H   0  0  0  0  0  0  0  0  0  0  0  0
   56.4900   91.5990   21.0690 H   0  0  0  0  0  0  0  0  0  0  0  0
   55.2280   92.9280   20.8700 H   0  0  0  0  0  0  0  0  0  0  0  0
   53.4370   91.3350   21.0830 H   0  0  0  0  0  0  0  0  0  0  0  0
   55.8200   88.5120   22.6200 H   0  0  0  0  0  0  0  0  0  0  0  0
   56.7470   89.6520   21.6170 H   0  0  0  0  0  0  0  0  0  0  0  0
   56.5350   90.6380   23.8290 H   0  0  0  0  0  0  0  0  0  0  0  0
   54.8000   90.1520   23.9410 H   0  0  0  0  0  0  0  0  0  0  0  0
   53.2210   88.3000   21.7340 H   0  0  0  0  0  0  0  0  0  0  0  0
   54.1820   87.5470   20.4930 H   0  0  0  0  0  0  0  0  0  0  0  0
   55.7620   88.1790   19.9900 H   0  0  0  0  0  0  0  0  0  0  0  0
   54.2400   88.7870   19.2200 H   0  0  0  0  0  0  0  0  0  0  0  0
   52.1990   91.3060   19.2500 H   0  0  0  0  0  0  0  0  0  0  0  0
   56.1500   90.8390   16.5040 H   0  0  0  0  0  0  0  0  0  0  0  0
   51.5760   92.5590   16.4270 H   0  0  0  0  0  0  0  0  0  0  0  0
   51.7170   91.0240   15.5320 H   0  0  0  0  0  0  0  0  0  0  0  0
   50.8620   91.0240   17.1520 H   0  0  0  0  0  0  0  0  0  0  0  0
  2  1  1  0  0  0  0
  3 33  1  0  0  0  0
  3  2  1  0  0  0  0
  4  3  2  0  0  0  0
  5  4  1  0  0  0  0
  6  7  1  0  0  0  0
  6  5  2  0  0  0  0
  7  8  1  0  0  0  0
  8  9  2  0  0  0  0
  8  4  1  0  0  0  0
  9 10  1  0  0  0  0
 10 35  1  0  0  0  0
 10  2  2  0  0  0  0
 11 37  1  0  0  0  0
 11 38  1  0  0  0  0
 11  7  1  0  0  0  0
 12 39  1  0  0  0  0
 12  6  1  0  0  0  0
 13 41  1  0  0  0  0
 13 12  1  0  0  0  0
 13 42  1  0  0  0  0
 14 13  1  0  0  0  0
 15 14  2  0  0  0  0
 16 21  1  0  0  0  0
 16 14  1  0  0  0  0
 17 16  1  0  0  0  0
 18 45  1  1  0  0  0
 18 19  1  0  0  0  0
 18 17  1  0  0  0  0
 19 22  1  1  0  0  0
 19 20  1  0  0  0  0
 20 46  1  0  0  0  0
 20 21  1  0  0  0  0
 21 48  1  0  0  0  0
 21 49  1  0  0  0  0
 23 51  1  0  0  0  0
 23 19  1  0  0  0  0
 24 18  1  0  0  0  0
 25 24  1  0  0  0  0
 25 54  1  0  0  0  0
 26 25  2  0  0  0  0
 27 29  1  0  0  0  0
 27 26  1  0  0  0  0
 28 27  2  0  0  0  0
 29 30  1  0  0  0  0
 30 31  2  0  0  0  0
 30 24  1  0  0  0  0
 32 58  1  0  0  0  0
 32 26  1  0  0  0  0
 34  9  1  0  0  0  0
 36 11  1  0  0  0  0
 40 12  1  0  0  0  0
 43 17  1  0  0  0  0
 44 17  1  0  0  0  0
 47 20  1  0  0  0  0
 50 22  1  0  0  0  0
 52 23  1  0  0  0  0
 53 23  1  0  0  0  0
 55 29  1  0  0  0  0
 56 32  1  0  0  0  0
 57 32  1  0  0  0  0
M  END
>  <Pose>
1

>  <Score>
-6.47

$$$$
