
 OpenBabel03202210083D

 45 48  0  0  0  0  0  0  0  0999 V2000
   53.8970   91.9250   19.3170 Cl  0  0  0  0  0  0  0  0  0  0  0  0
   54.3500   90.3590   19.9520 C   0  0  0  0  0  0  0  0  0  0  0  0
   55.4630   90.2680   20.7340 C   0  0  0  0  0  0  0  0  0  0  0  0
   55.8580   89.0350   21.2610 C   0  0  0  0  0  0  0  0  0  0  0  0
   55.1720   87.8880   21.0290 C   0  0  0  0  0  0  0  0  0  0  0  0
   54.0320   88.0170   20.2210 C   0  0  0  0  0  0  0  0  0  0  0  0
   53.6250   89.2190   19.6910 C   0  0  0  0  0  0  0  0  0  0  0  0
   55.5130   86.5870   21.5980 C   0  0  0  0  0  0  0  0  0  0  0  0
   54.5970   86.0370   22.5620 N   0  0  0  0  0  0  0  0  0  0  0  0
   53.5780   85.1940   22.2130 C   0  0  0  0  0  0  0  0  0  0  0  0
   52.8740   84.8280   23.3270 C   0  0  0  0  0  0  0  0  0  0  0  0
   53.4820   85.4560   24.3240 N   0  0  0  0  0  0  0  0  0  0  0  0
   54.5440   86.2050   23.8840 C   0  0  0  0  0  0  0  0  0  0  0  0
   55.3570   86.9570   24.7600 N   0  0  0  0  0  0  0  0  0  0  0  0
   56.7050   86.4690   25.0210 C   0  0  0  0  0  0  0  0  0  0  0  0
   57.5340   87.7600   25.1450 C   0  0  0  0  0  0  0  0  0  0  0  0
   57.0270   88.8030   24.2820 N   0  0  0  0  0  0  0  0  0  0  0  0
   55.7150   89.2870   24.6540 C   0  0  0  0  0  0  0  0  0  0  0  0
   55.0550   88.1630   25.4400 C   0  0  0  0  0  0  0  0  0  0  0  0
   51.8210   83.9930   23.2550 N   0  0  0  0  0  0  0  0  0  0  0  0
   51.4370   83.4940   22.0510 C   0  0  0  0  0  0  0  0  0  0  0  0
   50.4520   82.7230   22.0330 O   0  0  0  0  0  0  0  0  0  0  0  0
   52.0980   83.8240   20.9280 N   0  0  0  0  0  0  0  0  0  0  0  0
   53.1470   84.6560   21.0110 C   0  0  0  0  0  0  0  0  0  0  0  0
   53.7290   84.9310   19.9390 O   0  0  0  0  0  0  0  0  0  0  0  0
   51.1290   83.6580   24.4870 C   0  0  0  0  0  0  0  0  0  0  0  0
   56.0640   91.1310   20.9690 H   0  0  0  0  0  0  0  0  0  0  0  0
   56.7540   89.0320   21.8630 H   0  0  0  0  0  0  0  0  0  0  0  0
   53.4600   87.1040   20.0180 H   0  0  0  0  0  0  0  0  0  0  0  0
   52.7460   89.3190   19.0690 H   0  0  0  0  0  0  0  0  0  0  0  0
   56.5820   86.5490   21.9750 H   0  0  0  0  0  0  0  0  0  0  0  0
   55.5830   85.8750   20.7280 H   0  0  0  0  0  0  0  0  0  0  0  0
   57.0880   85.8290   24.2230 H   0  0  0  0  0  0  0  0  0  0  0  0
   56.7910   85.9600   25.9930 H   0  0  0  0  0  0  0  0  0  0  0  0
   57.6400   88.0630   26.2030 H   0  0  0  0  0  0  0  0  0  0  0  0
   58.5540   87.5170   24.7580 H   0  0  0  0  0  0  0  0  0  0  0  0
   57.6850   89.5970   24.3570 H   0  0  0  0  0  0  0  0  0  0  0  0
   55.1030   89.5890   23.7800 H   0  0  0  0  0  0  0  0  0  0  0  0
   55.7810   90.1830   25.3150 H   0  0  0  0  0  0  0  0  0  0  0  0
   55.6270   88.2040   26.4400 H   0  0  0  0  0  0  0  0  0  0  0  0
   54.0480   88.3550   25.7590 H   0  0  0  0  0  0  0  0  0  0  0  0
   51.7640   83.4140   20.0310 H   0  0  0  0  0  0  0  0  0  0  0  0
   50.5910   84.5510   24.8880 H   0  0  0  0  0  0  0  0  0  0  0  0
   51.8440   83.3140   25.2850 H   0  0  0  0  0  0  0  0  0  0  0  0
   50.3830   82.8680   24.3570 H   0  0  0  0  0  0  0  0  0  0  0  0
  1  2  1  0  0  0  0
  2  3  1  0  0  0  0
  3 27  1  0  0  0  0
  3  4  2  0  0  0  0
  4 28  1  0  0  0  0
  5  4  1  0  0  0  0
  5  8  1  0  0  0  0
  6  5  2  0  0  0  0
  7  2  2  0  0  0  0
  7  6  1  0  0  0  0
  8 31  1  0  0  0  0
  8  9  1  0  0  0  0
  9 13  1  0  0  0  0
 10  9  1  0  0  0  0
 10 11  2  0  0  0  0
 11 12  1  0  0  0  0
 13 12  2  0  0  0  0
 13 14  1  0  0  0  0
 14 15  1  0  0  0  0
 14 19  1  0  0  0  0
 15 16  1  0  0  0  0
 15 34  1  0  0  0  0
 16 35  1  0  0  0  0
 17 37  1  0  0  0  0
 17 18  1  0  0  0  0
 17 16  1  0  0  0  0
 18 39  1  0  0  0  0
 18 19  1  0  0  0  0
 19 41  1  0  0  0  0
 19 40  1  0  0  0  0
 20 11  1  0  0  0  0
 20 26  1  0  0  0  0
 21 20  1  0  0  0  0
 22 21  2  0  0  0  0
 23 24  1  0  0  0  0
 23 21  1  0  0  0  0
 24 10  1  0  0  0  0
 25 24  2  0  0  0  0
 26 43  1  0  0  0  0
 26 44  1  0  0  0  0
 29  6  1  0  0  0  0
 30  7  1  0  0  0  0
 32  8  1  0  0  0  0
 33 15  1  0  0  0  0
 36 16  1  0  0  0  0
 38 18  1  0  0  0  0
 42 23  1  0  0  0  0
 45 26  1  0  0  0  0
M  END
>  <Pose>
1

>  <Score>
-6.27

$$$$
