
 OpenBabel03202210083D

 50 53  0  0  1  0  0  0  0  0999 V2000
   55.4540   81.9100   16.3070 Cl  0  0  0  0  0  0  0  0  0  0  0  0
   54.5130   82.7790   17.4930 C   0  0  0  0  0  0  0  0  0  0  0  0
   54.4210   82.3740   18.8070 C   0  0  0  0  0  0  0  0  0  0  0  0
   53.6570   83.1080   19.6940 C   0  0  0  0  0  0  0  0  0  0  0  0
   52.9750   84.2390   19.3250 C   0  0  0  0  0  0  0  0  0  0  0  0
   53.0790   84.6350   17.9910 C   0  0  0  0  0  0  0  0  0  0  0  0
   53.8390   83.9080   17.1020 C   0  0  0  0  0  0  0  0  0  0  0  0
   52.1470   85.0140   20.2820 C   0  0  1  0  0  0  0  0  0  0  0  0
   52.7980   85.0720   21.5970 N   0  0  0  0  0  0  0  0  0  0  0  0
   53.9790   85.8280   21.4000 C   0  0  0  0  0  0  0  0  0  0  0  0
   55.0480   85.7290   22.0480 O   0  0  0  0  0  0  0  0  0  0  0  0
   53.7140   86.7550   20.2830 C   0  0  0  0  0  0  0  0  0  0  0  0
   54.4920   87.5990   19.7850 O   0  0  0  0  0  0  0  0  0  0  0  0
   52.3420   86.4680   19.8860 C   0  0  0  0  0  0  0  0  0  0  0  0
   51.5020   87.2760   19.3390 C   0  0  0  0  0  0  0  0  0  0  0  0
   50.2080   86.8640   19.0240 O   0  0  0  0  0  0  0  0  0  0  0  0
   51.8820   88.6510   19.0280 C   0  0  0  0  0  0  0  0  0  0  0  0
   52.5210   89.5410   19.7000 O   0  0  0  0  0  0  0  0  0  0  0  0
   52.6330   90.6470   19.0230 C   0  0  0  0  0  0  0  0  0  0  0  0
   52.0250   90.4940   17.8020 C   0  0  0  0  0  0  0  0  0  0  0  0
   51.5380   89.2160   17.7930 C   0  0  0  0  0  0  0  0  0  0  0  0
   52.3100   84.4620   22.8260 C   0  0  0  0  0  0  0  0  0  0  0  0
   53.2470   84.5830   23.9880 C   0  0  0  0  0  0  0  0  0  0  0  0
   52.9220   85.5720   24.9570 N   0  0  0  0  0  4  0  0  0  0  0  0
   52.3850   85.1090   26.1960 C   0  0  0  0  0  0  0  0  0  0  0  0
   53.3450   84.2580   26.9950 C   0  0  0  0  0  0  0  0  0  0  0  0
   54.5270   84.9470   27.2440 O   0  0  0  0  0  0  0  0  0  0  0  0
   55.0740   85.4870   26.0850 C   0  0  0  0  0  0  0  0  0  0  0  0
   54.1130   86.3640   25.3270 C   0  0  0  0  0  0  0  0  0  0  0  0
   54.9640   81.4820   19.0810 H   0  0  0  0  0  0  0  0  0  0  0  0
   53.6130   82.7590   20.7160 H   0  0  0  0  0  0  0  0  0  0  0  0
   52.5290   85.5410   17.6980 H   0  0  0  0  0  0  0  0  0  0  0  0
   53.9160   84.2230   16.0650 H   0  0  0  0  0  0  0  0  0  0  0  0
   51.1010   84.7270   20.3240 H   0  0  0  0  0  0  0  0  0  0  0  0
   53.1180   91.5840   19.3190 H   0  0  0  0  0  0  0  0  0  0  0  0
   51.9300   91.2180   16.9820 H   0  0  0  0  0  0  0  0  0  0  0  0
   51.0000   88.7450   16.9880 H   0  0  0  0  0  0  0  0  0  0  0  0
   52.0460   83.3910   22.6500 H   0  0  0  0  0  0  0  0  0  0  0  0
   51.3560   85.0100   23.0650 H   0  0  0  0  0  0  0  0  0  0  0  0
   53.4500   83.5800   24.4250 H   0  0  0  0  0  0  0  0  0  0  0  0
   54.2390   84.8880   23.5460 H   0  0  0  0  0  0  0  0  0  0  0  0
   52.2270   86.2270   24.5360 H   0  0  0  0  0  0  0  0  0  0  0  0
   52.2400   86.0390   26.8280 H   0  0  0  0  0  0  0  0  0  0  0  0
   51.4070   84.6400   26.1530 H   0  0  0  0  0  0  0  0  0  0  0  0
   52.8530   84.1410   28.0060 H   0  0  0  0  0  0  0  0  0  0  0  0
   53.4850   83.2470   26.6000 H   0  0  0  0  0  0  0  0  0  0  0  0
   55.4520   84.6970   25.3980 H   0  0  0  0  0  0  0  0  0  0  0  0
   55.9340   86.1140   26.3990 H   0  0  0  0  0  0  0  0  0  0  0  0
   53.7730   87.1650   26.0040 H   0  0  0  0  0  0  0  0  0  0  0  0
   54.6510   86.7300   24.4340 H   0  0  0  0  0  0  0  0  0  0  0  0
  1  2  1  0  0  0  0
  2  3  1  0  0  0  0
  3 30  1  0  0  0  0
  3  4  2  0  0  0  0
  4 31  1  0  0  0  0
  5  4  1  0  0  0  0
  5  8  1  0  0  0  0
  6  5  2  0  0  0  0
  7  2  2  0  0  0  0
  7  6  1  0  0  0  0
  8 34  1  1  0  0  0
  8  9  1  0  0  0  0
  9 22  1  0  0  0  0
 10  9  1  0  0  0  0
 10 11  2  0  0  0  0
 12 10  1  0  0  0  0
 13 12  2  0  0  0  0
 14  8  1  0  0  0  0
 14 12  1  0  0  0  0
 15 14  2  0  0  0  0
 16 15  1  0  0  0  0
 17 15  1  0  0  0  0
 17 18  1  0  0  0  0
 19 35  1  0  0  0  0
 19 18  1  0  0  0  0
 20 19  2  0  0  0  0
 21 20  1  0  0  0  0
 21 17  2  0  0  0  0
 22 39  1  0  0  0  0
 22 23  1  0  0  0  0
 23 40  1  0  0  0  0
 23 24  1  0  0  0  0
 24 29  1  0  0  0  0
 24 25  1  0  0  0  0
 25 43  1  0  0  0  0
 25 26  1  0  0  0  0
 26 27  1  0  0  0  0
 26 45  1  0  0  0  0
 28 48  1  0  0  0  0
 28 27  1  0  0  0  0
 29 49  1  0  0  0  0
 29 28  1  0  0  0  0
 32  6  1  0  0  0  0
 33  7  1  0  0  0  0
 36 20  1  0  0  0  0
 37 21  1  0  0  0  0
 38 22  1  0  0  0  0
 41 23  1  0  0  0  0
 42 24  1  0  0  0  0
 44 25  1  0  0  0  0
 46 26  1  0  0  0  0
 47 28  1  0  0  0  0
 50 29  1  0  0  0  0
M  END
>  <Pose>
1

>  <Score>
-5.97

$$$$
