
 OpenBabel03202210083D

 34 37  0  0  1  0  0  0  0  0999 V2000
   54.9980   95.6470   26.1890 Cl  0  0  0  0  0  0  0  0  0  0  0  0
   53.8400   96.7940   26.8540 C   0  0  0  0  0  0  0  0  0  0  0  0
   54.1360   98.1310   26.9540 C   0  0  0  0  0  0  0  0  0  0  0  0
   53.2260   99.0210   27.4750 C   0  0  0  0  0  0  0  0  0  0  0  0
   51.9790   98.6250   27.9220 C   0  0  0  0  0  0  0  0  0  0  0  0
   51.7010   97.2800   27.8130 C   0  0  0  0  0  0  0  0  0  0  0  0
   52.5960   96.3730   27.2950 C   0  0  0  0  0  0  0  0  0  0  0  0
   51.0740   99.5840   28.4550 N   0  0  0  0  0  0  0  0  0  0  0  0
   50.1620   99.4210   29.5510 C   0  0  0  0  0  0  0  0  0  0  0  0
   49.7150   98.2710   29.8900 O   0  0  0  0  0  0  0  0  0  0  0  0
   49.8720  100.7340   30.1490 C   0  0  1  0  0  0  0  0  0  0  0  0
   50.2520  101.6970   29.0500 C   0  0  2  0  0  0  0  0  0  0  0  0
   49.0150  102.4450   28.6020 C   0  0  2  0  0  0  0  0  0  0  0  0
   48.6190  103.3270   29.7950 C   0  0  0  0  0  0  0  0  0  0  0  0
   48.2500  102.3690   30.8900 C   0  0  0  0  0  0  0  0  0  0  0  0
   47.8140  102.7740   31.9340 O   0  0  0  0  0  0  0  0  0  0  0  0
   48.4610  100.9090   30.5960 C   0  0  1  0  0  0  0  0  0  0  0  0
   47.4940  100.5780   29.4540 C   0  0  0  0  0  0  0  0  0  0  0  0
   47.8620  101.5170   28.3370 C   0  0  0  0  0  0  0  0  0  0  0  0
   47.2450  101.4960   27.3080 O   0  0  0  0  0  0  0  0  0  0  0  0
   50.8990  100.9170   27.9960 C   0  0  0  0  0  0  0  0  0  0  0  0
   51.2430  101.3530   26.8740 O   0  0  0  0  0  0  0  0  0  0  0  0
   55.1000   98.4630   26.6140 H   0  0  0  0  0  0  0  0  0  0  0  0
   53.4540  100.0920   27.5590 H   0  0  0  0  0  0  0  0  0  0  0  0
   50.7430   96.9120   28.1460 H   0  0  0  0  0  0  0  0  0  0  0  0
   52.3720   95.3030   27.2100 H   0  0  0  0  0  0  0  0  0  0  0  0
   50.5260  100.8730   31.0540 H   0  0  0  0  0  0  0  0  0  0  0  0
   50.9450  102.4530   29.4830 H   0  0  0  0  0  0  0  0  0  0  0  0
   49.2100  103.0470   27.6970 H   0  0  0  0  0  0  0  0  0  0  0  0
   49.5750  103.8100   30.1330 H   0  0  0  0  0  0  0  0  0  0  0  0
   47.8240  104.0270   29.5500 H   0  0  0  0  0  0  0  0  0  0  0  0
   48.2660  100.3290   31.4970 H   0  0  0  0  0  0  0  0  0  0  0  0
   46.4710  100.8070   29.8570 H   0  0  0  0  0  0  0  0  0  0  0  0
   47.5660   99.5320   29.1450 H   0  0  0  0  0  0  0  0  0  0  0  0
  1  2  1  0  0  0  0
  2  3  2  0  0  0  0
  2  7  1  0  0  0  0
  3  4  1  0  0  0  0
  4 24  1  0  0  0  0
  4  5  2  0  0  0  0
  5  8  1  0  0  0  0
  6  5  1  0  0  0  0
  6 25  1  0  0  0  0
  7  6  2  0  0  0  0
  8  9  1  0  0  0  0
  9 10  2  0  0  0  0
  9 11  1  0  0  0  0
 11 17  1  0  0  0  0
 11 27  1  1  0  0  0
 12 28  1  1  0  0  0
 12 11  1  0  0  0  0
 13 29  1  6  0  0  0
 13 12  1  0  0  0  0
 13 14  1  0  0  0  0
 14 30  1  0  0  0  0
 14 15  1  0  0  0  0
 15 16  2  0  0  0  0
 17 15  1  0  0  0  0
 17 32  1  1  0  0  0
 18 33  1  0  0  0  0
 18 17  1  0  0  0  0
 19 13  1  0  0  0  0
 19 18  1  0  0  0  0
 20 19  2  0  0  0  0
 21  8  1  0  0  0  0
 21 12  1  0  0  0  0
 22 21  2  0  0  0  0
 23  3  1  0  0  0  0
 26  7  1  0  0  0  0
 31 14  1  0  0  0  0
 34 18  1  0  0  0  0
M  END
>  <Pose>
1

>  <Score>
-4.80

$$$$
