
 OpenBabel03202210083D

 40 43  0  0  0  0  0  0  0  0999 V2000
   51.1320   94.4920   27.8800 Cl  0  0  0  0  0  0  0  0  0  0  0  0
   52.6020   95.2690   27.3260 C   0  0  0  0  0  0  0  0  0  0  0  0
   53.5160   94.6140   26.5330 C   0  0  0  0  0  0  0  0  0  0  0  0
   54.6850   95.2450   26.1000 C   0  0  0  0  0  0  0  0  0  0  0  0
   54.9030   96.5590   26.4890 C   0  0  0  0  0  0  0  0  0  0  0  0
   54.0000   97.2270   27.2800 C   0  0  0  0  0  0  0  0  0  0  0  0
   52.8570   96.5950   27.7000 C   0  0  0  0  0  0  0  0  0  0  0  0
   56.1210   97.2660   26.0540 C   0  0  0  0  0  0  0  0  0  0  0  0
   56.5610   98.4600   26.2660 N   0  0  0  0  0  0  0  0  0  0  0  0
   57.8230   98.7030   25.6230 C   0  0  0  0  0  0  0  0  0  0  0  0
   58.1380   97.4140   24.9300 C   0  0  0  0  0  0  0  0  0  0  0  0
   57.0300   96.5510   25.2400 N   0  0  0  0  0  0  0  0  0  0  0  0
   56.7770   95.2050   24.8580 C   0  0  0  0  0  0  0  0  0  0  0  0
   57.5750   94.5490   24.1300 O   0  0  0  0  0  0  0  0  0  0  0  0
   55.5880   94.5120   25.2800 N   0  0  0  0  0  0  0  0  0  0  0  0
   55.3500   93.1340   24.8760 C   0  0  0  0  0  0  0  0  0  0  0  0
   54.9930   93.0510   23.4420 C   0  0  0  0  0  0  0  0  0  0  0  0
   54.0210   93.7320   23.0330 O   0  0  0  0  0  0  0  0  0  0  0  0
   55.6960   92.2450   22.5140 N   0  0  0  0  0  0  0  0  0  0  0  0
   55.0540   91.6760   21.3540 C   0  0  0  0  0  0  0  0  0  0  0  0
   55.9800   90.7000   20.6780 C   0  0  0  0  0  0  0  0  0  0  0  0
   55.4520   89.8120   19.6070 C   0  0  0  0  0  0  0  0  0  0  0  0
   55.7440   89.2430   20.9430 C   0  0  0  0  0  0  0  0  0  0  0  0
   53.3430   93.5830   26.2270 H   0  0  0  0  0  0  0  0  0  0  0  0
   54.1790   98.2380   27.5740 H   0  0  0  0  0  0  0  0  0  0  0  0
   52.1010   97.0740   28.3310 H   0  0  0  0  0  0  0  0  0  0  0  0
   58.6180   99.0030   26.3380 H   0  0  0  0  0  0  0  0  0  0  0  0
   57.7120   99.4930   24.8290 H   0  0  0  0  0  0  0  0  0  0  0  0
   58.2680   97.5470   23.8250 H   0  0  0  0  0  0  0  0  0  0  0  0
   59.0800   97.0200   25.3810 H   0  0  0  0  0  0  0  0  0  0  0  0
   54.6840   92.5830   25.5450 H   0  0  0  0  0  0  0  0  0  0  0  0
   56.3570   92.6250   24.9660 H   0  0  0  0  0  0  0  0  0  0  0  0
   56.7050   92.0690   22.6920 H   0  0  0  0  0  0  0  0  0  0  0  0
   54.7510   92.5020   20.6520 H   0  0  0  0  0  0  0  0  0  0  0  0
   54.1310   91.1680   21.6770 H   0  0  0  0  0  0  0  0  0  0  0  0
   57.0490   90.9950   20.7070 H   0  0  0  0  0  0  0  0  0  0  0  0
   54.3980   89.9600   19.2790 H   0  0  0  0  0  0  0  0  0  0  0  0
   56.1340   89.6090   18.7500 H   0  0  0  0  0  0  0  0  0  0  0  0
   54.8590   89.0030   21.5750 H   0  0  0  0  0  0  0  0  0  0  0  0
   56.6240   88.5680   21.0410 H   0  0  0  0  0  0  0  0  0  0  0  0
  2  7  1  0  0  0  0
  2  1  1  0  0  0  0
  3  2  2  0  0  0  0
  4  5  2  0  0  0  0
  4  3  1  0  0  0  0
  5  6  1  0  0  0  0
  6 25  1  0  0  0  0
  6  7  2  0  0  0  0
  7 26  1  0  0  0  0
  8  9  2  0  0  0  0
  8  5  1  0  0  0  0
 10  9  1  0  0  0  0
 10 27  1  0  0  0  0
 11 12  1  0  0  0  0
 11 30  1  0  0  0  0
 11 10  1  0  0  0  0
 12  8  1  0  0  0  0
 13 12  1  0  0  0  0
 13 15  1  0  0  0  0
 14 13  2  0  0  0  0
 15  4  1  0  0  0  0
 16 32  1  0  0  0  0
 16 15  1  0  0  0  0
 16 31  1  0  0  0  0
 17 16  1  0  0  0  0
 18 17  2  0  0  0  0
 19 33  1  0  0  0  0
 19 17  1  0  0  0  0
 20 35  1  0  0  0  0
 20 19  1  0  0  0  0
 21 36  1  0  0  0  0
 21 23  1  0  0  0  0
 21 20  1  0  0  0  0
 22 21  1  0  0  0  0
 22 23  1  0  0  0  0
 23 40  1  0  0  0  0
 23 39  1  0  0  0  0
 24  3  1  0  0  0  0
 28 10  1  0  0  0  0
 29 11  1  0  0  0  0
 34 20  1  0  0  0  0
 37 22  1  0  0  0  0
 38 22  1  0  0  0  0
M  END
>  <Pose>
1

>  <Score>
-6.74

$$$$
