
 OpenBabel03202210083D

 57 61  0  0  1  0  0  0  0  0999 V2000
   58.2120   97.9250   25.1450 Cl  0  0  0  0  0  0  0  0  0  0  0  0
   57.3200   96.4260   24.9470 C   0  0  0  0  0  0  0  0  0  0  0  0
   57.6260   95.5150   23.9550 C   0  0  0  0  0  0  0  0  0  0  0  0
   56.9240   94.3470   23.8090 C   0  0  0  0  0  0  0  0  0  0  0  0
   55.8660   94.0240   24.6570 C   0  0  0  0  0  0  0  0  0  0  0  0
   55.5520   94.9210   25.6480 C   0  0  0  0  0  0  0  0  0  0  0  0
   56.2720   96.0850   25.7720 C   0  0  0  0  0  0  0  0  0  0  0  0
   55.1320   92.7370   24.4900 C   0  0  1  0  0  0  0  0  0  0  0  0
   53.9020   92.9910   23.9410 O   0  0  0  0  0  0  0  0  0  0  0  0
   55.9290   91.6950   23.7510 C   0  0  2  0  0  0  0  0  0  0  0  0
   55.8450   92.0570   22.3420 N   0  0  0  0  0  0  0  0  0  0  0  0
   55.7210   90.8180   21.6010 C   0  0  1  0  0  0  0  0  0  0  0  0
   54.9360   89.9500   22.5420 C   0  0  2  0  0  0  0  0  0  0  0  0
   55.4270   90.3090   23.9090 C   0  0  1  0  0  0  0  0  0  0  0  0
   56.4980   89.3260   24.2300 C   0  0  0  0  0  0  0  0  0  0  0  0
   57.3410   89.4140   25.1540 O   0  0  0  0  0  0  0  0  0  0  0  0
   56.3690   88.2560   23.2680 N   0  0  0  0  0  0  0  0  0  0  0  0
   55.2480   88.5130   22.4490 C   0  0  0  0  0  0  0  0  0  0  0  0
   54.6110   87.6850   21.7530 O   0  0  0  0  0  0  0  0  0  0  0  0
   57.2500   87.1300   23.1640 C   0  0  0  0  0  0  0  0  0  0  0  0
   57.0430   86.0480   24.1570 C   0  0  0  0  0  0  0  0  0  0  0  0
   55.7870   86.1010   24.9540 C   0  0  0  0  0  0  0  0  0  0  0  0
   55.8250   85.3100   26.0950 O   0  0  0  0  0  0  0  0  0  0  0  0
   54.5070   85.0310   26.5120 C   0  0  0  0  0  0  0  0  0  0  0  0
   55.0120   91.0090   20.3120 C   0  0  0  0  0  0  0  0  0  0  0  0
   55.8990   90.6660   19.3190 C   0  0  0  0  0  0  0  0  0  0  0  0
   55.4880   90.7500   17.9950 C   0  0  0  0  0  0  0  0  0  0  0  0
   54.2100   91.1720   17.7140 C   0  0  0  0  0  0  0  0  0  0  0  0
   53.3090   91.5180   18.7070 C   0  0  0  0  0  0  0  0  0  0  0  0
   53.7310   91.4310   20.0170 C   0  0  0  0  0  0  0  0  0  0  0  0
   57.1650   90.2650   19.8730 N   0  0  0  0  0  0  0  0  0  0  0  0
   57.0630   90.3620   21.2820 C   0  0  0  0  0  0  0  0  0  0  0  0
   57.9900   90.0930   22.0630 O   0  0  0  0  0  0  0  0  0  0  0  0
   58.4520   95.7400   23.2730 H   0  0  0  0  0  0  0  0  0  0  0  0
   57.1740   93.6260   23.0150 H   0  0  0  0  0  0  0  0  0  0  0  0
   54.7530   94.7420   26.3540 H   0  0  0  0  0  0  0  0  0  0  0  0
   56.0360   96.8130   26.5570 H   0  0  0  0  0  0  0  0  0  0  0  0
   54.9990   92.3490   25.5680 H   0  0  0  0  0  0  0  0  0  0  0  0
   53.2320   92.9810   24.6710 H   0  0  0  0  0  0  0  0  0  0  0  0
   57.0180   91.7960   24.0330 H   0  0  0  0  0  0  0  0  0  0  0  0
   56.6700   92.5950   22.0570 H   0  0  0  0  0  0  0  0  0  0  0  0
   53.8530   90.1430   22.4170 H   0  0  0  0  0  0  0  0  0  0  0  0
   54.6440   90.2000   24.6780 H   0  0  0  0  0  0  0  0  0  0  0  0
   58.2940   87.4950   23.2130 H   0  0  0  0  0  0  0  0  0  0  0  0
   57.1710   86.6520   22.1440 H   0  0  0  0  0  0  0  0  0  0  0  0
   56.9960   85.0800   23.5720 H   0  0  0  0  0  0  0  0  0  0  0  0
   57.9250   85.8890   24.8300 H   0  0  0  0  0  0  0  0  0  0  0  0
   54.8810   85.8140   24.3960 H   0  0  0  0  0  0  0  0  0  0  0  0
   55.6510   87.1610   25.2830 H   0  0  0  0  0  0  0  0  0  0  0  0
   53.9560   85.9590   26.7450 H   0  0  0  0  0  0  0  0  0  0  0  0
   53.9800   84.5480   25.6610 H   0  0  0  0  0  0  0  0  0  0  0  0
   54.5060   84.3150   27.3580 H   0  0  0  0  0  0  0  0  0  0  0  0
   56.1940   90.4760   17.1970 H   0  0  0  0  0  0  0  0  0  0  0  0
   53.9040   91.2310   16.6720 H   0  0  0  0  0  0  0  0  0  0  0  0
   52.3210   91.8420   18.4110 H   0  0  0  0  0  0  0  0  0  0  0  0
   53.0220   91.7040   20.8140 H   0  0  0  0  0  0  0  0  0  0  0  0
   57.9760   89.9650   19.2860 H   0  0  0  0  0  0  0  0  0  0  0  0
  2  1  1  0  0  0  0
  2  7  1  0  0  0  0
  3  2  2  0  0  0  0
  4  3  1  0  0  0  0
  4  5  2  0  0  0  0
  5  6  1  0  0  0  0
  6  7  2  0  0  0  0
  6 36  1  0  0  0  0
  7 37  1  0  0  0  0
  8  5  1  0  0  0  0
  8 38  1  1  0  0  0
  9  8  1  0  0  0  0
  9 39  1  0  0  0  0
 10 14  1  0  0  0  0
 10 40  1  1  0  0  0
 10  8  1  0  0  0  0
 11 10  1  0  0  0  0
 12 25  1  6  0  0  0
 12 11  1  0  0  0  0
 12 13  1  0  0  0  0
 13 42  1  6  0  0  0
 13 14  1  0  0  0  0
 14 15  1  0  0  0  0
 14 43  1  1  0  0  0
 15 16  2  0  0  0  0
 17 15  1  0  0  0  0
 18 13  1  0  0  0  0
 18 17  1  0  0  0  0
 19 18  2  0  0  0  0
 20 44  1  0  0  0  0
 20 17  1  0  0  0  0
 20 21  1  0  0  0  0
 21 47  1  0  0  0  0
 21 22  1  0  0  0  0
 22 49  1  0  0  0  0
 22 23  1  0  0  0  0
 23 24  1  0  0  0  0
 24 50  1  0  0  0  0
 24 52  1  0  0  0  0
 26 31  1  0  0  0  0
 26 25  2  0  0  0  0
 27 26  1  0  0  0  0
 28 27  2  0  0  0  0
 28 29  1  0  0  0  0
 29 30  2  0  0  0  0
 30 25  1  0  0  0  0
 30 56  1  0  0  0  0
 31 32  1  0  0  0  0
 32 12  1  0  0  0  0
 32 33  2  0  0  0  0
 34  3  1  0  0  0  0
 35  4  1  0  0  0  0
 41 11  1  0  0  0  0
 45 20  1  0  0  0  0
 46 21  1  0  0  0  0
 48 22  1  0  0  0  0
 51 24  1  0  0  0  0
 53 27  1  0  0  0  0
 54 28  1  0  0  0  0
 55 29  1  0  0  0  0
 57 31  1  0  0  0  0
M  END
>  <Pose>
1

>  <Score>
-5.43

$$$$
