
 OpenBabel03202210083D

 48 51  0  0  1  0  0  0  0  0999 V2000
   48.0840  101.9210   29.1250 Cl  0  0  0  0  0  0  0  0  0  0  0  0
   49.1950  100.5920   28.8730 C   0  0  0  0  0  0  0  0  0  0  0  0
   48.7360   99.3610   28.4160 C   0  0  0  0  0  0  0  0  0  0  0  0
   49.6210   98.3230   28.2210 C   0  0  0  0  0  0  0  0  0  0  0  0
   50.9710   98.4520   28.4670 C   0  0  0  0  0  0  0  0  0  0  0  0
   51.4330   99.6680   28.9200 C   0  0  0  0  0  0  0  0  0  0  0  0
   50.5510  100.7070   29.1140 C   0  0  0  0  0  0  0  0  0  0  0  0
   51.9420   97.3640   28.2680 C   0  0  0  0  0  0  0  0  0  0  0  0
   52.9310   97.7080   27.1970 C   0  0  0  0  0  0  0  0  0  0  0  0
   52.4760   98.3370   26.1800 O   0  0  0  0  0  0  0  0  0  0  0  0
   54.2840   97.3580   27.3060 N   0  0  0  0  0  0  0  0  0  0  0  0
   55.3310   98.3260   27.2110 C   0  0  0  0  0  0  0  0  0  0  0  0
   56.6420   97.7760   26.7240 C   0  0  0  0  0  0  0  0  0  0  0  0
   56.4160   96.5500   25.9220 C   0  0  2  0  0  0  0  0  0  0  0  0
   55.4430   95.6370   26.2850 C   0  0  0  0  0  0  0  0  0  0  0  0
   55.2360   94.5250   25.5710 N   0  0  0  0  0  0  0  0  0  0  0  0
   55.9490   94.2230   24.4640 C   0  0  2  0  0  0  0  0  0  0  0  0
   56.9030   95.1160   24.1050 N   0  0  0  0  0  0  0  0  0  0  0  0
   57.1490   96.2460   24.7890 C   0  0  0  0  0  0  0  0  0  0  0  0
   58.1340   97.1390   24.3930 O   0  0  0  0  0  0  0  0  0  0  0  0
   55.6890   93.0430   23.7480 N   0  0  0  0  0  0  0  0  0  0  0  0
   56.4050   91.8370   24.0410 C   0  0  0  0  0  0  0  0  0  0  0  0
   55.5240   90.6820   23.5420 C   0  0  0  0  0  0  0  0  0  0  0  0
   55.3400   90.7500   22.1840 O   0  0  0  0  0  0  0  0  0  0  0  0
   54.9890   91.9750   21.6830 C   0  0  0  0  0  0  0  0  0  0  0  0
   54.7010   93.0340   22.7110 C   0  0  0  0  0  0  0  0  0  0  0  0
   54.6450   95.9840   27.5190 C   0  0  0  0  0  0  0  0  0  0  0  0
   47.6830   99.2520   28.2220 H   0  0  0  0  0  0  0  0  0  0  0  0
   49.2720   97.3560   27.8650 H   0  0  0  0  0  0  0  0  0  0  0  0
   52.5010   99.8340   29.1330 H   0  0  0  0  0  0  0  0  0  0  0  0
   50.9110  101.6820   29.4760 H   0  0  0  0  0  0  0  0  0  0  0  0
   51.3650   96.4420   28.0050 H   0  0  0  0  0  0  0  0  0  0  0  0
   52.4390   97.1770   29.2440 H   0  0  0  0  0  0  0  0  0  0  0  0
   55.0260   99.2470   26.6650 H   0  0  0  0  0  0  0  0  0  0  0  0
   55.5460   98.7010   28.2620 H   0  0  0  0  0  0  0  0  0  0  0  0
   57.3370   97.5170   27.5770 H   0  0  0  0  0  0  0  0  0  0  0  0
   57.2180   98.5220   26.1280 H   0  0  0  0  0  0  0  0  0  0  0  0
   58.9230   97.3820   24.9980 H   0  0  0  0  0  0  0  0  0  0  0  0
   56.5270   91.6600   25.1350 H   0  0  0  0  0  0  0  0  0  0  0  0
   57.4140   91.7870   23.5630 H   0  0  0  0  0  0  0  0  0  0  0  0
   54.5400   90.8200   24.0360 H   0  0  0  0  0  0  0  0  0  0  0  0
   55.9340   89.7150   23.8320 H   0  0  0  0  0  0  0  0  0  0  0  0
   55.7670   92.3570   20.9850 H   0  0  0  0  0  0  0  0  0  0  0  0
   54.0460   91.8450   21.0860 H   0  0  0  0  0  0  0  0  0  0  0  0
   53.6600   92.8970   23.1160 H   0  0  0  0  0  0  0  0  0  0  0  0
   54.7360   94.0100   22.1760 H   0  0  0  0  0  0  0  0  0  0  0  0
   53.7490   95.3400   27.5890 H   0  0  0  0  0  0  0  0  0  0  0  0
   55.2720   95.8380   28.4260 H   0  0  0  0  0  0  0  0  0  0  0  0
  2  7  1  0  0  0  0
  2  1  1  0  0  0  0
  3  2  2  0  0  0  0
  4  3  1  0  0  0  0
  4  5  2  0  0  0  0
  5  6  1  0  0  0  0
  6  7  2  0  0  0  0
  6 30  1  0  0  0  0
  7 31  1  0  0  0  0
  8  5  1  0  0  0  0
  8 33  1  0  0  0  0
  9 11  1  0  0  0  0
  9  8  1  0  0  0  0
 10  9  2  0  0  0  0
 11 27  1  0  0  0  0
 12 11  1  0  0  0  0
 12 35  1  0  0  0  0
 13 12  1  0  0  0  0
 13 36  1  0  0  0  0
 14 19  1  1  0  0  0
 14 15  1  0  0  0  0
 14 13  1  0  0  0  0
 15 27  1  0  0  0  0
 16 15  2  0  0  0  0
 17 21  1  6  0  0  0
 17 16  1  0  0  0  0
 18 17  1  0  0  0  0
 18 19  2  0  0  0  0
 20 19  1  0  0  0  0
 20 38  1  0  0  0  0
 21 22  1  0  0  0  0
 22 39  1  0  0  0  0
 23 42  1  0  0  0  0
 23 41  1  0  0  0  0
 23 22  1  0  0  0  0
 24 23  1  0  0  0  0
 25 24  1  0  0  0  0
 25 26  1  0  0  0  0
 26 45  1  0  0  0  0
 26 21  1  0  0  0  0
 27 47  1  0  0  0  0
 27 48  1  0  0  0  0
 28  3  1  0  0  0  0
 29  4  1  0  0  0  0
 32  8  1  0  0  0  0
 34 12  1  0  0  0  0
 37 13  1  0  0  0  0
 40 22  1  0  0  0  0
 43 25  1  0  0  0  0
 44 25  1  0  0  0  0
 46 26  1  0  0  0  0
M  END
>  <Pose>
1

>  <Score>
-6.46

$$$$
