
 OpenBabel03202210083D

 52 55  0  0  0  0  0  0  0  0999 V2000
   54.1540   82.4590   19.0270 Cl  0  0  0  0  0  0  0  0  0  0  0  0
   53.5480   84.0780   19.1940 C   0  0  0  0  0  0  0  0  0  0  0  0
   54.1770   84.9920   20.0400 C   0  0  0  0  0  0  0  0  0  0  0  0
   53.6880   86.2800   20.1690 C   0  0  0  0  0  0  0  0  0  0  0  0
   52.5630   86.6930   19.4600 C   0  0  0  0  0  0  0  0  0  0  0  0
   51.9430   85.8010   18.6310 C   0  0  0  0  0  0  0  0  0  0  0  0
   52.4380   84.5030   18.5020 C   0  0  0  0  0  0  0  0  0  0  0  0
   52.0700   88.0860   19.6300 C   0  0  0  0  0  0  0  0  0  0  0  0
   51.9710   88.7860   18.3340 C   0  0  0  0  0  0  0  0  0  0  0  0
   51.4120   88.1760   17.3860 O   0  0  0  0  0  0  0  0  0  0  0  0
   52.4620   90.0810   18.1050 N   0  0  0  0  0  0  0  0  0  0  0  0
   51.8450   91.2530   18.7510 C   0  0  0  0  0  0  0  0  0  0  0  0
   52.9540   92.2240   19.1260 C   0  0  0  0  0  0  0  0  0  0  0  0
   54.1510   91.4310   19.3250 N   0  0  0  0  0  0  0  0  0  0  0  0
   54.7540   90.9010   18.1140 C   0  0  0  0  0  0  0  0  0  0  0  0
   53.5910   90.3980   17.2420 C   0  0  0  0  0  0  0  0  0  0  0  0
   54.6830   91.1810   20.6160 C   0  0  0  0  0  0  0  0  0  0  0  0
   55.2000   89.9360   20.9240 C   0  0  0  0  0  0  0  0  0  0  0  0
   55.6930   89.7180   22.1780 N   0  0  0  0  0  0  0  0  0  0  0  0
   55.7000   90.6440   23.1170 N   0  0  0  0  0  0  0  0  0  0  0  0
   55.2050   91.8980   22.8820 C   0  0  0  0  0  0  0  0  0  0  0  0
   54.7140   92.1110   21.6290 C   0  0  0  0  0  0  0  0  0  0  0  0
   55.2400   92.8400   23.9330 N   0  0  0  0  0  0  0  0  0  0  0  0
   55.9400   92.5510   25.1710 C   0  0  0  0  0  0  0  0  0  0  0  0
   55.0910   92.9640   26.3740 C   0  0  0  0  0  0  0  0  0  0  0  0
   54.5670   94.2320   26.2150 O   0  0  0  0  0  0  0  0  0  0  0  0
   53.7200   94.2120   25.1170 C   0  0  0  0  0  0  0  0  0  0  0  0
   54.5930   94.1240   23.8520 C   0  0  0  0  0  0  0  0  0  0  0  0
   55.0400   84.6720   20.5830 H   0  0  0  0  0  0  0  0  0  0  0  0
   54.1540   87.0180   20.8200 H   0  0  0  0  0  0  0  0  0  0  0  0
   51.0570   86.0750   18.0520 H   0  0  0  0  0  0  0  0  0  0  0  0
   51.9280   83.8230   17.8420 H   0  0  0  0  0  0  0  0  0  0  0  0
   52.8420   88.6070   20.2670 H   0  0  0  0  0  0  0  0  0  0  0  0
   51.1040   88.0950   20.1740 H   0  0  0  0  0  0  0  0  0  0  0  0
   51.3130   90.8640   19.6320 H   0  0  0  0  0  0  0  0  0  0  0  0
   51.0950   91.7150   18.0760 H   0  0  0  0  0  0  0  0  0  0  0  0
   52.7060   92.8480   19.9960 H   0  0  0  0  0  0  0  0  0  0  0  0
   53.1470   92.9070   18.2690 H   0  0  0  0  0  0  0  0  0  0  0  0
   55.4740   90.0980   18.2760 H   0  0  0  0  0  0  0  0  0  0  0  0
   55.1980   91.7610   17.5740 H   0  0  0  0  0  0  0  0  0  0  0  0
   53.8930   89.5810   16.5890 H   0  0  0  0  0  0  0  0  0  0  0  0
   53.2420   91.2280   16.5840 H   0  0  0  0  0  0  0  0  0  0  0  0
   55.2400   89.1250   20.2380 H   0  0  0  0  0  0  0  0  0  0  0  0
   54.3100   93.0800   21.3960 H   0  0  0  0  0  0  0  0  0  0  0  0
   56.1660   91.4710   25.2910 H   0  0  0  0  0  0  0  0  0  0  0  0
   56.8510   93.1750   25.2150 H   0  0  0  0  0  0  0  0  0  0  0  0
   55.7370   92.9450   27.2610 H   0  0  0  0  0  0  0  0  0  0  0  0
   54.2740   92.2440   26.5550 H   0  0  0  0  0  0  0  0  0  0  0  0
   53.0400   95.0640   25.0720 H   0  0  0  0  0  0  0  0  0  0  0  0
   53.1620   93.2340   25.1390 H   0  0  0  0  0  0  0  0  0  0  0  0
   53.9890   94.3070   22.9720 H   0  0  0  0  0  0  0  0  0  0  0  0
   55.3950   94.9040   23.9750 H   0  0  0  0  0  0  0  0  0  0  0  0
  1  2  1  0  0  0  0
  2  3  1  0  0  0  0
  3  4  2  0  0  0  0
  3 29  1  0  0  0  0
  4 30  1  0  0  0  0
  5  8  1  0  0  0  0
  5  4  1  0  0  0  0
  6  5  2  0  0  0  0
  7  6  1  0  0  0  0
  7  2  2  0  0  0  0
  8 34  1  0  0  0  0
  8 33  1  0  0  0  0
  9  8  1  0  0  0  0
 10  9  2  0  0  0  0
 11  9  1  0  0  0  0
 11 12  1  0  0  0  0
 12 13  1  0  0  0  0
 12 35  1  0  0  0  0
 13 14  1  0  0  0  0
 13 37  1  0  0  0  0
 14 17  1  0  0  0  0
 15 39  1  0  0  0  0
 15 14  1  0  0  0  0
 16 11  1  0  0  0  0
 16 15  1  0  0  0  0
 17 18  2  0  0  0  0
 17 22  1  0  0  0  0
 18 19  1  0  0  0  0
 19 20  2  0  0  0  0
 21 20  1  0  0  0  0
 21 23  1  0  0  0  0
 22 21  2  0  0  0  0
 23 24  1  0  0  0  0
 24 46  1  0  0  0  0
 24 45  1  0  0  0  0
 24 25  1  0  0  0  0
 25 48  1  0  0  0  0
 25 47  1  0  0  0  0
 26 25  1  0  0  0  0
 27 50  1  0  0  0  0
 27 26  1  0  0  0  0
 28 23  1  0  0  0  0
 28 52  1  0  0  0  0
 28 27  1  0  0  0  0
 31  6  1  0  0  0  0
 32  7  1  0  0  0  0
 36 12  1  0  0  0  0
 38 13  1  0  0  0  0
 40 15  1  0  0  0  0
 41 16  1  0  0  0  0
 42 16  1  0  0  0  0
 43 18  1  0  0  0  0
 44 22  1  0  0  0  0
 49 27  1  0  0  0  0
 51 28  1  0  0  0  0
M  END
>  <Pose>
1

>  <Score>
-6.42

$$$$
