
 OpenBabel03202210083D

 37 40  0  0  0  0  0  0  0  0999 V2000
   58.0600   94.8940   23.4340 F   0  0  0  0  0  0  0  0  0  0  0  0
   57.1600   95.2590   24.3800 C   0  0  0  0  0  0  0  0  0  0  0  0
   57.2340   96.4630   25.0260 N   0  0  0  0  0  0  0  0  0  0  0  0
   56.1970   96.4710   25.8790 C   0  0  0  0  0  0  0  0  0  0  0  0
   55.5150   95.3210   25.7620 N   0  0  0  0  0  0  0  0  0  0  0  0
   56.0870   94.5320   24.8310 C   0  0  0  0  0  0  0  0  0  0  0  0
   55.6270   93.1820   24.4090 C   0  0  0  0  0  0  0  0  0  0  0  0
   55.3010   92.4760   25.4410 O   0  0  0  0  0  0  0  0  0  0  0  0
   55.5530   92.7340   23.1140 N   0  0  0  0  0  0  0  0  0  0  0  0
   55.4790   92.2890   21.8270 C   0  0  0  0  0  0  0  0  0  0  0  0
   55.5480   90.7930   21.6490 C   0  0  0  0  0  0  0  0  0  0  0  0
   54.8740   90.0840   20.7400 N   0  0  0  0  0  0  0  0  0  0  0  0
   55.2010   88.8120   20.8970 N   0  0  0  0  0  0  0  0  0  0  0  0
   56.0650   88.6890   21.8810 N   0  0  0  0  0  0  0  0  0  0  0  0
   56.2750   89.9220   22.3420 N   0  0  0  0  0  0  0  0  0  0  0  0
   53.9870   90.6820   19.7930 C   0  0  0  0  0  0  0  0  0  0  0  0
   54.1820   90.4020   18.4450 C   0  0  0  0  0  0  0  0  0  0  0  0
   53.3660   90.9660   17.4720 C   0  0  0  0  0  0  0  0  0  0  0  0
   52.3370   91.8210   17.8120 C   0  0  0  0  0  0  0  0  0  0  0  0
   52.1490   92.0940   19.1500 C   0  0  0  0  0  0  0  0  0  0  0  0
   52.9610   91.5350   20.1210 C   0  0  0  0  0  0  0  0  0  0  0  0
   56.0390   97.5860   26.6650 C   0  0  0  0  0  0  0  0  0  0  0  0
   56.9060   98.6790   26.5990 C   0  0  0  0  0  0  0  0  0  0  0  0
   57.9520   98.6340   25.7170 C   0  0  0  0  0  0  0  0  0  0  0  0
   58.0900   97.4940   24.9330 C   0  0  0  0  0  0  0  0  0  0  0  0
   59.0820   99.9810   25.5760 Cl  0  0  0  0  0  0  0  0  0  0  0  0
   56.2410   91.6020   23.4510 H   0  0  0  0  0  0  0  0  0  0  0  0
   56.3520   92.6680   21.1790 H   0  0  0  0  0  0  0  0  0  0  0  0
   54.5930   92.6360   21.2010 H   0  0  0  0  0  0  0  0  0  0  0  0
   54.9810   89.7350   18.1640 H   0  0  0  0  0  0  0  0  0  0  0  0
   53.5080   90.7590   16.4210 H   0  0  0  0  0  0  0  0  0  0  0  0
   51.6920   92.2720   17.0430 H   0  0  0  0  0  0  0  0  0  0  0  0
   51.3310   92.7760   19.4260 H   0  0  0  0  0  0  0  0  0  0  0  0
   52.7800   91.7760   21.1610 H   0  0  0  0  0  0  0  0  0  0  0  0
   55.2290   97.6680   27.3760 H   0  0  0  0  0  0  0  0  0  0  0  0
   56.7720   99.5650   27.2340 H   0  0  0  0  0  0  0  0  0  0  0  0
   58.9180   97.4790   24.2440 H   0  0  0  0  0  0  0  0  0  0  0  0
  1  2  1  0  0  0  0
  2  6  2  0  0  0  0
  2  3  1  0  0  0  0
  3  4  1  0  0  0  0
  4 22  1  0  0  0  0
  5  4  2  0  0  0  0
  6  5  1  0  0  0  0
  7  6  1  0  0  0  0
  7  8  2  0  0  0  0
  9 27  1  0  0  0  0
  9  7  1  0  0  0  0
 10  9  1  0  0  0  0
 11 10  1  0  0  0  0
 11 15  2  0  0  0  0
 12 13  1  0  0  0  0
 12 11  1  0  0  0  0
 13 14  2  0  0  0  0
 14 15  1  0  0  0  0
 16 21  1  0  0  0  0
 16 12  1  0  0  0  0
 17 16  2  0  0  0  0
 18 19  2  0  0  0  0
 18 17  1  0  0  0  0
 19 20  1  0  0  0  0
 20 33  1  0  0  0  0
 20 21  2  0  0  0  0
 21 34  1  0  0  0  0
 22 35  1  0  0  0  0
 23 22  2  0  0  0  0
 23 36  1  0  0  0  0
 24 23  1  0  0  0  0
 25  3  1  0  0  0  0
 25 24  2  0  0  0  0
 26 24  1  0  0  0  0
 28 10  1  0  0  0  0
 29 10  1  0  0  0  0
 30 17  1  0  0  0  0
 31 18  1  0  0  0  0
 32 19  1  0  0  0  0
 37 25  1  0  0  0  0
M  END
>  <Pose>
1

>  <Score>
-7.57

$$$$
