
 OpenBabel03202210083D

 33 36  0  0  1  0  0  0  0  0999 V2000
   54.1040   90.9030   17.2940 Cl  0  0  0  0  0  0  0  0  0  0  0  0
   53.7950   89.5870   18.4050 C   0  0  0  0  0  0  0  0  0  0  0  0
   54.6100   89.3530   19.4920 C   0  0  0  0  0  0  0  0  0  0  0  0
   54.3760   88.3150   20.3800 C   0  0  0  0  0  0  0  0  0  0  0  0
   53.2790   87.5140   20.1290 C   0  0  0  0  0  0  0  0  0  0  0  0
   52.4580   87.7490   19.0340 C   0  0  0  0  0  0  0  0  0  0  0  0
   52.6990   88.7860   18.1560 C   0  0  0  0  0  0  0  0  0  0  0  0
   55.2160   88.0710   21.5010 N   0  0  0  0  0  0  0  0  0  0  0  0
   55.5970   86.8050   22.0710 C   0  0  0  0  0  0  0  0  0  0  0  0
   55.1480   85.6940   21.7010 O   0  0  0  0  0  0  0  0  0  0  0  0
   56.5750   87.0170   23.1350 C   0  0  2  0  0  0  0  0  0  0  0  0
   56.0660   86.8040   24.5220 C   0  0  1  0  0  0  0  0  0  0  0  0
   56.9450   87.6520   25.2430 O   0  0  0  0  0  0  0  0  0  0  0  0
   56.5670   88.8590   24.6000 C   0  0  1  0  0  0  0  0  0  0  0  0
   56.8660   88.5260   23.1590 C   0  0  2  0  0  0  0  0  0  0  0  0
   55.8410   89.0880   22.2770 C   0  0  0  0  0  0  0  0  0  0  0  0
   55.5380   90.3030   22.1960 O   0  0  0  0  0  0  0  0  0  0  0  0
   55.1010   88.8140   24.7790 C   0  0  0  0  0  0  0  0  0  0  0  0
   54.7830   87.5000   24.7660 C   0  0  0  0  0  0  0  0  0  0  0  0
   56.1220   85.4000   25.0110 C   0  0  0  0  0  0  0  0  0  0  0  0
   55.6060   85.3400   26.3000 O   0  0  0  0  0  0  0  0  0  0  0  0
   55.4760   89.9810   19.6970 H   0  0  0  0  0  0  0  0  0  0  0  0
   53.0780   86.6930   20.8150 H   0  0  0  0  0  0  0  0  0  0  0  0
   51.5970   87.1110   18.8500 H   0  0  0  0  0  0  0  0  0  0  0  0
   52.0450   88.9530   17.3050 H   0  0  0  0  0  0  0  0  0  0  0  0
   57.5100   86.4440   23.0140 H   0  0  0  0  0  0  0  0  0  0  0  0
   57.0710   89.7260   24.9900 H   0  0  0  0  0  0  0  0  0  0  0  0
   57.8910   88.7490   22.8550 H   0  0  0  0  0  0  0  0  0  0  0  0
   54.4110   89.6220   24.8980 H   0  0  0  0  0  0  0  0  0  0  0  0
   53.7970   87.0790   24.9070 H   0  0  0  0  0  0  0  0  0  0  0  0
   57.2050   85.1170   25.0660 H   0  0  0  0  0  0  0  0  0  0  0  0
   55.6430   84.6750   24.3370 H   0  0  0  0  0  0  0  0  0  0  0  0
   56.3140   85.1010   26.9410 H   0  0  0  0  0  0  0  0  0  0  0  0
  1  2  1  0  0  0  0
  2  3  1  0  0  0  0
  3 22  1  0  0  0  0
  3  4  2  0  0  0  0
  4  8  1  0  0  0  0
  5  4  1  0  0  0  0
  5 23  1  0  0  0  0
  6  5  2  0  0  0  0
  7  2  2  0  0  0  0
  7  6  1  0  0  0  0
  8  9  1  0  0  0  0
  8 16  1  0  0  0  0
  9 11  1  0  0  0  0
 10  9  2  0  0  0  0
 11 26  1  6  0  0  0
 11 15  1  0  0  0  0
 11 12  1  0  0  0  0
 12 19  1  0  0  0  0
 12 20  1  1  0  0  0
 12 13  1  0  0  0  0
 14 18  1  0  0  0  0
 14 27  1  1  0  0  0
 14 13  1  0  0  0  0
 15 28  1  6  0  0  0
 15 14  1  0  0  0  0
 16 15  1  0  0  0  0
 17 16  2  0  0  0  0
 18 29  1  0  0  0  0
 19 18  2  0  0  0  0
 19 30  1  0  0  0  0
 20 31  1  0  0  0  0
 20 21  1  0  0  0  0
 21 33  1  0  0  0  0
 24  6  1  0  0  0  0
 25  7  1  0  0  0  0
 32 20  1  0  0  0  0
M  END
>  <Pose>
1

>  <Score>
-5.77

$$$$
