
 OpenBabel03202210083D

 36 39  0  0  1  0  0  0  0  0999 V2000
   50.6680   97.4290   28.5490 Cl  0  0  0  0  0  0  0  0  0  0  0  0
   52.2790   97.5880   27.8820 C   0  0  0  0  0  0  0  0  0  0  0  0
   52.8330   96.6450   27.0400 C   0  0  0  0  0  0  0  0  0  0  0  0
   54.1010   96.7570   26.5090 C   0  0  2  0  0  0  0  0  0  0  0  0
   54.8390   97.8750   26.8460 C   0  0  0  0  0  0  0  0  0  0  0  0
   54.2960   98.8250   27.6860 C   0  0  0  0  0  0  0  0  0  0  0  0
   53.0280   98.7120   28.2190 C   0  0  0  0  0  0  0  0  0  0  0  0
   56.2010   98.0170   26.2870 C   0  0  0  0  0  0  0  0  0  0  0  0
   57.0700   98.9260   26.4340 N   0  0  0  0  0  0  0  0  0  0  0  0
   58.2950   98.6800   25.7030 C   0  0  0  0  0  0  0  0  0  0  0  0
   58.0720   97.3770   25.0080 C   0  0  0  0  0  0  0  0  0  0  0  0
   56.7290   97.0190   25.4240 N   0  0  0  0  0  0  0  0  0  0  0  0
   55.9010   95.8950   25.1250 C   0  0  0  0  0  0  0  0  0  0  0  0
   56.1290   94.8170   24.3550 N   0  0  0  0  0  0  0  0  0  0  0  0
   55.0840   94.0070   24.3530 N   0  0  0  0  0  0  0  0  0  0  0  0
   54.1720   94.6090   25.1550 C   0  0  0  0  0  0  0  0  0  0  0  0
   53.0440   94.1240   25.3920 O   0  0  0  0  0  0  0  0  0  0  0  0
   54.6500   95.7670   25.6400 N   0  0  0  0  0  0  0  0  0  0  0  0
   54.9470   92.7490   23.6440 C   0  0  0  0  0  0  0  0  0  0  0  0
   55.4950   92.9100   22.2190 C   0  0  0  0  0  0  0  0  0  0  0  0
   54.6330   92.1800   21.2560 C   0  0  0  0  0  0  0  0  0  0  0  0
   53.3970   92.3690   21.1250 O   0  0  0  0  0  0  0  0  0  0  0  0
   55.2430   91.2030   20.4290 N   0  0  0  0  0  0  0  0  0  0  0  0
   52.2270   95.7840   26.7980 H   0  0  0  0  0  0  0  0  0  0  0  0
   54.8980   99.6870   27.9310 H   0  0  0  0  0  0  0  0  0  0  0  0
   52.5980   99.4570   28.8810 H   0  0  0  0  0  0  0  0  0  0  0  0
   59.1760   98.6510   26.3760 H   0  0  0  0  0  0  0  0  0  0  0  0
   58.3960   99.5250   24.9760 H   0  0  0  0  0  0  0  0  0  0  0  0
   58.8220   96.6050   25.2640 H   0  0  0  0  0  0  0  0  0  0  0  0
   58.0920   97.5380   23.8920 H   0  0  0  0  0  0  0  0  0  0  0  0
   55.6140   91.9970   24.1260 H   0  0  0  0  0  0  0  0  0  0  0  0
   53.9140   92.4050   23.6030 H   0  0  0  0  0  0  0  0  0  0  0  0
   56.5310   92.5280   22.1560 H   0  0  0  0  0  0  0  0  0  0  0  0
   55.4850   93.9850   21.9120 H   0  0  0  0  0  0  0  0  0  0  0  0
   56.1020   91.3750   19.8770 H   0  0  0  0  0  0  0  0  0  0  0  0
   54.7970   90.2630   20.3780 H   0  0  0  0  0  0  0  0  0  0  0  0
  2  7  1  0  0  0  0
  2  1  1  0  0  0  0
  3  2  2  0  0  0  0
  4  5  1  6  0  0  0
  4  3  1  0  0  0  0
  5  6  1  0  0  0  0
  6 25  1  0  0  0  0
  6  7  2  0  0  0  0
  7 26  1  0  0  0  0
  8  9  1  0  0  0  0
  8  5  2  0  0  0  0
 10 27  1  0  0  0  0
 10  9  1  0  0  0  0
 11 29  1  0  0  0  0
 11 12  1  0  0  0  0
 11 10  1  0  0  0  0
 12  8  1  0  0  0  0
 13 12  1  0  0  0  0
 13 18  1  0  0  0  0
 14 13  2  0  0  0  0
 15 14  1  0  0  0  0
 15 16  1  0  0  0  0
 16 17  2  0  0  0  0
 16 18  1  0  0  0  0
 18  4  1  0  0  0  0
 19 31  1  0  0  0  0
 19 15  1  0  0  0  0
 20 19  1  0  0  0  0
 21 20  1  0  0  0  0
 22 21  2  0  0  0  0
 23 21  1  0  0  0  0
 24  3  1  0  0  0  0
 28 10  1  0  0  0  0
 30 11  1  0  0  0  0
 32 19  1  0  0  0  0
 33 20  1  0  0  0  0
 34 20  1  0  0  0  0
 35 23  1  0  0  0  0
 36 23  1  0  0  0  0
M  END
>  <Pose>
1

>  <Score>
-6.24

$$$$
