
 OpenBabel03202210083D

 37 40  0  0  1  0  0  0  0  0999 V2000
   52.4620   92.0690   18.2310 Cl  0  0  0  0  0  0  0  0  0  0  0  0
   53.7360   91.6070   19.3560 C   0  0  0  0  0  0  0  0  0  0  0  0
   53.7290   92.0860   20.6630 C   0  0  0  0  0  0  0  0  0  0  0  0
   54.7440   91.6940   21.5040 C   0  0  0  0  0  0  0  0  0  0  0  0
   55.7600   90.8340   21.0560 C   0  0  0  0  0  0  0  0  0  0  0  0
   55.7600   90.3690   19.7750 C   0  0  0  0  0  0  0  0  0  0  0  0
   54.7380   90.7610   18.9280 C   0  0  0  0  0  0  0  0  0  0  0  0
   54.8230   92.1340   22.8540 N   0  0  0  0  0  0  0  0  0  0  0  0
   54.9630   91.4080   24.0700 C   0  0  0  0  0  0  0  0  0  0  0  0
   55.4160   90.2540   24.1520 O   0  0  0  0  0  0  0  0  0  0  0  0
   54.4870   92.2390   25.1890 C   0  0  1  0  0  0  0  0  0  0  0  0
   55.1370   92.1450   26.3780 O   0  0  0  0  0  0  0  0  0  0  0  0
   55.0850   93.4430   26.8510 N   0  0  0  0  0  0  0  0  0  0  0  0
   55.2730   94.3270   25.7440 C   0  0  0  0  0  0  0  0  0  0  0  0
   54.9100   93.5920   24.6980 C   0  0  0  0  0  0  0  0  0  0  0  0
   54.7870   93.5300   23.2490 C   0  0  0  0  0  0  0  0  0  0  0  0
   54.6710   94.5440   22.5160 O   0  0  0  0  0  0  0  0  0  0  0  0
   55.7000   95.7120   25.7490 C   0  0  0  0  0  0  0  0  0  0  0  0
   56.8590   96.1270   25.0880 C   0  0  0  0  0  0  0  0  0  0  0  0
   57.0300   97.4450   25.2620 N   0  0  0  0  0  0  0  0  0  0  0  0
   56.0220   97.8950   26.0120 N   0  0  0  0  0  0  0  0  0  0  0  0
   55.2110   96.8550   26.3140 C   0  0  0  0  0  0  0  0  0  0  0  0
   53.9840   96.9310   27.1460 C   0  0  0  0  0  0  0  0  0  0  0  0
   58.0940   98.3090   24.7620 C   0  0  0  0  0  0  0  0  0  0  0  0
   52.9410   92.7570   21.0270 H   0  0  0  0  0  0  0  0  0  0  0  0
   56.5460   90.5480   21.7570 H   0  0  0  0  0  0  0  0  0  0  0  0
   56.5720   89.6940   19.4410 H   0  0  0  0  0  0  0  0  0  0  0  0
   54.7100   90.4100   17.8950 H   0  0  0  0  0  0  0  0  0  0  0  0
   53.3790   92.1870   25.2680 H   0  0  0  0  0  0  0  0  0  0  0  0
   54.9270   93.6870   27.8420 H   0  0  0  0  0  0  0  0  0  0  0  0
   57.5290   95.5030   24.5210 H   0  0  0  0  0  0  0  0  0  0  0  0
   53.1220   97.1420   26.5070 H   0  0  0  0  0  0  0  0  0  0  0  0
   54.0710   97.7970   27.8450 H   0  0  0  0  0  0  0  0  0  0  0  0
   53.8550   96.0380   27.7790 H   0  0  0  0  0  0  0  0  0  0  0  0
   58.6410   98.7880   25.6030 H   0  0  0  0  0  0  0  0  0  0  0  0
   58.8850   97.6970   24.2450 H   0  0  0  0  0  0  0  0  0  0  0  0
   57.7080   99.1120   24.1060 H   0  0  0  0  0  0  0  0  0  0  0  0
  1  2  1  0  0  0  0
  2  3  1  0  0  0  0
  3 25  1  0  0  0  0
  3  4  2  0  0  0  0
  4  8  1  0  0  0  0
  5  4  1  0  0  0  0
  5 26  1  0  0  0  0
  6  5  2  0  0  0  0
  7  2  2  0  0  0  0
  7  6  1  0  0  0  0
  8 16  1  0  0  0  0
  8  9  1  0  0  0  0
  9 10  2  0  0  0  0
  9 11  1  0  0  0  0
 11 29  1  1  0  0  0
 11 12  1  0  0  0  0
 12 13  1  0  0  0  0
 13 30  1  0  0  0  0
 14 18  1  0  0  0  0
 14 13  1  0  0  0  0
 15 11  1  0  0  0  0
 15 14  2  0  0  0  0
 16 15  1  0  0  0  0
 17 16  2  0  0  0  0
 18 22  1  0  0  0  0
 19 20  1  0  0  0  0
 19 18  2  0  0  0  0
 20 21  1  0  0  0  0
 21 22  2  0  0  0  0
 22 23  1  0  0  0  0
 23 34  1  0  0  0  0
 23 33  1  0  0  0  0
 24 20  1  0  0  0  0
 24 35  1  0  0  0  0
 27  6  1  0  0  0  0
 28  7  1  0  0  0  0
 31 19  1  0  0  0  0
 32 23  1  0  0  0  0
 36 24  1  0  0  0  0
 37 24  1  0  0  0  0
M  END
>  <Pose>
1

>  <Score>
-5.69

$$$$
