
 OpenBabel03202210083D

 55 58  0  0  0  0  0  0  0  0999 V2000
   52.4520   90.8440   18.4490 B   0  0  0  0  0  0  0  0  0  0  0  0
   52.6140   89.0690   19.1010 C   0  0  0  0  0  0  0  0  0  0  0  0
   53.6720   88.6790   19.9430 C   0  0  0  0  0  0  0  0  0  0  0  0
   53.7660   87.3890   20.3940 C   0  0  0  0  0  0  0  0  0  0  0  0
   52.8130   86.4690   20.0210 C   0  0  0  0  0  0  0  0  0  0  0  0
   51.7580   86.8610   19.1830 C   0  0  0  0  0  0  0  0  0  0  0  0
   51.6680   88.1390   18.7340 C   0  0  0  0  0  0  0  0  0  0  0  0
   52.9570   85.2130   20.5000 O   0  0  0  0  0  0  0  0  0  0  0  0
   53.7040   84.1810   19.9570 C   0  0  0  0  0  0  0  0  0  0  0  0
   54.8410   87.0030   21.2970 C   0  0  0  0  0  0  0  0  0  0  0  0
   54.7200   86.5210   22.4920 C   0  0  0  0  0  0  0  0  0  0  0  0
   53.5540   86.2720   23.1590 O   0  0  0  0  0  0  0  0  0  0  0  0
   53.8510   85.7480   24.4150 C   0  0  0  0  0  0  0  0  0  0  0  0
   55.1880   85.6390   24.6220 C   0  0  0  0  0  0  0  0  0  0  0  0
   55.6970   85.1180   25.8170 C   0  0  0  0  0  0  0  0  0  0  0  0
   54.8810   84.6950   26.8340 C   0  0  0  0  0  0  0  0  0  0  0  0
   53.5050   84.8330   26.5750 C   0  0  0  0  0  0  0  0  0  0  0  0
   52.9820   85.3280   25.4290 C   0  0  0  0  0  0  0  0  0  0  0  0
   51.5420   85.5200   25.1750 C   0  0  0  0  0  0  0  0  0  0  0  0
   50.9630   84.3770   24.5100 N   0  0  0  0  0  4  0  0  0  0  0  0
   50.9160   83.2580   25.4350 C   0  0  0  0  0  0  0  0  0  0  0  0
   51.2340   81.9500   24.8450 C   0  0  0  0  0  0  0  0  0  0  0  0
   50.8870   81.7750   23.4710 N   0  0  0  0  0  0  0  0  0  0  0  0
   50.4690   82.8910   22.7510 C   0  0  0  0  0  0  0  0  0  0  0  0
   51.2880   84.1330   23.1890 C   0  0  0  0  0  0  0  0  0  0  0  0
   51.5480   80.7380   22.7740 C   0  0  0  0  0  0  0  0  0  0  0  0
   52.9880   80.9740   22.4840 C   0  0  0  0  0  0  0  0  0  0  0  0
   52.7100   84.4010   27.6580 O   0  0  0  0  0  0  0  0  0  0  0  0
   55.8100   86.1350   23.3890 C   0  0  0  0  0  0  0  0  0  0  0  0
   57.0510   86.2090   23.1530 O   0  0  0  0  0  0  0  0  0  0  0  0
   54.3770   89.4580   20.1840 H   0  0  0  0  0  0  0  0  0  0  0  0
   50.9990   86.1360   18.8910 H   0  0  0  0  0  0  0  0  0  0  0  0
   50.8280   88.3900   18.0890 H   0  0  0  0  0  0  0  0  0  0  0  0
   54.4430   83.7540   20.6910 H   0  0  0  0  0  0  0  0  0  0  0  0
   54.3120   84.4200   19.0670 H   0  0  0  0  0  0  0  0  0  0  0  0
   53.0170   83.3310   19.6240 H   0  0  0  0  0  0  0  0  0  0  0  0
   55.9010   87.1170   20.9550 H   0  0  0  0  0  0  0  0  0  0  0  0
   56.7820   85.0700   25.8750 H   0  0  0  0  0  0  0  0  0  0  0  0
   55.2400   84.2940   27.7520 H   0  0  0  0  0  0  0  0  0  0  0  0
   51.3370   86.4810   24.6820 H   0  0  0  0  0  0  0  0  0  0  0  0
   51.0680   85.6470   26.2060 H   0  0  0  0  0  0  0  0  0  0  0  0
   49.8880   84.6910   24.4720 H   0  0  0  0  0  0  0  0  0  0  0  0
   49.9350   83.2470   25.9730 H   0  0  0  0  0  0  0  0  0  0  0  0
   51.6570   83.4690   26.2410 H   0  0  0  0  0  0  0  0  0  0  0  0
   52.2890   81.6590   25.0680 H   0  0  0  0  0  0  0  0  0  0  0  0
   50.6240   81.1750   25.4120 H   0  0  0  0  0  0  0  0  0  0  0  0
   50.4780   82.7590   21.6780 H   0  0  0  0  0  0  0  0  0  0  0  0
   49.4250   83.1880   23.0500 H   0  0  0  0  0  0  0  0  0  0  0  0
   50.8030   84.9250   22.5310 H   0  0  0  0  0  0  0  0  0  0  0  0
   52.3260   84.0910   22.9070 H   0  0  0  0  0  0  0  0  0  0  0  0
   51.4700   79.8040   23.4050 H   0  0  0  0  0  0  0  0  0  0  0  0
   50.9490   80.5340   21.8430 H   0  0  0  0  0  0  0  0  0  0  0  0
   53.3230   82.0010   22.6400 H   0  0  0  0  0  0  0  0  0  0  0  0
   53.6460   80.2690   23.0590 H   0  0  0  0  0  0  0  0  0  0  0  0
   53.1500   80.7560   21.4140 H   0  0  0  0  0  0  0  0  0  0  0  0
  1  2  1  0  0  0  0
  2  3  1  0  0  0  0
  3 31  1  0  0  0  0
  3  4  2  0  0  0  0
  4 10  1  0  0  0  0
  5  4  1  0  0  0  0
  5  8  1  0  0  0  0
  6  5  2  0  0  0  0
  7  2  2  0  0  0  0
  7  6  1  0  0  0  0
  9  8  1  0  0  0  0
  9 34  1  0  0  0  0
 10 11  2  0  0  0  0
 11 12  1  0  0  0  0
 11 29  1  0  0  0  0
 12 13  1  0  0  0  0
 13 14  2  0  0  0  0
 13 18  1  0  0  0  0
 14 15  1  0  0  0  0
 15 38  1  0  0  0  0
 15 16  2  0  0  0  0
 16 39  1  0  0  0  0
 17 16  1  0  0  0  0
 17 28  1  0  0  0  0
 18 17  2  0  0  0  0
 19 18  1  0  0  0  0
 19 41  1  0  0  0  0
 20 19  1  0  0  0  0
 20 21  1  0  0  0  0
 21 43  1  0  0  0  0
 21 44  1  0  0  0  0
 22 45  1  0  0  0  0
 22 46  1  0  0  0  0
 22 21  1  0  0  0  0
 23 22  1  0  0  0  0
 24 48  1  0  0  0  0
 24 25  1  0  0  0  0
 24 23  1  0  0  0  0
 25 20  1  0  0  0  0
 26 51  1  0  0  0  0
 26 23  1  0  0  0  0
 27 53  1  0  0  0  0
 27 26  1  0  0  0  0
 27 54  1  0  0  0  0
 29 14  1  0  0  0  0
 30 29  2  0  0  0  0
 32  6  1  0  0  0  0
 33  7  1  0  0  0  0
 35  9  1  0  0  0  0
 36  9  1  0  0  0  0
 37 10  1  0  0  0  0
 40 19  1  0  0  0  0
 42 20  1  0  0  0  0
 47 24  1  0  0  0  0
 49 25  1  0  0  0  0
 50 25  1  0  0  0  0
 52 26  1  0  0  0  0
 55 27  1  0  0  0  0
M  END
>  <Pose>
1

>  <Score>
-6.19

$$$$
