
 OpenBabel03202210083D

 48 51  0  0  0  0  0  0  0  0999 V2000
   52.0810   88.3890   18.5470 B   0  0  0  0  0  0  0  0  0  0  0  0
   52.2130   86.5450   19.0070 C   0  0  0  0  0  0  0  0  0  0  0  0
   51.6190   85.9650   20.0910 C   0  0  0  0  0  0  0  0  0  0  0  0
   51.7290   84.6270   20.4030 C   0  0  0  0  0  0  0  0  0  0  0  0
   52.4990   83.8390   19.5410 C   0  0  0  0  0  0  0  0  0  0  0  0
   53.1170   84.3660   18.4410 C   0  0  0  0  0  0  0  0  0  0  0  0
   52.9700   85.7230   18.1780 C   0  0  0  0  0  0  0  0  0  0  0  0
   52.6210   82.4930   19.8280 O   0  0  0  0  0  0  0  0  0  0  0  0
   53.7630   82.0090   20.4850 C   0  0  0  0  0  0  0  0  0  0  0  0
   51.0760   84.0280   21.5540 C   0  0  0  0  0  0  0  0  0  0  0  0
   51.4650   84.1120   22.7960 C   0  0  0  0  0  0  0  0  0  0  0  0
   52.5890   84.8040   23.2210 O   0  0  0  0  0  0  0  0  0  0  0  0
   52.7580   84.7200   24.5900 C   0  0  0  0  0  0  0  0  0  0  0  0
   51.7560   83.9640   25.1550 C   0  0  0  0  0  0  0  0  0  0  0  0
   51.7330   83.7510   26.5180 C   0  0  0  0  0  0  0  0  0  0  0  0
   52.7230   84.2990   27.3060 C   0  0  0  0  0  0  0  0  0  0  0  0
   53.7380   85.0680   26.7020 C   0  0  0  0  0  0  0  0  0  0  0  0
   53.7790   85.2930   25.3610 C   0  0  0  0  0  0  0  0  0  0  0  0
   54.7770   86.0840   24.6940 C   0  0  0  0  0  0  0  0  0  0  0  0
   54.5260   87.3770   24.2050 N   0  0  0  0  0  4  0  0  0  0  0  0
   55.0920   88.4560   24.9670 C   0  0  0  0  0  0  0  0  0  0  0  0
   56.5440   88.7310   24.6620 C   0  0  0  0  0  0  0  0  0  0  0  0
   57.1110   87.8140   23.7880 O   0  0  0  0  0  0  0  0  0  0  0  0
   56.3620   87.8740   22.6170 C   0  0  0  0  0  0  0  0  0  0  0  0
   54.9190   87.5300   22.7920 C   0  0  0  0  0  0  0  0  0  0  0  0
   54.6740   85.5590   27.6250 O   0  0  0  0  0  0  0  0  0  0  0  0
   50.9050   83.5570   24.0320 C   0  0  0  0  0  0  0  0  0  0  0  0
   49.8730   82.8550   24.1000 O   0  0  0  0  0  0  0  0  0  0  0  0
   51.0240   86.6140   20.7400 H   0  0  0  0  0  0  0  0  0  0  0  0
   53.7320   83.7930   17.7380 H   0  0  0  0  0  0  0  0  0  0  0  0
   53.4620   86.1590   17.2960 H   0  0  0  0  0  0  0  0  0  0  0  0
   53.8940   80.9050   20.2590 H   0  0  0  0  0  0  0  0  0  0  0  0
   53.6070   82.0770   21.5920 H   0  0  0  0  0  0  0  0  0  0  0  0
   54.7080   82.4800   20.1460 H   0  0  0  0  0  0  0  0  0  0  0  0
   50.1600   83.4410   21.3730 H   0  0  0  0  0  0  0  0  0  0  0  0
   50.9340   83.1530   26.9550 H   0  0  0  0  0  0  0  0  0  0  0  0
   52.7580   84.1680   28.3750 H   0  0  0  0  0  0  0  0  0  0  0  0
   55.7340   86.1780   25.3200 H   0  0  0  0  0  0  0  0  0  0  0  0
   55.2140   85.5070   23.7900 H   0  0  0  0  0  0  0  0  0  0  0  0
   53.4970   87.5320   24.1650 H   0  0  0  0  0  0  0  0  0  0  0  0
   54.5270   89.3820   24.6440 H   0  0  0  0  0  0  0  0  0  0  0  0
   54.9040   88.3440   26.0340 H   0  0  0  0  0  0  0  0  0  0  0  0
   56.7020   89.7450   24.1910 H   0  0  0  0  0  0  0  0  0  0  0  0
   57.1200   88.7720   25.6070 H   0  0  0  0  0  0  0  0  0  0  0  0
   56.7940   87.0840   21.9330 H   0  0  0  0  0  0  0  0  0  0  0  0
   56.5280   88.8680   22.1120 H   0  0  0  0  0  0  0  0  0  0  0  0
   54.6140   86.6180   22.2400 H   0  0  0  0  0  0  0  0  0  0  0  0
   54.3220   88.3540   22.3480 H   0  0  0  0  0  0  0  0  0  0  0  0
  1  2  1  0  0  0  0
  2  3  1  0  0  0  0
  3  4  2  0  0  0  0
  3 29  1  0  0  0  0
  4 10  1  0  0  0  0
  5  8  1  0  0  0  0
  5  4  1  0  0  0  0
  6  5  2  0  0  0  0
  7  6  1  0  0  0  0
  7  2  2  0  0  0  0
  8  9  1  0  0  0  0
  9 33  1  0  0  0  0
 10 11  2  0  0  0  0
 11 12  1  0  0  0  0
 11 27  1  0  0  0  0
 12 13  1  0  0  0  0
 13 14  2  0  0  0  0
 13 18  1  0  0  0  0
 14 15  1  0  0  0  0
 15 36  1  0  0  0  0
 15 16  2  0  0  0  0
 16 37  1  0  0  0  0
 17 16  1  0  0  0  0
 17 26  1  0  0  0  0
 18 17  2  0  0  0  0
 19 38  1  0  0  0  0
 19 18  1  0  0  0  0
 20 19  1  0  0  0  0
 20 21  1  0  0  0  0
 21 42  1  0  0  0  0
 22 21  1  0  0  0  0
 22 44  1  0  0  0  0
 23 22  1  0  0  0  0
 24 25  1  0  0  0  0
 24 23  1  0  0  0  0
 25 20  1  0  0  0  0
 27 28  2  0  0  0  0
 27 14  1  0  0  0  0
 30  6  1  0  0  0  0
 31  7  1  0  0  0  0
 32  9  1  0  0  0  0
 34  9  1  0  0  0  0
 35 10  1  0  0  0  0
 39 19  1  0  0  0  0
 40 20  1  0  0  0  0
 41 21  1  0  0  0  0
 43 22  1  0  0  0  0
 45 24  1  0  0  0  0
 46 24  1  0  0  0  0
 47 25  1  0  0  0  0
 48 25  1  0  0  0  0
M  END
>  <Pose>
1

>  <Score>
-6.75

$$$$
