
 OpenBabel03202210083D

 49 52  0  0  1  0  0  0  0  0999 V2000
   55.0770   93.4120   24.1500 S   0  0  0  0  0  0  0  0  0  0  0  0
   53.6090   93.5940   24.4540 O   0  0  0  0  0  0  0  0  0  0  0  0
   55.5500   92.2490   24.9550 O   0  0  0  0  0  0  0  0  0  0  0  0
   55.2040   93.1260   22.4590 N   0  0  0  0  0  0  0  0  0  0  0  0
   54.2710   93.9710   21.7420 C   0  0  0  0  0  0  0  0  0  0  0  0
   54.2020   93.5600   20.2760 C   0  0  0  0  0  0  0  0  0  0  0  0
   53.7420   92.1720   20.2250 N   0  0  0  0  0  0  0  0  0  0  0  0
   53.7230   91.4940   21.4870 C   0  0  0  0  0  0  0  0  0  0  0  0
   55.0490   91.7350   22.1600 C   0  0  0  0  0  0  0  0  0  0  0  0
   53.3520   91.6260   18.9980 C   0  0  0  0  0  0  0  0  0  0  0  0
   53.3240   92.3960   17.9540 O   0  0  0  0  0  0  0  0  0  0  0  0
   52.9460   90.2490   18.6990 C   0  0  0  0  0  0  0  0  0  0  0  0
   53.8950   88.9950   19.5480 S   0  0  0  0  0  0  0  0  0  0  0  0
   53.2530   87.3410   19.3620 C   0  0  1  0  0  0  0  0  0  0  0  0
   52.4010   87.0370   18.3920 N   0  0  0  0  0  0  0  0  0  0  0  0
   51.9050   85.8120   18.1990 C   0  0  0  0  0  0  0  0  0  0  0  0
   52.2980   84.8150   19.0520 N   0  0  0  0  0  0  0  0  0  0  0  0
   53.1550   85.0880   20.0400 C   0  0  0  0  0  0  0  0  0  0  0  0
   53.7030   84.2900   21.0030 N   0  0  0  0  0  0  0  0  0  0  0  0
   54.5020   85.0260   21.7460 N   0  0  0  0  0  0  0  0  0  0  0  0
   54.5080   86.2890   21.3140 C   0  0  0  0  0  0  0  0  0  0  0  0
   53.6660   86.3580   20.2360 C   0  0  0  0  0  0  0  0  0  0  0  0
   53.4530   82.8870   21.1640 C   0  0  0  0  0  0  0  0  0  0  0  0
   55.9600   94.8630   24.5670 C   0  0  0  0  0  0  0  0  0  0  0  0
   57.2530   95.1240   24.1730 C   0  0  0  0  0  0  0  0  0  0  0  0
   57.8970   96.2810   24.5410 C   0  0  0  0  0  0  0  0  0  0  0  0
   57.2400   97.2250   25.3310 C   0  0  0  0  0  0  0  0  0  0  0  0
   55.9260   96.9720   25.7390 C   0  0  0  0  0  0  0  0  0  0  0  0
   55.3020   95.8060   25.3570 C   0  0  0  0  0  0  0  0  0  0  0  0
   58.0700   98.6880   25.7900 Cl  0  0  0  0  0  0  0  0  0  0  0  0
   54.6510   95.0010   21.7710 H   0  0  0  0  0  0  0  0  0  0  0  0
   53.2670   93.9510   22.1730 H   0  0  0  0  0  0  0  0  0  0  0  0
   53.4520   94.2220   19.7960 H   0  0  0  0  0  0  0  0  0  0  0  0
   55.2060   93.6740   19.8590 H   0  0  0  0  0  0  0  0  0  0  0  0
   53.4640   90.4200   21.4230 H   0  0  0  0  0  0  0  0  0  0  0  0
   52.8900   91.9400   22.0950 H   0  0  0  0  0  0  0  0  0  0  0  0
   55.2200   91.0570   23.0050 H   0  0  0  0  0  0  0  0  0  0  0  0
   55.8260   91.4370   21.3900 H   0  0  0  0  0  0  0  0  0  0  0  0
   53.0820   90.0860   17.6110 H   0  0  0  0  0  0  0  0  0  0  0  0
   51.8730   90.0350   18.8910 H   0  0  0  0  0  0  0  0  0  0  0  0
   51.2170   85.6110   17.3970 H   0  0  0  0  0  0  0  0  0  0  0  0
   55.0700   87.0970   21.7260 H   0  0  0  0  0  0  0  0  0  0  0  0
   53.3670   82.3460   20.1810 H   0  0  0  0  0  0  0  0  0  0  0  0
   54.2890   82.4400   21.7710 H   0  0  0  0  0  0  0  0  0  0  0  0
   52.5010   82.7690   21.7150 H   0  0  0  0  0  0  0  0  0  0  0  0
   57.7570   94.3970   23.5630 H   0  0  0  0  0  0  0  0  0  0  0  0
   58.9060   96.5160   24.2460 H   0  0  0  0  0  0  0  0  0  0  0  0
   55.4410   97.7270   26.3580 H   0  0  0  0  0  0  0  0  0  0  0  0
   54.3010   95.6090   25.6650 H   0  0  0  0  0  0  0  0  0  0  0  0
  1  2  2  0  0  0  0
  1 24  1  0  0  0  0
  1  3  2  0  0  0  0
  4  1  1  0  0  0  0
  5 31  1  0  0  0  0
  5 32  1  0  0  0  0
  5  4  1  0  0  0  0
  6  5  1  0  0  0  0
  7  6  1  0  0  0  0
  7  8  1  0  0  0  0
  8 36  1  0  0  0  0
  8  9  1  0  0  0  0
  9  4  1  0  0  0  0
  9 37  1  0  0  0  0
 10  7  1  0  0  0  0
 11 10  2  0  0  0  0
 12 40  1  0  0  0  0
 12 10  1  0  0  0  0
 12 13  1  0  0  0  0
 14 13  1  6  0  0  0
 14 22  1  0  0  0  0
 15 14  1  0  0  0  0
 16 15  2  0  0  0  0
 16 17  1  0  0  0  0
 17 18  1  0  0  0  0
 18 22  2  0  0  0  0
 18 19  1  0  0  0  0
 19 23  1  0  0  0  0
 19 20  1  0  0  0  0
 21 42  1  0  0  0  0
 21 20  2  0  0  0  0
 22 21  1  0  0  0  0
 23 45  1  0  0  0  0
 23 44  1  0  0  0  0
 24 29  1  0  0  0  0
 25 26  1  0  0  0  0
 25 24  2  0  0  0  0
 26 27  2  0  0  0  0
 27 28  1  0  0  0  0
 27 30  1  0  0  0  0
 28 48  1  0  0  0  0
 29 49  1  0  0  0  0
 29 28  2  0  0  0  0
 33  6  1  0  0  0  0
 34  6  1  0  0  0  0
 35  8  1  0  0  0  0
 38  9  1  0  0  0  0
 39 12  1  0  0  0  0
 41 16  1  0  0  0  0
 43 23  1  0  0  0  0
 46 25  1  0  0  0  0
 47 26  1  0  0  0  0
M  END
>  <Pose>
1

>  <Score>
-7.77

$$$$
