
 OpenBabel03202210083D

 45 48  0  0  0  0  0  0  0  0999 V2000
   55.8140   97.1490   26.7790 S   0  0  0  0  0  0  0  0  0  0  0  0
   56.6970   97.5800   27.9280 O   0  0  0  0  0  0  0  0  0  0  0  0
   55.9840   98.1320   25.6820 O   0  0  0  0  0  0  0  0  0  0  0  0
   56.2820   95.5630   26.2970 N   0  0  0  0  0  0  0  0  0  0  0  0
   56.8800   95.6210   25.0140 C   0  0  0  0  0  0  0  0  0  0  0  0
   56.3710   94.6730   23.9660 C   0  0  0  0  0  0  0  0  0  0  0  0
   54.9820   94.4360   24.1840 N   0  0  0  0  0  0  0  0  0  0  0  0
   54.8890   93.7190   25.4550 C   0  0  0  0  0  0  0  0  0  0  0  0
   55.2380   94.6600   26.5470 C   0  0  0  0  0  0  0  0  0  0  0  0
   54.3160   93.7300   23.1430 C   0  0  0  0  0  0  0  0  0  0  0  0
   55.1070   92.5610   22.6660 C   0  0  0  0  0  0  0  0  0  0  0  0
   54.6480   92.0690   21.3840 N   0  0  0  0  0  0  0  0  0  0  0  0
   53.5120   92.3790   20.7600 N   0  0  0  0  0  0  0  0  0  0  0  0
   53.4360   91.7390   19.5850 C   0  0  0  0  0  0  0  0  0  0  0  0
   54.5490   91.0060   19.4610 N   0  0  0  0  0  0  0  0  0  0  0  0
   54.7660   90.2380   18.3660 C   0  0  0  0  0  0  0  0  0  0  0  0
   53.8630   90.1690   17.3290 C   0  0  0  0  0  0  0  0  0  0  0  0
   52.7060   90.9150   17.4300 C   0  0  0  0  0  0  0  0  0  0  0  0
   52.5130   91.6870   18.5560 C   0  0  0  0  0  0  0  0  0  0  0  0
   55.2940   91.2190   20.5850 C   0  0  0  0  0  0  0  0  0  0  0  0
   56.4010   90.6550   20.7520 O   0  0  0  0  0  0  0  0  0  0  0  0
   54.1120   97.1630   27.2640 C   0  0  0  0  0  0  0  0  0  0  0  0
   53.1370   98.4750   27.7470 S   0  0  0  0  0  0  0  0  0  0  0  0
   51.6770   97.6450   28.0290 C   0  0  0  0  0  0  0  0  0  0  0  0
   51.9970   96.3470   27.7340 C   0  0  0  0  0  0  0  0  0  0  0  0
   53.2510   96.0980   27.3400 C   0  0  0  0  0  0  0  0  0  0  0  0
   49.9750   98.3310   28.6180 B   0  0  0  0  0  0  0  0  0  0  0  0
   56.6980   96.6640   24.6020 H   0  0  0  0  0  0  0  0  0  0  0  0
   57.9980   95.4930   25.1500 H   0  0  0  0  0  0  0  0  0  0  0  0
   56.6220   95.1260   22.9850 H   0  0  0  0  0  0  0  0  0  0  0  0
   56.9670   93.7240   24.1190 H   0  0  0  0  0  0  0  0  0  0  0  0
   53.8840   93.3120   25.6240 H   0  0  0  0  0  0  0  0  0  0  0  0
   55.6800   92.9340   25.4070 H   0  0  0  0  0  0  0  0  0  0  0  0
   54.2900   95.2010   26.8310 H   0  0  0  0  0  0  0  0  0  0  0  0
   55.5300   94.0320   27.4370 H   0  0  0  0  0  0  0  0  0  0  0  0
   53.3050   93.3380   23.4750 H   0  0  0  0  0  0  0  0  0  0  0  0
   54.1440   94.4400   22.2840 H   0  0  0  0  0  0  0  0  0  0  0  0
   56.1740   92.8880   22.5130 H   0  0  0  0  0  0  0  0  0  0  0  0
   55.0800   91.7040   23.3910 H   0  0  0  0  0  0  0  0  0  0  0  0
   55.6780   89.6520   18.2900 H   0  0  0  0  0  0  0  0  0  0  0  0
   54.0210   89.5620   16.4490 H   0  0  0  0  0  0  0  0  0  0  0  0
   51.9820   90.8710   16.6170 H   0  0  0  0  0  0  0  0  0  0  0  0
   51.6070   92.2640   18.6230 H   0  0  0  0  0  0  0  0  0  0  0  0
   51.2180   95.5580   27.8290 H   0  0  0  0  0  0  0  0  0  0  0  0
   53.6090   95.0720   27.0770 H   0  0  0  0  0  0  0  0  0  0  0  0
  1 22  1  0  0  0  0
  1  2  2  0  0  0  0
  3  1  2  0  0  0  0
  4  9  1  0  0  0  0
  4  1  1  0  0  0  0
  5 29  1  0  0  0  0
  5  4  1  0  0  0  0
  6 31  1  0  0  0  0
  6  7  1  0  0  0  0
  6  5  1  0  0  0  0
  7  8  1  0  0  0  0
  8 32  1  0  0  0  0
  8  9  1  0  0  0  0
  9 34  1  0  0  0  0
  9 35  1  0  0  0  0
 10 36  1  0  0  0  0
 10  7  1  0  0  0  0
 11 10  1  0  0  0  0
 11 39  1  0  0  0  0
 12 11  1  0  0  0  0
 13 12  1  0  0  0  0
 14 13  2  0  0  0  0
 15 14  1  0  0  0  0
 15 20  1  0  0  0  0
 16 15  1  0  0  0  0
 17 18  1  0  0  0  0
 17 16  2  0  0  0  0
 18 19  2  0  0  0  0
 19 43  1  0  0  0  0
 19 14  1  0  0  0  0
 20 21  2  0  0  0  0
 20 12  1  0  0  0  0
 22 26  2  0  0  0  0
 22 23  1  0  0  0  0
 23 24  1  0  0  0  0
 24 27  1  0  0  0  0
 25 44  1  0  0  0  0
 25 24  2  0  0  0  0
 26 25  1  0  0  0  0
 28  5  1  0  0  0  0
 30  6  1  0  0  0  0
 33  8  1  0  0  0  0
 37 10  1  0  0  0  0
 38 11  1  0  0  0  0
 40 16  1  0  0  0  0
 41 17  1  0  0  0  0
 42 18  1  0  0  0  0
 45 26  1  0  0  0  0
M  END
>  <Pose>
1

>  <Score>
-7.23

$$$$
