
 OpenBabel03202210083D

 52 55  0  0  0  0  0  0  0  0999 V2000
   53.2380   98.6220   27.6260 Cl  0  0  0  0  0  0  0  0  0  0  0  0
   53.7360   97.1330   26.7860 C   0  0  0  0  0  0  0  0  0  0  0  0
   54.8620   97.0710   25.9730 C   0  0  0  0  0  0  0  0  0  0  0  0
   55.1970   95.9290   25.2690 C   0  0  0  0  0  0  0  0  0  0  0  0
   54.3860   94.7820   25.3620 C   0  0  0  0  0  0  0  0  0  0  0  0
   53.3040   94.8690   26.1640 C   0  0  0  0  0  0  0  0  0  0  0  0
   52.9470   96.0000   26.8760 C   0  0  0  0  0  0  0  0  0  0  0  0
   54.7780   93.6220   24.5370 C   0  0  0  0  0  0  0  0  0  0  0  0
   54.4620   93.5470   23.2000 C   0  0  0  0  0  0  0  0  0  0  0  0
   54.7620   92.3690   22.5020 C   0  0  0  0  0  0  0  0  0  0  0  0
   55.3670   91.3000   23.1240 C   0  0  0  0  0  0  0  0  0  0  0  0
   55.7010   90.0890   22.5160 C   0  0  0  0  0  0  0  0  0  0  0  0
   55.3460   90.0330   21.1450 C   0  0  0  0  0  0  0  0  0  0  0  0
   54.7300   91.0900   20.4810 C   0  0  0  0  0  0  0  0  0  0  0  0
   54.4400   92.2540   21.1730 C   0  0  0  0  0  0  0  0  0  0  0  0
   55.5830   88.9250   20.3550 O   0  0  0  0  0  0  0  0  0  0  0  0
   56.1720   88.8950   23.1240 C   0  0  0  0  0  0  0  0  0  0  0  0
   56.9900   88.8420   24.3090 N   0  0  0  0  0  4  0  0  0  0  0  0
   56.1680   88.6280   25.5320 C   0  0  0  0  0  0  0  0  0  0  0  0
   55.0880   87.6440   25.2510 C   0  0  0  0  0  0  0  0  0  0  0  0
   55.5380   86.3320   24.8440 N   0  0  0  0  0  0  0  0  0  0  0  0
   56.7930   86.3570   24.1720 C   0  0  0  0  0  0  0  0  0  0  0  0
   57.6740   87.5090   24.2930 C   0  0  0  0  0  0  0  0  0  0  0  0
   54.5210   85.6850   24.0010 C   0  0  0  0  0  0  0  0  0  0  0  0
   53.3150   85.2460   24.7990 C   0  0  0  0  0  0  0  0  0  0  0  0
   52.1750   85.1170   24.0200 O   0  0  0  0  0  0  0  0  0  0  0  0
   55.6420   91.4130   24.3610 O   0  0  0  0  0  0  0  0  0  0  0  0
   55.3930   92.4900   25.1110 C   0  0  0  0  0  0  0  0  0  0  0  0
   55.6950   92.5340   26.3090 O   0  0  0  0  0  0  0  0  0  0  0  0
   55.4590   97.9630   25.9050 H   0  0  0  0  0  0  0  0  0  0  0  0
   56.0760   95.9030   24.6350 H   0  0  0  0  0  0  0  0  0  0  0  0
   52.6340   94.0270   26.2970 H   0  0  0  0  0  0  0  0  0  0  0  0
   52.0730   96.0200   27.5090 H   0  0  0  0  0  0  0  0  0  0  0  0
   53.9960   94.3580   22.6690 H   0  0  0  0  0  0  0  0  0  0  0  0
   54.5050   91.0710   19.4410 H   0  0  0  0  0  0  0  0  0  0  0  0
   53.9080   93.0810   20.6630 H   0  0  0  0  0  0  0  0  0  0  0  0
   57.0690   88.5990   22.3450 H   0  0  0  0  0  0  0  0  0  0  0  0
   55.5710   88.0360   22.9380 H   0  0  0  0  0  0  0  0  0  0  0  0
   57.7190   89.5030   24.4490 H   0  0  0  0  0  0  0  0  0  0  0  0
   55.8560   89.5280   26.0260 H   0  0  0  0  0  0  0  0  0  0  0  0
   56.8910   88.1250   26.2740 H   0  0  0  0  0  0  0  0  0  0  0  0
   54.3490   88.0400   24.5450 H   0  0  0  0  0  0  0  0  0  0  0  0
   54.5520   87.4980   26.2310 H   0  0  0  0  0  0  0  0  0  0  0  0
   56.6190   86.0850   23.1050 H   0  0  0  0  0  0  0  0  0  0  0  0
   57.3970   85.4580   24.5670 H   0  0  0  0  0  0  0  0  0  0  0  0
   58.4210   87.5630   23.4670 H   0  0  0  0  0  0  0  0  0  0  0  0
   58.2100   87.4380   25.2900 H   0  0  0  0  0  0  0  0  0  0  0  0
   55.0020   84.8210   23.5380 H   0  0  0  0  0  0  0  0  0  0  0  0
   54.1410   86.3460   23.1950 H   0  0  0  0  0  0  0  0  0  0  0  0
   53.1590   85.7800   25.7290 H   0  0  0  0  0  0  0  0  0  0  0  0
   53.6010   84.1900   25.1420 H   0  0  0  0  0  0  0  0  0  0  0  0
   51.6240   85.9550   24.1310 H   0  0  0  0  0  0  0  0  0  0  0  0
  2  7  1  0  0  0  0
  2  1  1  0  0  0  0
  3  2  2  0  0  0  0
  4  5  2  0  0  0  0
  4  3  1  0  0  0  0
  5  6  1  0  0  0  0
  6 32  1  0  0  0  0
  6  7  2  0  0  0  0
  7 33  1  0  0  0  0
  8 28  1  0  0  0  0
  8  5  1  0  0  0  0
  9  8  2  0  0  0  0
 10 11  1  0  0  0  0
 10  9  1  0  0  0  0
 11 27  1  0  0  0  0
 12 11  2  0  0  0  0
 12 17  1  0  0  0  0
 13 12  1  0  0  0  0
 14 13  2  0  0  0  0
 14 15  1  0  0  0  0
 15 10  2  0  0  0  0
 16 13  1  0  0  0  0
 17 18  1  0  0  0  0
 18 39  1  0  0  0  0
 18 19  1  0  0  0  0
 19 40  1  0  0  0  0
 19 41  1  0  0  0  0
 20 19  1  0  0  0  0
 20 43  1  0  0  0  0
 21 20  1  0  0  0  0
 22 23  1  0  0  0  0
 22 45  1  0  0  0  0
 22 21  1  0  0  0  0
 23 18  1  0  0  0  0
 23 47  1  0  0  0  0
 24 25  1  0  0  0  0
 24 21  1  0  0  0  0
 25 51  1  0  0  0  0
 25 50  1  0  0  0  0
 26 52  1  0  0  0  0
 26 25  1  0  0  0  0
 27 28  1  0  0  0  0
 28 29  2  0  0  0  0
 30  3  1  0  0  0  0
 31  4  1  0  0  0  0
 34  9  1  0  0  0  0
 35 14  1  0  0  0  0
 36 15  1  0  0  0  0
 37 17  1  0  0  0  0
 38 17  1  0  0  0  0
 42 20  1  0  0  0  0
 44 22  1  0  0  0  0
 46 23  1  0  0  0  0
 48 24  1  0  0  0  0
 49 24  1  0  0  0  0
M  END
>  <Pose>
1

>  <Score>
-6.92

$$$$
