
 OpenBabel03202210083D

 43 46  0  0  0  0  0  0  0  0999 V2000
   53.5770   90.7640   18.0820 B   0  0  0  0  0  0  0  0  0  0  0  0
   54.5320   90.8930   19.7310 C   0  0  0  0  0  0  0  0  0  0  0  0
   55.5690   90.0550   19.9960 C   0  0  0  0  0  0  0  0  0  0  0  0
   56.2440   90.1330   21.1420 N   0  0  0  0  0  0  0  0  0  0  0  0
   55.9000   91.0530   22.0550 C   0  0  0  0  0  0  0  0  0  0  0  0
   54.8480   91.9360   21.8370 C   0  0  0  0  0  0  0  0  0  0  0  0
   54.1460   91.8620   20.6560 C   0  0  0  0  0  0  0  0  0  0  0  0
   54.5500   92.8980   22.8710 C   0  0  0  0  0  0  0  0  0  0  0  0
   53.7260   93.8070   22.6760 O   0  0  0  0  0  0  0  0  0  0  0  0
   55.2210   92.8260   24.1850 N   0  0  0  0  0  0  0  0  0  0  0  0
   56.2420   93.7560   24.3930 C   0  0  0  0  0  0  0  0  0  0  0  0
   56.0940   95.0440   25.0360 C   0  0  0  0  0  0  0  0  0  0  0  0
   57.1770   95.9290   24.6920 C   0  0  0  0  0  0  0  0  0  0  0  0
   57.2170   97.1730   25.2070 C   0  0  0  0  0  0  0  0  0  0  0  0
   56.2140   97.6300   26.0820 C   0  0  0  0  0  0  0  0  0  0  0  0
   55.1730   96.7990   26.4200 C   0  0  0  0  0  0  0  0  0  0  0  0
   55.1200   95.5010   25.8870 C   0  0  0  0  0  0  0  0  0  0  0  0
   53.9540   94.6240   26.1650 C   0  0  0  0  0  0  0  0  0  0  0  0
   52.7290   95.3780   26.6740 C   0  0  0  0  0  0  0  0  0  0  0  0
   53.0760   96.3230   27.7090 N   0  0  0  0  0  0  0  0  0  0  0  0
   54.1330   97.2250   27.3510 C   0  0  0  0  0  0  0  0  0  0  0  0
   54.1000   98.3570   27.8750 O   0  0  0  0  0  0  0  0  0  0  0  0
   52.4140   96.3560   28.9950 C   0  0  0  0  0  0  0  0  0  0  0  0
   56.3270   98.8840   26.5550 O   0  0  0  0  0  0  0  0  0  0  0  0
   58.3690   97.7930   24.7000 O   0  0  0  0  0  0  0  0  0  0  0  0
   59.1870   96.8370   24.0600 C   0  0  0  0  0  0  0  0  0  0  0  0
   58.2930   95.7590   23.8670 O   0  0  0  0  0  0  0  0  0  0  0  0
   55.9020   89.2770   19.2890 H   0  0  0  0  0  0  0  0  0  0  0  0
   56.4280   91.1470   23.0000 H   0  0  0  0  0  0  0  0  0  0  0  0
   53.3290   92.5330   20.4550 H   0  0  0  0  0  0  0  0  0  0  0  0
   54.8450   92.0530   24.7540 H   0  0  0  0  0  0  0  0  0  0  0  0
   57.0980   93.1750   24.9440 H   0  0  0  0  0  0  0  0  0  0  0  0
   56.8080   93.8960   23.3780 H   0  0  0  0  0  0  0  0  0  0  0  0
   54.1540   93.8420   26.9050 H   0  0  0  0  0  0  0  0  0  0  0  0
   53.5740   94.1630   25.2210 H   0  0  0  0  0  0  0  0  0  0  0  0
   52.0360   94.5870   27.0550 H   0  0  0  0  0  0  0  0  0  0  0  0
   52.2940   95.8990   25.7930 H   0  0  0  0  0  0  0  0  0  0  0  0
   52.8270   95.5010   29.5840 H   0  0  0  0  0  0  0  0  0  0  0  0
   51.3300   96.1840   28.8700 H   0  0  0  0  0  0  0  0  0  0  0  0
   52.6720   97.2840   29.5220 H   0  0  0  0  0  0  0  0  0  0  0  0
   57.0020   99.5570   26.4300 H   0  0  0  0  0  0  0  0  0  0  0  0
   59.5960   97.2160   23.1000 H   0  0  0  0  0  0  0  0  0  0  0  0
   60.0090   96.5930   24.7510 H   0  0  0  0  0  0  0  0  0  0  0  0
  1  2  1  0  0  0  0
  2  3  2  0  0  0  0
  2  7  1  0  0  0  0
  3  4  1  0  0  0  0
  4  5  2  0  0  0  0
  5 29  1  0  0  0  0
  6  5  1  0  0  0  0
  6  8  1  0  0  0  0
  7  6  2  0  0  0  0
  8 10  1  0  0  0  0
  9  8  2  0  0  0  0
 10 11  1  0  0  0  0
 10 31  1  0  0  0  0
 11 32  1  0  0  0  0
 11 12  1  0  0  0  0
 12 17  1  0  0  0  0
 13 12  2  0  0  0  0
 13 14  1  0  0  0  0
 14 15  2  0  0  0  0
 15 16  1  0  0  0  0
 15 24  1  0  0  0  0
 16 21  1  0  0  0  0
 17 18  1  0  0  0  0
 17 16  2  0  0  0  0
 18 19  1  0  0  0  0
 18 34  1  0  0  0  0
 19 36  1  0  0  0  0
 19 20  1  0  0  0  0
 20 23  1  0  0  0  0
 21 20  1  0  0  0  0
 21 22  2  0  0  0  0
 23 40  1  0  0  0  0
 23 38  1  0  0  0  0
 25 14  1  0  0  0  0
 26 25  1  0  0  0  0
 26 43  1  0  0  0  0
 27 26  1  0  0  0  0
 27 13  1  0  0  0  0
 28  3  1  0  0  0  0
 30  7  1  0  0  0  0
 33 11  1  0  0  0  0
 35 18  1  0  0  0  0
 37 19  1  0  0  0  0
 39 23  1  0  0  0  0
 41 24  1  0  0  0  0
 42 26  1  0  0  0  0
M  END
>  <Pose>
1

>  <Score>
-7.61

$$$$
