
 OpenBabel03202210083D

 38 41  0  0  1  0  0  0  0  0999 V2000
   58.2130   87.0970   24.7550 Cl  0  0  0  0  0  0  0  0  0  0  0  0
   56.6140   87.6010   24.2480 C   0  0  0  0  0  0  0  0  0  0  0  0
   56.2130   87.4600   22.9190 C   0  0  0  0  0  0  0  0  0  0  0  0
   54.9780   87.8400   22.4850 C   0  0  0  0  0  0  0  0  0  0  0  0
   54.1250   88.3800   23.4370 C   0  0  0  0  0  0  0  0  0  0  0  0
   54.5030   88.5270   24.7540 C   0  0  0  0  0  0  0  0  0  0  0  0
   55.7550   88.1380   25.1740 C   0  0  0  0  0  0  0  0  0  0  0  0
   54.8710   87.5600   21.0380 C   0  0  2  0  0  0  0  0  0  0  0  0
   54.6740   88.8430   20.2710 C   0  0  0  0  0  0  0  0  0  0  0  0
   53.6700   89.0540   19.4670 C   0  0  0  0  0  0  0  0  0  0  0  0
   52.6630   88.0680   19.2480 N   0  0  0  0  0  0  0  0  0  0  0  0
   52.7700   86.8320   19.9300 C   0  0  0  0  0  0  0  0  0  0  0  0
   53.7780   86.6080   20.7430 C   0  0  0  0  0  0  0  0  0  0  0  0
   53.8500   85.3230   21.4240 C   0  0  0  0  0  0  0  0  0  0  0  0
   53.9040   84.2940   21.9500 N   0  0  0  0  0  0  0  0  0  0  0  0
   51.8000   85.7940   19.7620 N   0  0  0  0  0  0  0  0  0  0  0  0
   53.7960   90.4080   18.8900 C   0  0  0  0  0  0  0  0  0  0  0  0
   54.9420   90.9400   19.4290 O   0  0  0  0  0  0  0  0  0  0  0  0
   55.5220   90.0290   20.2810 C   0  0  0  0  0  0  0  0  0  0  0  0
   56.5960   90.1640   20.9640 O   0  0  0  0  0  0  0  0  0  0  0  0
   52.5410   91.1930   19.1980 C   0  0  0  0  0  0  0  0  0  0  0  0
   53.9490   90.3670   17.3800 C   0  0  0  0  0  0  0  0  0  0  0  0
   56.1830   86.9730   20.6780 C   0  0  0  0  0  0  0  0  0  0  0  0
   56.5480   86.5740   19.5140 O   0  0  0  0  0  0  0  0  0  0  0  0
   56.9710   86.9290   21.8450 N   0  0  0  0  0  0  0  0  0  0  0  0
   53.1380   88.6980   23.1520 H   0  0  0  0  0  0  0  0  0  0  0  0
   53.8400   88.9510   25.5090 H   0  0  0  0  0  0  0  0  0  0  0  0
   56.0800   88.2410   26.2000 H   0  0  0  0  0  0  0  0  0  0  0  0
   51.8580   88.2300   18.6070 H   0  0  0  0  0  0  0  0  0  0  0  0
   52.0280   84.8180   19.9930 H   0  0  0  0  0  0  0  0  0  0  0  0
   50.8710   86.0470   19.4030 H   0  0  0  0  0  0  0  0  0  0  0  0
   52.6450   92.2580   18.9210 H   0  0  0  0  0  0  0  0  0  0  0  0
   52.1610   91.0200   20.2100 H   0  0  0  0  0  0  0  0  0  0  0  0
   51.7490   90.7860   18.5020 H   0  0  0  0  0  0  0  0  0  0  0  0
   54.7180   89.5680   17.1820 H   0  0  0  0  0  0  0  0  0  0  0  0
   54.3560   91.3500   17.0730 H   0  0  0  0  0  0  0  0  0  0  0  0
   53.0070   90.1930   16.8570 H   0  0  0  0  0  0  0  0  0  0  0  0
   57.9670   86.5510   21.8730 H   0  0  0  0  0  0  0  0  0  0  0  0
  2  1  1  0  0  0  0
  2  7  1  0  0  0  0
  3  2  2  0  0  0  0
  4  3  1  0  0  0  0
  4  5  2  0  0  0  0
  5  6  1  0  0  0  0
  6  7  2  0  0  0  0
  6 27  1  0  0  0  0
  7 28  1  0  0  0  0
  8  9  1  6  0  0  0
  8  4  1  0  0  0  0
  9 19  1  0  0  0  0
 10  9  2  0  0  0  0
 11 10  1  0  0  0  0
 11 12  1  0  0  0  0
 12 13  2  0  0  0  0
 13  8  1  0  0  0  0
 13 14  1  0  0  0  0
 14 15  3  0  0  0  0
 16 12  1  0  0  0  0
 16 30  1  0  0  0  0
 17 21  1  0  0  0  0
 17 18  1  0  0  0  0
 17 10  1  0  0  0  0
 18 19  1  0  0  0  0
 19 20  2  0  0  0  0
 21 33  1  0  0  0  0
 22 17  1  0  0  0  0
 23  8  1  0  0  0  0
 23 25  1  0  0  0  0
 24 23  2  0  0  0  0
 25 38  1  0  0  0  0
 25  3  1  0  0  0  0
 26  5  1  0  0  0  0
 29 11  1  0  0  0  0
 31 16  1  0  0  0  0
 32 21  1  0  0  0  0
 34 21  1  0  0  0  0
 35 22  1  0  0  0  0
 36 22  1  0  0  0  0
 37 22  1  0  0  0  0
M  END
>  <Pose>
1

>  <Score>
-4.64

$$$$
