
 OpenBabel03202210083D

 52 55  0  0  0  0  0  0  0  0999 V2000
   51.4790   84.2300   22.8470 B   0  0  0  0  0  0  0  0  0  0  0  0
   53.0770   84.6170   23.8010 C   0  0  0  0  0  0  0  0  0  0  0  0
   53.4530   83.7600   24.8230 C   0  0  0  0  0  0  0  0  0  0  0  0
   54.6150   84.0660   25.5060 C   0  0  0  0  0  0  0  0  0  0  0  0
   55.3580   85.1720   25.1820 C   0  0  0  0  0  0  0  0  0  0  0  0
   55.0010   86.0470   24.1560 C   0  0  0  0  0  0  0  0  0  0  0  0
   53.8400   85.7260   23.4880 C   0  0  0  0  0  0  0  0  0  0  0  0
   55.8430   87.1850   23.8510 C   0  0  0  0  0  0  0  0  0  0  0  0
   55.3560   88.3140   23.4670 N   0  0  0  0  0  0  0  0  0  0  0  0
   56.1200   89.4270   23.1610 N   0  0  0  0  0  0  0  0  0  0  0  0
   55.5000   90.6380   22.7470 C   0  0  0  0  0  0  0  0  0  0  0  0
   55.4800   91.6890   23.5520 N   0  0  0  0  0  4  0  0  0  0  0  0
   54.9440   92.8790   23.2320 C   0  0  0  0  0  0  0  0  0  0  0  0
   54.3940   92.9840   22.0020 N   0  0  0  0  0  0  0  0  0  0  0  0
   54.3820   91.9400   21.1300 C   0  0  0  0  0  0  0  0  0  0  0  0
   54.9420   90.7700   21.5240 N   0  0  0  0  0  0  0  0  0  0  0  0
   53.8190   92.0690   19.8450 N   0  0  0  0  0  0  0  0  0  0  0  0
   54.6000   92.5320   18.7270 C   0  0  0  0  0  0  0  0  0  0  0  0
   54.4150   91.4680   17.6350 C   0  0  0  0  0  0  0  0  0  0  0  0
   53.0660   91.2650   17.4310 O   0  0  0  0  0  0  0  0  0  0  0  0
   52.4960   90.6220   18.5290 C   0  0  0  0  0  0  0  0  0  0  0  0
   52.4410   91.7120   19.6210 C   0  0  0  0  0  0  0  0  0  0  0  0
   54.9500   93.9930   24.1390 N   0  0  0  0  0  0  0  0  0  0  0  0
   53.8230   94.2790   24.9800 C   0  0  0  0  0  0  0  0  0  0  0  0
   54.0270   95.2820   26.0470 C   0  0  0  0  0  0  0  0  0  0  0  0
   55.1490   96.0820   25.8810 O   0  0  0  0  0  0  0  0  0  0  0  0
   56.2850   95.3370   25.5940 C   0  0  0  0  0  0  0  0  0  0  0  0
   56.1200   94.8200   24.1860 C   0  0  0  0  0  0  0  0  0  0  0  0
   56.5330   85.4760   25.8780 O   0  0  0  0  0  0  0  0  0  0  0  0
   52.7050   82.6350   25.1610 O   0  0  0  0  0  0  0  0  0  0  0  0
   54.8950   83.3790   26.3100 H   0  0  0  0  0  0  0  0  0  0  0  0
   53.5430   86.4090   22.6770 H   0  0  0  0  0  0  0  0  0  0  0  0
   56.9130   87.0950   23.9440 H   0  0  0  0  0  0  0  0  0  0  0  0
   57.1440   89.3840   23.2300 H   0  0  0  0  0  0  0  0  0  0  0  0
   54.2000   93.5000   18.3620 H   0  0  0  0  0  0  0  0  0  0  0  0
   55.6860   92.6080   18.9880 H   0  0  0  0  0  0  0  0  0  0  0  0
   54.9400   91.8200   16.7300 H   0  0  0  0  0  0  0  0  0  0  0  0
   54.9110   90.5440   18.0250 H   0  0  0  0  0  0  0  0  0  0  0  0
   53.2480   89.8670   18.9070 H   0  0  0  0  0  0  0  0  0  0  0  0
   51.5220   90.1890   18.3150 H   0  0  0  0  0  0  0  0  0  0  0  0
   51.9510   92.5950   19.1160 H   0  0  0  0  0  0  0  0  0  0  0  0
   51.9030   91.3770   20.5130 H   0  0  0  0  0  0  0  0  0  0  0  0
   52.9790   94.5750   24.2970 H   0  0  0  0  0  0  0  0  0  0  0  0
   53.5300   93.2990   25.4680 H   0  0  0  0  0  0  0  0  0  0  0  0
   54.0530   94.7930   27.0550 H   0  0  0  0  0  0  0  0  0  0  0  0
   53.1420   95.9680   26.0640 H   0  0  0  0  0  0  0  0  0  0  0  0
   57.1550   95.9850   25.7240 H   0  0  0  0  0  0  0  0  0  0  0  0
   56.3720   94.4230   26.2400 H   0  0  0  0  0  0  0  0  0  0  0  0
   57.0540   94.2320   23.9810 H   0  0  0  0  0  0  0  0  0  0  0  0
   56.0850   95.6400   23.4380 H   0  0  0  0  0  0  0  0  0  0  0  0
   56.6410   85.1130   26.8200 H   0  0  0  0  0  0  0  0  0  0  0  0
   51.8130   82.4100   24.7470 H   0  0  0  0  0  0  0  0  0  0  0  0
  1  2  1  0  0  0  0
  2  3  1  0  0  0  0
  3 30  1  0  0  0  0
  3  4  2  0  0  0  0
  4 31  1  0  0  0  0
  5  4  1  0  0  0  0
  5 29  1  0  0  0  0
  6  5  2  0  0  0  0
  7  2  2  0  0  0  0
  7  6  1  0  0  0  0
  8 33  1  0  0  0  0
  8  6  1  0  0  0  0
  9  8  2  0  0  0  0
 10 34  1  0  0  0  0
 10  9  1  0  0  0  0
 11 10  1  0  0  0  0
 11 12  2  0  0  0  0
 13 12  2  0  0  0  0
 13 23  1  0  0  0  0
 14 13  1  0  0  0  0
 15 16  1  0  0  0  0
 15 14  2  0  0  0  0
 16 11  1  0  0  0  0
 17 15  1  0  0  0  0
 18 36  1  0  0  0  0
 18 17  1  0  0  0  0
 19 38  1  0  0  0  0
 19 18  1  0  0  0  0
 20 19  1  0  0  0  0
 20 21  1  0  0  0  0
 21 39  1  0  0  0  0
 21 22  1  0  0  0  0
 22 17  1  0  0  0  0
 22 42  1  0  0  0  0
 23 28  1  0  0  0  0
 23 24  1  0  0  0  0
 24 44  1  0  0  0  0
 24 25  1  0  0  0  0
 25 46  1  0  0  0  0
 25 45  1  0  0  0  0
 26 25  1  0  0  0  0
 27 47  1  0  0  0  0
 27 26  1  0  0  0  0
 27 48  1  0  0  0  0
 28 27  1  0  0  0  0
 29 51  1  0  0  0  0
 32  7  1  0  0  0  0
 35 18  1  0  0  0  0
 37 19  1  0  0  0  0
 40 21  1  0  0  0  0
 41 22  1  0  0  0  0
 43 24  1  0  0  0  0
 49 28  1  0  0  0  0
 50 28  1  0  0  0  0
 52 30  1  0  0  0  0
M  END
>  <Pose>
1

>  <Score>
-7.16

$$$$
