
 OpenBabel03202210083D

 56 59  0  0  1  0  0  0  0  0999 V2000
   57.0750   98.4250   26.7090 Cl  0  0  0  0  0  0  0  0  0  0  0  0
   56.2660   96.9000   26.3410 C   0  0  0  0  0  0  0  0  0  0  0  0
   56.5130   96.3110   25.1420 C   0  0  0  0  0  0  0  0  0  0  0  0
   55.8560   95.1040   24.8780 C   0  0  0  0  0  0  0  0  0  0  0  0
   55.0100   94.5320   25.7620 C   0  0  0  0  0  0  0  0  0  0  0  0
   54.5460   93.3800   25.1880 N   0  0  0  0  0  0  0  0  0  0  0  0
   55.0720   93.2100   23.9730 C   0  0  0  0  0  0  0  0  0  0  0  0
   55.9120   94.3000   23.7560 C   0  0  0  0  0  0  0  0  0  0  0  0
   54.8560   92.1760   22.9980 C   0  0  0  0  0  0  0  0  0  0  0  0
   54.2970   91.0750   23.5170 O   0  0  0  0  0  0  0  0  0  0  0  0
   55.1000   92.0750   21.6450 N   0  0  0  0  0  0  0  0  0  0  0  0
   56.5560   91.9290   21.3640 C   0  0  0  0  0  0  0  0  0  0  0  0
   56.9110   90.4540   21.3570 C   0  0  0  0  0  0  0  0  0  0  0  0
   55.6690   89.6900   21.1000 C   0  0  1  0  0  0  0  0  0  0  0  0
   55.0570   90.0730   19.7920 C   0  0  2  0  0  0  0  0  0  0  0  0
   53.7040   90.7230   20.1310 C   0  0  0  0  0  0  0  0  0  0  0  0
   54.0910   92.1230   20.6430 C   0  0  0  0  0  0  0  0  0  0  0  0
   54.8960   89.0080   18.9080 O   0  0  0  0  0  0  0  0  0  0  0  0
   55.7140   88.2680   21.2310 N   0  0  0  0  0  0  0  0  0  0  0  0
   54.5130   87.6660   21.7530 C   0  0  0  0  0  0  0  0  0  0  0  0
   54.2400   88.0930   23.1460 C   0  0  0  0  0  0  0  0  0  0  0  0
   55.4380   87.7630   23.9260 N   0  0  0  0  0  0  0  0  0  0  0  0
   56.5010   87.1180   23.2000 C   0  0  0  0  0  0  0  0  0  0  0  0
   56.8840   87.7870   21.9140 C   0  0  0  0  0  0  0  0  0  0  0  0
   55.4880   88.0670   25.3200 C   0  0  0  0  0  0  0  0  0  0  0  0
   55.2610   87.1730   26.1470 O   0  0  0  0  0  0  0  0  0  0  0  0
   55.8140   89.4680   25.7330 C   0  0  0  0  0  0  0  0  0  0  0  0
   54.7710   95.1380   26.9660 C   0  0  0  0  0  0  0  0  0  0  0  0
   55.4060   96.3350   27.2600 C   0  0  0  0  0  0  0  0  0  0  0  0
   57.1770   96.7400   24.4210 H   0  0  0  0  0  0  0  0  0  0  0  0
   53.8930   92.7690   25.6950 H   0  0  0  0  0  0  0  0  0  0  0  0
   56.4890   94.4570   22.8680 H   0  0  0  0  0  0  0  0  0  0  0  0
   57.1480   92.4150   22.1420 H   0  0  0  0  0  0  0  0  0  0  0  0
   56.7530   92.4460   20.4130 H   0  0  0  0  0  0  0  0  0  0  0  0
   57.4640   90.1580   22.2600 H   0  0  0  0  0  0  0  0  0  0  0  0
   57.6420   90.3680   20.4910 H   0  0  0  0  0  0  0  0  0  0  0  0
   54.9710   90.0030   21.9660 H   0  0  0  0  0  0  0  0  0  0  0  0
   55.6160   90.8680   19.2310 H   0  0  0  0  0  0  0  0  0  0  0  0
   53.0510   90.8050   19.2730 H   0  0  0  0  0  0  0  0  0  0  0  0
   53.3030   90.1310   20.9860 H   0  0  0  0  0  0  0  0  0  0  0  0
   53.1970   92.6750   20.8370 H   0  0  0  0  0  0  0  0  0  0  0  0
   54.5280   92.6180   19.6940 H   0  0  0  0  0  0  0  0  0  0  0  0
   55.8310   88.7530   18.6190 H   0  0  0  0  0  0  0  0  0  0  0  0
   54.6750   86.5550   21.7200 H   0  0  0  0  0  0  0  0  0  0  0  0
   53.6700   87.8990   21.0530 H   0  0  0  0  0  0  0  0  0  0  0  0
   53.9600   89.1450   23.2170 H   0  0  0  0  0  0  0  0  0  0  0  0
   53.4120   87.4420   23.5290 H   0  0  0  0  0  0  0  0  0  0  0  0
   56.1600   86.0640   23.0210 H   0  0  0  0  0  0  0  0  0  0  0  0
   57.4180   87.0170   23.8630 H   0  0  0  0  0  0  0  0  0  0  0  0
   57.3590   87.0070   21.2660 H   0  0  0  0  0  0  0  0  0  0  0  0
   57.6680   88.5520   22.0610 H   0  0  0  0  0  0  0  0  0  0  0  0
   56.0690   90.0730   24.8500 H   0  0  0  0  0  0  0  0  0  0  0  0
   54.9150   89.8880   26.2600 H   0  0  0  0  0  0  0  0  0  0  0  0
   56.6440   89.4350   26.4390 H   0  0  0  0  0  0  0  0  0  0  0  0
   54.1020   94.7050   27.6990 H   0  0  0  0  0  0  0  0  0  0  0  0
   55.2580   96.8570   28.1880 H   0  0  0  0  0  0  0  0  0  0  0  0
  2  1  1  0  0  0  0
  2 29  1  0  0  0  0
  3  2  2  0  0  0  0
  4  3  1  0  0  0  0
  4  5  2  0  0  0  0
  5 28  1  0  0  0  0
  6 31  1  0  0  0  0
  6  5  1  0  0  0  0
  7  6  1  0  0  0  0
  8  7  2  0  0  0  0
  8  4  1  0  0  0  0
  9 10  2  0  0  0  0
  9  7  1  0  0  0  0
 11  9  1  0  0  0  0
 12 11  1  0  0  0  0
 12 33  1  0  0  0  0
 13 12  1  0  0  0  0
 13 35  1  0  0  0  0
 14 19  1  0  0  0  0
 14 13  1  0  0  0  0
 14 37  1  1  0  0  0
 15 38  1  6  0  0  0
 15 16  1  0  0  0  0
 15 14  1  0  0  0  0
 16 17  1  0  0  0  0
 16 40  1  0  0  0  0
 17 41  1  0  0  0  0
 17 11  1  0  0  0  0
 18 15  1  0  0  0  0
 19 20  1  0  0  0  0
 19 24  1  0  0  0  0
 20 21  1  0  0  0  0
 21 46  1  0  0  0  0
 21 47  1  0  0  0  0
 21 22  1  0  0  0  0
 22 25  1  0  0  0  0
 23 49  1  0  0  0  0
 23 22  1  0  0  0  0
 24 51  1  0  0  0  0
 24 23  1  0  0  0  0
 25 27  1  0  0  0  0
 25 26  2  0  0  0  0
 27 53  1  0  0  0  0
 27 54  1  0  0  0  0
 28 29  2  0  0  0  0
 28 55  1  0  0  0  0
 29 56  1  0  0  0  0
 30  3  1  0  0  0  0
 32  8  1  0  0  0  0
 34 12  1  0  0  0  0
 36 13  1  0  0  0  0
 39 16  1  0  0  0  0
 42 17  1  0  0  0  0
 43 18  1  0  0  0  0
 44 20  1  0  0  0  0
 45 20  1  0  0  0  0
 48 23  1  0  0  0  0
 50 24  1  0  0  0  0
 52 27  1  0  0  0  0
M  END
>  <Pose>
1

>  <Score>
-5.74

$$$$
