
 OpenBabel03202210083D

 46 49  0  0  0  0  0  0  0  0999 V2000
   51.2250   91.8320   17.9560 Cl  0  0  0  0  0  0  0  0  0  0  0  0
   52.2930   90.7870   18.8790 C   0  0  0  0  0  0  0  0  0  0  0  0
   53.3350   91.3660   19.5960 C   0  0  0  0  0  0  0  0  0  0  0  0
   54.1750   90.5360   20.3250 C   0  0  0  0  0  0  0  0  0  0  0  0
   53.9310   89.1610   20.3010 C   0  0  0  0  0  0  0  0  0  0  0  0
   52.9050   88.6080   19.5910 C   0  0  0  0  0  0  0  0  0  0  0  0
   52.0790   89.4200   18.8750 C   0  0  0  0  0  0  0  0  0  0  0  0
   54.8600   88.6580   21.0550 O   0  0  0  0  0  0  0  0  0  0  0  0
   55.6500   89.5820   21.5400 C   0  0  0  0  0  0  0  0  0  0  0  0
   56.6260   89.3400   22.2990 O   0  0  0  0  0  0  0  0  0  0  0  0
   55.2390   90.7830   21.0940 N   0  0  0  0  0  0  0  0  0  0  0  0
   55.8750   92.0250   21.4260 C   0  0  0  0  0  0  0  0  0  0  0  0
   55.2100   92.6520   22.6010 C   0  0  0  0  0  0  0  0  0  0  0  0
   53.9870   93.2090   22.5980 N   0  0  0  0  0  0  0  0  0  0  0  0
   53.7050   93.6970   23.7720 O   0  0  0  0  0  0  0  0  0  0  0  0
   54.7420   93.4600   24.5500 C   0  0  0  0  0  0  0  0  0  0  0  0
   55.6780   92.8180   23.8460 N   0  0  0  0  0  0  0  0  0  0  0  0
   54.7590   93.8960   25.9870 C   0  0  0  0  0  0  0  0  0  0  0  0
   55.4960   93.1170   26.6850 O   0  0  0  0  0  0  0  0  0  0  0  0
   54.0590   94.9770   26.3790 N   0  0  0  0  0  0  0  0  0  0  0  0
   53.3530   96.0970   26.7740 C   0  0  0  0  0  0  0  0  0  0  0  0
   54.0460   97.4150   26.4080 C   0  0  0  0  0  0  0  0  0  0  0  0
   55.4390   97.3220   26.2180 N   0  0  0  0  0  0  0  0  0  0  0  0
   56.1230   98.3330   26.9260 C   0  0  0  0  0  0  0  0  0  0  0  0
   57.4380   98.6920   26.3200 C   0  0  0  0  0  0  0  0  0  0  0  0
   58.0690   97.5450   25.9110 O   0  0  0  0  0  0  0  0  0  0  0  0
   57.4390   96.9000   24.8630 C   0  0  0  0  0  0  0  0  0  0  0  0
   55.9440   96.8840   24.9820 C   0  0  0  0  0  0  0  0  0  0  0  0
   53.5300   92.4140   19.6280 H   0  0  0  0  0  0  0  0  0  0  0  0
   52.7540   87.5280   19.6080 H   0  0  0  0  0  0  0  0  0  0  0  0
   51.2600   88.9770   18.3070 H   0  0  0  0  0  0  0  0  0  0  0  0
   55.8490   92.6810   20.5370 H   0  0  0  0  0  0  0  0  0  0  0  0
   56.9530   91.9020   21.6700 H   0  0  0  0  0  0  0  0  0  0  0  0
   54.9520   95.7830   25.7190 H   0  0  0  0  0  0  0  0  0  0  0  0
   53.2820   96.1560   27.9020 H   0  0  0  0  0  0  0  0  0  0  0  0
   52.3230   96.1950   26.3940 H   0  0  0  0  0  0  0  0  0  0  0  0
   53.8560   98.2110   27.1590 H   0  0  0  0  0  0  0  0  0  0  0  0
   53.5720   97.7510   25.4680 H   0  0  0  0  0  0  0  0  0  0  0  0
   55.4840   99.2310   27.0680 H   0  0  0  0  0  0  0  0  0  0  0  0
   56.3550   97.9770   27.9750 H   0  0  0  0  0  0  0  0  0  0  0  0
   57.3420   99.4220   25.4920 H   0  0  0  0  0  0  0  0  0  0  0  0
   58.1170   99.1490   27.1030 H   0  0  0  0  0  0  0  0  0  0  0  0
   57.8720   95.8710   24.7900 H   0  0  0  0  0  0  0  0  0  0  0  0
   57.7110   97.4260   23.9300 H   0  0  0  0  0  0  0  0  0  0  0  0
   55.6340   95.8220   24.7430 H   0  0  0  0  0  0  0  0  0  0  0  0
   55.4890   97.5000   24.1820 H   0  0  0  0  0  0  0  0  0  0  0  0
  1  2  1  0  0  0  0
  2  3  1  0  0  0  0
  3 29  1  0  0  0  0
  3  4  2  0  0  0  0
  4 11  1  0  0  0  0
  5  4  1  0  0  0  0
  5  8  1  0  0  0  0
  6 30  1  0  0  0  0
  6  5  2  0  0  0  0
  7  2  2  0  0  0  0
  7  6  1  0  0  0  0
  8  9  1  0  0  0  0
  9 10  2  0  0  0  0
 11 12  1  0  0  0  0
 11  9  1  0  0  0  0
 12 33  1  0  0  0  0
 12 13  1  0  0  0  0
 13 17  1  0  0  0  0
 14 13  2  0  0  0  0
 14 15  1  0  0  0  0
 15 16  1  0  0  0  0
 16 18  1  0  0  0  0
 17 16  2  0  0  0  0
 18 20  1  0  0  0  0
 18 19  2  0  0  0  0
 20 21  1  0  0  0  0
 21 35  1  0  0  0  0
 22 21  1  0  0  0  0
 22 37  1  0  0  0  0
 23 22  1  0  0  0  0
 23 24  1  0  0  0  0
 24 39  1  0  0  0  0
 24 40  1  0  0  0  0
 25 24  1  0  0  0  0
 25 42  1  0  0  0  0
 26 25  1  0  0  0  0
 27 28  1  0  0  0  0
 27 26  1  0  0  0  0
 28 23  1  0  0  0  0
 31  7  1  0  0  0  0
 32 12  1  0  0  0  0
 34 20  1  0  0  0  0
 36 21  1  0  0  0  0
 38 22  1  0  0  0  0
 41 25  1  0  0  0  0
 43 27  1  0  0  0  0
 44 27  1  0  0  0  0
 45 28  1  0  0  0  0
 46 28  1  0  0  0  0
M  END
>  <Pose>
1

>  <Score>
-7.91

$$$$
