
 OpenBabel03202210083D

 54 57  0  0  0  0  0  0  0  0999 V2000
   53.0040   98.0210   27.2700 B   0  0  0  0  0  0  0  0  0  0  0  0
   53.7140   96.2670   27.0430 C   0  0  0  0  0  0  0  0  0  0  0  0
   54.3230   95.8950   25.8640 C   0  0  0  0  0  0  0  0  0  0  0  0
   54.8360   94.6310   25.7000 C   0  0  0  0  0  0  0  0  0  0  0  0
   54.7250   93.7440   26.7490 C   0  0  0  0  0  0  0  0  0  0  0  0
   54.1090   94.1090   27.9490 C   0  0  0  0  0  0  0  0  0  0  0  0
   53.5940   95.3850   28.1090 C   0  0  0  0  0  0  0  0  0  0  0  0
   55.2510   92.4730   26.5550 O   0  0  0  0  0  0  0  0  0  0  0  0
   55.1800   91.4410   27.5120 C   0  0  0  0  0  0  0  0  0  0  0  0
   55.4830   94.2250   24.4570 C   0  0  0  0  0  0  0  0  0  0  0  0
   54.9950   93.3430   23.6690 N   0  0  0  0  0  0  0  0  0  0  0  0
   55.6010   92.9430   22.4770 N   0  0  0  0  0  0  0  0  0  0  0  0
   55.4900   91.6210   21.9640 C   0  0  0  0  0  0  0  0  0  0  0  0
   55.8500   90.5240   22.6650 N   0  0  0  0  0  4  0  0  0  0  0  0
   55.7330   89.2940   22.1530 C   0  0  0  0  0  0  0  0  0  0  0  0
   55.2430   89.1620   20.9110 N   0  0  0  0  0  0  0  0  0  0  0  0
   54.8610   90.2210   20.1480 C   0  0  0  0  0  0  0  0  0  0  0  0
   55.0080   91.4420   20.7330 N   0  0  0  0  0  0  0  0  0  0  0  0
   54.3490   90.0770   18.8460 N   0  0  0  0  0  0  0  0  0  0  0  0
   54.8060   90.9020   17.7680 C   0  0  0  0  0  0  0  0  0  0  0  0
   53.5680   91.5240   17.1260 C   0  0  0  0  0  0  0  0  0  0  0  0
   52.7370   90.4810   16.7560 O   0  0  0  0  0  0  0  0  0  0  0  0
   52.2160   89.8000   17.8310 C   0  0  0  0  0  0  0  0  0  0  0  0
   53.3460   89.0890   18.5770 C   0  0  0  0  0  0  0  0  0  0  0  0
   56.1110   88.1400   22.8920 N   0  0  0  0  0  0  0  0  0  0  0  0
   56.2710   88.1580   24.3290 C   0  0  0  0  0  0  0  0  0  0  0  0
   57.5050   87.3760   24.7550 C   0  0  0  0  0  0  0  0  0  0  0  0
   57.5720   86.1560   24.0740 O   0  0  0  0  0  0  0  0  0  0  0  0
   57.6700   86.3370   22.7150 C   0  0  0  0  0  0  0  0  0  0  0  0
   56.3520   86.8860   22.2130 C   0  0  0  0  0  0  0  0  0  0  0  0
   54.4200   96.5880   25.0200 H   0  0  0  0  0  0  0  0  0  0  0  0
   54.0320   93.3900   28.7690 H   0  0  0  0  0  0  0  0  0  0  0  0
   53.1260   95.6440   29.0430 H   0  0  0  0  0  0  0  0  0  0  0  0
   56.1020   91.5200   28.1420 H   0  0  0  0  0  0  0  0  0  0  0  0
   54.2510   91.4520   28.1020 H   0  0  0  0  0  0  0  0  0  0  0  0
   55.2480   90.4630   26.9830 H   0  0  0  0  0  0  0  0  0  0  0  0
   56.4200   94.6810   24.1710 H   0  0  0  0  0  0  0  0  0  0  0  0
   56.1560   93.6800   21.9630 H   0  0  0  0  0  0  0  0  0  0  0  0
   55.5100   91.6980   18.1250 H   0  0  0  0  0  0  0  0  0  0  0  0
   55.2880   90.2630   16.9930 H   0  0  0  0  0  0  0  0  0  0  0  0
   53.9280   92.0260   16.2060 H   0  0  0  0  0  0  0  0  0  0  0  0
   53.0960   92.2490   17.7940 H   0  0  0  0  0  0  0  0  0  0  0  0
   51.7430   90.4850   18.5740 H   0  0  0  0  0  0  0  0  0  0  0  0
   51.5040   89.0490   17.4710 H   0  0  0  0  0  0  0  0  0  0  0  0
   52.9680   88.5920   19.4880 H   0  0  0  0  0  0  0  0  0  0  0  0
   53.7560   88.3490   17.8490 H   0  0  0  0  0  0  0  0  0  0  0  0
   55.3990   87.5720   24.7390 H   0  0  0  0  0  0  0  0  0  0  0  0
   56.3200   89.1670   24.7460 H   0  0  0  0  0  0  0  0  0  0  0  0
   58.3810   88.0120   24.5760 H   0  0  0  0  0  0  0  0  0  0  0  0
   57.3670   87.1070   25.8330 H   0  0  0  0  0  0  0  0  0  0  0  0
   58.5120   87.0300   22.5120 H   0  0  0  0  0  0  0  0  0  0  0  0
   57.9210   85.3770   22.2530 H   0  0  0  0  0  0  0  0  0  0  0  0
   55.5700   86.1800   22.5050 H   0  0  0  0  0  0  0  0  0  0  0  0
   56.3460   87.0150   21.1180 H   0  0  0  0  0  0  0  0  0  0  0  0
  2  1  1  0  0  0  0
  2  7  1  0  0  0  0
  3  2  2  0  0  0  0
  4  3  1  0  0  0  0
  4  5  2  0  0  0  0
  5  6  1  0  0  0  0
  6  7  2  0  0  0  0
  6 32  1  0  0  0  0
  7 33  1  0  0  0  0
  8  5  1  0  0  0  0
  8  9  1  0  0  0  0
  9 35  1  0  0  0  0
  9 34  1  0  0  0  0
 10  4  1  0  0  0  0
 11 10  2  0  0  0  0
 12 11  1  0  0  0  0
 13 12  1  0  0  0  0
 13 14  2  0  0  0  0
 15 14  2  0  0  0  0
 15 25  1  0  0  0  0
 16 15  1  0  0  0  0
 17 18  1  0  0  0  0
 17 16  2  0  0  0  0
 18 13  1  0  0  0  0
 19 17  1  0  0  0  0
 20 39  1  0  0  0  0
 20 19  1  0  0  0  0
 21 20  1  0  0  0  0
 21 42  1  0  0  0  0
 22 21  1  0  0  0  0
 22 23  1  0  0  0  0
 23 43  1  0  0  0  0
 23 24  1  0  0  0  0
 24 19  1  0  0  0  0
 24 45  1  0  0  0  0
 25 26  1  0  0  0  0
 26 47  1  0  0  0  0
 26 48  1  0  0  0  0
 26 27  1  0  0  0  0
 27 50  1  0  0  0  0
 28 27  1  0  0  0  0
 29 28  1  0  0  0  0
 30 53  1  0  0  0  0
 30 29  1  0  0  0  0
 30 25  1  0  0  0  0
 31  3  1  0  0  0  0
 36  9  1  0  0  0  0
 37 10  1  0  0  0  0
 38 12  1  0  0  0  0
 40 20  1  0  0  0  0
 41 21  1  0  0  0  0
 44 23  1  0  0  0  0
 46 24  1  0  0  0  0
 49 27  1  0  0  0  0
 51 29  1  0  0  0  0
 52 29  1  0  0  0  0
 54 30  1  0  0  0  0
M  END
>  <Pose>
1

>  <Score>
-6.91

$$$$
