
 OpenBabel03202210083D

 38 41  0  0  1  0  0  0  0  0999 V2000
   47.6490  100.8010   28.7430 B   0  0  0  0  0  0  0  0  0  0  0  0
   49.3570  100.4800   27.9610 C   0  0  0  0  0  0  0  0  0  0  0  0
   49.9200   99.2260   27.9550 C   0  0  0  0  0  0  0  0  0  0  0  0
   51.1750   98.9570   27.3870 C   0  0  0  0  0  0  0  0  0  0  0  0
   51.8250  100.0210   26.8290 C   0  0  0  0  0  0  0  0  0  0  0  0
   51.2440  101.2920   26.8400 C   0  0  0  0  0  0  0  0  0  0  0  0
   50.0270  101.5250   27.3960 C   0  0  0  0  0  0  0  0  0  0  0  0
   51.6760   97.6410   27.4250 N   0  0  0  0  0  0  0  0  0  0  0  0
   53.0350   97.2890   27.4070 C   0  0  0  0  0  0  0  0  0  0  0  0
   53.9890   98.0800   27.4310 O   0  0  0  0  0  0  0  0  0  0  0  0
   53.4130   95.8340   27.3510 C   0  0  2  0  0  0  0  0  0  0  0  0
   54.8850   95.5790   27.5480 C   0  0  0  0  0  0  0  0  0  0  0  0
   55.1000   95.5280   26.0940 N   0  0  2  0  0  0  0  0  0  0  0  0
   53.6710   95.3100   25.9680 C   0  0  0  0  0  0  0  0  0  0  0  0
   56.2490   95.6480   25.2650 C   0  0  2  0  0  0  0  0  0  0  0  0
   56.7050   94.6170   24.5070 N   0  0  0  0  0  0  0  0  0  0  0  0
   57.8110   94.7590   23.7190 C   0  0  0  0  0  0  0  0  0  0  0  0
   58.4800   95.9150   23.6670 N   0  0  0  0  0  0  0  0  0  0  0  0
   58.0880   96.9690   24.3850 C   0  0  0  0  0  0  0  0  0  0  0  0
   58.5820   98.2170   24.5060 N   0  0  0  0  0  0  0  0  0  0  0  0
   57.7980   98.8460   25.3550 N   0  0  0  0  0  0  0  0  0  0  0  0
   56.8210   98.0360   25.7790 N   0  0  0  0  0  0  0  0  0  0  0  0
   56.9710   96.8230   25.1820 C   0  0  0  0  0  0  0  0  0  0  0  0
   59.7490   98.7920   23.8430 C   0  0  0  0  0  0  0  0  0  0  0  0
   49.3680   98.4120   28.4090 H   0  0  0  0  0  0  0  0  0  0  0  0
   52.8070   99.9010   26.3650 H   0  0  0  0  0  0  0  0  0  0  0  0
   51.8120  102.1100   26.3770 H   0  0  0  0  0  0  0  0  0  0  0  0
   49.5950  102.5250   27.3920 H   0  0  0  0  0  0  0  0  0  0  0  0
   50.9360   96.8490   27.4730 H   0  0  0  0  0  0  0  0  0  0  0  0
   52.8080   95.1980   28.0190 H   0  0  0  0  0  0  0  0  0  0  0  0
   55.4750   96.4320   27.9440 H   0  0  0  0  0  0  0  0  0  0  0  0
   55.1500   94.6120   27.9850 H   0  0  0  0  0  0  0  0  0  0  0  0
   53.1770   95.9230   25.1850 H   0  0  0  0  0  0  0  0  0  0  0  0
   53.4680   94.2390   25.8310 H   0  0  0  0  0  0  0  0  0  0  0  0
   58.1140   93.8970   23.1450 H   0  0  0  0  0  0  0  0  0  0  0  0
   59.6400   99.8800   23.7010 H   0  0  0  0  0  0  0  0  0  0  0  0
   59.8600   98.3660   22.8030 H   0  0  0  0  0  0  0  0  0  0  0  0
   60.6810   98.5640   24.3630 H   0  0  0  0  0  0  0  0  0  0  0  0
  2  1  1  0  0  0  0
  3  2  1  0  0  0  0
  3 25  1  0  0  0  0
  4  8  1  0  0  0  0
  4  3  2  0  0  0  0
  5  6  2  0  0  0  0
  5  4  1  0  0  0  0
  6  7  1  0  0  0  0
  7  2  2  0  0  0  0
  8 29  1  0  0  0  0
  9  8  1  0  0  0  0
  9 10  2  0  0  0  0
 11  9  1  0  0  0  0
 11 12  1  0  0  0  0
 11 30  1  1  0  0  0
 12 31  1  0  0  0  0
 12 32  1  0  0  0  0
 13 14  1  1  0  0  0
 13 12  1  0  0  0  0
 14 11  1  0  0  0  0
 15 16  1  1  0  0  0
 15 13  1  0  0  0  0
 17 16  2  0  0  0  0
 18 17  1  0  0  0  0
 18 19  1  0  0  0  0
 19 20  1  0  0  0  0
 19 23  2  0  0  0  0
 20 21  1  0  0  0  0
 21 22  2  0  0  0  0
 23 15  1  0  0  0  0
 23 22  1  0  0  0  0
 24 38  1  0  0  0  0
 24 20  1  0  0  0  0
 26  5  1  0  0  0  0
 27  6  1  0  0  0  0
 28  7  1  0  0  0  0
 33 14  1  0  0  0  0
 34 14  1  0  0  0  0
 35 17  1  0  0  0  0
 36 24  1  0  0  0  0
 37 24  1  0  0  0  0
M  END
>  <Pose>
1

>  <Score>
-7.20

$$$$
