
 OpenBabel03202210083D

 52 56  0  0  0  0  0  0  0  0999 V2000
   57.1960   96.9860   25.4270 Cl  0  0  0  0  0  0  0  0  0  0  0  0
   56.5500   95.5260   24.6970 C   0  0  0  0  0  0  0  0  0  0  0  0
   57.3030   94.7590   23.8190 C   0  0  0  0  0  0  0  0  0  0  0  0
   56.7760   93.6140   23.2560 C   0  0  0  0  0  0  0  0  0  0  0  0
   55.4960   93.1830   23.5320 C   0  0  0  0  0  0  0  0  0  0  0  0
   54.7480   93.9670   24.4200 C   0  0  0  0  0  0  0  0  0  0  0  0
   55.2670   95.1110   24.9870 C   0  0  0  0  0  0  0  0  0  0  0  0
   54.9340   91.9760   22.9390 C   0  0  0  0  0  0  0  0  0  0  0  0
   53.7950   91.5940   23.2900 O   0  0  0  0  0  0  0  0  0  0  0  0
   55.7440   91.2540   21.9420 C   0  0  0  0  0  0  0  0  0  0  0  0
   55.1240   90.0410   21.4600 N   0  0  0  0  0  0  0  0  0  0  0  0
   54.9490   88.8810   22.0560 N   0  0  0  0  0  0  0  0  0  0  0  0
   54.3200   88.0030   21.2610 C   0  0  0  0  0  0  0  0  0  0  0  0
   54.1500   86.8280   21.8870 N   0  0  0  0  0  0  0  0  0  0  0  0
   54.6720   86.9140   23.1300 C   0  0  0  0  0  0  0  0  0  0  0  0
   55.1740   88.2170   23.2220 C   0  0  0  0  0  0  0  0  0  0  0  0
   55.7570   88.5360   24.4300 C   0  0  0  0  0  0  0  0  0  0  0  0
   56.2230   89.7070   24.5610 O   0  0  0  0  0  0  0  0  0  0  0  0
   55.8550   87.6680   25.4720 N   0  0  0  0  0  0  0  0  0  0  0  0
   55.3510   86.4360   25.3030 C   0  0  0  0  0  0  0  0  0  0  0  0
   55.4520   85.6380   26.2920 O   0  0  0  0  0  0  0  0  0  0  0  0
   54.7670   86.0550   24.1580 N   0  0  0  0  0  0  0  0  0  0  0  0
   54.2460   84.7200   24.0420 C   0  0  0  0  0  0  0  0  0  0  0  0
   56.4840   88.0810   26.7060 C   0  0  0  0  0  0  0  0  0  0  0  0
   54.0940   88.6730   20.1030 N   0  0  0  0  0  0  0  0  0  0  0  0
   54.5790   89.9180   20.2110 C   0  0  0  0  0  0  0  0  0  0  0  0
   54.5590   90.9610   19.2420 N   0  0  0  0  0  0  0  0  0  0  0  0
   53.6910   92.1180   19.3800 C   0  0  0  0  0  0  0  0  0  0  0  0
   53.1640   92.4620   18.0080 C   0  0  0  0  0  0  0  0  0  0  0  0
   54.2330   92.6620   17.1190 O   0  0  0  0  0  0  0  0  0  0  0  0
   54.8980   91.4870   16.8470 C   0  0  0  0  0  0  0  0  0  0  0  0
   55.4250   90.8740   18.0960 C   0  0  0  0  0  0  0  0  0  0  0  0
   58.3040   95.0690   23.5840 H   0  0  0  0  0  0  0  0  0  0  0  0
   57.3620   93.0140   22.5710 H   0  0  0  0  0  0  0  0  0  0  0  0
   53.7430   93.6820   24.6750 H   0  0  0  0  0  0  0  0  0  0  0  0
   54.6900   95.7270   25.6780 H   0  0  0  0  0  0  0  0  0  0  0  0
   56.7760   91.0980   22.2220 H   0  0  0  0  0  0  0  0  0  0  0  0
   55.7990   91.9680   21.0620 H   0  0  0  0  0  0  0  0  0  0  0  0
   54.8160   84.0590   24.7400 H   0  0  0  0  0  0  0  0  0  0  0  0
   54.3630   84.3650   22.9870 H   0  0  0  0  0  0  0  0  0  0  0  0
   53.1610   84.7010   24.2460 H   0  0  0  0  0  0  0  0  0  0  0  0
   55.7950   88.7650   27.2660 H   0  0  0  0  0  0  0  0  0  0  0  0
   57.3750   88.7110   26.4580 H   0  0  0  0  0  0  0  0  0  0  0  0
   56.8440   87.2450   27.3090 H   0  0  0  0  0  0  0  0  0  0  0  0
   54.2450   92.9960   19.7750 H   0  0  0  0  0  0  0  0  0  0  0  0
   52.8140   91.8990   20.0320 H   0  0  0  0  0  0  0  0  0  0  0  0
   52.4280   91.7580   17.6180 H   0  0  0  0  0  0  0  0  0  0  0  0
   52.6630   93.4610   18.0890 H   0  0  0  0  0  0  0  0  0  0  0  0
   54.2350   90.7370   16.3380 H   0  0  0  0  0  0  0  0  0  0  0  0
   55.7650   91.7450   16.2010 H   0  0  0  0  0  0  0  0  0  0  0  0
   56.4290   91.2560   18.3870 H   0  0  0  0  0  0  0  0  0  0  0  0
   55.5980   89.7820   17.8820 H   0  0  0  0  0  0  0  0  0  0  0  0
  2  7  1  0  0  0  0
  2  1  1  0  0  0  0
  3  2  2  0  0  0  0
  4  5  2  0  0  0  0
  4  3  1  0  0  0  0
  5  6  1  0  0  0  0
  6 35  1  0  0  0  0
  6  7  2  0  0  0  0
  7 36  1  0  0  0  0
  8  9  2  0  0  0  0
  8  5  1  0  0  0  0
 10 37  1  0  0  0  0
 10  8  1  0  0  0  0
 11 10  1  0  0  0  0
 11 12  1  0  0  0  0
 12 16  1  0  0  0  0
 13 14  2  0  0  0  0
 13 12  1  0  0  0  0
 14 15  1  0  0  0  0
 15 16  2  0  0  0  0
 15 22  1  0  0  0  0
 16 17  1  0  0  0  0
 17 18  2  0  0  0  0
 17 19  1  0  0  0  0
 19 24  1  0  0  0  0
 20 19  1  0  0  0  0
 20 21  2  0  0  0  0
 22 20  1  0  0  0  0
 23 22  1  0  0  0  0
 23 41  1  0  0  0  0
 23 39  1  0  0  0  0
 24 42  1  0  0  0  0
 24 44  1  0  0  0  0
 25 26  2  0  0  0  0
 25 13  1  0  0  0  0
 26 11  1  0  0  0  0
 27 28  1  0  0  0  0
 27 26  1  0  0  0  0
 28 45  1  0  0  0  0
 28 46  1  0  0  0  0
 29 48  1  0  0  0  0
 29 28  1  0  0  0  0
 30 29  1  0  0  0  0
 31 30  1  0  0  0  0
 31 32  1  0  0  0  0
 32 51  1  0  0  0  0
 32 27  1  0  0  0  0
 33  3  1  0  0  0  0
 34  4  1  0  0  0  0
 38 10  1  0  0  0  0
 40 23  1  0  0  0  0
 43 24  1  0  0  0  0
 47 29  1  0  0  0  0
 49 31  1  0  0  0  0
 50 31  1  0  0  0  0
 52 32  1  0  0  0  0
M  END
>  <Pose>
1

>  <Score>
-5.86

$$$$
