
 OpenBabel03202210083D

 56 59  0  0  0  0  0  0  0  0999 V2000
   52.8430   91.4080   18.7840 B   0  0  0  0  0  0  0  0  0  0  0  0
   52.5830   89.5500   19.1170 C   0  0  0  0  0  0  0  0  0  0  0  0
   53.6960   88.7180   19.3260 C   0  0  0  0  0  0  0  0  0  0  0  0
   53.4890   87.4050   19.5580 C   0  0  0  0  0  0  0  0  0  0  0  0
   52.2220   86.8660   19.6000 C   0  0  0  0  0  0  0  0  0  0  0  0
   51.1260   87.7160   19.3920 C   0  0  0  0  0  0  0  0  0  0  0  0
   51.3000   89.0630   19.1460 C   0  0  0  0  0  0  0  0  0  0  0  0
   52.0490   85.5130   19.8480 O   0  0  0  0  0  0  0  0  0  0  0  0
   52.1050   84.4900   18.9160 C   0  0  0  0  0  0  0  0  0  0  0  0
   54.6360   86.5380   19.8770 C   0  0  0  0  0  0  0  0  0  0  0  0
   55.2500   86.8130   21.0350 C   0  0  0  0  0  0  0  0  0  0  0  0
   54.8690   87.8380   21.8930 O   0  0  0  0  0  0  0  0  0  0  0  0
   55.7060   87.8170   23.0170 C   0  0  0  0  0  0  0  0  0  0  0  0
   56.6370   86.8270   22.9540 C   0  0  0  0  0  0  0  0  0  0  0  0
   57.5440   86.6140   23.9650 C   0  0  0  0  0  0  0  0  0  0  0  0
   57.5240   87.4250   25.0940 C   0  0  0  0  0  0  0  0  0  0  0  0
   56.5680   88.4410   25.1520 C   0  0  0  0  0  0  0  0  0  0  0  0
   55.6760   88.6490   24.1500 C   0  0  0  0  0  0  0  0  0  0  0  0
   54.7700   89.8130   24.0560 C   0  0  0  0  0  0  0  0  0  0  0  0
   55.3630   90.9450   23.5190 N   0  0  0  0  0  4  0  0  0  0  0  0
   54.9390   91.1870   22.1030 C   0  0  0  0  0  0  0  0  0  0  0  0
   54.5440   92.6850   22.0820 C   0  0  0  0  0  0  0  0  0  0  0  0
   55.0620   93.3260   23.2490 N   0  0  0  0  0  0  0  0  0  0  0  0
   56.4160   93.0600   23.5420 C   0  0  0  0  0  0  0  0  0  0  0  0
   56.6280   91.4890   23.6830 C   0  0  0  0  0  0  0  0  0  0  0  0
   54.2330   94.1270   24.0020 C   0  0  0  0  0  0  0  0  0  0  0  0
   54.4380   94.2590   25.4770 C   0  0  0  0  0  0  0  0  0  0  0  0
   53.2120   94.4060   26.1450 O   0  0  0  0  0  0  0  0  0  0  0  0
   56.6140   89.2100   26.3150 O   0  0  0  0  0  0  0  0  0  0  0  0
   56.3730   86.1410   21.6540 C   0  0  0  0  0  0  0  0  0  0  0  0
   56.9990   85.1810   21.1860 O   0  0  0  0  0  0  0  0  0  0  0  0
   54.6560   89.2090   19.2930 H   0  0  0  0  0  0  0  0  0  0  0  0
   50.1160   87.3350   19.4130 H   0  0  0  0  0  0  0  0  0  0  0  0
   50.4050   89.6930   18.9800 H   0  0  0  0  0  0  0  0  0  0  0  0
   53.0360   84.3990   18.3580 H   0  0  0  0  0  0  0  0  0  0  0  0
   51.9520   83.5180   19.4550 H   0  0  0  0  0  0  0  0  0  0  0  0
   51.2570   84.5750   18.1720 H   0  0  0  0  0  0  0  0  0  0  0  0
   54.9760   85.7610   19.2400 H   0  0  0  0  0  0  0  0  0  0  0  0
   58.2710   85.8070   23.8660 H   0  0  0  0  0  0  0  0  0  0  0  0
   58.2500   87.2450   25.8750 H   0  0  0  0  0  0  0  0  0  0  0  0
   53.8650   89.4740   23.4370 H   0  0  0  0  0  0  0  0  0  0  0  0
   54.2970   89.9700   25.0620 H   0  0  0  0  0  0  0  0  0  0  0  0
   54.6670   91.7200   23.9990 H   0  0  0  0  0  0  0  0  0  0  0  0
   54.0780   90.5460   21.8670 H   0  0  0  0  0  0  0  0  0  0  0  0
   55.8200   91.0200   21.4660 H   0  0  0  0  0  0  0  0  0  0  0  0
   54.9480   93.1190   21.1560 H   0  0  0  0  0  0  0  0  0  0  0  0
   53.4600   92.7140   22.0720 H   0  0  0  0  0  0  0  0  0  0  0  0
   57.0170   93.3220   22.6580 H   0  0  0  0  0  0  0  0  0  0  0  0
   56.7860   93.5700   24.4050 H   0  0  0  0  0  0  0  0  0  0  0  0
   57.2800   91.1540   22.8160 H   0  0  0  0  0  0  0  0  0  0  0  0
   57.2000   91.3440   24.5920 H   0  0  0  0  0  0  0  0  0  0  0  0
   54.2720   95.2180   23.6100 H   0  0  0  0  0  0  0  0  0  0  0  0
   53.1440   93.8740   23.8220 H   0  0  0  0  0  0  0  0  0  0  0  0
   55.1220   95.0380   25.8080 H   0  0  0  0  0  0  0  0  0  0  0  0
   54.8770   93.2870   25.8580 H   0  0  0  0  0  0  0  0  0  0  0  0
   52.7380   93.5110   26.1540 H   0  0  0  0  0  0  0  0  0  0  0  0
  1  2  1  0  0  0  0
  2  7  2  0  0  0  0
  2  3  1  0  0  0  0
  3  4  2  0  0  0  0
  4  5  1  0  0  0  0
  4 10  1  0  0  0  0
  5  8  1  0  0  0  0
  6 33  1  0  0  0  0
  6  5  2  0  0  0  0
  7  6  1  0  0  0  0
  9 36  1  0  0  0  0
  9  8  1  0  0  0  0
 10 11  2  0  0  0  0
 11 30  1  0  0  0  0
 11 12  1  0  0  0  0
 12 13  1  0  0  0  0
 13 18  1  0  0  0  0
 14 13  2  0  0  0  0
 14 15  1  0  0  0  0
 15 16  2  0  0  0  0
 16 17  1  0  0  0  0
 16 40  1  0  0  0  0
 17 29  1  0  0  0  0
 18 17  2  0  0  0  0
 19 18  1  0  0  0  0
 19 42  1  0  0  0  0
 20 25  1  0  0  0  0
 20 43  1  0  0  0  0
 20 19  1  0  0  0  0
 21 20  1  0  0  0  0
 22 21  1  0  0  0  0
 22 23  1  0  0  0  0
 23 24  1  0  0  0  0
 23 26  1  0  0  0  0
 24 25  1  0  0  0  0
 24 49  1  0  0  0  0
 25 51  1  0  0  0  0
 26 27  1  0  0  0  0
 27 54  1  0  0  0  0
 27 55  1  0  0  0  0
 27 28  1  0  0  0  0
 28 56  1  0  0  0  0
 30 14  1  0  0  0  0
 31 30  2  0  0  0  0
 32  3  1  0  0  0  0
 34  7  1  0  0  0  0
 35  9  1  0  0  0  0
 37  9  1  0  0  0  0
 38 10  1  0  0  0  0
 39 15  1  0  0  0  0
 41 19  1  0  0  0  0
 44 21  1  0  0  0  0
 45 21  1  0  0  0  0
 46 22  1  0  0  0  0
 47 22  1  0  0  0  0
 48 24  1  0  0  0  0
 50 25  1  0  0  0  0
 52 26  1  0  0  0  0
 53 26  1  0  0  0  0
M  END
>  <Pose>
1

>  <Score>
-5.68

$$$$
