
 OpenBabel03202210083D

 45 48  0  0  0  0  0  0  0  0999 V2000
   57.2730   90.6120   22.7080 Cl  0  0  0  0  0  0  0  0  0  0  0  0
   55.8990   91.0790   21.7300 C   0  0  0  0  0  0  0  0  0  0  0  0
   55.5790   90.3100   20.6470 C   0  0  0  0  0  0  0  0  0  0  0  0
   54.5210   90.6120   19.8360 C   0  0  0  0  0  0  0  0  0  0  0  0
   53.7750   91.7200   20.1370 C   0  0  0  0  0  0  0  0  0  0  0  0
   54.1080   92.5080   21.2520 C   0  0  0  0  0  0  0  0  0  0  0  0
   55.1640   92.2180   22.0700 C   0  0  0  0  0  0  0  0  0  0  0  0
   55.5630   92.9380   23.2030 N   0  0  0  0  0  0  0  0  0  0  0  0
   54.7180   93.7200   23.9940 C   0  0  0  0  0  0  0  0  0  0  0  0
   53.5120   93.4750   24.1440 O   0  0  0  0  0  0  0  0  0  0  0  0
   55.2460   94.9130   24.7130 C   0  0  0  0  0  0  0  0  0  0  0  0
   54.4090   95.6860   25.3320 N   0  0  0  0  0  0  0  0  0  0  0  0
   54.8190   96.8220   26.0270 N   0  0  0  0  0  0  0  0  0  0  0  0
   56.1920   97.1420   26.0620 C   0  0  0  0  0  0  0  0  0  0  0  0
   56.5300   98.1410   26.7840 O   0  0  0  0  0  0  0  0  0  0  0  0
   57.2090   96.3790   25.3100 C   0  0  0  0  0  0  0  0  0  0  0  0
   56.6310   95.2150   24.7340 N   0  0  0  0  0  0  0  0  0  0  0  0
   53.8550   97.6650   26.7030 C   0  0  0  0  0  0  0  0  0  0  0  0
   53.2370   97.2650   27.8630 C   0  0  0  0  0  0  0  0  0  0  0  0
   52.3120   98.1000   28.4980 C   0  0  0  0  0  0  0  0  0  0  0  0
   52.0000   99.3380   27.9750 C   0  0  0  0  0  0  0  0  0  0  0  0
   52.6260   99.7240   26.8130 C   0  0  0  0  0  0  0  0  0  0  0  0
   53.5270   98.9050   26.1990 C   0  0  0  0  0  0  0  0  0  0  0  0
   51.0230  100.2680   28.6170 C   0  0  0  0  0  0  0  0  0  0  0  0
   52.6810   92.1000   19.3630 O   0  0  0  0  0  0  0  0  0  0  0  0
   52.0360   91.1960   18.4540 C   0  0  0  0  0  0  0  0  0  0  0  0
   53.0290   90.2130   17.9280 C   0  0  0  0  0  0  0  0  0  0  0  0
   52.8490   89.7390   16.7830 O   0  0  0  0  0  0  0  0  0  0  0  0
   54.1570   89.8170   18.7010 N   0  0  0  0  0  0  0  0  0  0  0  0
   56.1530   89.4100   20.3700 H   0  0  0  0  0  0  0  0  0  0  0  0
   53.4930   93.3750   21.4550 H   0  0  0  0  0  0  0  0  0  0  0  0
   56.5930   92.8840   23.4800 H   0  0  0  0  0  0  0  0  0  0  0  0
   57.5660   97.0200   24.4520 H   0  0  0  0  0  0  0  0  0  0  0  0
   58.0940   96.1620   25.9450 H   0  0  0  0  0  0  0  0  0  0  0  0
   57.2680   94.5110   24.2780 H   0  0  0  0  0  0  0  0  0  0  0  0
   53.4800   96.2940   28.2760 H   0  0  0  0  0  0  0  0  0  0  0  0
   51.8370   97.7850   29.3990 H   0  0  0  0  0  0  0  0  0  0  0  0
   52.3710  100.7130   26.4030 H   0  0  0  0  0  0  0  0  0  0  0  0
   54.0010   99.2490   25.2820 H   0  0  0  0  0  0  0  0  0  0  0  0
   50.3090  100.6870   27.8860 H   0  0  0  0  0  0  0  0  0  0  0  0
   50.4610   99.7930   29.4260 H   0  0  0  0  0  0  0  0  0  0  0  0
   51.5920  101.1220   29.0660 H   0  0  0  0  0  0  0  0  0  0  0  0
   51.3070   90.6170   19.0800 H   0  0  0  0  0  0  0  0  0  0  0  0
   51.5260   91.7490   17.6560 H   0  0  0  0  0  0  0  0  0  0  0  0
   54.7060   88.9720   18.4490 H   0  0  0  0  0  0  0  0  0  0  0  0
  2  7  1  0  0  0  0
  2  1  1  0  0  0  0
  3  2  2  0  0  0  0
  4  5  2  0  0  0  0
  4  3  1  0  0  0  0
  5  6  1  0  0  0  0
  6 31  1  0  0  0  0
  6  7  2  0  0  0  0
  7  8  1  0  0  0  0
  8 32  1  0  0  0  0
  8  9  1  0  0  0  0
  9 10  2  0  0  0  0
  9 11  1  0  0  0  0
 11 17  1  0  0  0  0
 11 12  2  0  0  0  0
 12 13  1  0  0  0  0
 13 14  1  0  0  0  0
 13 18  1  0  0  0  0
 14 15  2  0  0  0  0
 16 34  1  0  0  0  0
 16 14  1  0  0  0  0
 17 16  1  0  0  0  0
 18 19  1  0  0  0  0
 19 36  1  0  0  0  0
 19 20  2  0  0  0  0
 20 37  1  0  0  0  0
 21 20  1  0  0  0  0
 21 24  1  0  0  0  0
 22 21  2  0  0  0  0
 23 18  2  0  0  0  0
 23 22  1  0  0  0  0
 24 42  1  0  0  0  0
 24 41  1  0  0  0  0
 25  5  1  0  0  0  0
 26 43  1  0  0  0  0
 26 25  1  0  0  0  0
 27 26  1  0  0  0  0
 27 29  1  0  0  0  0
 28 27  2  0  0  0  0
 29  4  1  0  0  0  0
 30  3  1  0  0  0  0
 33 16  1  0  0  0  0
 35 17  1  0  0  0  0
 38 22  1  0  0  0  0
 39 23  1  0  0  0  0
 40 24  1  0  0  0  0
 44 26  1  0  0  0  0
 45 29  1  0  0  0  0
M  END
>  <Pose>
1

>  <Score>
-7.27

$$$$
