
 OpenBabel03202210083D

 41 44  0  0  1  0  0  0  0  0999 V2000
   55.1880   92.9330   22.6850 S   0  0  0  0  0  0  0  0  0  0  0  0
   53.7830   93.2900   22.2210 O   0  0  0  0  0  0  0  0  0  0  0  0
   56.1030   93.6380   21.6890 O   0  0  0  0  0  0  0  0  0  0  0  0
   55.5190   93.5470   24.2110 N   0  0  0  0  0  0  0  0  0  0  0  0
   54.4970   94.2500   24.8770 C   0  0  0  0  0  0  0  0  0  0  0  0
   54.9630   94.9820   26.1200 C   0  0  0  0  0  0  0  0  0  0  0  0
   56.1290   95.8130   25.6950 C   0  0  1  0  0  0  0  0  0  0  0  0
   57.0840   95.1870   24.9200 C   0  0  0  0  0  0  0  0  0  0  0  0
   58.1500   95.8740   24.5090 N   0  0  0  0  0  0  0  0  0  0  0  0
   58.2550   97.1690   24.8690 C   0  0  2  0  0  0  0  0  0  0  0  0
   57.3390   97.8020   25.6220 N   0  0  0  0  0  0  0  0  0  0  0  0
   57.7080   99.0820   25.8200 N   0  0  0  0  0  0  0  0  0  0  0  0
   58.8730   99.3250   25.2040 C   0  0  0  0  0  0  0  0  0  0  0  0
   59.2300   98.1400   24.6040 C   0  0  0  0  0  0  0  0  0  0  0  0
   56.2460   97.1370   26.0570 C   0  0  0  0  0  0  0  0  0  0  0  0
   55.3560   97.6740   26.7640 O   0  0  0  0  0  0  0  0  0  0  0  0
   56.8530   93.7590   24.5930 C   0  0  0  0  0  0  0  0  0  0  0  0
   55.3750   91.2340   22.4790 C   0  0  0  0  0  0  0  0  0  0  0  0
   55.2090   90.6460   21.2270 C   0  0  0  0  0  0  0  0  0  0  0  0
   55.3630   89.2830   21.0970 C   0  0  0  0  0  0  0  0  0  0  0  0
   55.6740   88.4850   22.1500 C   0  0  0  0  0  0  0  0  0  0  0  0
   55.8430   89.0320   23.3910 C   0  0  0  0  0  0  0  0  0  0  0  0
   55.6890   90.3960   23.5220 C   0  0  0  0  0  0  0  0  0  0  0  0
   56.2490   88.0170   24.7790 Cl  0  0  0  0  0  0  0  0  0  0  0  0
   54.8940   91.3810   20.1090 O   0  0  0  0  0  0  0  0  0  0  0  0
   53.5390   91.5570   19.7630 C   0  0  0  0  0  0  0  0  0  0  0  0
   53.6830   93.5380   25.1630 H   0  0  0  0  0  0  0  0  0  0  0  0
   54.0220   94.9840   24.1730 H   0  0  0  0  0  0  0  0  0  0  0  0
   55.2480   94.2270   26.8860 H   0  0  0  0  0  0  0  0  0  0  0  0
   54.1170   95.6030   26.4630 H   0  0  0  0  0  0  0  0  0  0  0  0
   57.1460   99.7640   26.3780 H   0  0  0  0  0  0  0  0  0  0  0  0
   59.4470  100.2500   25.1640 H   0  0  0  0  0  0  0  0  0  0  0  0
   60.1220   97.9190   23.9990 H   0  0  0  0  0  0  0  0  0  0  0  0
   57.0390   93.1960   25.5550 H   0  0  0  0  0  0  0  0  0  0  0  0
   57.5600   93.3580   23.8700 H   0  0  0  0  0  0  0  0  0  0  0  0
   55.2380   88.7850   20.1230 H   0  0  0  0  0  0  0  0  0  0  0  0
   55.7950   87.3990   22.0400 H   0  0  0  0  0  0  0  0  0  0  0  0
   55.8380   90.7790   24.5450 H   0  0  0  0  0  0  0  0  0  0  0  0
   53.0130   90.5820   19.6760 H   0  0  0  0  0  0  0  0  0  0  0  0
   52.9880   92.1480   20.5370 H   0  0  0  0  0  0  0  0  0  0  0  0
   53.4440   92.1550   18.8230 H   0  0  0  0  0  0  0  0  0  0  0  0
  1  4  1  0  0  0  0
  2  1  2  0  0  0  0
  3  1  2  0  0  0  0
  4 17  1  0  0  0  0
  4  5  1  0  0  0  0
  5 27  1  0  0  0  0
  5  6  1  0  0  0  0
  6 30  1  0  0  0  0
  6 29  1  0  0  0  0
  7  8  1  6  0  0  0
  7 15  1  0  0  0  0
  7  6  1  0  0  0  0
  9  8  2  0  0  0  0
 10  9  1  6  0  0  0
 10 11  1  0  0  0  0
 11 12  1  0  0  0  0
 11 15  1  0  0  0  0
 12 31  1  0  0  0  0
 13 12  1  0  0  0  0
 14 10  1  0  0  0  0
 14 13  2  0  0  0  0
 15 16  2  0  0  0  0
 17  8  1  0  0  0  0
 17 34  1  0  0  0  0
 18  1  1  0  0  0  0
 18 23  1  0  0  0  0
 19 18  2  0  0  0  0
 20 19  1  0  0  0  0
 20 21  2  0  0  0  0
 21 22  1  0  0  0  0
 22 23  2  0  0  0  0
 22 24  1  0  0  0  0
 23 38  1  0  0  0  0
 25 19  1  0  0  0  0
 26 25  1  0  0  0  0
 26 40  1  0  0  0  0
 28  5  1  0  0  0  0
 32 13  1  0  0  0  0
 33 14  1  0  0  0  0
 35 17  1  0  0  0  0
 36 20  1  0  0  0  0
 37 21  1  0  0  0  0
 39 26  1  0  0  0  0
 41 26  1  0  0  0  0
M  END
>  <Pose>
1

>  <Score>
-6.66

$$$$
