
 OpenBabel03202210083D

 41 44  0  0  1  0  0  0  0  0999 V2000
   55.1490   93.1140   22.8150 S   0  0  0  0  0  0  0  0  0  0  0  0
   53.7010   93.4130   22.5010 O   0  0  0  0  0  0  0  0  0  0  0  0
   55.9740   93.8950   21.8360 O   0  0  0  0  0  0  0  0  0  0  0  0
   55.4810   93.5660   24.3870 N   0  0  0  0  0  0  0  0  0  0  0  0
   54.4580   94.0770   25.1830 C   0  0  0  0  0  0  0  0  0  0  0  0
   54.9070   95.1720   26.1210 C   0  0  0  0  0  0  0  0  0  0  0  0
   56.0770   95.9330   25.6260 C   0  0  2  0  0  0  0  0  0  0  0  0
   57.0350   95.2260   24.9410 C   0  0  0  0  0  0  0  0  0  0  0  0
   58.1280   95.8300   24.4590 N   0  0  0  0  0  0  0  0  0  0  0  0
   58.2920   97.1790   24.6520 C   0  0  1  0  0  0  0  0  0  0  0  0
   57.3400   97.8570   25.3270 N   0  0  0  0  0  0  0  0  0  0  0  0
   57.7320   99.1330   25.3790 N   0  0  0  0  0  0  0  0  0  0  0  0
   58.8960   99.2830   24.7600 C   0  0  0  0  0  0  0  0  0  0  0  0
   59.2980   98.0410   24.2720 C   0  0  0  0  0  0  0  0  0  0  0  0
   56.2290   97.3050   25.8310 C   0  0  0  0  0  0  0  0  0  0  0  0
   55.3450   97.9360   26.4580 O   0  0  0  0  0  0  0  0  0  0  0  0
   56.8330   93.7810   24.7450 C   0  0  0  0  0  0  0  0  0  0  0  0
   55.3930   91.4140   22.4820 C   0  0  0  0  0  0  0  0  0  0  0  0
   55.5330   90.4650   23.4800 C   0  0  0  0  0  0  0  0  0  0  0  0
   55.7240   89.1300   23.1560 C   0  0  0  0  0  0  0  0  0  0  0  0
   55.7830   88.6900   21.8540 C   0  0  0  0  0  0  0  0  0  0  0  0
   55.6440   89.6340   20.8600 C   0  0  0  0  0  0  0  0  0  0  0  0
   55.4540   90.9600   21.1810 C   0  0  0  0  0  0  0  0  0  0  0  0
   55.9770   87.3330   21.5500 O   0  0  0  0  0  0  0  0  0  0  0  0
   57.1390   86.6710   22.0120 C   0  0  0  0  0  0  0  0  0  0  0  0
   55.9000   87.9420   24.4330 Cl  0  0  0  0  0  0  0  0  0  0  0  0
   53.5640   94.4020   24.5870 H   0  0  0  0  0  0  0  0  0  0  0  0
   54.0770   93.2480   25.8520 H   0  0  0  0  0  0  0  0  0  0  0  0
   54.0670   95.8370   26.4110 H   0  0  0  0  0  0  0  0  0  0  0  0
   55.2450   94.7130   27.0980 H   0  0  0  0  0  0  0  0  0  0  0  0
   57.2070   99.9130   25.8370 H   0  0  0  0  0  0  0  0  0  0  0  0
   59.4610  100.1830   24.6350 H   0  0  0  0  0  0  0  0  0  0  0  0
   60.1940   97.8450   23.7300 H   0  0  0  0  0  0  0  0  0  0  0  0
   57.4870   93.3460   23.9810 H   0  0  0  0  0  0  0  0  0  0  0  0
   57.0000   93.3000   25.7530 H   0  0  0  0  0  0  0  0  0  0  0  0
   55.4840   90.8220   24.5020 H   0  0  0  0  0  0  0  0  0  0  0  0
   55.6890   89.2960   19.8150 H   0  0  0  0  0  0  0  0  0  0  0  0
   55.3460   91.6890   20.3790 H   0  0  0  0  0  0  0  0  0  0  0  0
   57.1920   86.8750   23.1200 H   0  0  0  0  0  0  0  0  0  0  0  0
   57.0020   85.5670   21.9420 H   0  0  0  0  0  0  0  0  0  0  0  0
   58.0490   87.0110   21.4950 H   0  0  0  0  0  0  0  0  0  0  0  0
  1  4  1  0  0  0  0
  2  1  2  0  0  0  0
  3  1  2  0  0  0  0
  4 17  1  0  0  0  0
  4  5  1  0  0  0  0
  5 28  1  0  0  0  0
  5  6  1  0  0  0  0
  6 29  1  0  0  0  0
  6 30  1  0  0  0  0
  7  8  1  1  0  0  0
  7 15  1  0  0  0  0
  7  6  1  0  0  0  0
  9 10  1  0  0  0  0
  9  8  2  0  0  0  0
 10 14  1  1  0  0  0
 10 11  1  0  0  0  0
 11 12  1  0  0  0  0
 11 15  1  0  0  0  0
 12 31  1  0  0  0  0
 13 12  1  0  0  0  0
 14 13  2  0  0  0  0
 15 16  2  0  0  0  0
 17  8  1  0  0  0  0
 17 35  1  0  0  0  0
 18  1  1  0  0  0  0
 18 19  1  0  0  0  0
 19 36  1  0  0  0  0
 20 19  2  0  0  0  0
 20 26  1  0  0  0  0
 21 20  1  0  0  0  0
 22 23  1  0  0  0  0
 22 21  2  0  0  0  0
 23 18  2  0  0  0  0
 24 21  1  0  0  0  0
 24 25  1  0  0  0  0
 25 39  1  0  0  0  0
 27  5  1  0  0  0  0
 32 13  1  0  0  0  0
 33 14  1  0  0  0  0
 34 17  1  0  0  0  0
 37 22  1  0  0  0  0
 38 23  1  0  0  0  0
 40 25  1  0  0  0  0
 41 25  1  0  0  0  0
M  END
>  <Pose>
1

>  <Score>
-6.64

$$$$
