
 OpenBabel03202210083D

 41 43  0  0  1  0  0  0  0  0999 V2000
   54.6540   82.1460   17.9740 Cl  0  0  0  0  0  0  0  0  0  0  0  0
   53.7100   83.5340   18.5080 C   0  0  0  0  0  0  0  0  0  0  0  0
   53.0190   83.4640   19.6990 C   0  0  0  0  0  0  0  0  0  0  0  0
   52.2870   84.5590   20.0990 C   0  0  0  0  0  0  0  0  0  0  0  0
   52.2110   85.7420   19.3550 C   0  0  0  0  0  0  0  0  0  0  0  0
   52.9000   85.8010   18.1780 C   0  0  0  0  0  0  0  0  0  0  0  0
   53.6490   84.6980   17.7550 C   0  0  0  0  0  0  0  0  0  0  0  0
   51.4130   86.8160   19.8870 C   0  0  0  0  0  0  0  0  0  0  0  0
   50.3310   86.5410   20.4800 O   0  0  0  0  0  0  0  0  0  0  0  0
   51.8540   88.1660   19.7340 N   0  0  0  0  0  0  0  0  0  0  0  0
   51.8420   88.7290   18.4160 C   0  0  0  0  0  0  0  0  0  0  0  0
   52.4570   90.0610   18.2450 C   0  0  2  0  0  0  0  0  0  0  0  0
   53.8810   90.1460   18.3440 N   0  0  1  0  0  0  0  0  0  0  0  0
   54.2790   91.1540   17.3310 C   0  0  0  0  0  0  0  0  0  0  0  0
   53.3010   92.3130   17.5630 C   0  0  0  0  0  0  0  0  0  0  0  0
   52.7570   92.3070   18.9060 N   0  0  1  0  0  0  0  0  0  0  0  0
   51.8900   91.1500   19.1420 C   0  0  0  0  0  0  0  0  0  0  0  0
   53.8790   92.1330   19.8120 C   0  0  0  0  0  0  0  0  0  0  0  0
   54.3750   90.7100   19.5840 C   0  0  0  0  0  0  0  0  0  0  0  0
   53.0750   82.3040   20.4590 O   0  0  0  0  0  0  0  0  0  0  0  0
   52.4250   82.2120   21.7120 C   0  0  0  0  0  0  0  0  0  0  0  0
   51.7540   84.4650   21.0460 H   0  0  0  0  0  0  0  0  0  0  0  0
   52.8910   86.6700   17.5590 H   0  0  0  0  0  0  0  0  0  0  0  0
   54.1860   84.7680   16.8190 H   0  0  0  0  0  0  0  0  0  0  0  0
   52.1580   88.6750   20.5630 H   0  0  0  0  0  0  0  0  0  0  0  0
   52.2990   88.0310   17.7010 H   0  0  0  0  0  0  0  0  0  0  0  0
   50.7550   88.8350   18.1310 H   0  0  0  0  0  0  0  0  0  0  0  0
   52.1460   90.4010   17.1990 H   0  0  0  0  0  0  0  0  0  0  0  0
   54.0840   90.6710   16.3570 H   0  0  0  0  0  0  0  0  0  0  0  0
   55.3170   91.4510   17.4930 H   0  0  0  0  0  0  0  0  0  0  0  0
   53.9270   93.2270   17.4850 H   0  0  0  0  0  0  0  0  0  0  0  0
   52.5450   92.3460   16.7720 H   0  0  0  0  0  0  0  0  0  0  0  0
   51.9410   90.9150   20.2050 H   0  0  0  0  0  0  0  0  0  0  0  0
   50.8520   91.3910   18.8230 H   0  0  0  0  0  0  0  0  0  0  0  0
   53.4740   92.2290   20.8380 H   0  0  0  0  0  0  0  0  0  0  0  0
   54.6170   92.9010   19.5550 H   0  0  0  0  0  0  0  0  0  0  0  0
   54.2770   90.0860   20.4630 H   0  0  0  0  0  0  0  0  0  0  0  0
   55.4900   90.8430   19.4150 H   0  0  0  0  0  0  0  0  0  0  0  0
   51.3380   82.3310   21.5150 H   0  0  0  0  0  0  0  0  0  0  0  0
   52.7180   83.0680   22.3750 H   0  0  0  0  0  0  0  0  0  0  0  0
   52.6310   81.2380   22.1550 H   0  0  0  0  0  0  0  0  0  0  0  0
  1  2  1  0  0  0  0
  2  3  1  0  0  0  0
  3  4  2  0  0  0  0
  3 20  1  0  0  0  0
  4 22  1  0  0  0  0
  5  8  1  0  0  0  0
  5  4  1  0  0  0  0
  6  5  2  0  0  0  0
  7  6  1  0  0  0  0
  7  2  2  0  0  0  0
  8  9  2  0  0  0  0
 10  8  1  0  0  0  0
 10 25  1  0  0  0  0
 11 10  1  0  0  0  0
 12 28  1  6  0  0  0
 12 13  1  0  0  0  0
 12 11  1  0  0  0  0
 12 17  1  0  0  0  0
 13 14  1  6  0  0  0
 13 19  1  0  0  0  0
 14 30  1  0  0  0  0
 14 15  1  0  0  0  0
 16 15  1  6  0  0  0
 16 17  1  0  0  0  0
 16 18  1  0  0  0  0
 17 33  1  0  0  0  0
 18 35  1  0  0  0  0
 19 18  1  0  0  0  0
 19 37  1  0  0  0  0
 20 21  1  0  0  0  0
 21 41  1  0  0  0  0
 21 40  1  0  0  0  0
 23  6  1  0  0  0  0
 24  7  1  0  0  0  0
 26 11  1  0  0  0  0
 27 11  1  0  0  0  0
 29 14  1  0  0  0  0
 31 15  1  0  0  0  0
 32 15  1  0  0  0  0
 34 17  1  0  0  0  0
 36 18  1  0  0  0  0
 38 19  1  0  0  0  0
 39 21  1  0  0  0  0
M  END
>  <Pose>
1

>  <Score>
-5.47

$$$$
