
 OpenBabel03202210083D

 47 50  0  0  1  0  0  0  0  0999 V2000
   53.6490   84.6590   21.9080 Cl  0  0  0  0  0  0  0  0  0  0  0  0
   54.4260   86.1620   21.4780 C   0  0  0  0  0  0  0  0  0  0  0  0
   55.7570   86.4340   21.7660 C   0  0  0  0  0  0  0  0  0  0  0  0
   56.3450   87.6150   21.4220 C   0  0  0  0  0  0  0  0  0  0  0  0
   55.6250   88.5950   20.7650 C   0  0  0  0  0  0  0  0  0  0  0  0
   54.3090   88.3320   20.4770 C   0  0  0  0  0  0  0  0  0  0  0  0
   53.7140   87.1330   20.8280 C   0  0  0  0  0  0  0  0  0  0  0  0
   56.2870   89.8290   20.3940 C   0  0  2  0  0  0  0  0  0  0  0  0
   55.8180   91.0830   20.7180 N   0  0  0  0  0  4  0  0  0  0  0  0
   54.6730   91.2910   19.8560 C   0  0  0  0  0  0  0  0  0  0  0  0
   53.4820   91.7740   19.9960 C   0  0  0  0  0  0  0  0  0  0  0  0
   52.4950   91.8640   18.9040 C   0  0  0  0  0  0  0  0  0  0  0  0
   52.9390   91.3350   17.5870 C   0  0  0  0  0  0  0  0  0  0  0  0
   54.4190   91.2690   17.4110 C   0  0  0  0  0  0  0  0  0  0  0  0
   55.1030   90.8010   18.5980 N   0  0  0  0  0  0  0  0  0  0  0  0
   56.2100   89.8800   18.8410 C   0  0  0  0  0  0  0  0  0  0  0  0
   55.6140   91.5330   22.0130 C   0  0  0  0  0  0  0  0  0  0  0  0
   55.6960   90.8090   23.1530 C   0  0  0  0  0  0  0  0  0  0  0  0
   55.4740   91.4100   24.3910 C   0  0  0  0  0  0  0  0  0  0  0  0
   55.1640   92.7530   24.5200 C   0  0  0  0  0  0  0  0  0  0  0  0
   55.0870   93.4660   23.3420 C   0  0  0  0  0  0  0  0  0  0  0  0
   55.2990   92.9040   22.1110 C   0  0  0  0  0  0  0  0  0  0  0  0
   54.9490   93.3120   25.7700 O   0  0  0  0  0  0  0  0  0  0  0  0
   54.1530   94.4630   25.8820 C   0  0  0  0  0  0  0  0  0  0  0  0
   57.6860   89.7100   20.6260 O   0  0  0  0  0  0  0  0  0  0  0  0
   56.3050   85.6400   22.2880 H   0  0  0  0  0  0  0  0  0  0  0  0
   57.3990   87.7430   21.6890 H   0  0  0  0  0  0  0  0  0  0  0  0
   53.6590   89.0180   19.9580 H   0  0  0  0  0  0  0  0  0  0  0  0
   52.6600   86.9300   20.5930 H   0  0  0  0  0  0  0  0  0  0  0  0
   56.5240   91.7870   20.2890 H   0  0  0  0  0  0  0  0  0  0  0  0
   53.1350   92.1370   20.9570 H   0  0  0  0  0  0  0  0  0  0  0  0
   52.0540   92.8900   18.8370 H   0  0  0  0  0  0  0  0  0  0  0  0
   51.6200   91.2340   19.2500 H   0  0  0  0  0  0  0  0  0  0  0  0
   52.5160   92.0180   16.7960 H   0  0  0  0  0  0  0  0  0  0  0  0
   52.5420   90.3010   17.3880 H   0  0  0  0  0  0  0  0  0  0  0  0
   54.7990   92.2890   17.1140 H   0  0  0  0  0  0  0  0  0  0  0  0
   54.6910   90.5940   16.5770 H   0  0  0  0  0  0  0  0  0  0  0  0
   57.1230   90.3700   18.4490 H   0  0  0  0  0  0  0  0  0  0  0  0
   56.0320   88.8890   18.4180 H   0  0  0  0  0  0  0  0  0  0  0  0
   55.9420   89.7620   23.0850 H   0  0  0  0  0  0  0  0  0  0  0  0
   55.5560   90.7700   25.2690 H   0  0  0  0  0  0  0  0  0  0  0  0
   54.8420   94.5270   23.4660 H   0  0  0  0  0  0  0  0  0  0  0  0
   55.2350   93.5360   21.2150 H   0  0  0  0  0  0  0  0  0  0  0  0
   54.6610   95.3390   25.4330 H   0  0  0  0  0  0  0  0  0  0  0  0
   53.8400   94.6480   26.9320 H   0  0  0  0  0  0  0  0  0  0  0  0
   53.1790   94.3570   25.3230 H   0  0  0  0  0  0  0  0  0  0  0  0
   58.1170   90.2930   19.9500 H   0  0  0  0  0  0  0  0  0  0  0  0
  2  3  1  0  0  0  0
  2  1  1  0  0  0  0
  3 26  1  0  0  0  0
  4 27  1  0  0  0  0
  4  3  2  0  0  0  0
  5  4  1  0  0  0  0
  6  5  2  0  0  0  0
  6  7  1  0  0  0  0
  7  2  2  0  0  0  0
  8 25  1  1  0  0  0
  8  9  1  0  0  0  0
  8  5  1  0  0  0  0
  9 17  1  0  0  0  0
 10 11  2  0  0  0  0
 10  9  1  0  0  0  0
 11 31  1  0  0  0  0
 12 33  1  0  0  0  0
 12 11  1  0  0  0  0
 13 12  1  0  0  0  0
 14 13  1  0  0  0  0
 14 15  1  0  0  0  0
 15 16  1  0  0  0  0
 15 10  1  0  0  0  0
 16  8  1  0  0  0  0
 17 22  2  0  0  0  0
 17 18  1  0  0  0  0
 18 19  2  0  0  0  0
 19 20  1  0  0  0  0
 19 41  1  0  0  0  0
 20 23  1  0  0  0  0
 21 42  1  0  0  0  0
 21 20  2  0  0  0  0
 22 21  1  0  0  0  0
 23 24  1  0  0  0  0
 24 45  1  0  0  0  0
 28  6  1  0  0  0  0
 29  7  1  0  0  0  0
 30  9  1  0  0  0  0
 32 12  1  0  0  0  0
 34 13  1  0  0  0  0
 35 13  1  0  0  0  0
 36 14  1  0  0  0  0
 37 14  1  0  0  0  0
 38 16  1  0  0  0  0
 39 16  1  0  0  0  0
 40 18  1  0  0  0  0
 43 22  1  0  0  0  0
 44 24  1  0  0  0  0
 46 24  1  0  0  0  0
 47 25  1  0  0  0  0
M  END
>  <Pose>
1

>  <Score>
-4.61

$$$$
