
 OpenBabel03202210083D

 36 39  0  0  1  0  0  0  0  0999 V2000
   55.3380   86.4680   21.6980 Cl  0  0  0  0  0  0  0  0  0  0  0  0
   54.4160   87.5720   20.6970 C   0  0  0  0  0  0  0  0  0  0  0  0
   53.1340   87.2070   20.3430 C   0  0  0  0  0  0  0  0  0  0  0  0
   52.4580   88.1330   19.5380 C   0  0  0  0  0  0  0  0  0  0  0  0
   51.2950   87.8530   19.1890 O   0  0  0  0  0  0  0  0  0  0  0  0
   53.0380   89.2780   19.1580 N   0  0  0  0  0  0  0  0  0  0  0  0
   54.2690   89.6220   19.5020 N   0  0  0  0  0  0  0  0  0  0  0  0
   54.7450   90.9060   19.0080 C   0  0  1  0  0  0  0  0  0  0  0  0
   54.6220   90.8580   17.4960 C   0  0  1  0  0  0  0  0  0  0  0  0
   53.2750   90.4310   17.0970 C   0  0  1  0  0  0  0  0  0  0  0  0
   52.3530   90.2570   18.3110 C   0  0  2  0  0  0  0  0  0  0  0  0
   52.4510   91.5430   19.0850 C   0  0  0  0  0  0  0  0  0  0  0  0
   53.6770   91.8810   19.4450 C   0  0  0  0  0  0  0  0  0  0  0  0
   53.7760   91.8490   16.7880 C   0  0  0  0  0  0  0  0  0  0  0  0
   54.9580   88.7790   20.2650 C   0  0  0  0  0  0  0  0  0  0  0  0
   56.1280   89.0970   20.5970 O   0  0  0  0  0  0  0  0  0  0  0  0
   52.5020   85.9940   20.7440 N   0  0  0  0  0  0  0  0  0  0  0  0
   52.6590   84.7360   20.1100 C   0  0  0  0  0  0  0  0  0  0  0  0
   51.8450   83.6210   20.7140 C   0  0  0  0  0  0  0  0  0  0  0  0
   52.3160   84.7660   18.6270 C   0  0  0  0  0  0  0  0  0  0  0  0
   55.7330   91.1780   19.3630 H   0  0  0  0  0  0  0  0  0  0  0  0
   55.5420   90.5480   16.9730 H   0  0  0  0  0  0  0  0  0  0  0  0
   53.0820   89.7750   16.2280 H   0  0  0  0  0  0  0  0  0  0  0  0
   51.3440   89.9800   18.0470 H   0  0  0  0  0  0  0  0  0  0  0  0
   51.5470   92.0860   19.2890 H   0  0  0  0  0  0  0  0  0  0  0  0
   53.9790   92.7500   19.9970 H   0  0  0  0  0  0  0  0  0  0  0  0
   54.0140   92.0970   15.7520 H   0  0  0  0  0  0  0  0  0  0  0  0
   53.2900   92.6300   17.4400 H   0  0  0  0  0  0  0  0  0  0  0  0
   51.8810   86.0720   21.5770 H   0  0  0  0  0  0  0  0  0  0  0  0
   53.7180   84.4150   20.1620 H   0  0  0  0  0  0  0  0  0  0  0  0
   52.2010   83.3070   21.7160 H   0  0  0  0  0  0  0  0  0  0  0  0
   51.9410   82.6880   20.0830 H   0  0  0  0  0  0  0  0  0  0  0  0
   50.7790   83.8170   20.7770 H   0  0  0  0  0  0  0  0  0  0  0  0
   52.5760   83.7360   18.2480 H   0  0  0  0  0  0  0  0  0  0  0  0
   52.9860   85.4530   18.0810 H   0  0  0  0  0  0  0  0  0  0  0  0
   51.2530   84.9010   18.4320 H   0  0  0  0  0  0  0  0  0  0  0  0
  2  1  1  0  0  0  0
  3  2  2  0  0  0  0
  3 17  1  0  0  0  0
  4  3  1  0  0  0  0
  5  4  2  0  0  0  0
  6  7  1  0  0  0  0
  6  4  1  0  0  0  0
  7 15  1  0  0  0  0
  8 21  1  1  0  0  0
  8 13  1  0  0  0  0
  8  7  1  0  0  0  0
  9 22  1  6  0  0  0
  9  8  1  0  0  0  0
 10 23  1  6  0  0  0
 10  9  1  0  0  0  0
 10 11  1  0  0  0  0
 11 24  1  6  0  0  0
 11 12  1  0  0  0  0
 11  6  1  0  0  0  0
 12 25  1  0  0  0  0
 12 13  2  0  0  0  0
 13 26  1  0  0  0  0
 14 10  1  0  0  0  0
 14 28  1  0  0  0  0
 14  9  1  0  0  0  0
 15 16  2  0  0  0  0
 15  2  1  0  0  0  0
 17 29  1  0  0  0  0
 18 30  1  0  0  0  0
 18 19  1  0  0  0  0
 18 17  1  0  0  0  0
 19 33  1  0  0  0  0
 19 31  1  0  0  0  0
 20 18  1  0  0  0  0
 27 14  1  0  0  0  0
 32 19  1  0  0  0  0
 34 20  1  0  0  0  0
 35 20  1  0  0  0  0
 36 20  1  0  0  0  0
M  END
>  <Pose>
1

>  <Score>
-5.66

$$$$
