
 OpenBabel03202210083D

 50 54  0  0  0  0  0  0  0  0999 V2000
   51.4660  100.6140   26.4350 S   0  0  0  0  0  0  0  0  0  0  0  0
   50.7090   99.5750   25.6140 O   0  0  0  0  0  0  0  0  0  0  0  0
   51.8390  101.7790   25.5550 O   0  0  0  0  0  0  0  0  0  0  0  0
   52.7870   99.8850   27.1240 N   0  0  0  0  0  0  0  0  0  0  0  0
   53.8620   99.4410   26.3490 C   0  0  0  0  0  0  0  0  0  0  0  0
   54.5850   98.2790   27.0380 C   0  0  0  0  0  0  0  0  0  0  0  0
   53.6330   97.3100   27.4070 N   0  0  0  0  0  0  0  0  0  0  0  0
   52.6070   97.7850   28.2550 C   0  0  0  0  0  0  0  0  0  0  0  0
   52.6990   99.2880   28.3910 C   0  0  0  0  0  0  0  0  0  0  0  0
   54.1280   96.0040   27.7030 C   0  0  0  0  0  0  0  0  0  0  0  0
   54.4560   95.3180   26.4310 C   0  0  0  0  0  0  0  0  0  0  0  0
   55.6990   95.4110   25.8370 C   0  0  0  0  0  0  0  0  0  0  0  0
   56.0500   94.7950   24.6620 C   0  0  0  0  0  0  0  0  0  0  0  0
   57.2310   94.9560   24.2110 O   0  0  0  0  0  0  0  0  0  0  0  0
   55.1310   94.0280   24.0040 N   0  0  0  0  0  0  0  0  0  0  0  0
   55.3280   93.4060   22.9100 N   0  0  0  0  0  0  0  0  0  0  0  0
   54.4060   92.6910   22.3350 C   0  0  0  0  0  0  0  0  0  0  0  0
   53.1170   92.9210   23.4630 S   0  0  0  0  0  0  0  0  0  0  0  0
   53.9300   93.9400   24.5800 C   0  0  0  0  0  0  0  0  0  0  0  0
   53.5890   94.5480   25.7380 N   0  0  0  0  0  0  0  0  0  0  0  0
   54.4050   91.9020   21.0980 C   0  0  0  0  0  0  0  0  0  0  0  0
   53.3930   92.1070   20.1840 C   0  0  0  0  0  0  0  0  0  0  0  0
   53.3360   91.3930   18.9950 C   0  0  0  0  0  0  0  0  0  0  0  0
   54.3080   90.4560   18.7110 C   0  0  0  0  0  0  0  0  0  0  0  0
   55.3340   90.2330   19.6140 C   0  0  0  0  0  0  0  0  0  0  0  0
   55.3470   90.9650   20.7790 C   0  0  0  0  0  0  0  0  0  0  0  0
   54.2490   89.5570   17.2300 Cl  0  0  0  0  0  0  0  0  0  0  0  0
   50.3340  101.1570   27.6540 C   0  0  0  0  0  0  0  0  0  0  0  0
   49.9870  102.4450   27.9290 N   0  0  0  0  0  0  0  0  0  0  0  0
   49.1000  102.4820   28.9250 C   0  0  0  0  0  0  0  0  0  0  0  0
   48.8340  101.2330   29.3330 N   0  0  0  0  0  0  0  0  0  0  0  0
   49.5950  100.4220   28.5490 C   0  0  0  0  0  0  0  0  0  0  0  0
   54.5900  100.3080   26.2520 H   0  0  0  0  0  0  0  0  0  0  0  0
   53.6290   99.0880   25.3180 H   0  0  0  0  0  0  0  0  0  0  0  0
   55.0550   98.7090   27.9470 H   0  0  0  0  0  0  0  0  0  0  0  0
   55.3840   97.8760   26.3750 H   0  0  0  0  0  0  0  0  0  0  0  0
   51.6240   97.5810   27.7720 H   0  0  0  0  0  0  0  0  0  0  0  0
   52.6450   97.3490   29.2870 H   0  0  0  0  0  0  0  0  0  0  0  0
   51.7950   99.6840   28.9440 H   0  0  0  0  0  0  0  0  0  0  0  0
   53.5740   99.5760   29.0130 H   0  0  0  0  0  0  0  0  0  0  0  0
   53.3200   95.4360   28.2070 H   0  0  0  0  0  0  0  0  0  0  0  0
   55.0410   96.0920   28.2990 H   0  0  0  0  0  0  0  0  0  0  0  0
   56.4320   96.0370   26.3850 H   0  0  0  0  0  0  0  0  0  0  0  0
   52.6080   92.8270   20.3540 H   0  0  0  0  0  0  0  0  0  0  0  0
   52.5560   91.5300   18.2590 H   0  0  0  0  0  0  0  0  0  0  0  0
   56.0960   89.4990   19.3920 H   0  0  0  0  0  0  0  0  0  0  0  0
   56.1490   90.7850   21.4730 H   0  0  0  0  0  0  0  0  0  0  0  0
   48.6640  103.3830   29.3350 H   0  0  0  0  0  0  0  0  0  0  0  0
   48.1860  100.9510   30.0870 H   0  0  0  0  0  0  0  0  0  0  0  0
   49.5870   99.3540   28.6540 H   0  0  0  0  0  0  0  0  0  0  0  0
  1  4  1  0  0  0  0
  1 28  1  0  0  0  0
  2  1  2  0  0  0  0
  3  1  2  0  0  0  0
  4  9  1  0  0  0  0
  5  6  1  0  0  0  0
  5  4  1  0  0  0  0
  6  7  1  0  0  0  0
  6 35  1  0  0  0  0
  7 10  1  0  0  0  0
  7  8  1  0  0  0  0
  8  9  1  0  0  0  0
  8 38  1  0  0  0  0
  9 39  1  0  0  0  0
  9 40  1  0  0  0  0
 10 41  1  0  0  0  0
 10 42  1  0  0  0  0
 11 10  1  0  0  0  0
 12 43  1  0  0  0  0
 12 11  2  0  0  0  0
 13 12  1  0  0  0  0
 14 13  2  0  0  0  0
 15 19  1  0  0  0  0
 15 13  1  0  0  0  0
 16 15  1  0  0  0  0
 17 16  2  0  0  0  0
 17 18  1  0  0  0  0
 18 19  1  0  0  0  0
 19 20  2  0  0  0  0
 20 11  1  0  0  0  0
 21 17  1  0  0  0  0
 22 44  1  0  0  0  0
 22 21  2  0  0  0  0
 23 22  1  0  0  0  0
 24 23  2  0  0  0  0
 24 25  1  0  0  0  0
 25 26  2  0  0  0  0
 26 21  1  0  0  0  0
 26 47  1  0  0  0  0
 27 24  1  0  0  0  0
 28 29  1  0  0  0  0
 28 32  2  0  0  0  0
 29 30  2  0  0  0  0
 30 31  1  0  0  0  0
 30 48  1  0  0  0  0
 31 49  1  0  0  0  0
 32 50  1  0  0  0  0
 32 31  1  0  0  0  0
 33  5  1  0  0  0  0
 34  5  1  0  0  0  0
 36  6  1  0  0  0  0
 37  8  1  0  0  0  0
 45 23  1  0  0  0  0
 46 25  1  0  0  0  0
M  END
>  <Pose>
1

>  <Score>
-9.19

$$$$
