
 OpenBabel03202210083D

 55 58  0  0  0  0  0  0  0  0999 V2000
   54.9280   97.1470   26.8960 S   0  0  0  0  0  0  0  0  0  0  0  0
   55.9780   97.5010   27.9320 O   0  0  0  0  0  0  0  0  0  0  0  0
   55.1800   97.9100   25.6450 O   0  0  0  0  0  0  0  0  0  0  0  0
   55.1100   95.4120   26.5470 N   0  0  0  0  0  0  0  0  0  0  0  0
   53.8650   95.0050   25.9660 C   0  0  0  0  0  0  0  0  0  0  0  0
   53.9660   93.7480   25.0820 C   0  0  0  0  0  0  0  0  0  0  0  0
   54.9610   94.0250   24.0950 N   0  0  0  0  0  0  0  0  0  0  0  0
   56.2320   94.1040   24.7600 C   0  0  0  0  0  0  0  0  0  0  0  0
   56.1850   95.4170   25.4920 C   0  0  0  0  0  0  0  0  0  0  0  0
   54.8080   93.5200   22.8150 C   0  0  0  0  0  0  0  0  0  0  0  0
   54.7630   92.0640   22.6610 C   0  0  0  0  0  0  0  0  0  0  0  0
   53.7490   91.6650   21.9350 O   0  0  0  0  0  0  0  0  0  0  0  0
   55.5750   91.0670   23.1200 N   0  0  0  0  0  0  0  0  0  0  0  0
   55.7910   89.7840   22.4480 C   0  0  0  0  0  0  0  0  0  0  0  0
   55.5700   88.6910   23.4160 C   0  0  0  0  0  0  0  0  0  0  0  0
   55.1450   87.4130   22.9870 C   0  0  0  0  0  0  0  0  0  0  0  0
   54.8010   86.4340   23.8390 C   0  0  0  0  0  0  0  0  0  0  0  0
   54.8560   86.6530   25.2510 C   0  0  0  0  0  0  0  0  0  0  0  0
   55.2470   87.8590   25.6740 C   0  0  0  0  0  0  0  0  0  0  0  0
   55.6070   88.8980   24.8080 C   0  0  0  0  0  0  0  0  0  0  0  0
   55.0900   87.1000   21.2340 Cl  0  0  0  0  0  0  0  0  0  0  0  0
   53.3730   97.5170   27.5310 C   0  0  0  0  0  0  0  0  0  0  0  0
   53.1420   98.8760   27.7830 C   0  0  0  0  0  0  0  0  0  0  0  0
   51.9100   99.3810   28.2080 C   0  0  0  0  0  0  0  0  0  0  0  0
   50.8610   98.4850   28.3880 C   0  0  0  0  0  0  0  0  0  0  0  0
   51.1070   97.1460   28.1410 C   0  0  0  0  0  0  0  0  0  0  0  0
   52.3350   96.6560   27.7150 C   0  0  0  0  0  0  0  0  0  0  0  0
   49.6710   99.0530   28.8030 O   0  0  0  0  0  0  0  0  0  0  0  0
   49.3110  100.3390   28.2310 C   0  0  0  0  0  0  0  0  0  0  0  0
   50.4640  101.2830   28.1440 C   0  0  0  0  0  0  0  0  0  0  0  0
   51.7210  100.7310   28.4520 O   0  0  0  0  0  0  0  0  0  0  0  0
   53.2170   94.6690   26.8480 H   0  0  0  0  0  0  0  0  0  0  0  0
   53.2510   95.7570   25.4530 H   0  0  0  0  0  0  0  0  0  0  0  0
   54.2690   92.9080   25.7080 H   0  0  0  0  0  0  0  0  0  0  0  0
   53.0340   93.5190   24.5840 H   0  0  0  0  0  0  0  0  0  0  0  0
   56.3500   93.3090   25.4890 H   0  0  0  0  0  0  0  0  0  0  0  0
   57.0560   94.2070   24.0050 H   0  0  0  0  0  0  0  0  0  0  0  0
   55.8200   96.2080   24.7570 H   0  0  0  0  0  0  0  0  0  0  0  0
   57.1110   95.6150   25.9930 H   0  0  0  0  0  0  0  0  0  0  0  0
   55.7650   93.9030   22.2520 H   0  0  0  0  0  0  0  0  0  0  0  0
   54.0150   94.0150   22.1920 H   0  0  0  0  0  0  0  0  0  0  0  0
   56.1740   91.1340   24.0090 H   0  0  0  0  0  0  0  0  0  0  0  0
   54.8890   89.7360   21.7350 H   0  0  0  0  0  0  0  0  0  0  0  0
   56.7280   89.7730   21.9390 H   0  0  0  0  0  0  0  0  0  0  0  0
   54.4900   85.4910   23.4800 H   0  0  0  0  0  0  0  0  0  0  0  0
   54.5810   85.8630   25.9070 H   0  0  0  0  0  0  0  0  0  0  0  0
   55.2960   88.0860   26.7440 H   0  0  0  0  0  0  0  0  0  0  0  0
   55.8790   89.8430   25.2100 H   0  0  0  0  0  0  0  0  0  0  0  0
   53.9980   99.5670   27.6510 H   0  0  0  0  0  0  0  0  0  0  0  0
   50.2880   96.4980   28.3100 H   0  0  0  0  0  0  0  0  0  0  0  0
   52.4610   95.6100   27.5240 H   0  0  0  0  0  0  0  0  0  0  0  0
   48.8780  100.0800   27.2080 H   0  0  0  0  0  0  0  0  0  0  0  0
   48.5210  100.7820   28.8380 H   0  0  0  0  0  0  0  0  0  0  0  0
   50.3070  102.1400   28.8070 H   0  0  0  0  0  0  0  0  0  0  0  0
   50.4760  101.6580   27.0810 H   0  0  0  0  0  0  0  0  0  0  0  0
  1 22  1  0  0  0  0
  1  2  2  0  0  0  0
  3  1  2  0  0  0  0
  4  1  1  0  0  0  0
  5  4  1  0  0  0  0
  5 32  1  0  0  0  0
  6 34  1  0  0  0  0
  6  5  1  0  0  0  0
  7  8  1  0  0  0  0
  7  6  1  0  0  0  0
  8 36  1  0  0  0  0
  8  9  1  0  0  0  0
  9 39  1  0  0  0  0
  9  4  1  0  0  0  0
 10  7  1  0  0  0  0
 11 10  1  0  0  0  0
 11 13  1  0  0  0  0
 12 11  2  0  0  0  0
 13 42  1  0  0  0  0
 14 13  1  0  0  0  0
 14 15  1  0  0  0  0
 15 20  1  0  0  0  0
 16 15  2  0  0  0  0
 16 17  1  0  0  0  0
 17 18  2  0  0  0  0
 18 19  1  0  0  0  0
 18 46  1  0  0  0  0
 19 47  1  0  0  0  0
 20 48  1  0  0  0  0
 20 19  2  0  0  0  0
 21 16  1  0  0  0  0
 22 27  2  0  0  0  0
 22 23  1  0  0  0  0
 23 24  2  0  0  0  0
 24 25  1  0  0  0  0
 24 31  1  0  0  0  0
 25 28  1  0  0  0  0
 26 50  1  0  0  0  0
 26 25  2  0  0  0  0
 27 26  1  0  0  0  0
 29 28  1  0  0  0  0
 29 53  1  0  0  0  0
 30 29  1  0  0  0  0
 30 31  1  0  0  0  0
 30 54  1  0  0  0  0
 33  5  1  0  0  0  0
 35  6  1  0  0  0  0
 37  8  1  0  0  0  0
 38  9  1  0  0  0  0
 40 10  1  0  0  0  0
 41 10  1  0  0  0  0
 43 14  1  0  0  0  0
 44 14  1  0  0  0  0
 45 17  1  0  0  0  0
 49 23  1  0  0  0  0
 51 27  1  0  0  0  0
 52 29  1  0  0  0  0
 55 30  1  0  0  0  0
M  END
>  <Pose>
1

>  <Score>
-7.71

$$$$
