
 OpenBabel03202210083D

 68 71  0  0  0  0  0  0  0  0999 V2000
   55.1080   85.2750   25.3550 S   0  0  0  0  0  0  0  0  0  0  0  0
   56.0290   84.3720   26.1380 O   0  0  0  0  0  0  0  0  0  0  0  0
   54.7030   86.3700   26.3170 O   0  0  0  0  0  0  0  0  0  0  0  0
   55.7640   85.8290   23.9310 N   0  0  0  0  0  0  0  0  0  0  0  0
   57.0230   86.3840   23.8380 C   0  0  0  0  0  0  0  0  0  0  0  0
   56.9750   87.6910   23.0920 C   0  0  0  0  0  0  0  0  0  0  0  0
   56.1780   87.7020   21.9170 N   0  0  0  0  0  0  0  0  0  0  0  0
   55.7380   86.3890   21.5690 C   0  0  0  0  0  0  0  0  0  0  0  0
   55.0200   85.7420   22.7490 C   0  0  0  0  0  0  0  0  0  0  0  0
   55.1010   88.6480   21.9470 C   0  0  0  0  0  0  0  0  0  0  0  0
   55.5600   90.0050   21.4960 C   0  0  0  0  0  0  0  0  0  0  0  0
   56.4900   90.5320   22.1450 O   0  0  0  0  0  0  0  0  0  0  0  0
   54.9640   90.6550   20.3860 N   0  0  0  0  0  0  0  0  0  0  0  0
   54.8550   89.9130   19.1630 C   0  0  0  0  0  0  0  0  0  0  0  0
   53.5340   89.9210   18.4960 C   0  0  0  0  0  0  0  0  0  0  0  0
   53.5880   90.8200   17.2850 C   0  0  0  0  0  0  0  0  0  0  0  0
   53.1760   92.2580   17.6140 C   0  0  0  0  0  0  0  0  0  0  0  0
   51.7020   92.3130   17.9630 C   0  0  0  0  0  0  0  0  0  0  0  0
   51.3470   90.9970   18.6320 C   0  0  0  0  0  0  0  0  0  0  0  0
   52.5530   90.6130   19.4630 C   0  0  0  0  0  0  0  0  0  0  0  0
   52.9500   88.6790   18.1620 N   0  0  0  0  0  0  0  0  0  0  0  0
   53.7090   87.7610   17.3910 C   0  0  0  0  0  0  0  0  0  0  0  0
   52.6980   86.7460   16.8260 C   0  0  0  0  0  0  0  0  0  0  0  0
   52.1000   86.0560   17.8530 O   0  0  0  0  0  0  0  0  0  0  0  0
   52.4950   86.4470   19.1070 C   0  0  0  0  0  0  0  0  0  0  0  0
   52.4000   87.9620   19.2920 C   0  0  0  0  0  0  0  0  0  0  0  0
   53.6710   84.3150   25.0170 C   0  0  0  0  0  0  0  0  0  0  0  0
   52.5090   84.8990   24.5940 C   0  0  0  0  0  0  0  0  0  0  0  0
   51.3890   84.1560   24.3310 C   0  0  0  0  0  0  0  0  0  0  0  0
   51.4410   82.7890   24.4990 C   0  0  0  0  0  0  0  0  0  0  0  0
   52.6130   82.1950   24.9270 C   0  0  0  0  0  0  0  0  0  0  0  0
   53.7290   82.9490   25.1870 C   0  0  0  0  0  0  0  0  0  0  0  0
   49.9890   81.8660   24.1530 Cl  0  0  0  0  0  0  0  0  0  0  0  0
   57.7920   85.7640   23.2930 H   0  0  0  0  0  0  0  0  0  0  0  0
   57.5070   86.5940   24.8280 H   0  0  0  0  0  0  0  0  0  0  0  0
   58.0240   87.9530   22.7930 H   0  0  0  0  0  0  0  0  0  0  0  0
   56.6860   88.4700   23.8290 H   0  0  0  0  0  0  0  0  0  0  0  0
   56.6280   85.7410   21.3270 H   0  0  0  0  0  0  0  0  0  0  0  0
   55.0220   86.4460   20.7420 H   0  0  0  0  0  0  0  0  0  0  0  0
   54.0000   86.2200   22.8210 H   0  0  0  0  0  0  0  0  0  0  0  0
   54.8290   84.6660   22.4650 H   0  0  0  0  0  0  0  0  0  0  0  0
   54.5740   88.6930   22.9220 H   0  0  0  0  0  0  0  0  0  0  0  0
   54.3450   88.3350   21.1970 H   0  0  0  0  0  0  0  0  0  0  0  0
   54.6310   91.6470   20.5150 H   0  0  0  0  0  0  0  0  0  0  0  0
   55.6490   90.3000   18.4850 H   0  0  0  0  0  0  0  0  0  0  0  0
   55.0900   88.8240   19.3740 H   0  0  0  0  0  0  0  0  0  0  0  0
   52.8720   90.4910   16.4890 H   0  0  0  0  0  0  0  0  0  0  0  0
   54.6220   90.9040   16.8820 H   0  0  0  0  0  0  0  0  0  0  0  0
   53.3280   92.8490   16.6910 H   0  0  0  0  0  0  0  0  0  0  0  0
   53.8140   92.7010   18.3980 H   0  0  0  0  0  0  0  0  0  0  0  0
   51.5420   93.1440   18.6810 H   0  0  0  0  0  0  0  0  0  0  0  0
   51.1310   92.4860   17.0490 H   0  0  0  0  0  0  0  0  0  0  0  0
   50.4420   91.0910   19.2790 H   0  0  0  0  0  0  0  0  0  0  0  0
   51.1950   90.2120   17.8650 H   0  0  0  0  0  0  0  0  0  0  0  0
   52.2250   89.9510   20.2600 H   0  0  0  0  0  0  0  0  0  0  0  0
   53.0470   91.4890   19.9320 H   0  0  0  0  0  0  0  0  0  0  0  0
   54.1770   88.2040   16.4870 H   0  0  0  0  0  0  0  0  0  0  0  0
   54.4460   87.1520   17.9490 H   0  0  0  0  0  0  0  0  0  0  0  0
   51.8980   87.3750   16.3430 H   0  0  0  0  0  0  0  0  0  0  0  0
   53.1710   86.1150   16.0720 H   0  0  0  0  0  0  0  0  0  0  0  0
   53.5120   86.0760   19.4020 H   0  0  0  0  0  0  0  0  0  0  0  0
   51.7980   86.0090   19.8650 H   0  0  0  0  0  0  0  0  0  0  0  0
   51.3260   88.2110   19.3810 H   0  0  0  0  0  0  0  0  0  0  0  0
   52.9020   88.1780   20.2520 H   0  0  0  0  0  0  0  0  0  0  0  0
   52.4500   85.9890   24.4550 H   0  0  0  0  0  0  0  0  0  0  0  0
   50.4680   84.6340   23.9950 H   0  0  0  0  0  0  0  0  0  0  0  0
   52.6390   81.1120   25.0550 H   0  0  0  0  0  0  0  0  0  0  0  0
   54.6430   82.4560   25.5250 H   0  0  0  0  0  0  0  0  0  0  0  0
  1  2  2  0  0  0  0
  1  3  2  0  0  0  0
  4  1  1  0  0  0  0
  5  4  1  0  0  0  0
  5 35  1  0  0  0  0
  6 37  1  0  0  0  0
  6  5  1  0  0  0  0
  7 10  1  0  0  0  0
  7  6  1  0  0  0  0
  8  7  1  0  0  0  0
  8  9  1  0  0  0  0
  9 40  1  0  0  0  0
  9  4  1  0  0  0  0
 10 42  1  0  0  0  0
 11 10  1  0  0  0  0
 11 12  2  0  0  0  0
 13 44  1  0  0  0  0
 13 11  1  0  0  0  0
 14 46  1  0  0  0  0
 14 13  1  0  0  0  0
 15 14  1  0  0  0  0
 15 20  1  0  0  0  0
 16 17  1  0  0  0  0
 16 15  1  0  0  0  0
 17 18  1  0  0  0  0
 17 50  1  0  0  0  0
 18 19  1  0  0  0  0
 18 51  1  0  0  0  0
 19 53  1  0  0  0  0
 19 20  1  0  0  0  0
 20 56  1  0  0  0  0
 20 55  1  0  0  0  0
 21 15  1  0  0  0  0
 21 26  1  0  0  0  0
 22 58  1  0  0  0  0
 22 21  1  0  0  0  0
 23 22  1  0  0  0  0
 23 24  1  0  0  0  0
 24 25  1  0  0  0  0
 25 26  1  0  0  0  0
 25 61  1  0  0  0  0
 25 62  1  0  0  0  0
 26 63  1  0  0  0  0
 26 64  1  0  0  0  0
 27 32  1  0  0  0  0
 27  1  1  0  0  0  0
 28 27  2  0  0  0  0
 29 30  2  0  0  0  0
 29 28  1  0  0  0  0
 30 31  1  0  0  0  0
 31 67  1  0  0  0  0
 31 32  2  0  0  0  0
 32 68  1  0  0  0  0
 33 30  1  0  0  0  0
 34  5  1  0  0  0  0
 36  6  1  0  0  0  0
 38  8  1  0  0  0  0
 39  8  1  0  0  0  0
 41  9  1  0  0  0  0
 43 10  1  0  0  0  0
 45 14  1  0  0  0  0
 47 16  1  0  0  0  0
 48 16  1  0  0  0  0
 49 17  1  0  0  0  0
 52 18  1  0  0  0  0
 54 19  1  0  0  0  0
 57 22  1  0  0  0  0
 59 23  1  0  0  0  0
 60 23  1  0  0  0  0
 65 28  1  0  0  0  0
 66 29  1  0  0  0  0
M  END
>  <Pose>
1

>  <Score>
-5.91

$$$$
