
 OpenBabel03202210083D

 38 41  0  0  0  0  0  0  0  0999 V2000
   49.0530  100.0730   28.6850 Cl  0  0  0  0  0  0  0  0  0  0  0  0
   50.5110   99.3010   28.0960 C   0  0  0  0  0  0  0  0  0  0  0  0
   50.8890   98.0280   28.5010 C   0  0  0  0  0  0  0  0  0  0  0  0
   52.0230   97.3980   28.0690 C   0  0  0  0  0  0  0  0  0  0  0  0
   52.8510   98.0310   27.1880 C   0  0  0  0  0  0  0  0  0  0  0  0
   52.4980   99.3100   26.7600 C   0  0  0  0  0  0  0  0  0  0  0  0
   51.3480   99.9310   27.2080 C   0  0  0  0  0  0  0  0  0  0  0  0
   54.1000   97.4840   26.6350 C   0  0  0  0  0  0  0  0  0  0  0  0
   53.9610   97.3140   25.1580 C   0  0  0  0  0  0  0  0  0  0  0  0
   53.1560   96.0440   24.8340 C   0  0  0  0  0  0  0  0  0  0  0  0
   54.0300   94.9720   25.3330 N   0  0  0  0  0  0  0  0  0  0  0  0
   54.2000   94.9570   26.7520 C   0  0  0  0  0  0  0  0  0  0  0  0
   54.6260   96.2790   27.3220 C   0  0  0  0  0  0  0  0  0  0  0  0
   54.6110   94.0770   24.4030 C   0  0  0  0  0  0  0  0  0  0  0  0
   53.9230   93.7250   23.3030 N   0  0  0  0  0  0  0  0  0  0  0  0
   54.3580   92.9120   22.3600 N   0  0  0  0  0  0  0  0  0  0  0  0
   53.8600   92.4410   21.2140 N   0  0  0  0  0  0  0  0  0  0  0  0
   54.7230   91.6410   20.6290 N   0  0  0  0  0  0  0  0  0  0  0  0
   55.7840   91.5890   21.3870 N   0  0  0  0  0  0  0  0  0  0  0  0
   55.5720   92.3760   22.4710 C   0  0  0  0  0  0  0  0  0  0  0  0
   56.3410   92.6920   23.5780 C   0  0  0  0  0  0  0  0  0  0  0  0
   55.8690   93.5440   24.5540 C   0  0  0  0  0  0  0  0  0  0  0  0
   55.0540   98.5190   26.8120 O   0  0  0  0  0  0  0  0  0  0  0  0
   50.2570   97.5080   29.2000 H   0  0  0  0  0  0  0  0  0  0  0  0
   52.3120   96.4030   28.3820 H   0  0  0  0  0  0  0  0  0  0  0  0
   53.0900   99.8820   26.0690 H   0  0  0  0  0  0  0  0  0  0  0  0
   51.0830  100.9500   26.8650 H   0  0  0  0  0  0  0  0  0  0  0  0
   53.4150   98.1620   24.6960 H   0  0  0  0  0  0  0  0  0  0  0  0
   54.9250   97.2140   24.6310 H   0  0  0  0  0  0  0  0  0  0  0  0
   52.9960   95.9610   23.7510 H   0  0  0  0  0  0  0  0  0  0  0  0
   52.2250   95.9810   25.4150 H   0  0  0  0  0  0  0  0  0  0  0  0
   53.1850   94.7200   27.1960 H   0  0  0  0  0  0  0  0  0  0  0  0
   54.8910   94.1660   27.0970 H   0  0  0  0  0  0  0  0  0  0  0  0
   55.7540   96.2960   27.2110 H   0  0  0  0  0  0  0  0  0  0  0  0
   54.4600   96.2910   28.4070 H   0  0  0  0  0  0  0  0  0  0  0  0
   57.3160   92.2400   23.6320 H   0  0  0  0  0  0  0  0  0  0  0  0
   56.4660   93.7900   25.4140 H   0  0  0  0  0  0  0  0  0  0  0  0
   54.7550   99.2860   26.2340 H   0  0  0  0  0  0  0  0  0  0  0  0
  2  3  1  0  0  0  0
  2  1  1  0  0  0  0
  3 24  1  0  0  0  0
  4 25  1  0  0  0  0
  4  3  2  0  0  0  0
  5  4  1  0  0  0  0
  6  5  2  0  0  0  0
  6  7  1  0  0  0  0
  7  2  2  0  0  0  0
  8 23  1  0  0  0  0
  8  5  1  0  0  0  0
  8 13  1  0  0  0  0
  9  8  1  0  0  0  0
 10  9  1  0  0  0  0
 10 11  1  0  0  0  0
 10 31  1  0  0  0  0
 11 12  1  0  0  0  0
 12 33  1  0  0  0  0
 12 32  1  0  0  0  0
 12 13  1  0  0  0  0
 13 35  1  0  0  0  0
 14 22  1  0  0  0  0
 14 11  1  0  0  0  0
 15 14  2  0  0  0  0
 16 20  1  0  0  0  0
 16 15  1  0  0  0  0
 17 16  1  0  0  0  0
 18 17  2  0  0  0  0
 18 19  1  0  0  0  0
 19 20  2  0  0  0  0
 20 21  1  0  0  0  0
 21 36  1  0  0  0  0
 21 22  2  0  0  0  0
 22 37  1  0  0  0  0
 26  6  1  0  0  0  0
 27  7  1  0  0  0  0
 28  9  1  0  0  0  0
 29  9  1  0  0  0  0
 30 10  1  0  0  0  0
 34 13  1  0  0  0  0
 38 23  1  0  0  0  0
M  END
>  <Pose>
1

>  <Score>
-5.51

$$$$
