
 OpenBabel03202210083D

 49 52  0  0  1  0  0  0  0  0999 V2000
   45.7090  103.0320   31.6210 Cl  0  0  0  0  0  0  0  0  0  0  0  0
   47.1090  102.4380   30.7280 C   0  0  0  0  0  0  0  0  0  0  0  0
   46.9810  101.4220   29.8190 C   0  0  0  0  0  0  0  0  0  0  0  0
   48.0870  100.9660   29.1260 C   0  0  0  0  0  0  0  0  0  0  0  0
   49.3450  101.5000   29.3080 C   0  0  0  0  0  0  0  0  0  0  0  0
   49.4580  102.5230   30.2260 C   0  0  0  0  0  0  0  0  0  0  0  0
   48.3420  102.9910   30.9340 C   0  0  0  0  0  0  0  0  0  0  0  0
   50.4810  101.0310   28.5890 N   0  0  0  0  0  0  0  0  0  0  0  0
   51.7970  100.6800   29.1110 C   0  0  0  0  0  0  0  0  0  0  0  0
   52.3850   99.6870   28.1480 C   0  0  2  0  0  0  0  0  0  0  0  0
   51.6070   99.7910   26.8790 C   0  0  0  0  0  0  0  0  0  0  0  0
   50.5650  100.8040   27.1650 C   0  0  0  0  0  0  0  0  0  0  0  0
   49.8050  101.4370   26.3610 O   0  0  0  0  0  0  0  0  0  0  0  0
   52.5540   98.3300   28.6830 C   0  0  0  0  0  0  0  0  0  0  0  0
   51.8800   98.0350   29.7400 O   0  0  0  0  0  0  0  0  0  0  0  0
   53.3700   97.3170   28.1690 N   0  0  0  0  0  0  0  0  0  0  0  0
   54.3230   96.6360   29.0300 C   0  0  0  0  0  0  0  0  0  0  0  0
   55.7360   96.7590   28.4690 C   0  0  0  0  0  0  0  0  0  0  0  0
   55.6720   96.7390   27.0370 N   0  0  0  0  0  0  0  0  0  0  0  0
   54.5710   96.0750   26.4070 C   0  0  0  0  0  0  0  0  0  0  0  0
   53.3210   96.8910   26.7900 C   0  0  0  0  0  0  0  0  0  0  0  0
   56.6680   97.3650   26.2570 C   0  0  0  0  0  0  0  0  0  0  0  0
   57.3210   96.8310   25.1890 N   0  0  0  0  0  0  0  0  0  0  0  0
   58.1870   97.7350   24.7110 C   0  0  0  0  0  0  0  0  0  0  0  0
   58.0930   98.8690   25.4830 C   0  0  0  0  0  0  0  0  0  0  0  0
   57.1740   98.6060   26.3960 N   0  0  0  0  0  0  0  0  0  0  0  0
   57.1110   95.4800   24.6510 C   0  0  0  0  0  0  0  0  0  0  0  0
   45.9910  100.9990   29.6740 H   0  0  0  0  0  0  0  0  0  0  0  0
   47.9240  100.1590   28.4210 H   0  0  0  0  0  0  0  0  0  0  0  0
   50.4050  102.9660   30.4030 H   0  0  0  0  0  0  0  0  0  0  0  0
   48.4430  103.7950   31.6520 H   0  0  0  0  0  0  0  0  0  0  0  0
   51.6970  100.3210   30.1330 H   0  0  0  0  0  0  0  0  0  0  0  0
   52.3780  101.6430   29.1400 H   0  0  0  0  0  0  0  0  0  0  0  0
   53.4100  100.1050   27.8980 H   0  0  0  0  0  0  0  0  0  0  0  0
   52.2000  100.2290   26.0190 H   0  0  0  0  0  0  0  0  0  0  0  0
   51.2210   98.8300   26.5150 H   0  0  0  0  0  0  0  0  0  0  0  0
   54.0450   95.5550   29.0310 H   0  0  0  0  0  0  0  0  0  0  0  0
   54.2720   96.9730   30.0750 H   0  0  0  0  0  0  0  0  0  0  0  0
   56.2930   95.8420   28.7780 H   0  0  0  0  0  0  0  0  0  0  0  0
   56.1990   97.6830   28.8760 H   0  0  0  0  0  0  0  0  0  0  0  0
   54.6230   96.1080   25.2960 H   0  0  0  0  0  0  0  0  0  0  0  0
   54.4710   95.0430   26.7980 H   0  0  0  0  0  0  0  0  0  0  0  0
   52.4480   96.2510   26.5530 H   0  0  0  0  0  0  0  0  0  0  0  0
   53.4030   97.7900   26.1600 H   0  0  0  0  0  0  0  0  0  0  0  0
   58.8480   97.5980   23.8650 H   0  0  0  0  0  0  0  0  0  0  0  0
   58.6530   99.8060   25.3810 H   0  0  0  0  0  0  0  0  0  0  0  0
   58.0630   94.9030   24.7520 H   0  0  0  0  0  0  0  0  0  0  0  0
   56.3280   94.9830   25.2430 H   0  0  0  0  0  0  0  0  0  0  0  0
   56.8870   95.5420   23.5840 H   0  0  0  0  0  0  0  0  0  0  0  0
  2  7  1  0  0  0  0
  2  1  1  0  0  0  0
  3  2  2  0  0  0  0
  4  5  2  0  0  0  0
  4  3  1  0  0  0  0
  5  6  1  0  0  0  0
  6 30  1  0  0  0  0
  6  7  2  0  0  0  0
  7 31  1  0  0  0  0
  8  9  1  0  0  0  0
  8  5  1  0  0  0  0
  9 33  1  0  0  0  0
  9 32  1  0  0  0  0
 10 34  1  6  0  0  0
 10 14  1  0  0  0  0
 10  9  1  0  0  0  0
 11 12  1  0  0  0  0
 11 10  1  0  0  0  0
 12  8  1  0  0  0  0
 13 12  2  0  0  0  0
 14 15  2  0  0  0  0
 16 14  1  0  0  0  0
 16 17  1  0  0  0  0
 17 37  1  0  0  0  0
 17 38  1  0  0  0  0
 18 39  1  0  0  0  0
 18 40  1  0  0  0  0
 18 17  1  0  0  0  0
 19 18  1  0  0  0  0
 20 21  1  0  0  0  0
 20 42  1  0  0  0  0
 20 19  1  0  0  0  0
 21 16  1  0  0  0  0
 22 26  2  0  0  0  0
 22 19  1  0  0  0  0
 23 22  1  0  0  0  0
 24 23  1  0  0  0  0
 24 25  2  0  0  0  0
 25 26  1  0  0  0  0
 27 47  1  0  0  0  0
 27 23  1  0  0  0  0
 27 48  1  0  0  0  0
 28  3  1  0  0  0  0
 29  4  1  0  0  0  0
 35 11  1  0  0  0  0
 36 11  1  0  0  0  0
 41 20  1  0  0  0  0
 43 21  1  0  0  0  0
 44 21  1  0  0  0  0
 45 24  1  0  0  0  0
 46 25  1  0  0  0  0
 49 27  1  0  0  0  0
M  END
>  <Pose>
1

>  <Score>
-6.87

$$$$
