
 OpenBabel03202210083D

 45 48  0  0  1  0  0  0  0  0999 V2000
   53.3460   83.6400   16.3890 Cl  0  0  0  0  0  0  0  0  0  0  0  0
   53.5230   84.0000   18.0960 C   0  0  0  0  0  0  0  0  0  0  0  0
   53.0460   85.2000   18.6250 C   0  0  0  0  0  0  0  0  0  0  0  0
   53.1830   85.5010   19.9530 C   0  0  0  0  0  0  0  0  0  0  0  0
   53.8030   84.6410   20.8620 C   0  0  0  0  0  0  0  0  0  0  0  0
   54.2710   83.4520   20.3270 C   0  0  0  0  0  0  0  0  0  0  0  0
   54.1350   83.1480   18.9940 C   0  0  0  0  0  0  0  0  0  0  0  0
   53.9370   84.9780   22.2280 N   0  0  0  0  0  0  0  0  0  0  0  0
   53.0120   84.3780   23.1460 C   0  0  0  0  0  0  0  0  0  0  0  0
   52.1580   83.5600   22.7020 O   0  0  0  0  0  0  0  0  0  0  0  0
   53.1280   84.7550   24.5070 N   0  0  0  0  0  0  0  0  0  0  0  0
   53.9660   85.5750   24.9670 C   0  0  0  0  0  0  0  0  0  0  0  0
   54.9980   86.3160   24.1640 C   0  0  1  0  0  0  0  0  0  0  0  0
   54.5890   87.7590   24.2640 C   0  0  0  0  0  0  0  0  0  0  0  0
   55.5930   88.7340   24.0760 N   0  0  0  0  0  4  0  0  0  0  0  0
   56.8530   88.4540   24.6560 C   0  0  0  0  0  0  0  0  0  0  0  0
   57.1870   87.1770   24.9750 C   0  0  0  0  0  0  0  0  0  0  0  0
   58.4360   86.9410   25.5420 C   0  0  0  0  0  0  0  0  0  0  0  0
   59.3000   87.9930   25.7690 C   0  0  0  0  0  0  0  0  0  0  0  0
   58.9570   89.2970   25.4440 C   0  0  0  0  0  0  0  0  0  0  0  0
   57.7040   89.5190   24.8760 C   0  0  0  0  0  0  0  0  0  0  0  0
   60.6460   87.7730   26.3880 C   0  0  0  0  0  0  0  0  0  0  0  0
   56.3170   86.0010   24.7580 C   0  0  0  0  0  0  0  0  0  0  0  0
   55.7740   89.1890   22.7060 C   0  0  0  0  0  0  0  0  0  0  0  0
   54.8930   85.8840   22.7490 C   0  0  0  0  0  0  0  0  0  0  0  0
   55.7150   86.3330   21.8710 O   0  0  0  0  0  0  0  0  0  0  0  0
   53.9910   85.8670   26.3430 O   0  0  0  0  0  0  0  0  0  0  0  0
   52.5590   85.8790   17.9120 H   0  0  0  0  0  0  0  0  0  0  0  0
   52.8010   86.4550   20.3630 H   0  0  0  0  0  0  0  0  0  0  0  0
   54.7470   82.7910   21.0360 H   0  0  0  0  0  0  0  0  0  0  0  0
   54.5270   82.1920   18.6200 H   0  0  0  0  0  0  0  0  0  0  0  0
   54.0440   87.9550   25.2300 H   0  0  0  0  0  0  0  0  0  0  0  0
   53.8070   87.9090   23.4660 H   0  0  0  0  0  0  0  0  0  0  0  0
   55.2620   89.6130   24.5890 H   0  0  0  0  0  0  0  0  0  0  0  0
   58.7530   85.9400   25.8180 H   0  0  0  0  0  0  0  0  0  0  0  0
   59.6270   90.1510   25.6170 H   0  0  0  0  0  0  0  0  0  0  0  0
   57.4430   90.5460   24.6250 H   0  0  0  0  0  0  0  0  0  0  0  0
   60.7140   86.7870   26.8970 H   0  0  0  0  0  0  0  0  0  0  0  0
   60.8690   88.6280   27.0800 H   0  0  0  0  0  0  0  0  0  0  0  0
   61.4140   87.7950   25.6030 H   0  0  0  0  0  0  0  0  0  0  0  0
   56.2210   85.5280   25.7830 H   0  0  0  0  0  0  0  0  0  0  0  0
   56.8820   85.2690   24.1540 H   0  0  0  0  0  0  0  0  0  0  0  0
   54.9190   88.9340   22.0440 H   0  0  0  0  0  0  0  0  0  0  0  0
   56.7620   88.8370   22.3230 H   0  0  0  0  0  0  0  0  0  0  0  0
   55.8500   90.3180   22.6590 H   0  0  0  0  0  0  0  0  0  0  0  0
  1  2  1  0  0  0  0
  2  3  2  0  0  0  0
  2  7  1  0  0  0  0
  3  4  1  0  0  0  0
  4 29  1  0  0  0  0
  4  5  2  0  0  0  0
  5  8  1  0  0  0  0
  6  5  1  0  0  0  0
  6 30  1  0  0  0  0
  7  6  2  0  0  0  0
  8 25  1  0  0  0  0
  8  9  1  0  0  0  0
  9 11  1  0  0  0  0
 10  9  2  0  0  0  0
 11 12  1  0  0  0  0
 12 27  2  0  0  0  0
 13 25  1  6  0  0  0
 13 14  1  0  0  0  0
 13 23  1  0  0  0  0
 13 12  1  0  0  0  0
 14 32  1  0  0  0  0
 15 14  1  0  0  0  0
 15 34  1  0  0  0  0
 15 16  1  0  0  0  0
 16 21  2  0  0  0  0
 16 17  1  0  0  0  0
 17 18  2  0  0  0  0
 18 19  1  0  0  0  0
 18 35  1  0  0  0  0
 19 22  1  0  0  0  0
 20 36  1  0  0  0  0
 20 19  2  0  0  0  0
 21 20  1  0  0  0  0
 22 38  1  0  0  0  0
 22 39  1  0  0  0  0
 23 17  1  0  0  0  0
 23 41  1  0  0  0  0
 24 15  1  0  0  0  0
 26 25  2  0  0  0  0
 28  3  1  0  0  0  0
 31  7  1  0  0  0  0
 33 14  1  0  0  0  0
 37 21  1  0  0  0  0
 40 22  1  0  0  0  0
 42 23  1  0  0  0  0
 43 24  1  0  0  0  0
 44 24  1  0  0  0  0
 45 24  1  0  0  0  0
M  END
>  <Pose>
1

>  <Score>
-4.80

$$$$
