
 OpenBabel03202210083D

 35 38  0  0  1  0  0  0  0  0999 V2000
   53.0950   92.5090   18.3520 Cl  0  0  0  0  0  0  0  0  0  0  0  0
   53.8160   91.1680   19.2390 C   0  0  0  0  0  0  0  0  0  0  0  0
   54.5890   91.4040   20.3610 C   0  0  0  0  0  0  0  0  0  0  0  0
   55.1580   90.3730   21.0690 C   0  0  0  0  0  0  0  0  0  0  0  0
   54.9700   89.0430   20.6740 C   0  0  0  0  0  0  0  0  0  0  0  0
   54.1960   88.8470   19.5550 C   0  0  0  0  0  0  0  0  0  0  0  0
   53.6150   89.8580   18.8280 C   0  0  0  0  0  0  0  0  0  0  0  0
   55.5540   87.9800   21.4160 N   0  0  0  0  0  0  0  0  0  0  0  0
   56.8550   87.9140   22.0210 C   0  0  0  0  0  0  0  0  0  0  0  0
   57.7700   88.7430   21.7830 O   0  0  0  0  0  0  0  0  0  0  0  0
   56.9490   86.7530   22.9410 C   0  0  1  0  0  0  0  0  0  0  0  0
   57.1510   87.1330   24.3720 C   0  0  1  0  0  0  0  0  0  0  0  0
   56.4780   88.4730   24.5830 C   0  0  1  0  0  0  0  0  0  0  0  0
   55.0100   88.1140   24.3620 C   0  0  1  0  0  0  0  0  0  0  0  0
   54.9690   86.6130   24.1920 C   0  0  1  0  0  0  0  0  0  0  0  0
   55.5410   86.1470   22.8900 C   0  0  1  0  0  0  0  0  0  0  0  0
   54.9030   86.7510   21.6950 C   0  0  0  0  0  0  0  0  0  0  0  0
   53.9520   86.2310   21.0620 O   0  0  0  0  0  0  0  0  0  0  0  0
   56.1460   86.2440   25.1240 C   0  0  0  0  0  0  0  0  0  0  0  0
   54.2520   88.3940   25.4970 O   0  0  0  0  0  0  0  0  0  0  0  0
   56.6280   88.8160   25.9090 O   0  0  0  0  0  0  0  0  0  0  0  0
   54.7310   92.4400   20.6600 H   0  0  0  0  0  0  0  0  0  0  0  0
   55.7620   90.5300   21.9400 H   0  0  0  0  0  0  0  0  0  0  0  0
   54.0250   87.8230   19.2140 H   0  0  0  0  0  0  0  0  0  0  0  0
   53.0010   89.6810   17.9400 H   0  0  0  0  0  0  0  0  0  0  0  0
   57.6740   85.9950   22.5800 H   0  0  0  0  0  0  0  0  0  0  0  0
   58.1510   87.0550   24.7570 H   0  0  0  0  0  0  0  0  0  0  0  0
   56.8230   89.2350   23.8740 H   0  0  0  0  0  0  0  0  0  0  0  0
   54.5860   88.6580   23.5250 H   0  0  0  0  0  0  0  0  0  0  0  0
   54.0410   86.1390   24.4980 H   0  0  0  0  0  0  0  0  0  0  0  0
   55.5610   85.0450   22.8720 H   0  0  0  0  0  0  0  0  0  0  0  0
   56.3940   85.1920   25.0750 H   0  0  0  0  0  0  0  0  0  0  0  0
   55.9520   86.6640   26.1310 H   0  0  0  0  0  0  0  0  0  0  0  0
   53.4810   88.9660   25.2030 H   0  0  0  0  0  0  0  0  0  0  0  0
   55.7890   88.8720   26.4230 H   0  0  0  0  0  0  0  0  0  0  0  0
  1  2  1  0  0  0  0
  2  3  1  0  0  0  0
  3 22  1  0  0  0  0
  3  4  2  0  0  0  0
  4 23  1  0  0  0  0
  5  4  1  0  0  0  0
  5  8  1  0  0  0  0
  6  5  2  0  0  0  0
  7  2  2  0  0  0  0
  7  6  1  0  0  0  0
  8 17  1  0  0  0  0
  8  9  1  0  0  0  0
  9 11  1  0  0  0  0
 10  9  2  0  0  0  0
 11 26  1  6  0  0  0
 11 12  1  0  0  0  0
 12 13  1  0  0  0  0
 12 27  1  1  0  0  0
 12 19  1  0  0  0  0
 13 28  1  6  0  0  0
 13 21  1  0  0  0  0
 14 29  1  6  0  0  0
 14 13  1  0  0  0  0
 14 20  1  0  0  0  0
 15 14  1  0  0  0  0
 15 30  1  1  0  0  0
 15 19  1  0  0  0  0
 16 31  1  6  0  0  0
 16 11  1  0  0  0  0
 16 15  1  0  0  0  0
 17 16  1  0  0  0  0
 18 17  2  0  0  0  0
 19 33  1  0  0  0  0
 21 35  1  0  0  0  0
 24  6  1  0  0  0  0
 25  7  1  0  0  0  0
 32 19  1  0  0  0  0
 34 20  1  0  0  0  0
M  END
>  <Pose>
1

>  <Score>
-5.48

$$$$
