
 OpenBabel03202210083D

 43 46  0  0  1  0  0  0  0  0999 V2000
   49.8890   81.5630   24.9960 Cl  0  0  0  0  0  0  0  0  0  0  0  0
   51.2960   82.5840   24.9470 C   0  0  0  0  0  0  0  0  0  0  0  0
   51.5940   83.3440   26.0700 C   0  0  0  0  0  0  0  0  0  0  0  0
   52.7080   84.1620   26.0540 C   0  0  0  0  0  0  0  0  0  0  0  0
   53.5510   84.2650   24.9650 C   0  0  0  0  0  0  0  0  0  0  0  0
   53.2370   83.5010   23.8580 C   0  0  0  0  0  0  0  0  0  0  0  0
   52.1320   82.6700   23.8370 C   0  0  0  0  0  0  0  0  0  0  0  0
   54.7100   85.1290   24.9820 N   0  0  0  0  0  0  0  0  0  0  0  0
   55.8520   84.6720   25.7250 C   0  0  0  0  0  0  0  0  0  0  0  0
   55.8430   83.5600   26.3360 O   0  0  0  0  0  0  0  0  0  0  0  0
   56.9870   85.5260   25.7390 N   0  0  0  0  0  0  0  0  0  0  0  0
   56.9700   86.7880   25.0340 C   0  0  0  0  0  0  0  0  0  0  0  0
   58.0670   87.2550   24.7030 O   0  0  0  0  0  0  0  0  0  0  0  0
   55.7000   87.4290   24.7540 C   0  0  2  0  0  0  0  0  0  0  0  0
   54.7410   86.3750   24.3050 C   0  0  0  0  0  0  0  0  0  0  0  0
   53.9410   86.5200   23.3460 O   0  0  0  0  0  0  0  0  0  0  0  0
   55.7020   88.5930   23.8980 C   0  0  0  0  0  0  0  0  0  0  0  0
   56.0080   88.6860   22.6240 C   0  0  0  0  0  0  0  0  0  0  0  0
   55.8720   90.0820   22.1380 C   0  0  2  0  0  0  0  0  0  0  0  0
   55.1900   90.7340   23.2310 N   0  0  0  0  0  0  0  0  0  0  0  0
   55.3550   89.9190   24.3490 N   0  0  0  0  0  0  0  0  0  0  0  0
   55.0240   90.1990   20.9460 C   0  0  0  0  0  0  0  0  0  0  0  0
   54.3340   91.3850   20.7490 C   0  0  0  0  0  0  0  0  0  0  0  0
   53.5310   91.5270   19.6410 C   0  0  0  0  0  0  0  0  0  0  0  0
   53.3920   90.5200   18.7150 C   0  0  0  0  0  0  0  0  0  0  0  0
   54.0700   89.3370   18.8960 C   0  0  0  0  0  0  0  0  0  0  0  0
   54.8830   89.1960   20.0220 C   0  0  0  0  0  0  0  0  0  0  0  0
   52.8290   92.7210   19.4300 O   0  0  0  0  0  0  0  0  0  0  0  0
   50.9430   83.2860   26.9540 H   0  0  0  0  0  0  0  0  0  0  0  0
   52.9390   84.7500   26.9190 H   0  0  0  0  0  0  0  0  0  0  0  0
   53.8520   83.5360   22.9840 H   0  0  0  0  0  0  0  0  0  0  0  0
   51.8580   82.0570   22.9850 H   0  0  0  0  0  0  0  0  0  0  0  0
   57.8200   85.2150   26.2680 H   0  0  0  0  0  0  0  0  0  0  0  0
   55.3070   87.7850   25.7740 H   0  0  0  0  0  0  0  0  0  0  0  0
   56.3300   87.9060   21.9330 H   0  0  0  0  0  0  0  0  0  0  0  0
   56.8860   90.5240   21.9660 H   0  0  0  0  0  0  0  0  0  0  0  0
   54.1920   90.9460   23.0190 H   0  0  0  0  0  0  0  0  0  0  0  0
   55.2350   90.2680   25.3230 H   0  0  0  0  0  0  0  0  0  0  0  0
   54.4370   92.1880   21.4740 H   0  0  0  0  0  0  0  0  0  0  0  0
   52.7560   90.6340   17.8370 H   0  0  0  0  0  0  0  0  0  0  0  0
   54.0040   88.5000   18.2020 H   0  0  0  0  0  0  0  0  0  0  0  0
   55.4220   88.2710   20.1760 H   0  0  0  0  0  0  0  0  0  0  0  0
   52.9280   93.1980   18.5510 H   0  0  0  0  0  0  0  0  0  0  0  0
  2  1  1  0  0  0  0
  2  3  1  0  0  0  0
  3 29  1  0  0  0  0
  4  3  2  0  0  0  0
  4 30  1  0  0  0  0
  5  8  1  0  0  0  0
  5  4  1  0  0  0  0
  6  5  2  0  0  0  0
  7  6  1  0  0  0  0
  7  2  2  0  0  0  0
  8  9  1  0  0  0  0
  9 11  1  0  0  0  0
  9 10  2  0  0  0  0
 11 33  1  0  0  0  0
 12 11  1  0  0  0  0
 13 12  2  0  0  0  0
 14 12  1  0  0  0  0
 14 34  1  1  0  0  0
 15 14  1  0  0  0  0
 15  8  1  0  0  0  0
 16 15  2  0  0  0  0
 17 21  1  0  0  0  0
 17 14  1  0  0  0  0
 18 17  2  0  0  0  0
 19 36  1  6  0  0  0
 19 18  1  0  0  0  0
 19 20  1  0  0  0  0
 20 21  1  0  0  0  0
 21 38  1  0  0  0  0
 22 19  1  0  0  0  0
 23 22  1  0  0  0  0
 23 39  1  0  0  0  0
 24 23  2  0  0  0  0
 25 26  2  0  0  0  0
 25 24  1  0  0  0  0
 26 27  1  0  0  0  0
 27 42  1  0  0  0  0
 27 22  2  0  0  0  0
 28 24  1  0  0  0  0
 31  6  1  0  0  0  0
 32  7  1  0  0  0  0
 35 18  1  0  0  0  0
 37 20  1  0  0  0  0
 40 25  1  0  0  0  0
 41 26  1  0  0  0  0
 43 28  1  0  0  0  0
M  END
>  <Pose>
1

>  <Score>
-6.92

$$$$
