
 OpenBabel03202210083D

 52 55  0  0  1  0  0  0  0  0999 V2000
   55.2160   80.4150   19.5770 Cl  0  0  0  0  0  0  0  0  0  0  0  0
   54.4630   81.9650   19.3030 C   0  0  0  0  0  0  0  0  0  0  0  0
   54.4730   82.6200   18.0970 C   0  0  0  0  0  0  0  0  0  0  0  0
   53.8650   83.8400   17.9350 C   0  0  0  0  0  0  0  0  0  0  0  0
   53.2050   84.4720   18.9950 C   0  0  0  0  0  0  0  0  0  0  0  0
   53.1930   83.8230   20.1940 C   0  0  0  0  0  0  0  0  0  0  0  0
   53.8070   82.6000   20.3470 C   0  0  0  0  0  0  0  0  0  0  0  0
   52.5790   85.7550   18.7570 C   0  0  0  0  0  0  0  0  0  0  0  0
   52.3580   86.1200   17.5550 O   0  0  0  0  0  0  0  0  0  0  0  0
   52.1700   86.6860   19.8300 C   0  0  0  0  0  0  0  0  0  0  0  0
   53.3710   87.3630   20.3290 N   0  0  0  0  0  0  0  0  0  0  0  0
   54.0400   88.4060   19.8680 C   0  0  2  0  0  0  0  0  0  0  0  0
   55.1030   88.6930   20.6660 N   0  0  0  0  0  0  0  0  0  0  0  0
   55.1100   87.8240   21.6530 C   0  0  0  0  0  0  0  0  0  0  0  0
   54.0050   86.9750   21.4340 C   0  0  0  0  0  0  0  0  0  0  0  0
   56.0380   87.6600   22.7760 C   0  0  0  0  0  0  0  0  0  0  0  0
   56.1720   88.5000   23.8340 C   0  0  0  0  0  0  0  0  0  0  0  0
   57.1240   88.3240   24.8360 C   0  0  0  0  0  0  0  0  0  0  0  0
   57.9860   87.2620   24.7940 C   0  0  0  0  0  0  0  0  0  0  0  0
   57.8740   86.3910   23.7370 C   0  0  0  0  0  0  0  0  0  0  0  0
   56.9290   86.5810   22.7530 C   0  0  0  0  0  0  0  0  0  0  0  0
   58.9550   87.0600   25.7910 O   0  0  0  0  0  0  0  0  0  0  0  0
   59.8360   88.0680   26.2080 C   0  0  0  0  0  0  0  0  0  0  0  0
   56.0440   89.7430   20.3930 C   0  0  0  0  0  0  0  0  0  0  0  0
   55.4280   91.1050   20.7060 C   0  0  0  0  0  0  0  0  0  0  0  0
   53.9550   90.9670   20.3050 C   0  0  0  0  0  0  0  0  0  0  0  0
   53.9030   90.6510   18.8360 C   0  0  0  0  0  0  0  0  0  0  0  0
   53.6240   89.1520   18.6410 C   0  0  0  0  0  0  0  0  0  0  0  0
   54.9750   82.1610   17.2530 H   0  0  0  0  0  0  0  0  0  0  0  0
   53.8960   84.3310   16.9540 H   0  0  0  0  0  0  0  0  0  0  0  0
   52.7070   84.2500   21.0480 H   0  0  0  0  0  0  0  0  0  0  0  0
   53.7740   82.1140   21.3240 H   0  0  0  0  0  0  0  0  0  0  0  0
   51.5130   87.4530   19.3280 H   0  0  0  0  0  0  0  0  0  0  0  0
   51.6110   86.2060   20.6340 H   0  0  0  0  0  0  0  0  0  0  0  0
   53.7390   86.1420   22.0890 H   0  0  0  0  0  0  0  0  0  0  0  0
   55.5130   89.3180   23.9530 H   0  0  0  0  0  0  0  0  0  0  0  0
   57.1980   89.0230   25.6660 H   0  0  0  0  0  0  0  0  0  0  0  0
   58.5560   85.5550   23.7080 H   0  0  0  0  0  0  0  0  0  0  0  0
   56.8520   85.8920   21.9250 H   0  0  0  0  0  0  0  0  0  0  0  0
   59.2940   88.7670   26.8820 H   0  0  0  0  0  0  0  0  0  0  0  0
   60.7510   87.6450   26.6890 H   0  0  0  0  0  0  0  0  0  0  0  0
   60.2230   88.6920   25.3490 H   0  0  0  0  0  0  0  0  0  0  0  0
   57.0630   89.5980   20.6780 H   0  0  0  0  0  0  0  0  0  0  0  0
   56.1160   89.7880   19.2330 H   0  0  0  0  0  0  0  0  0  0  0  0
   55.5440   91.3280   21.7700 H   0  0  0  0  0  0  0  0  0  0  0  0
   55.8400   91.9100   20.0980 H   0  0  0  0  0  0  0  0  0  0  0  0
   53.5210   90.1020   20.8780 H   0  0  0  0  0  0  0  0  0  0  0  0
   53.3630   91.8440   20.5990 H   0  0  0  0  0  0  0  0  0  0  0  0
   53.0610   91.2450   18.4130 H   0  0  0  0  0  0  0  0  0  0  0  0
   54.7970   90.9820   18.2750 H   0  0  0  0  0  0  0  0  0  0  0  0
   54.2750   88.7550   17.8190 H   0  0  0  0  0  0  0  0  0  0  0  0
   52.5780   88.9620   18.3530 H   0  0  0  0  0  0  0  0  0  0  0  0
  2  1  1  0  0  0  0
  2  7  1  0  0  0  0
  3  2  2  0  0  0  0
  4  3  1  0  0  0  0
  4  5  2  0  0  0  0
  5  6  1  0  0  0  0
  6  7  2  0  0  0  0
  6 31  1  0  0  0  0
  7 32  1  0  0  0  0
  8  5  1  0  0  0  0
  8 10  1  0  0  0  0
  9  8  2  0  0  0  0
 10 11  1  0  0  0  0
 10 34  1  0  0  0  0
 11 15  1  0  0  0  0
 12 28  1  1  0  0  0
 12 11  1  0  0  0  0
 12 13  1  0  0  0  0
 13 14  1  0  0  0  0
 14 16  1  0  0  0  0
 15 14  2  0  0  0  0
 15 35  1  0  0  0  0
 16 17  1  0  0  0  0
 17 36  1  0  0  0  0
 17 18  2  0  0  0  0
 18 37  1  0  0  0  0
 19 18  1  0  0  0  0
 19 22  1  0  0  0  0
 20 19  2  0  0  0  0
 21 16  2  0  0  0  0
 21 20  1  0  0  0  0
 22 23  1  0  0  0  0
 23 41  1  0  0  0  0
 23 40  1  0  0  0  0
 24 13  1  0  0  0  0
 24 43  1  0  0  0  0
 24 25  1  0  0  0  0
 25 45  1  0  0  0  0
 26 48  1  0  0  0  0
 26 25  1  0  0  0  0
 26 47  1  0  0  0  0
 27 26  1  0  0  0  0
 28 27  1  0  0  0  0
 29  3  1  0  0  0  0
 30  4  1  0  0  0  0
 33 10  1  0  0  0  0
 38 20  1  0  0  0  0
 39 21  1  0  0  0  0
 42 23  1  0  0  0  0
 44 24  1  0  0  0  0
 46 25  1  0  0  0  0
 49 27  1  0  0  0  0
 50 27  1  0  0  0  0
 51 28  1  0  0  0  0
 52 28  1  0  0  0  0
M  END
>  <Pose>
1

>  <Score>
-6.56

$$$$
