
 OpenBabel03202210083D

 58 61  0  0  1  0  0  0  0  0999 V2000
   60.2530   88.2170   26.5120 Cl  0  0  0  0  0  0  0  0  0  0  0  0
   58.7500   88.0310   25.5770 C   0  0  0  0  0  0  0  0  0  0  0  0
   58.4500   86.8360   24.9660 C   0  0  0  0  0  0  0  0  0  0  0  0
   57.2690   86.7090   24.2200 C   0  0  0  0  0  0  0  0  0  0  0  0
   56.3770   87.7610   24.0780 C   0  0  0  0  0  0  0  0  0  0  0  0
   56.6950   88.9280   24.6940 C   0  0  0  0  0  0  0  0  0  0  0  0
   57.8600   89.0820   25.4350 C   0  0  0  0  0  0  0  0  0  0  0  0
   55.1870   87.5020   23.2370 C   0  0  1  0  0  0  0  0  0  0  0  0
   55.3740   87.8190   21.8130 C   0  0  0  0  0  0  0  0  0  0  0  0
   54.6750   86.9400   20.8070 C   0  0  0  0  0  0  0  0  0  0  0  0
   53.7650   85.9830   21.3460 N   0  0  0  0  0  0  0  0  0  0  0  0
   54.2990   85.2300   22.4990 C   0  0  0  0  0  0  0  0  0  0  0  0
   54.7800   86.0860   23.5640 C   0  0  0  0  0  0  0  0  0  0  0  0
   52.5770   85.5110   20.7390 C   0  0  0  0  0  0  0  0  0  0  0  0
   51.6540   85.0600   21.4130 O   0  0  0  0  0  0  0  0  0  0  0  0
   52.4200   85.5600   19.2260 C   0  0  1  0  0  0  0  0  0  0  0  0
   52.1090   84.2400   18.7300 N   0  0  0  0  0  0  0  0  0  0  0  0
   52.8240   83.0820   19.0270 C   0  0  0  0  0  0  0  0  0  0  0  0
   52.2280   82.4370   20.0930 O   0  0  0  0  0  0  0  0  0  0  0  0
   53.9240   82.3700   18.5720 C   0  0  0  0  0  0  0  0  0  0  0  0
   54.5580   81.7820   17.6020 C   0  0  0  0  0  0  0  0  0  0  0  0
   55.8630   81.1650   17.8710 N   0  0  0  0  0  0  0  0  0  0  0  0
   56.5680   80.4400   16.9300 N   0  0  0  0  0  0  0  0  0  0  0  0
   56.0890   80.2390   15.6450 C   0  0  0  0  0  0  0  0  0  0  0  0
   56.6990   79.5930   14.7550 O   0  0  0  0  0  0  0  0  0  0  0  0
   54.7780   80.8250   15.2780 C   0  0  0  0  0  0  0  0  0  0  0  0
   54.1090   81.5360   16.2450 C   0  0  0  0  0  0  0  0  0  0  0  0
   52.8320   81.9820   15.8850 C   0  0  0  0  0  0  0  0  0  0  0  0
   52.3060   81.7220   14.6280 C   0  0  0  0  0  0  0  0  0  0  0  0
   53.0150   81.0170   13.6910 C   0  0  0  0  0  0  0  0  0  0  0  0
   54.2710   80.5600   14.0290 C   0  0  0  0  0  0  0  0  0  0  0  0
   51.8820   86.7520   18.6380 C   0  0  0  0  0  0  0  0  0  0  0  0
   54.1540   88.3590   23.7220 O   0  0  0  0  0  0  0  0  0  0  0  0
   59.1400   86.0000   25.0750 H   0  0  0  0  0  0  0  0  0  0  0  0
   57.0720   85.7470   23.7700 H   0  0  0  0  0  0  0  0  0  0  0  0
   56.0530   89.8000   24.6450 H   0  0  0  0  0  0  0  0  0  0  0  0
   58.1230   89.9990   25.9200 H   0  0  0  0  0  0  0  0  0  0  0  0
   56.4460   87.8940   21.4870 H   0  0  0  0  0  0  0  0  0  0  0  0
   54.9640   88.8660   21.6380 H   0  0  0  0  0  0  0  0  0  0  0  0
   55.4950   86.2840   20.3230 H   0  0  0  0  0  0  0  0  0  0  0  0
   54.2840   87.4810   19.9240 H   0  0  0  0  0  0  0  0  0  0  0  0
   55.2390   84.7310   22.0130 H   0  0  0  0  0  0  0  0  0  0  0  0
   53.6580   84.4190   22.8180 H   0  0  0  0  0  0  0  0  0  0  0  0
   54.0590   86.1100   24.4050 H   0  0  0  0  0  0  0  0  0  0  0  0
   55.6750   85.5400   24.0410 H   0  0  0  0  0  0  0  0  0  0  0  0
   53.5890   85.5960   18.9340 H   0  0  0  0  0  0  0  0  0  0  0  0
   51.2820   84.2830   18.0440 H   0  0  0  0  0  0  0  0  0  0  0  0
   54.6600   82.2140   19.5250 H   0  0  0  0  0  0  0  0  0  0  0  0
   56.2410   81.3070   18.8470 H   0  0  0  0  0  0  0  0  0  0  0  0
   57.5030   80.0240   17.1940 H   0  0  0  0  0  0  0  0  0  0  0  0
   52.2580   82.4740   16.5960 H   0  0  0  0  0  0  0  0  0  0  0  0
   51.2990   82.0970   14.3730 H   0  0  0  0  0  0  0  0  0  0  0  0
   52.5490   80.8420   12.7370 H   0  0  0  0  0  0  0  0  0  0  0  0
   54.8700   79.9940   13.3280 H   0  0  0  0  0  0  0  0  0  0  0  0
   50.9320   86.6460   18.0650 H   0  0  0  0  0  0  0  0  0  0  0  0
   52.5860   87.2390   17.8770 H   0  0  0  0  0  0  0  0  0  0  0  0
   51.7740   87.5900   19.3870 H   0  0  0  0  0  0  0  0  0  0  0  0
   53.6630   87.9480   24.4530 H   0  0  0  0  0  0  0  0  0  0  0  0
  2  1  1  0  0  0  0
  3 34  1  0  0  0  0
  3  2  2  0  0  0  0
  4  3  1  0  0  0  0
  5  4  2  0  0  0  0
  5  6  1  0  0  0  0
  6  7  2  0  0  0  0
  7  2  1  0  0  0  0
  7 37  1  0  0  0  0
  8 13  1  0  0  0  0
  8 33  1  1  0  0  0
  8  5  1  0  0  0  0
  9  8  1  0  0  0  0
 10 11  1  0  0  0  0
 10  9  1  0  0  0  0
 11 12  1  0  0  0  0
 12 43  1  0  0  0  0
 12 13  1  0  0  0  0
 13 45  1  0  0  0  0
 13 44  1  0  0  0  0
 14 11  1  0  0  0  0
 14 15  2  0  0  0  0
 16 46  1  6  0  0  0
 16 14  1  0  0  0  0
 17 18  1  0  0  0  0
 17 16  1  0  0  0  0
 18 19  2  0  0  0  0
 20 18  1  0  0  0  0
 20 48  1  0  0  0  0
 21 22  1  0  0  0  0
 21 20  2  0  0  0  0
 22 49  1  0  0  0  0
 23 50  1  0  0  0  0
 23 22  1  0  0  0  0
 24 23  1  0  0  0  0
 25 24  2  0  0  0  0
 26 24  1  0  0  0  0
 26 27  1  0  0  0  0
 27 21  1  0  0  0  0
 28 27  2  0  0  0  0
 28 51  1  0  0  0  0
 29 28  1  0  0  0  0
 30 31  1  0  0  0  0
 30 29  2  0  0  0  0
 31 26  2  0  0  0  0
 32 16  1  0  0  0  0
 32 57  1  0  0  0  0
 33 58  1  0  0  0  0
 35  4  1  0  0  0  0
 36  6  1  0  0  0  0
 38  9  1  0  0  0  0
 39  9  1  0  0  0  0
 40 10  1  0  0  0  0
 41 10  1  0  0  0  0
 42 12  1  0  0  0  0
 47 17  1  0  0  0  0
 52 29  1  0  0  0  0
 53 30  1  0  0  0  0
 54 31  1  0  0  0  0
 55 32  1  0  0  0  0
 56 32  1  0  0  0  0
M  END
>  <Pose>
1

>  <Score>
-6.87

$$$$
