
 OpenBabel03202210083D

 48 51  0  0  1  0  0  0  0  0999 V2000
   57.2230   95.4860   24.5540 Cl  0  0  0  0  0  0  0  0  0  0  0  0
   55.6170   95.3010   25.2520 C   0  0  0  0  0  0  0  0  0  0  0  0
   54.9840   94.0920   25.0880 C   0  0  0  0  0  0  0  0  0  0  0  0
   53.7220   93.9800   25.6480 C   0  0  0  0  0  0  0  0  0  0  0  0
   53.1820   95.0200   26.3080 N   0  0  0  0  0  0  0  0  0  0  0  0
   53.7800   96.1880   26.4730 N   0  0  0  0  0  0  0  0  0  0  0  0
   55.0070   96.3310   25.9410 C   0  0  0  0  0  0  0  0  0  0  0  0
   55.6400   97.4180   26.0590 O   0  0  0  0  0  0  0  0  0  0  0  0
   53.1500   97.2610   27.1890 C   0  0  0  0  0  0  0  0  0  0  0  0
   52.3640   96.9940   28.2910 C   0  0  0  0  0  0  0  0  0  0  0  0
   51.7450   98.0290   28.9980 C   0  0  0  0  0  0  0  0  0  0  0  0
   51.9100   99.3330   28.6030 C   0  0  0  0  0  0  0  0  0  0  0  0
   52.6880   99.6120   27.5090 C   0  0  0  0  0  0  0  0  0  0  0  0
   53.2910   98.5840   26.8260 C   0  0  0  0  0  0  0  0  0  0  0  0
   55.6250   93.0540   24.3800 N   0  0  0  0  0  0  0  0  0  0  0  0
   55.0940   92.5440   23.1200 C   0  0  0  0  0  0  0  0  0  0  0  0
   54.6340   91.1080   23.4370 C   0  0  0  0  0  0  0  0  0  0  0  0
   55.6940   90.3700   24.0510 N   0  0  0  0  0  0  0  0  0  0  0  0
   57.0030   91.0470   24.1680 C   0  0  0  0  0  0  0  0  0  0  0  0
   56.8450   92.4040   24.8230 C   0  0  0  0  0  0  0  0  0  0  0  0
   55.5500   89.0450   24.5380 C   0  0  0  0  0  0  0  0  0  0  0  0
   55.3100   88.8140   25.7610 O   0  0  0  0  0  0  0  0  0  0  0  0
   55.6670   87.8590   23.6730 C   0  0  1  0  0  0  0  0  0  0  0  0
   56.1610   88.1900   22.4490 O   0  0  0  0  0  0  0  0  0  0  0  0
   56.9020   87.1170   21.9700 C   0  0  0  0  0  0  0  0  0  0  0  0
   57.6620   86.7040   23.2230 C   0  0  0  0  0  0  0  0  0  0  0  0
   56.5700   86.8020   24.2670 C   0  0  0  0  0  0  0  0  0  0  0  0
   53.2150   93.0320   25.5250 H   0  0  0  0  0  0  0  0  0  0  0  0
   52.1910   95.9980   28.6580 H   0  0  0  0  0  0  0  0  0  0  0  0
   51.1240   97.8430   29.8670 H   0  0  0  0  0  0  0  0  0  0  0  0
   51.4420  100.1520   29.1320 H   0  0  0  0  0  0  0  0  0  0  0  0
   52.8450  100.6150   27.1640 H   0  0  0  0  0  0  0  0  0  0  0  0
   53.8970   98.8080   25.9700 H   0  0  0  0  0  0  0  0  0  0  0  0
   55.9110   92.4850   22.3830 H   0  0  0  0  0  0  0  0  0  0  0  0
   54.2130   93.0800   22.7790 H   0  0  0  0  0  0  0  0  0  0  0  0
   53.8200   91.2560   24.1830 H   0  0  0  0  0  0  0  0  0  0  0  0
   54.2230   90.6620   22.5090 H   0  0  0  0  0  0  0  0  0  0  0  0
   57.3360   91.2220   23.1260 H   0  0  0  0  0  0  0  0  0  0  0  0
   57.7090   90.4070   24.6930 H   0  0  0  0  0  0  0  0  0  0  0  0
   57.7310   93.0260   24.5540 H   0  0  0  0  0  0  0  0  0  0  0  0
   56.8750   92.2740   25.9220 H   0  0  0  0  0  0  0  0  0  0  0  0
   54.6460   87.4100   23.6360 H   0  0  0  0  0  0  0  0  0  0  0  0
   56.2640   86.2960   21.5940 H   0  0  0  0  0  0  0  0  0  0  0  0
   57.6120   87.4210   21.1930 H   0  0  0  0  0  0  0  0  0  0  0  0
   58.4250   87.4590   23.4510 H   0  0  0  0  0  0  0  0  0  0  0  0
   58.0540   85.6750   23.1290 H   0  0  0  0  0  0  0  0  0  0  0  0
   56.9680   87.0820   25.2620 H   0  0  0  0  0  0  0  0  0  0  0  0
   56.0710   85.8120   24.2830 H   0  0  0  0  0  0  0  0  0  0  0  0
  1  2  1  0  0  0  0
  2  7  1  0  0  0  0
  3  2  2  0  0  0  0
  3  4  1  0  0  0  0
  4  5  2  0  0  0  0
  5  6  1  0  0  0  0
  6  9  1  0  0  0  0
  7  8  2  0  0  0  0
  7  6  1  0  0  0  0
  9 10  1  0  0  0  0
 10 29  1  0  0  0  0
 10 11  2  0  0  0  0
 11 30  1  0  0  0  0
 12 11  1  0  0  0  0
 12 31  1  0  0  0  0
 13 12  2  0  0  0  0
 14  9  2  0  0  0  0
 14 13  1  0  0  0  0
 15 20  1  0  0  0  0
 15  3  1  0  0  0  0
 16 17  1  0  0  0  0
 16 15  1  0  0  0  0
 17 18  1  0  0  0  0
 17 36  1  0  0  0  0
 18 19  1  0  0  0  0
 18 21  1  0  0  0  0
 19 39  1  0  0  0  0
 19 20  1  0  0  0  0
 20 41  1  0  0  0  0
 21 22  2  0  0  0  0
 23 42  1  6  0  0  0
 23 27  1  0  0  0  0
 23 21  1  0  0  0  0
 24 23  1  0  0  0  0
 25 24  1  0  0  0  0
 25 26  1  0  0  0  0
 26 45  1  0  0  0  0
 26 27  1  0  0  0  0
 27 48  1  0  0  0  0
 27 47  1  0  0  0  0
 28  4  1  0  0  0  0
 32 13  1  0  0  0  0
 33 14  1  0  0  0  0
 34 16  1  0  0  0  0
 35 16  1  0  0  0  0
 37 17  1  0  0  0  0
 38 19  1  0  0  0  0
 40 20  1  0  0  0  0
 43 25  1  0  0  0  0
 44 25  1  0  0  0  0
 46 26  1  0  0  0  0
M  END
>  <Pose>
1

>  <Score>
-6.00

$$$$
