
 OpenBabel03202210083D

 55 58  0  0  1  0  0  0  0  0999 V2000
   46.0730   95.6460   28.4010 B   0  0  0  0  0  0  0  0  0  0  0  0
   47.6710   96.6940   28.3560 C   0  0  0  0  0  0  0  0  0  0  0  0
   47.7090   97.8350   29.1050 C   0  0  0  0  0  0  0  0  0  0  0  0
   48.8320   98.6080   29.0970 C   0  0  0  0  0  0  0  0  0  0  0  0
   49.9670   98.3130   28.3660 C   0  0  0  0  0  0  0  0  0  0  0  0
   49.9030   97.1560   27.6200 C   0  0  0  0  0  0  0  0  0  0  0  0
   48.7690   96.3450   27.6060 C   0  0  0  0  0  0  0  0  0  0  0  0
   51.1100   99.2090   28.4260 C   0  0  2  0  0  0  0  0  0  0  0  0
   50.8690  100.5380   27.9480 N   0  0  0  0  0  0  0  0  0  0  0  0
   51.5600  100.7640   26.7290 C   0  0  0  0  0  0  0  0  0  0  0  0
   51.4770  101.7080   25.9070 O   0  0  0  0  0  0  0  0  0  0  0  0
   52.4950   99.6360   26.5120 C   0  0  0  0  0  0  0  0  0  0  0  0
   53.2780   99.4810   25.5420 O   0  0  0  0  0  0  0  0  0  0  0  0
   52.3030   98.7640   27.6560 C   0  0  0  0  0  0  0  0  0  0  0  0
   53.0990   97.7180   27.9130 C   0  0  0  0  0  0  0  0  0  0  0  0
   52.7320   96.9790   29.0450 O   0  0  0  0  0  0  0  0  0  0  0  0
   54.2570   97.3680   27.0990 C   0  0  0  0  0  0  0  0  0  0  0  0
   55.3210   98.0370   26.8120 O   0  0  0  0  0  0  0  0  0  0  0  0
   56.1630   97.4140   26.0430 C   0  0  0  0  0  0  0  0  0  0  0  0
   55.6280   96.1670   25.7580 C   0  0  0  0  0  0  0  0  0  0  0  0
   54.4110   96.1630   26.4440 C   0  0  0  0  0  0  0  0  0  0  0  0
   56.3220   95.2940   24.9540 C   0  0  0  0  0  0  0  0  0  0  0  0
   57.5440   95.6410   24.4270 C   0  0  0  0  0  0  0  0  0  0  0  0
   58.0870   96.8880   24.7070 C   0  0  0  0  0  0  0  0  0  0  0  0
   57.3940   97.7430   25.5040 C   0  0  0  0  0  0  0  0  0  0  0  0
   57.9060   98.9880   25.8020 O   0  0  0  0  0  0  0  0  0  0  0  0
   58.3000   99.9510   24.8340 C   0  0  0  0  0  0  0  0  0  0  0  0
   50.0480  101.5310   28.5850 C   0  0  0  0  0  0  0  0  0  0  0  0
   48.6230  101.4950   28.0620 C   0  0  0  0  0  0  0  0  0  0  0  0
   47.7990  102.5330   28.5800 N   0  0  0  0  0  4  0  0  0  0  0  0
   46.6000  102.8030   27.8490 C   0  0  0  0  0  0  0  0  0  0  0  0
   47.5020  102.3080   29.9880 C   0  0  0  0  0  0  0  0  0  0  0  0
   46.8510   98.1430   29.7140 H   0  0  0  0  0  0  0  0  0  0  0  0
   48.8140   99.5180   29.7140 H   0  0  0  0  0  0  0  0  0  0  0  0
   50.7470   96.8810   27.0360 H   0  0  0  0  0  0  0  0  0  0  0  0
   48.7480   95.4540   27.0190 H   0  0  0  0  0  0  0  0  0  0  0  0
   51.3820   99.3490   29.5180 H   0  0  0  0  0  0  0  0  0  0  0  0
   53.7330   95.3210   26.4310 H   0  0  0  0  0  0  0  0  0  0  0  0
   55.9110   94.3250   24.7280 H   0  0  0  0  0  0  0  0  0  0  0  0
   58.1180   94.9900   23.7920 H   0  0  0  0  0  0  0  0  0  0  0  0
   59.0670   97.1360   24.2720 H   0  0  0  0  0  0  0  0  0  0  0  0
   58.1790  100.9660   25.3010 H   0  0  0  0  0  0  0  0  0  0  0  0
   59.3530   99.7500   24.5940 H   0  0  0  0  0  0  0  0  0  0  0  0
   57.6890   99.9440   23.9290 H   0  0  0  0  0  0  0  0  0  0  0  0
   50.4730  102.5500   28.4940 H   0  0  0  0  0  0  0  0  0  0  0  0
   49.9900  101.3240   29.6760 H   0  0  0  0  0  0  0  0  0  0  0  0
   48.1900  100.4840   28.2820 H   0  0  0  0  0  0  0  0  0  0  0  0
   48.6010  101.5600   26.9440 H   0  0  0  0  0  0  0  0  0  0  0  0
   48.3700  103.4300   28.5520 H   0  0  0  0  0  0  0  0  0  0  0  0
   46.8600  103.2590   26.8690 H   0  0  0  0  0  0  0  0  0  0  0  0
   45.9130  101.9520   27.7620 H   0  0  0  0  0  0  0  0  0  0  0  0
   46.0510  103.5950   28.4220 H   0  0  0  0  0  0  0  0  0  0  0  0
   46.6540  101.6170   30.0800 H   0  0  0  0  0  0  0  0  0  0  0  0
   48.3630  101.8230   30.4890 H   0  0  0  0  0  0  0  0  0  0  0  0
   47.2800  103.2870   30.4520 H   0  0  0  0  0  0  0  0  0  0  0  0
  2  1  1  0  0  0  0
  2  3  1  0  0  0  0
  3 33  1  0  0  0  0
  4  3  2  0  0  0  0
  4 34  1  0  0  0  0
  5  8  1  0  0  0  0
  5  4  1  0  0  0  0
  6  5  2  0  0  0  0
  7  6  1  0  0  0  0
  7  2  2  0  0  0  0
  8 37  1  1  0  0  0
  9  8  1  0  0  0  0
  9 28  1  0  0  0  0
 10  9  1  0  0  0  0
 11 10  2  0  0  0  0
 12 10  1  0  0  0  0
 12 14  1  0  0  0  0
 13 12  2  0  0  0  0
 14 15  2  0  0  0  0
 14  8  1  0  0  0  0
 15 16  1  0  0  0  0
 17 15  1  0  0  0  0
 18 17  1  0  0  0  0
 19 18  1  0  0  0  0
 20 19  1  0  0  0  0
 20 21  1  0  0  0  0
 21 17  2  0  0  0  0
 22 20  2  0  0  0  0
 23 24  2  0  0  0  0
 23 22  1  0  0  0  0
 24 25  1  0  0  0  0
 25 26  1  0  0  0  0
 25 19  2  0  0  0  0
 27 42  1  0  0  0  0
 27 26  1  0  0  0  0
 28 46  1  0  0  0  0
 29 47  1  0  0  0  0
 29 30  1  0  0  0  0
 29 28  1  0  0  0  0
 30 32  1  0  0  0  0
 31 52  1  0  0  0  0
 31 30  1  0  0  0  0
 32 53  1  0  0  0  0
 32 55  1  0  0  0  0
 32 54  1  0  0  0  0
 35  6  1  0  0  0  0
 36  7  1  0  0  0  0
 38 21  1  0  0  0  0
 39 22  1  0  0  0  0
 40 23  1  0  0  0  0
 41 24  1  0  0  0  0
 43 27  1  0  0  0  0
 44 27  1  0  0  0  0
 45 28  1  0  0  0  0
 48 29  1  0  0  0  0
 49 30  1  0  0  0  0
 50 31  1  0  0  0  0
 51 31  1  0  0  0  0
M  END
>  <Pose>
1

>  <Score>
-6.93

$$$$
