
 OpenBabel03202210083D

 39 42  0  0  0  0  0  0  0  0999 V2000
   51.5850   88.9340   17.8130 B   0  0  0  0  0  0  0  0  0  0  0  0
   52.5760   90.1560   18.8870 C   0  0  0  0  0  0  0  0  0  0  0  0
   53.6140   89.6660   19.6320 C   0  0  0  0  0  0  0  0  0  0  0  0
   54.3290   90.5150   20.4000 N   0  0  0  0  0  0  0  0  0  0  0  0
   54.0330   91.8230   20.4400 C   0  0  0  0  0  0  0  0  0  0  0  0
   54.7570   92.6810   21.2170 N   0  0  0  0  0  0  0  0  0  0  0  0
   55.7850   92.2410   21.9640 C   0  0  0  0  0  0  0  0  0  0  0  0
   56.0700   90.8990   21.9090 C   0  0  0  0  0  0  0  0  0  0  0  0
   55.3600   90.0070   21.1350 C   0  0  0  0  0  0  0  0  0  0  0  0
   55.6000   88.7920   21.0690 O   0  0  0  0  0  0  0  0  0  0  0  0
   56.5520   93.2300   22.7930 C   0  0  0  0  0  0  0  0  0  0  0  0
   55.7330   93.8350   23.8250 N   0  0  0  0  0  0  0  0  0  0  0  0
   55.9420   94.9330   24.5650 C   0  0  0  0  0  0  0  0  0  0  0  0
   54.8970   95.1330   25.4610 C   0  0  0  0  0  0  0  0  0  0  0  0
   54.0410   94.1080   25.2360 N   0  0  0  0  0  0  0  0  0  0  0  0
   54.5340   93.3360   24.2650 C   0  0  0  0  0  0  0  0  0  0  0  0
   54.8450   96.1660   26.3270 N   0  0  0  0  0  0  0  0  0  0  0  0
   55.8770   97.0290   26.2880 C   0  0  0  0  0  0  0  0  0  0  0  0
   55.8450   98.0010   27.0910 O   0  0  0  0  0  0  0  0  0  0  0  0
   56.9090   96.8830   25.4430 N   0  0  0  0  0  0  0  0  0  0  0  0
   56.9640   95.8500   24.5770 C   0  0  0  0  0  0  0  0  0  0  0  0
   57.9130   95.6980   23.7830 O   0  0  0  0  0  0  0  0  0  0  0  0
   58.0210   97.8160   25.4050 C   0  0  0  0  0  0  0  0  0  0  0  0
   53.7260   96.3170   27.2370 C   0  0  0  0  0  0  0  0  0  0  0  0
   52.9840   92.3280   19.6890 C   0  0  0  0  0  0  0  0  0  0  0  0
   52.2380   91.4900   18.8980 C   0  0  0  0  0  0  0  0  0  0  0  0
   53.8810   88.5960   19.6200 H   0  0  0  0  0  0  0  0  0  0  0  0
   56.8950   90.5170   22.4920 H   0  0  0  0  0  0  0  0  0  0  0  0
   57.4450   92.7340   23.2100 H   0  0  0  0  0  0  0  0  0  0  0  0
   56.8870   94.0320   22.1070 H   0  0  0  0  0  0  0  0  0  0  0  0
   54.0940   92.4360   23.8470 H   0  0  0  0  0  0  0  0  0  0  0  0
   58.9430   97.3340   25.0260 H   0  0  0  0  0  0  0  0  0  0  0  0
   57.6990   98.6750   24.7730 H   0  0  0  0  0  0  0  0  0  0  0  0
   58.2080   98.2170   26.4370 H   0  0  0  0  0  0  0  0  0  0  0  0
   53.0060   97.0740   26.8590 H   0  0  0  0  0  0  0  0  0  0  0  0
   54.1420   96.5970   28.2380 H   0  0  0  0  0  0  0  0  0  0  0  0
   53.2310   95.3300   27.3890 H   0  0  0  0  0  0  0  0  0  0  0  0
   52.7690   93.3980   19.7440 H   0  0  0  0  0  0  0  0  0  0  0  0
   51.4050   91.8830   18.3010 H   0  0  0  0  0  0  0  0  0  0  0  0
  1  2  1  0  0  0  0
  2 26  2  0  0  0  0
  2  3  1  0  0  0  0
  3  4  1  0  0  0  0
  4  5  1  0  0  0  0
  4  9  1  0  0  0  0
  5  6  1  0  0  0  0
  6  7  2  0  0  0  0
  7 11  1  0  0  0  0
  8  7  1  0  0  0  0
  8 28  1  0  0  0  0
  9  8  1  0  0  0  0
 10  9  2  0  0  0  0
 11 29  1  0  0  0  0
 11 12  1  0  0  0  0
 12 16  1  0  0  0  0
 12 13  1  0  0  0  0
 13 21  1  0  0  0  0
 13 14  2  0  0  0  0
 14 17  1  0  0  0  0
 15 14  1  0  0  0  0
 16 15  2  0  0  0  0
 17 24  1  0  0  0  0
 18 17  1  0  0  0  0
 18 19  2  0  0  0  0
 20 18  1  0  0  0  0
 21 20  1  0  0  0  0
 22 21  2  0  0  0  0
 23 20  1  0  0  0  0
 23 34  1  0  0  0  0
 24 37  1  0  0  0  0
 24 36  1  0  0  0  0
 25 38  1  0  0  0  0
 25  5  2  0  0  0  0
 26 25  1  0  0  0  0
 27  3  1  0  0  0  0
 30 11  1  0  0  0  0
 31 16  1  0  0  0  0
 32 23  1  0  0  0  0
 33 23  1  0  0  0  0
 35 24  1  0  0  0  0
 39 26  1  0  0  0  0
M  END
>  <Pose>
1

>  <Score>
-7.03

$$$$
