
 OpenBabel03202210083D

 53 56  0  0  1  0  0  0  0  0999 V2000
   56.4880   96.6780   26.0210 S   0  0  0  0  0  0  0  0  0  0  0  0
   57.3950   96.7130   27.2370 O   0  0  0  0  0  0  0  0  0  0  0  0
   56.9120   97.8550   25.1670 O   0  0  0  0  0  0  0  0  0  0  0  0
   56.6490   95.2070   25.2750 N   0  0  0  0  0  0  0  0  0  0  0  0
   57.2160   95.0720   24.0120 C   0  0  0  0  0  0  0  0  0  0  0  0
   57.0180   93.6290   23.5290 C   0  0  0  0  0  0  0  0  0  0  0  0
   55.6760   93.1730   23.8910 N   0  0  0  0  0  0  0  0  0  0  0  0
   55.3460   93.2170   25.3020 C   0  0  0  0  0  0  0  0  0  0  0  0
   56.4730   94.0080   25.9830 C   0  0  0  0  0  0  0  0  0  0  0  0
   54.7680   92.7370   22.8860 C   0  0  0  0  0  0  0  0  0  0  0  0
   53.8270   93.5080   22.5840 O   0  0  0  0  0  0  0  0  0  0  0  0
   54.9360   91.4370   22.2380 C   0  0  0  0  0  0  0  0  0  0  0  0
   55.2780   91.5190   20.7570 C   0  0  2  0  0  0  0  0  0  0  0  0
   54.2260   92.0860   19.9550 N   0  0  0  0  0  0  0  0  0  0  0  0
   53.3570   91.5270   18.9810 C   0  0  0  0  0  0  0  0  0  0  0  0
   52.7950   92.2710   18.1340 O   0  0  0  0  0  0  0  0  0  0  0  0
   53.0040   90.1000   18.8170 C   0  0  0  0  0  0  0  0  0  0  0  0
   53.7640   88.9970   19.2200 C   0  0  0  0  0  0  0  0  0  0  0  0
   53.2880   87.7350   19.0010 C   0  0  0  0  0  0  0  0  0  0  0  0
   52.0580   87.4910   18.3870 C   0  0  0  0  0  0  0  0  0  0  0  0
   51.3230   88.6110   17.9990 C   0  0  0  0  0  0  0  0  0  0  0  0
   51.7920   89.8880   18.2120 C   0  0  0  0  0  0  0  0  0  0  0  0
   55.0310   89.0470   19.8590 N   0  0  0  0  0  0  0  0  0  0  0  0
   55.7590   90.2010   20.2930 C   0  0  0  0  0  0  0  0  0  0  0  0
   57.0270   90.0170   20.2570 O   0  0  0  0  0  0  0  0  0  0  0  0
   54.8560   97.0090   26.6110 C   0  0  0  0  0  0  0  0  0  0  0  0
   54.4100   98.2940   26.8170 C   0  0  0  0  0  0  0  0  0  0  0  0
   53.1310   98.5020   27.2830 C   0  0  0  0  0  0  0  0  0  0  0  0
   52.2490   97.4740   27.5610 C   0  0  0  0  0  0  0  0  0  0  0  0
   52.7010   96.1770   27.3520 C   0  0  0  0  0  0  0  0  0  0  0  0
   53.9810   95.9750   26.8860 C   0  0  0  0  0  0  0  0  0  0  0  0
   50.6380   97.7260   28.1460 Cl  0  0  0  0  0  0  0  0  0  0  0  0
   58.3290   95.2660   23.9690 H   0  0  0  0  0  0  0  0  0  0  0  0
   56.7530   95.6900   23.2060 H   0  0  0  0  0  0  0  0  0  0  0  0
   57.7370   92.9500   24.0150 H   0  0  0  0  0  0  0  0  0  0  0  0
   57.1800   93.5460   22.4370 H   0  0  0  0  0  0  0  0  0  0  0  0
   54.4300   93.8230   25.4860 H   0  0  0  0  0  0  0  0  0  0  0  0
   55.3020   92.2220   25.7420 H   0  0  0  0  0  0  0  0  0  0  0  0
   57.3850   93.3420   25.9450 H   0  0  0  0  0  0  0  0  0  0  0  0
   56.2390   94.1420   27.0670 H   0  0  0  0  0  0  0  0  0  0  0  0
   55.8180   90.8850   22.6960 H   0  0  0  0  0  0  0  0  0  0  0  0
   54.0690   90.7680   22.3980 H   0  0  0  0  0  0  0  0  0  0  0  0
   56.1590   92.2290   20.6940 H   0  0  0  0  0  0  0  0  0  0  0  0
   54.0240   93.1280   20.0840 H   0  0  0  0  0  0  0  0  0  0  0  0
   53.8750   86.8920   19.3080 H   0  0  0  0  0  0  0  0  0  0  0  0
   51.6940   86.4970   18.2210 H   0  0  0  0  0  0  0  0  0  0  0  0
   50.3710   88.4150   17.5270 H   0  0  0  0  0  0  0  0  0  0  0  0
   51.2260   90.7530   17.9130 H   0  0  0  0  0  0  0  0  0  0  0  0
   55.4660   88.1400   20.0260 H   0  0  0  0  0  0  0  0  0  0  0  0
   55.0290   99.1480   26.6250 H   0  0  0  0  0  0  0  0  0  0  0  0
   52.7660   99.5300   27.4490 H   0  0  0  0  0  0  0  0  0  0  0  0
   52.0260   95.3680   27.5670 H   0  0  0  0  0  0  0  0  0  0  0  0
   54.2970   94.9570   26.7380 H   0  0  0  0  0  0  0  0  0  0  0  0
  1 26  1  0  0  0  0
  1  2  2  0  0  0  0
  3  1  2  0  0  0  0
  4  9  1  0  0  0  0
  4  1  1  0  0  0  0
  5  4  1  0  0  0  0
  6  7  1  0  0  0  0
  6  5  1  0  0  0  0
  6 35  1  0  0  0  0
  7  8  1  0  0  0  0
  8 37  1  0  0  0  0
  8 38  1  0  0  0  0
  8  9  1  0  0  0  0
  9 40  1  0  0  0  0
 10  7  1  0  0  0  0
 11 10  2  0  0  0  0
 12 42  1  0  0  0  0
 12 41  1  0  0  0  0
 12 10  1  0  0  0  0
 13 43  1  6  0  0  0
 13 12  1  0  0  0  0
 14 44  1  0  0  0  0
 14 13  1  0  0  0  0
 15 14  1  0  0  0  0
 16 15  2  0  0  0  0
 17 15  1  0  0  0  0
 17 18  1  0  0  0  0
 18 23  1  0  0  0  0
 19 18  2  0  0  0  0
 19 45  1  0  0  0  0
 20 19  1  0  0  0  0
 21 22  1  0  0  0  0
 21 20  2  0  0  0  0
 22 17  2  0  0  0  0
 23 49  1  0  0  0  0
 23 24  1  0  0  0  0
 24 13  1  0  0  0  0
 25 24  2  0  0  0  0
 26 27  2  0  0  0  0
 26 31  1  0  0  0  0
 27 28  1  0  0  0  0
 28 51  1  0  0  0  0
 28 29  2  0  0  0  0
 29 32  1  0  0  0  0
 30 29  1  0  0  0  0
 30 52  1  0  0  0  0
 31 30  2  0  0  0  0
 33  5  1  0  0  0  0
 34  5  1  0  0  0  0
 36  6  1  0  0  0  0
 39  9  1  0  0  0  0
 46 20  1  0  0  0  0
 47 21  1  0  0  0  0
 48 22  1  0  0  0  0
 50 27  1  0  0  0  0
 53 31  1  0  0  0  0
M  END
>  <Pose>
1

>  <Score>
-7.82

$$$$
