
 OpenBabel03202210083D

 53 56  0  0  1  0  0  0  0  0999 V2000
   53.3890   86.4450   20.2150 Cl  0  0  0  0  0  0  0  0  0  0  0  0
   53.2830   88.1330   19.7270 C   0  0  0  0  0  0  0  0  0  0  0  0
   54.3030   88.9710   20.1090 C   0  0  0  0  0  0  0  0  0  0  0  0
   54.2680   90.2650   19.6430 C   0  0  0  0  0  0  0  0  0  0  0  0
   55.3260   90.8720   20.2240 N   0  0  0  0  0  0  0  0  0  0  0  0
   55.9490   90.0240   20.9980 N   0  0  0  0  0  0  0  0  0  0  0  0
   55.3530   88.7760   20.9790 C   0  0  0  0  0  0  0  0  0  0  0  0
   55.8540   87.5780   21.6030 C   0  0  0  0  0  0  0  0  0  0  0  0
   57.0030   87.7280   22.5090 N   0  0  0  0  0  0  0  0  0  0  0  0
   57.2260   86.3920   23.1090 C   0  0  0  0  0  0  0  0  0  0  0  0
   56.4720   86.4710   24.3560 C   0  0  2  0  0  0  0  0  0  0  0  0
   57.0180   87.7660   24.9360 C   0  0  2  0  0  0  0  0  0  0  0  0
   56.8940   88.6060   23.5940 C   0  0  0  0  0  0  0  0  0  0  0  0
   58.5000   87.6840   25.1650 C   0  0  0  0  0  0  0  0  0  0  0  0
   58.8700   88.6240   26.1630 O   0  0  0  0  0  0  0  0  0  0  0  0
   56.6800   85.3340   25.3250 C   0  0  0  0  0  0  0  0  0  0  0  0
   55.4200   84.7030   25.5610 N   0  0  0  0  0  0  0  0  0  0  0  0
   55.5480   83.3330   26.0110 C   0  0  0  0  0  0  0  0  0  0  0  0
   54.9030   83.0750   27.3530 C   0  0  0  0  0  0  0  0  0  0  0  0
   53.5850   83.4630   27.4260 O   0  0  0  0  0  0  0  0  0  0  0  0
   53.3220   84.6210   26.6980 C   0  0  0  0  0  0  0  0  0  0  0  0
   54.5920   85.3950   26.5220 C   0  0  0  0  0  0  0  0  0  0  0  0
   55.7610   92.2460   19.9160 C   0  0  0  0  0  0  0  0  0  0  0  0
   53.2710   90.7340   18.8440 C   0  0  0  0  0  0  0  0  0  0  0  0
   52.2380   89.8690   18.4700 C   0  0  0  0  0  0  0  0  0  0  0  0
   52.2550   88.5560   18.9270 C   0  0  0  0  0  0  0  0  0  0  0  0
   55.2240   86.8090   21.9690 H   0  0  0  0  0  0  0  0  0  0  0  0
   56.4130   87.0260   20.7220 H   0  0  0  0  0  0  0  0  0  0  0  0
   57.0590   85.5640   22.4260 H   0  0  0  0  0  0  0  0  0  0  0  0
   58.3350   86.3450   23.3160 H   0  0  0  0  0  0  0  0  0  0  0  0
   55.4050   86.6190   24.2660 H   0  0  0  0  0  0  0  0  0  0  0  0
   56.4000   88.1890   25.6990 H   0  0  0  0  0  0  0  0  0  0  0  0
   56.0250   89.1930   23.7510 H   0  0  0  0  0  0  0  0  0  0  0  0
   57.7940   89.3120   23.6490 H   0  0  0  0  0  0  0  0  0  0  0  0
   59.0310   88.1280   24.2340 H   0  0  0  0  0  0  0  0  0  0  0  0
   58.9660   86.7500   25.3340 H   0  0  0  0  0  0  0  0  0  0  0  0
   59.5260   89.2700   25.6950 H   0  0  0  0  0  0  0  0  0  0  0  0
   57.3360   84.6160   24.8150 H   0  0  0  0  0  0  0  0  0  0  0  0
   57.1700   85.6640   26.2500 H   0  0  0  0  0  0  0  0  0  0  0  0
   55.1210   82.6750   25.2450 H   0  0  0  0  0  0  0  0  0  0  0  0
   56.6330   83.0500   26.1330 H   0  0  0  0  0  0  0  0  0  0  0  0
   55.5460   83.4960   28.1300 H   0  0  0  0  0  0  0  0  0  0  0  0
   54.9130   81.9600   27.4700 H   0  0  0  0  0  0  0  0  0  0  0  0
   52.9100   84.3060   25.7260 H   0  0  0  0  0  0  0  0  0  0  0  0
   52.5670   85.2230   27.2700 H   0  0  0  0  0  0  0  0  0  0  0  0
   54.3870   86.4330   26.1860 H   0  0  0  0  0  0  0  0  0  0  0  0
   55.1490   85.3830   27.4780 H   0  0  0  0  0  0  0  0  0  0  0  0
   55.8120   92.3330   18.7730 H   0  0  0  0  0  0  0  0  0  0  0  0
   56.8120   92.4020   20.2090 H   0  0  0  0  0  0  0  0  0  0  0  0
   55.0170   92.9400   20.2280 H   0  0  0  0  0  0  0  0  0  0  0  0
   53.1670   91.8040   18.5530 H   0  0  0  0  0  0  0  0  0  0  0  0
   51.4160   90.1930   17.8920 H   0  0  0  0  0  0  0  0  0  0  0  0
   51.5060   87.8450   18.6710 H   0  0  0  0  0  0  0  0  0  0  0  0
  2  3  1  0  0  0  0
  2  1  1  0  0  0  0
  3  7  1  0  0  0  0
  4  3  2  0  0  0  0
  4  5  1  0  0  0  0
  5  6  1  0  0  0  0
  7  6  2  0  0  0  0
  7  8  1  0  0  0  0
  8 27  1  0  0  0  0
  8  9  1  0  0  0  0
  9 10  1  0  0  0  0
  9 13  1  0  0  0  0
 10 30  1  0  0  0  0
 10 11  1  0  0  0  0
 11 31  1  6  0  0  0
 11 12  1  0  0  0  0
 11 16  1  0  0  0  0
 12 14  1  0  0  0  0
 12 32  1  1  0  0  0
 13 34  1  0  0  0  0
 13 33  1  0  0  0  0
 13 12  1  0  0  0  0
 14 36  1  0  0  0  0
 14 15  1  0  0  0  0
 16 17  1  0  0  0  0
 16 39  1  0  0  0  0
 17 18  1  0  0  0  0
 17 22  1  0  0  0  0
 18 41  1  0  0  0  0
 18 19  1  0  0  0  0
 19 20  1  0  0  0  0
 19 43  1  0  0  0  0
 19 42  1  0  0  0  0
 21 45  1  0  0  0  0
 21 20  1  0  0  0  0
 22 21  1  0  0  0  0
 22 47  1  0  0  0  0
 23 49  1  0  0  0  0
 23  5  1  0  0  0  0
 23 50  1  0  0  0  0
 24  4  1  0  0  0  0
 25 24  2  0  0  0  0
 25 26  1  0  0  0  0
 26  2  2  0  0  0  0
 28  8  1  0  0  0  0
 29 10  1  0  0  0  0
 35 14  1  0  0  0  0
 37 15  1  0  0  0  0
 38 16  1  0  0  0  0
 40 18  1  0  0  0  0
 44 21  1  0  0  0  0
 46 22  1  0  0  0  0
 48 23  1  0  0  0  0
 51 24  1  0  0  0  0
 52 25  1  0  0  0  0
 53 26  1  0  0  0  0
M  END
>  <Pose>
1

>  <Score>
-5.89

$$$$
