
 OpenBabel03202210083D

 55 59  0  0  1  0  0  0  0  0999 V2000
   56.0750   97.4420   26.9470 B   0  0  0  0  0  0  0  0  0  0  0  0
   55.7670   95.9890   25.7680 C   0  0  0  0  0  0  0  0  0  0  0  0
   56.7050   95.5850   24.8630 C   0  0  0  0  0  0  0  0  0  0  0  0
   56.4460   94.5220   24.0200 C   0  0  0  0  0  0  0  0  0  0  0  0
   55.2510   93.8040   24.0250 C   0  0  0  0  0  0  0  0  0  0  0  0
   54.3240   94.2150   24.9310 C   0  0  0  0  0  0  0  0  0  0  0  0
   54.5830   95.3040   25.7980 C   0  0  0  0  0  0  0  0  0  0  0  0
   55.0980   92.7030   23.0670 C   0  0  0  0  0  0  0  0  0  0  0  0
   54.4630   92.8860   21.8260 C   0  0  0  0  0  0  0  0  0  0  0  0
   54.4830   91.7360   21.1550 N   0  0  0  0  0  0  0  0  0  0  0  0
   54.1060   91.1670   19.9810 C   0  0  0  0  0  0  0  0  0  0  0  0
   54.5080   89.8760   20.0280 C   0  0  0  0  0  0  0  0  0  0  0  0
   55.1110   89.6930   21.2110 N   0  0  0  0  0  0  0  0  0  0  0  0
   55.1030   90.8410   21.9250 C   0  0  1  0  0  0  0  0  0  0  0  0
   55.4880   91.4210   23.1090 N   0  0  0  0  0  0  0  0  0  0  0  0
   56.1950   90.7330   24.1370 C   0  0  0  0  0  0  0  0  0  0  0  0
   56.0750   89.2310   24.1180 C   0  0  0  0  0  0  0  0  0  0  0  0
   57.2970   88.4620   24.3590 C   0  0  0  0  0  0  0  0  0  0  0  0
   57.3730   87.0970   23.9280 N   0  0  0  0  0  4  0  0  0  0  0  0
   56.6200   86.2000   24.7870 C   0  0  0  0  0  0  0  0  0  0  0  0
   55.2040   86.0080   24.4460 C   0  0  0  0  0  0  0  0  0  0  0  0
   54.7570   86.5240   23.1290 C   0  0  0  0  0  0  0  0  0  0  0  0
   55.8360   86.4130   22.1110 C   0  0  0  0  0  0  0  0  0  0  0  0
   57.1750   86.8880   22.5380 C   0  0  0  0  0  0  0  0  0  0  0  0
   54.2660   89.0240   18.9650 C   0  0  0  0  0  0  0  0  0  0  0  0
   53.6080   89.4750   17.8320 C   0  0  0  0  0  0  0  0  0  0  0  0
   53.1950   90.7990   17.7840 C   0  0  0  0  0  0  0  0  0  0  0  0
   53.4520   91.6190   18.8600 C   0  0  0  0  0  0  0  0  0  0  0  0
   57.6440   96.1190   24.8320 H   0  0  0  0  0  0  0  0  0  0  0  0
   57.2340   94.2460   23.3240 H   0  0  0  0  0  0  0  0  0  0  0  0
   53.3850   93.7450   25.0140 H   0  0  0  0  0  0  0  0  0  0  0  0
   53.8200   95.5930   26.4980 H   0  0  0  0  0  0  0  0  0  0  0  0
   54.0140   93.7770   21.4220 H   0  0  0  0  0  0  0  0  0  0  0  0
   55.5430   88.7910   21.5430 H   0  0  0  0  0  0  0  0  0  0  0  0
   56.0460   91.1510   25.1420 H   0  0  0  0  0  0  0  0  0  0  0  0
   57.3010   91.0060   23.9490 H   0  0  0  0  0  0  0  0  0  0  0  0
   55.7550   88.9810   23.0520 H   0  0  0  0  0  0  0  0  0  0  0  0
   55.1810   88.8830   24.6950 H   0  0  0  0  0  0  0  0  0  0  0  0
   57.4540   88.4290   25.4810 H   0  0  0  0  0  0  0  0  0  0  0  0
   58.1980   89.0510   24.0120 H   0  0  0  0  0  0  0  0  0  0  0  0
   58.3580   86.8150   24.1340 H   0  0  0  0  0  0  0  0  0  0  0  0
   57.0990   85.2010   24.8930 H   0  0  0  0  0  0  0  0  0  0  0  0
   56.7150   86.6520   25.8210 H   0  0  0  0  0  0  0  0  0  0  0  0
   54.5490   86.4970   25.2290 H   0  0  0  0  0  0  0  0  0  0  0  0
   54.8970   84.9210   24.5100 H   0  0  0  0  0  0  0  0  0  0  0  0
   53.8790   85.9380   22.7840 H   0  0  0  0  0  0  0  0  0  0  0  0
   54.3610   87.5800   23.2220 H   0  0  0  0  0  0  0  0  0  0  0  0
   55.4990   86.9710   21.1990 H   0  0  0  0  0  0  0  0  0  0  0  0
   55.8740   85.3390   21.7740 H   0  0  0  0  0  0  0  0  0  0  0  0
   57.3900   87.8710   22.0270 H   0  0  0  0  0  0  0  0  0  0  0  0
   57.9330   86.1890   22.0890 H   0  0  0  0  0  0  0  0  0  0  0  0
   54.5850   87.9930   19.0000 H   0  0  0  0  0  0  0  0  0  0  0  0
   53.4050   88.8300   16.9850 H   0  0  0  0  0  0  0  0  0  0  0  0
   52.6850   91.1220   16.8920 H   0  0  0  0  0  0  0  0  0  0  0  0
   53.1330   92.6340   18.8160 H   0  0  0  0  0  0  0  0  0  0  0  0
  2  7  1  0  0  0  0
  2  1  1  0  0  0  0
  3  2  2  0  0  0  0
  4  5  2  0  0  0  0
  4  3  1  0  0  0  0
  5  6  1  0  0  0  0
  6 31  1  0  0  0  0
  6  7  2  0  0  0  0
  7 32  1  0  0  0  0
  8 15  1  0  0  0  0
  8  5  1  0  0  0  0
  9  8  2  0  0  0  0
 10  9  1  0  0  0  0
 11 12  1  0  0  0  0
 11 10  1  0  0  0  0
 12 13  1  0  0  0  0
 13 34  1  0  0  0  0
 13 14  1  0  0  0  0
 14 10  1  6  0  0  0
 14 15  1  0  0  0  0
 15 16  1  0  0  0  0
 16 35  1  0  0  0  0
 17 16  1  0  0  0  0
 17 18  1  0  0  0  0
 17 38  1  0  0  0  0
 18 39  1  0  0  0  0
 19 41  1  0  0  0  0
 19 18  1  0  0  0  0
 19 20  1  0  0  0  0
 20 42  1  0  0  0  0
 20 43  1  0  0  0  0
 21 45  1  0  0  0  0
 21 20  1  0  0  0  0
 21 44  1  0  0  0  0
 22 47  1  0  0  0  0
 22 21  1  0  0  0  0
 23 24  1  0  0  0  0
 23 22  1  0  0  0  0
 24 19  1  0  0  0  0
 25 52  1  0  0  0  0
 25 12  2  0  0  0  0
 26 25  1  0  0  0  0
 27 26  2  0  0  0  0
 27 28  1  0  0  0  0
 28 11  2  0  0  0  0
 29  3  1  0  0  0  0
 30  4  1  0  0  0  0
 33  9  1  0  0  0  0
 36 16  1  0  0  0  0
 37 17  1  0  0  0  0
 40 18  1  0  0  0  0
 46 22  1  0  0  0  0
 48 23  1  0  0  0  0
 49 23  1  0  0  0  0
 50 24  1  0  0  0  0
 51 24  1  0  0  0  0
 53 26  1  0  0  0  0
 54 27  1  0  0  0  0
 55 28  1  0  0  0  0
M  END
>  <Pose>
1

>  <Score>
-6.88

$$$$
