/Users/jonathanwahrer/Desktop/Msc/3_Semester/Drug_Design_Praktikum/waehrer_HTS_screening/HTS_experiment/out/docking_results/vina_output/2jam/0002_docked.pdbqt
 OpenBabel03162217123D

 38 41  0  0  0  0  0  0  0  0999 V2000
    8.0640    7.0950   11.9420 C   0  0  0  0  0  0  0  0  0  0  0  0
    6.8220    6.6460   11.5460 N   0  0  0  0  0  0  0  0  0  0  0  0
    5.9380    7.4730   12.0040 N   0  0  0  0  0  0  0  0  0  0  0  0
    6.5640    8.4630   12.6990 N   0  0  0  0  0  0  0  0  0  0  0  0
    7.8790    8.2580   12.6780 C   0  0  0  0  0  0  0  0  0  0  0  0
    9.2850    6.4090   11.5930 C   0  0  0  0  0  0  0  0  0  0  0  0
   10.0020    5.4270   12.2860 N   0  0  0  0  0  0  0  0  0  0  0  0
    9.7480    5.0340   13.1770 H   0  0  0  0  0  0  0  0  0  0  0  0
    9.7900    6.7680   10.4440 O   0  0  0  0  0  0  0  0  0  0  0  0
   11.2000    4.9450   11.6530 N   0  0  0  0  0  0  0  0  0  0  0  0
   11.4400    3.6890   11.5930 C   0  0  0  0  0  3  0  0  0  0  0  0
   12.6490    3.1480   10.9570 C   0  0  0  0  0  0  0  0  0  0  0  0
   12.5960    2.2590    9.9030 C   0  0  0  0  0  3  0  0  0  0  0  0
   13.7410    1.7530    9.3090 C   0  0  0  0  0  0  0  0  0  0  0  0
   14.9880    2.1280    9.7580 C   0  0  0  0  0  0  0  0  0  0  0  0
   13.6660    0.5210    7.8490 Br  0  0  0  0  0  0  0  0  0  0  0  0
   15.0450    3.0190   10.8130 C   0  0  0  0  0  0  0  0  0  0  0  0
   16.1620    1.6390    9.1830 O   0  0  0  0  0  1  0  0  0  0  0  0
   16.7700    3.5590   11.4610 Br  0  0  0  0  0  0  0  0  0  0  0  0
   13.9010    3.5190   11.4010 C   0  0  0  0  0  0  0  0  0  0  0  0
   13.9510    4.4260   12.4750 O   0  0  0  0  0  0  0  0  0  0  0  0
   13.6030    5.3640   12.3470 H   0  0  0  0  0  0  0  0  0  0  0  0
    8.9470    9.0570   13.2790 C   0  0  0  0  0  2  0  0  0  0  0  0
    9.1750    8.9880   14.6730 N   0  0  0  0  0  4  0  0  0  0  0  0
    9.7480   10.2070   15.2260 C   0  0  0  0  0  2  0  0  0  0  0  0
   10.9460   10.6260   14.4720 C   0  0  0  0  0  2  0  0  0  0  0  0
   11.7540    9.7200   13.9190 O   0  0  0  0  0  0  0  0  0  0  0  0
   11.4410    8.4010   14.0000 C   0  0  0  0  0  2  0  0  0  0  0  0
   10.3090    8.0270   14.8670 C   0  0  0  0  0  2  0  0  0  0  0  0
    8.3790    8.6500   15.1950 H   0  0  0  0  0  0  0  0  0  0  0  0
    5.7850    9.4950   13.3100 C   0  0  0  0  0  0  0  0  0  0  0  0
    5.8940   10.8170   13.2910 N   0  0  0  0  0  0  0  0  0  0  0  0
    4.9130   11.3000   13.9800 O   0  0  0  0  0  0  0  0  0  0  0  0
    4.1540   10.3650   14.4580 N   0  0  0  0  0  0  0  0  0  0  0  0
    4.6450    9.1950   14.0730 C   0  0  0  0  0  0  0  0  0  0  0  0
    4.1710    7.8850   14.3410 N   0  0  0  0  0  0  0  0  0  0  0  0
    3.2170    7.7570   14.7380 H   0  0  0  0  0  0  0  0  0  0  0  0
    4.7530    7.0180   14.1550 H   0  0  0  0  0  0  0  0  0  0  0  0
  1  5  2  0  0  0  0
  2  1  1  0  0  0  0
  2  3  2  0  0  0  0
  3  4  1  0  0  0  0
  4 31  1  0  0  0  0
  5  4  1  0  0  0  0
  5 23  1  0  0  0  0
  6  1  1  0  0  0  0
  6  7  1  0  0  0  0
  7  8  1  0  0  0  0
  9  6  2  0  0  0  0
 10  7  1  0  0  0  0
 11 10  2  0  0  0  0
 12 20  1  0  0  0  0
 12 11  1  0  0  0  0
 13 12  2  0  0  0  0
 14 15  2  0  0  0  0
 14 13  1  0  0  0  0
 15 17  1  0  0  0  0
 16 14  1  0  0  0  0
 17 20  2  0  0  0  0
 17 19  1  0  0  0  0
 18 15  1  0  0  0  0
 20 21  1  0  0  0  0
 22 21  1  0  0  0  0
 23 24  1  0  0  0  0
 24 29  1  0  0  0  0
 24 30  1  0  0  0  0
 24 25  1  0  0  0  0
 26 25  1  0  0  0  0
 27 28  1  0  0  0  0
 27 26  1  0  0  0  0
 28 29  1  0  0  0  0
 31 35  1  0  0  0  0
 32 31  2  0  0  0  0
 32 33  1  0  0  0  0
 33 34  1  0  0  0  0
 35 36  1  0  0  0  0
 35 34  2  0  0  0  0
 36 37  1  0  0  0  0
 38 36  1  0  0  0  0
M  END
>  <Pose>
1

>  <Score>
-9.143

$$$$
