MODEL 1
REMARK VINA RESULT:    -8.932      0.000      0.000
REMARK INTER + INTRA:         -14.630
REMARK INTER:                 -12.849
REMARK INTRA:                  -1.781
REMARK UNBOUND:                -1.781
REMARK  9 active torsions:
REMARK  status: ('A' for Active; 'I' for Inactive)
REMARK    1  A    between atoms: C_3  and  O_33 
REMARK    2  A    between atoms: C_6  and  C_9 
REMARK    3  A    between atoms: C_7  and  O_8 
REMARK    4  A    between atoms: N_10  and  N_11 
REMARK       I    between atoms: N_11  and  C_12 
REMARK    5  A    between atoms: C_12  and  C_14 
REMARK    6  A    between atoms: N_17  and  C_26 
REMARK    7  A    between atoms: C_18  and  C_19 
REMARK    8  A    between atoms: C_19  and  N_20 
REMARK    9  A    between atoms: C_30  and  N_31 
ROOT
ATOM      1  C   UNK d   1       8.224   7.130  11.820  0.00  0.00     0.176 A 
ATOM      2  N   UNK d   1       7.007   6.651  11.405  0.00  0.00    -0.124 NA
ATOM      3  N   UNK d   1       6.058   7.399  11.895  0.00  0.00    -0.058 NA
ATOM      4  N   UNK d   1       6.548   8.381  12.633  0.00  0.00    -0.191 N 
ATOM      5  C   UNK d   1       7.884   8.237  12.605  0.00  0.00     0.104 A 
ENDROOT
BRANCH   1   6
ATOM      6  C   UNK d   1       9.511   6.552  11.479  0.00  0.00     0.294 C 
ATOM      7  N   UNK d   1      10.366   5.795  12.268  0.00  0.00    -0.242 N 
ATOM      8  H   UNK d   1      10.223   5.509  13.266  0.00  0.00     0.192 HD
ATOM      9  O   UNK d   1       9.897   6.787  10.273  0.00  0.00    -0.264 OA
BRANCH   7  10
ATOM     10  N   UNK d   1      11.590   5.347  11.664  0.00  0.00    -0.183 NA
ATOM     11  C   UNK d   1      11.856   4.089  11.646  0.00  0.00     0.153 C 
BRANCH  11  12
ATOM     12  C   UNK d   1      13.064   3.531  11.059  0.00  0.00     0.019 A 
ATOM     13  C   UNK d   1      13.005   2.680   9.988  0.00  0.00     0.038 A 
ATOM     14  C   UNK d   1      14.150   2.136   9.413  0.00  0.00     0.046 A 
ATOM     15  C   UNK d   1      15.401   2.457   9.934  0.00  0.00     0.103 A 
ATOM     16 Br   UNK d   1      14.021   0.962   7.931  0.00  0.00    -0.048 Br
ATOM     17  C   UNK d   1      15.468   3.304  11.002  0.00  0.00     0.079 A 
ATOM     18 Br   UNK d   1      17.150   3.768  11.739  0.00  0.00    -0.045 Br
ATOM     19  C   UNK d   1      14.308   3.840  11.563  0.00  0.00     0.097 A 
BRANCH  15  20
ATOM     20  O   UNK d   1      16.529   1.904   9.347  0.00  0.00    -0.358 OA
ATOM     21  H   UNK d   1      16.905   1.027   9.669  0.00  0.00     0.217 HD
ENDBRANCH  15  20
BRANCH  19  22
ATOM     22  O   UNK d   1      14.356   4.701  12.649  0.00  0.00    -0.358 OA
ATOM     23  H   UNK d   1      15.099   5.384  12.724  0.00  0.00     0.217 HD
ENDBRANCH  19  22
ENDBRANCH  11  12
ENDBRANCH   7  10
ENDBRANCH   1   6
BRANCH   5  24
ATOM     24  C   UNK d   1       8.876   9.104  13.247  0.00  0.00     0.334 C 
BRANCH  24  25
ATOM     25  N   UNK d   1       8.827   9.097  14.711  0.00  0.00     0.098 N 
ATOM     26  C   UNK d   1      10.095   9.652  15.225  0.00  0.00     0.299 C 
ATOM     27  C   UNK d   1      11.244   9.028  14.513  0.00  0.00     0.198 C 
ATOM     28  O   UNK d   1      11.155   7.660  14.603  0.00  0.00    -0.388 OA
ATOM     29  C   UNK d   1      10.191   7.211  15.467  0.00  0.00     0.198 C 
ATOM     30  C   UNK d   1       8.794   7.685  15.162  0.00  0.00     0.299 C 
ENDBRANCH  24  25
ENDBRANCH   5  24
BRANCH   4  31
ATOM     31  C   UNK d   1       5.755   9.369  13.266  0.00  0.00     0.229 A 
ATOM     32  N   UNK d   1       5.883  10.713  13.246  0.00  0.00    -0.081 NA
ATOM     33  O   UNK d   1       4.932  11.259  13.956  0.00  0.00    -0.103 OA
ATOM     34  N   UNK d   1       4.155  10.336  14.463  0.00  0.00    -0.083 NA
ATOM     35  C   UNK d   1       4.636   9.150  14.055  0.00  0.00     0.201 A 
BRANCH  35  36
ATOM     36  N   UNK d   1       4.068   7.903  14.394  0.00  0.00    -0.379 N 
ATOM     37  H   UNK d   1       3.103   7.879  14.770  0.00  0.00     0.158 HD
ATOM     38  H   UNK d   1       4.578   7.009  14.282  0.00  0.00     0.158 HD
ENDBRANCH  35  36
ENDBRANCH   4  31
TORSDOF 9
ENDMDL
