MODEL 1
REMARK VINA RESULT:    -8.503      0.000      0.000
REMARK INTER + INTRA:         -12.537
REMARK INTER:                 -11.486
REMARK INTRA:                  -1.051
REMARK UNBOUND:                -1.051
REMARK  7 active torsions:
REMARK  status: ('A' for Active; 'I' for Inactive)
REMARK    1  A    between atoms: C_3  and  O_31 
REMARK    2  A    between atoms: C_6  and  C_9 
REMARK    3  A    between atoms: C_7  and  O_8 
REMARK    4  A    between atoms: N_10  and  N_11 
REMARK    5  A    between atoms: N_11  and  C_12 
REMARK    6  A    between atoms: C_14  and  N_24 
REMARK    7  A    between atoms: C_16  and  N_18 
ROOT
ATOM      1  C   UNK d   1       9.218   6.151  11.470  0.00  0.00     0.774 A 
ATOM      2  N   UNK d   1       8.170   6.956  11.630  0.00  0.00     0.133 NA
ATOM      3  C   UNK d   1       8.287   8.234  12.092  0.00  0.00     0.756 A 
ATOM      4  N   UNK d   1       9.522   8.642  12.379  0.00  0.00     0.131 NA
ATOM      5  C   UNK d   1      10.639   7.892  12.245  0.00  0.00     0.756 A 
ATOM      6  N   UNK d   1      10.431   6.625  11.777  0.00  0.00     0.133 NA
ENDROOT
BRANCH   1   7
ATOM      7  N   UNK d   1       9.053   4.824  10.986  0.00  0.00    -0.105 N 
ATOM      8  H   UNK d   1       8.180   4.290  11.050  0.00  0.00     0.208 HD
BRANCH   7   9
ATOM      9  N   UNK d   1      10.143   4.179  10.371  0.00  0.00    -0.171 NA
ATOM     10  C   UNK d   1      10.855   3.301  10.959  0.00  0.00     0.153 C 
BRANCH  10  11
ATOM     11  C   UNK d   1      11.985   2.621  10.347  0.00  0.00     0.019 A 
ATOM     12  C   UNK d   1      13.268   2.980  10.687  0.00  0.00     0.038 A 
ATOM     13  C   UNK d   1      14.360   2.348  10.119  0.00  0.00     0.046 A 
ATOM     14  C   UNK d   1      14.206   1.340   9.193  0.00  0.00     0.103 A 
ATOM     15 Br   UNK d   1      16.137   2.867  10.611  0.00  0.00    -0.048 Br
ATOM     16  C   UNK d   1      12.921   0.972   8.845  0.00  0.00     0.079 A 
ATOM     17 Br   UNK d   1      12.716  -0.427   7.560  0.00  0.00    -0.045 Br
ATOM     18  C   UNK d   1      11.833   1.611   9.419  0.00  0.00     0.097 A 
BRANCH  14  19
ATOM     19  O   UNK d   1      15.294   0.693   8.611  0.00  0.00    -0.358 OA
ATOM     20  H   UNK d   1      15.265   0.454   7.634  0.00  0.00     0.217 HD
ENDBRANCH  14  19
BRANCH  18  21
ATOM     21  O   UNK d   1      10.559   1.236   9.063  0.00  0.00    -0.358 OA
ATOM     22  H   UNK d   1       9.816   1.934   8.964  0.00  0.00     0.217 HD
ENDBRANCH  18  21
ENDBRANCH  10  11
ENDBRANCH   7   9
ENDBRANCH   1   7
BRANCH   3  23
ATOM     23  N   UNK d   1       7.163   9.071  12.255  0.00  0.00    -0.209 N 
ATOM     24  C   UNK d   1       7.216  10.191  13.153  0.00  0.00     0.167 C 
ATOM     25  C   UNK d   1       5.950  10.155  13.994  0.00  0.00     0.188 C 
ATOM     26  O   UNK d   1       4.816   9.949  13.219  0.00  0.00    -0.388 OA
ATOM     27  C   UNK d   1       4.822   8.749  12.544  0.00  0.00     0.188 C 
ATOM     28  C   UNK d   1       5.961   8.804  11.518  0.00  0.00     0.167 C 
ENDBRANCH   3  23
BRANCH   5  29
ATOM     29  N   UNK d   1      11.925   8.367  12.561  0.00  0.00    -0.209 N 
ATOM     30  C   UNK d   1      13.075   7.886  11.862  0.00  0.00     0.167 C 
ATOM     31  C   UNK d   1      14.093   7.444  12.917  0.00  0.00     0.188 C 
ATOM     32  O   UNK d   1      13.593   7.557  14.196  0.00  0.00    -0.388 OA
ATOM     33  C   UNK d   1      13.176   8.821  14.535  0.00  0.00     0.188 C 
ATOM     34  C   UNK d   1      12.098   9.342  13.593  0.00  0.00     0.167 C 
ENDBRANCH   5  29
TORSDOF 7
ENDMDL
