/Users/jonathanwahrer/Desktop/Msc/3_Semester/Drug_Design_Praktikum/waehrer_HTS_screening/HTS_experiment/out/docking_results/vina_output/2jam/0005_docked.pdbqt
 OpenBabel03162217143D

 38 41  0  0  1  0  0  0  0  0999 V2000
   12.3170    3.1750   10.2700 N   0  0  0  0  0  0  0  0  0  0  0  0
   12.2680    2.0320    9.5360 C   0  0  0  0  0  0  0  0  0  0  0  0
   11.0030    1.5110    9.5860 C   0  0  0  0  0  0  0  0  0  0  0  0
   10.3130    2.3430   10.3400 N   0  0  0  0  0  0  0  0  0  0  0  0
   11.0850    3.3760   10.7740 C   0  0  0  0  0  0  0  0  0  0  0  0
   10.6110    0.3700    8.9410 N   0  0  0  0  0  0  0  0  0  0  0  0
   11.5460   -0.2580    8.2160 C   0  0  0  0  0  0  0  0  0  0  0  0
   11.1820   -1.3120    7.6220 O   0  0  0  0  0  0  0  0  0  0  0  0
   12.8040    0.2160    8.1320 N   0  0  0  0  0  2  0  0  0  0  0  0
   13.2020    1.3340    8.7600 C   0  0  0  0  0  0  0  0  0  0  0  0
   14.4920    1.7990    8.6520 O   0  0  0  0  0  0  0  0  0  0  0  0
    9.2380   -0.0970    9.0730 C   0  0  0  0  0  1  0  0  0  0  0  0
   13.4620    3.9950   10.4540 C   0  0  0  0  0  2  0  0  0  0  0  0
   14.4060    3.7900   11.5390 C   0  0  1  0  0  3  0  0  0  0  0  0
   15.8620    3.6580   11.3940 C   0  0  0  0  0  2  0  0  0  0  0  0
   16.5350    4.6130   12.2110 O   0  0  0  0  0  0  0  0  0  0  0  0
   17.6590    5.2920   11.8940 C   0  0  0  0  0  0  0  0  0  0  0  0
   17.5570    6.6330   11.4910 C   0  0  0  0  0  0  0  0  0  0  0  0
   15.8080    7.4070   11.4240 Br  0  0  0  0  0  0  0  0  0  0  0  0
   18.6640    7.3700   11.1560 C   0  0  0  0  0  3  0  0  0  0  0  0
   19.9210    6.8070   11.2060 C   0  0  0  0  0  0  0  0  0  0  0  0
   20.0480    5.4940   11.5970 C   0  0  0  0  0  3  0  0  0  0  0  0
   21.4000    7.9060   10.7220 Br  0  0  0  0  0  0  0  0  0  0  0  0
   18.9060    4.7570   11.9350 C   0  0  0  0  0  0  0  0  0  0  0  0
   19.1750    2.9630   12.4400 Br  0  0  0  0  0  0  0  0  0  0  0  0
   14.1930    4.4640   12.7550 O   0  0  0  0  0  0  0  0  0  0  0  0
   13.2700    4.7610   12.8520 H   0  0  0  0  0  0  0  0  0  0  0  0
   10.5370    4.4810   11.5160 N   0  0  0  0  0  0  0  0  0  0  0  0
   10.7880    4.8250   12.8630 C   0  0  0  0  0  2  0  0  0  0  0  0
   10.0320    6.1490   13.1600 C   0  0  0  0  0  2  0  0  0  0  0  0
    8.6320    5.8200   12.9770 N   0  0  0  0  0  4  0  0  0  0  0  0
    8.4650    5.8730   11.5120 C   0  0  0  0  0  2  0  0  0  0  0  0
    8.3900    4.8440   13.2500 H   0  0  0  0  0  0  0  0  0  0  0  0
    9.6460    5.3830   10.7750 C   0  0  0  0  0  2  0  0  0  0  0  0
    7.7660    6.8010   13.6010 C   0  0  0  0  0  2  0  0  0  0  0  0
    7.6180    6.4570   15.0670 C   0  0  0  0  0  2  0  0  0  0  0  0
    7.2030    5.1250   15.1850 O   0  0  0  0  0  0  0  0  0  0  0  0
    7.8860    4.5070   14.8050 H   0  0  0  0  0  0  0  0  0  0  0  0
  1 13  1  0  0  0  0
  1  5  1  0  0  0  0
  2  3  2  0  0  0  0
  2  1  1  0  0  0  0
  3  4  1  0  0  0  0
  4  5  2  0  0  0  0
  5 28  1  0  0  0  0
  6 12  1  0  0  0  0
  6  3  1  0  0  0  0
  7  6  1  0  0  0  0
  8  7  2  0  0  0  0
  9  7  1  0  0  0  0
  9 10  1  0  0  0  0
 10  2  1  0  0  0  0
 11 10  2  0  0  0  0
 14 13  1  6  0  0  0
 14 26  1  0  0  0  0
 15 14  1  0  0  0  0
 15 16  1  0  0  0  0
 17 24  1  0  0  0  0
 17 16  1  0  0  0  0
 18 17  2  0  0  0  0
 19 18  1  0  0  0  0
 20 21  2  0  0  0  0
 20 18  1  0  0  0  0
 21 22  1  0  0  0  0
 22 24  2  0  0  0  0
 23 21  1  0  0  0  0
 24 25  1  0  0  0  0
 26 27  1  0  0  0  0
 28 29  1  0  0  0  0
 29 30  1  0  0  0  0
 31 30  1  0  0  0  0
 31 33  1  0  0  0  0
 31 35  1  0  0  0  0
 32 31  1  0  0  0  0
 34 32  1  0  0  0  0
 34 28  1  0  0  0  0
 35 36  1  0  0  0  0
 36 37  1  0  0  0  0
 38 37  1  0  0  0  0
M  END
>  <Pose>
1

>  <Score>
-8.121

$$$$
