MODEL 1
REMARK VINA RESULT:    -8.121      0.000      0.000
REMARK INTER + INTRA:         -13.644
REMARK INTER:                 -12.393
REMARK INTRA:                  -1.251
REMARK UNBOUND:                -1.251
REMARK  10 active torsions:
REMARK  status: ('A' for Active; 'I' for Inactive)
REMARK    1  A    between atoms: C_3  and  O_10 
REMARK    2  A    between atoms: O_10  and  C_11 
REMARK    3  A    between atoms: C_11  and  C_12 
REMARK    4  A    between atoms: C_12  and  O_13 
REMARK    5  A    between atoms: C_12  and  C_14 
REMARK    6  A    between atoms: C_14  and  N_15 
REMARK    7  A    between atoms: C_19  and  N_20 
REMARK    8  A    between atoms: N_23  and  C_26 
REMARK    9  A    between atoms: C_26  and  C_27 
REMARK   10  A    between atoms: C_27  and  O_28 
ROOT
ATOM      1  N   UNK d   1      12.317   3.175  10.270  0.00  0.00    -0.171 N 
ATOM      2  C   UNK d   1      12.268   2.032   9.536  0.00  0.00     0.154 A 
ATOM      3  C   UNK d   1      11.003   1.511   9.586  0.00  0.00     0.184 A 
ATOM      4  N   UNK d   1      10.313   2.343  10.340  0.00  0.00    -0.044 NA
ATOM      5  C   UNK d   1      11.085   3.376  10.774  0.00  0.00     0.707 A 
ATOM      6  N   UNK d   1      10.611   0.370   8.941  0.00  0.00    -0.284 N 
ATOM      7  C   UNK d   1      11.546  -0.258   8.216  0.00  0.00     0.352 A 
ATOM      8  O   UNK d   1      11.182  -1.312   7.622  0.00  0.00    -0.244 OA
ATOM      9  N   UNK d   1      12.804   0.216   8.132  0.00  0.00    -0.164 NA
ATOM     10  C   UNK d   1      13.202   1.334   8.760  0.00  0.00     0.236 A 
ATOM     11  O   UNK d   1      14.492   1.799   8.652  0.00  0.00    -0.167 OA
ATOM     12  C   UNK d   1       9.238  -0.097   9.073  0.00  0.00     0.163 C 
ENDROOT
BRANCH   1  13
ATOM     13  C   UNK d   1      13.462   3.995  10.454  0.00  0.00     0.182 C 
BRANCH  13  14
ATOM     14  C   UNK d   1      14.406   3.790  11.539  0.00  0.00     0.161 C 
BRANCH  14  15
ATOM     15  C   UNK d   1      15.862   3.658  11.394  0.00  0.00     0.209 C 
BRANCH  15  16
ATOM     16  O   UNK d   1      16.535   4.613  12.211  0.00  0.00    -0.346 OA
BRANCH  16  17
ATOM     17  C   UNK d   1      17.659   5.292  11.894  0.00  0.00     0.103 A 
ATOM     18  C   UNK d   1      17.557   6.633  11.491  0.00  0.00     0.047 A 
ATOM     19 Br   UNK d   1      15.808   7.407  11.424  0.00  0.00    -0.048 Br
ATOM     20  C   UNK d   1      18.664   7.370  11.156  0.00  0.00     0.041 A 
ATOM     21  C   UNK d   1      19.921   6.807  11.206  0.00  0.00     0.013 A 
ATOM     22  C   UNK d   1      20.048   5.494  11.597  0.00  0.00     0.041 A 
ATOM     23 Br   UNK d   1      21.400   7.906  10.722  0.00  0.00    -0.051 Br
ATOM     24  C   UNK d   1      18.906   4.757  11.935  0.00  0.00     0.047 A 
ATOM     25 Br   UNK d   1      19.175   2.963  12.440  0.00  0.00    -0.048 Br
ENDBRANCH  16  17
ENDBRANCH  15  16
ENDBRANCH  14  15
BRANCH  14  26
ATOM     26  O   UNK d   1      14.193   4.464  12.755  0.00  0.00    -0.392 OA
ATOM     27  H   UNK d   1      13.270   4.761  12.852  0.00  0.00     0.210 HD
ENDBRANCH  14  26
ENDBRANCH  13  14
ENDBRANCH   1  13
BRANCH   5  28
ATOM     28  N   UNK d   1      10.537   4.481  11.516  0.00  0.00    -0.212 N 
ATOM     29  C   UNK d   1      10.788   4.825  12.863  0.00  0.00     0.169 C 
ATOM     30  C   UNK d   1      10.032   6.149  13.160  0.00  0.00     0.255 C 
ATOM     31  N   UNK d   1       8.632   5.820  12.977  0.00  0.00    -0.066 N 
ATOM     32  C   UNK d   1       8.465   5.873  11.512  0.00  0.00     0.255 C 
ATOM     33  H   UNK d   1       8.390   4.844  13.250  0.00  0.00     0.280 HD
ATOM     34  C   UNK d   1       9.646   5.383  10.775  0.00  0.00     0.169 C 
BRANCH  31  35
ATOM     35  C   UNK d   1       7.766   6.801  13.601  0.00  0.00     0.260 C 
BRANCH  35  36
ATOM     36  C   UNK d   1       7.618   6.457  15.067  0.00  0.00     0.192 C 
BRANCH  36  37
ATOM     37  O   UNK d   1       7.203   5.125  15.185  0.00  0.00    -0.399 OA
ATOM     38  H   UNK d   1       7.886   4.507  14.805  0.00  0.00     0.209 HD
ENDBRANCH  36  37
ENDBRANCH  35  36
ENDBRANCH  31  35
ENDBRANCH   5  28
TORSDOF 10
ENDMDL
