MODEL 1
REMARK VINA RESULT:    -9.036      0.000      0.000
REMARK INTER + INTRA:         -13.112
REMARK INTER:                 -11.942
REMARK INTRA:                  -1.170
REMARK UNBOUND:                -1.170
REMARK  6 active torsions:
REMARK  status: ('A' for Active; 'I' for Inactive)
REMARK    1  A    between atoms: C_4  and  C_9 
REMARK    2  A    between atoms: N_10  and  N_11 
REMARK       I    between atoms: N_11  and  C_12 
REMARK    3  A    between atoms: C_12  and  C_14 
REMARK    4  A    between atoms: C_14  and  N_15 
REMARK    5  A    between atoms: C_19  and  C_20 
REMARK    6  A    between atoms: C_24  and  N_25 
ROOT
ATOM      1  N   UNK d   1       9.473   7.671  12.864  0.00  0.00    -0.319 N 
ATOM      2  C   UNK d   1      10.116   7.684  14.062  0.00  0.00     0.065 A 
ATOM      3  C   UNK d   1       9.218   7.504  15.078  0.00  0.00     0.086 A 
ATOM      4  N   UNK d   1       8.024   7.382  14.478  0.00  0.00    -0.226 NA
ATOM      5  C   UNK d   1       8.177   7.484  13.120  0.00  0.00     0.167 A 
ATOM      6  C   UNK d   1       9.681   7.487  16.377  0.00  0.00     0.034 A 
ATOM      7  C   UNK d   1      11.023   7.647  16.680  0.00  0.00     0.002 A 
ATOM      8  C   UNK d   1      11.908   7.827  15.631  0.00  0.00     0.002 A 
ATOM      9  C   UNK d   1      11.447   7.844  14.330  0.00  0.00     0.032 A 
ENDROOT
BRANCH   1  10
ATOM     10  C   UNK d   1      10.049   7.824  11.565  0.00  0.00     0.235 C 
BRANCH  10  11
ATOM     11  C   UNK d   1      10.623   6.639  10.976  0.00  0.00     0.256 C 
ATOM     12  N   UNK d   1       9.848   5.591  10.421  0.00  0.00    -0.246 N 
ATOM     13  H   UNK d   1       8.811   5.697  10.447  0.00  0.00     0.192 HD
ATOM     14  O   UNK d   1      11.868   6.499  10.939  0.00  0.00    -0.270 OA
BRANCH  12  15
ATOM     15  N   UNK d   1      10.371   4.443   9.849  0.00  0.00    -0.184 NA
ATOM     16  C   UNK d   1      10.562   3.353  10.488  0.00  0.00     0.153 C 
BRANCH  16  17
ATOM     17  C   UNK d   1      11.117   2.211   9.788  0.00  0.00     0.022 A 
ATOM     18  C   UNK d   1      12.440   2.184   9.469  0.00  0.00     0.136 A 
ATOM     19  C   UNK d   1      12.957   1.093   8.803  0.00  0.00     0.049 A 
ATOM     20  O   UNK d   1      13.269   3.238   9.808  0.00  0.00    -0.190 OA
ATOM     21 Br   UNK d   1      14.804   1.076   8.369  0.00  0.00    -0.048 Br
ATOM     22  C   UNK d   1      12.136   0.033   8.458  0.00  0.00     0.041 A 
ATOM     23  C   UNK d   1      10.804   0.080   8.788  0.00  0.00     0.013 A 
ATOM     24  C   UNK d   1      10.263   1.154   9.453  0.00  0.00     0.035 A 
ATOM     25 Br   UNK d   1       9.683  -1.393   8.307  0.00  0.00    -0.051 Br
ENDBRANCH  16  17
ENDBRANCH  12  15
ENDBRANCH  10  11
ENDBRANCH   1  10
BRANCH   5  26
ATOM     26  C   UNK d   1       7.074   7.394  12.170  0.00  0.00     0.187 A 
ATOM     27  N   UNK d   1       6.800   6.338  11.394  0.00  0.00    -0.097 NA
ATOM     28  O   UNK d   1       5.733   6.610  10.664  0.00  0.00    -0.104 OA
ATOM     29  N   UNK d   1       5.300   7.802  10.933  0.00  0.00    -0.077 NA
ATOM     30  C   UNK d   1       6.112   8.332  11.874  0.00  0.00     0.285 A 
BRANCH  30  31
ATOM     31  N   UNK d   1       5.998   9.618  12.455  0.00  0.00    -0.028 N 
ATOM     32  H   UNK d   1       6.813   9.870  13.030  0.00  0.00     0.283 HD
ATOM     33  H   UNK d   1       5.173   9.569  13.113  0.00  0.00     0.283 HD
ATOM     34  H   UNK d   1       5.778  10.366  11.747  0.00  0.00     0.283 HD
ENDBRANCH  30  31
ENDBRANCH   5  26
TORSDOF 6
ENDMDL
