MODEL 1
REMARK VINA RESULT:    -9.200      0.000      0.000
REMARK INTER + INTRA:         -14.687
REMARK INTER:                 -13.772
REMARK INTRA:                  -0.915
REMARK UNBOUND:                -0.915
REMARK  9 active torsions:
REMARK  status: ('A' for Active; 'I' for Inactive)
REMARK    1  A    between atoms: C_4  and  O_29 
REMARK    2  A    between atoms: C_6  and  C_8 
REMARK    3  A    between atoms: C_8  and  N_9 
REMARK    4  A    between atoms: N_9  and  N_10 
REMARK       I    between atoms: N_10  and  C_11 
REMARK    5  A    between atoms: C_11  and  C_13 
REMARK    6  A    between atoms: C_13  and  N_14 
REMARK    7  A    between atoms: C_18  and  C_19 
REMARK    8  A    between atoms: C_23  and  N_24 
REMARK    9  A    between atoms: O_29  and  C_30 
ROOT
ATOM      1  N   UNK d   1      11.764   2.169  10.471  0.00  0.00    -0.319 N 
ATOM      2  C   UNK d   1      11.194   1.125   9.758  0.00  0.00     0.065 A 
ATOM      3  C   UNK d   1      12.203   0.415   9.222  0.00  0.00     0.086 A 
ATOM      4  N   UNK d   1      13.330   1.000   9.595  0.00  0.00    -0.226 NA
ATOM      5  C   UNK d   1      13.066   2.111  10.384  0.00  0.00     0.167 A 
ATOM      6  C   UNK d   1      11.994  -0.712   8.442  0.00  0.00     0.034 A 
ATOM      7  C   UNK d   1      10.686  -1.079   8.235  0.00  0.00     0.002 A 
ATOM      8  C   UNK d   1       9.613  -0.385   8.759  0.00  0.00     0.002 A 
ATOM      9  C   UNK d   1       9.881   0.740   9.537  0.00  0.00     0.032 A 
ENDROOT
BRANCH   1  10
ATOM     10  C   UNK d   1      10.941   3.070  11.166  0.00  0.00     0.236 C 
BRANCH  10  11
ATOM     11  C   UNK d   1      10.629   4.333  10.334  0.00  0.00     0.264 C 
ATOM     12  N   UNK d   1       9.465   4.903  10.735  0.00  0.00    -0.202 N 
ATOM     13  H   UNK d   1       9.677   5.905   9.771  0.00  0.00     0.205 HD
ATOM     14  O   UNK d   1      11.486   4.566   9.484  0.00  0.00    -0.269 OA
BRANCH  12  15
ATOM     15  N   UNK d   1       8.408   5.425  11.097  0.00  0.00    -0.335 NA
BRANCH  15  16
ATOM     16  C   UNK d   1       7.443   5.971  11.503  0.00  0.00     0.220 C 
BRANCH  16  17
ATOM     17  C   UNK d   1       7.188   7.233  12.106  0.00  0.00    -0.001 A 
ATOM     18  C   UNK d   1       5.882   7.741  12.152  0.00  0.00     0.053 A 
ATOM     19  C   UNK d   1       5.519   8.929  12.718  0.00  0.00     0.107 A 
ATOM     20  C   UNK d   1       6.542   9.712  13.305  0.00  0.00     0.157 A 
ATOM     21  C   UNK d   1       7.840   9.251  13.281  0.00  0.00     0.051 A 
ATOM     22  O   UNK d   1       6.174  10.897  13.874  0.00  0.00    -0.188 OA
ATOM     23 Br   UNK d   1       9.230  10.264  14.086  0.00  0.00    -0.048 Br
ATOM     24  C   UNK d   1       8.140   8.039  12.692  0.00  0.00     0.036 A 
BRANCH  19  25
ATOM     25  O   UNK d   1       4.226   9.415  12.759  0.00  0.00    -0.348 OA
BRANCH  25  26
ATOM     26  C   UNK d   1       3.227   8.840  13.530  0.00  0.00     0.171 C 
ATOM     27  C   UNK d   1       3.574   8.562  14.965  0.00  0.00     0.034 C 
ENDBRANCH  25  26
ENDBRANCH  19  25
ENDBRANCH  16  17
ENDBRANCH  15  16
ENDBRANCH  12  15
ENDBRANCH  10  11
ENDBRANCH   1  10
BRANCH   5  28
ATOM     28  C   UNK d   1      14.223   2.837  10.876  0.00  0.00     0.187 A 
ATOM     29  N   UNK d   1      14.155   3.686  11.979  0.00  0.00    -0.097 NA
ATOM     30  O   UNK d   1      15.297   4.185  12.229  0.00  0.00    -0.104 OA
ATOM     31  N   UNK d   1      16.161   3.760  11.397  0.00  0.00    -0.077 NA
ATOM     32  C   UNK d   1      15.522   2.905  10.526  0.00  0.00     0.285 A 
BRANCH  32  33
ATOM     33  N   UNK d   1      16.214   2.243   9.490  0.00  0.00    -0.028 N 
ATOM     34  H   UNK d   1      16.331   2.941   8.663  0.00  0.00     0.283 HD
ATOM     35  H   UNK d   1      15.627   1.501   9.091  0.00  0.00     0.283 HD
ATOM     36  H   UNK d   1      17.178   2.044   9.745  0.00  0.00     0.283 HD
ENDBRANCH  32  33
ENDBRANCH   5  28
TORSDOF 9
ENDMDL
