MODEL 1
REMARK VINA RESULT:    -8.750      0.000      0.000
REMARK INTER + INTRA:         -14.797
REMARK INTER:                 -13.354
REMARK INTRA:                  -1.444
REMARK UNBOUND:                -1.444
REMARK  10 active torsions:
REMARK  status: ('A' for Active; 'I' for Inactive)
REMARK    1  A    between atoms: C_3  and  O_34 
REMARK    2  A    between atoms: C_4  and  O_31 
REMARK    3  A    between atoms: C_6  and  C_8 
REMARK    4  A    between atoms: N_9  and  N_10 
REMARK       I    between atoms: N_10  and  C_11 
REMARK    5  A    between atoms: C_11  and  C_13 
REMARK    6  A    between atoms: N_16  and  C_25 
REMARK    7  A    between atoms: C_17  and  C_18 
REMARK    8  A    between atoms: C_18  and  N_19 
REMARK    9  A    between atoms: C_29  and  N_30 
REMARK   10  A    between atoms: O_31  and  C_32 
ROOT
ATOM      1  C   UNK d   1       8.306   8.275  11.722  0.00  0.00     0.176 A 
ATOM      2  N   UNK d   1       7.777   9.079  10.791  0.00  0.00    -0.124 NA
ATOM      3  N   UNK d   1       6.746   9.714  11.293  0.00  0.00    -0.058 NA
ATOM      4  N   UNK d   1       6.548   9.358  12.575  0.00  0.00    -0.191 N 
ATOM      5  C   UNK d   1       7.503   8.467  12.862  0.00  0.00     0.104 A 
ENDROOT
BRANCH   1   6
ATOM      6  C   UNK d   1       9.454   7.384  11.616  0.00  0.00     0.294 C 
ATOM      7  N   UNK d   1       9.310   6.020  11.278  0.00  0.00    -0.242 N 
ATOM      8  H   UNK d   1       8.332   5.649  11.100  0.00  0.00     0.192 HD
ATOM      9  O   UNK d   1      10.595   7.839  11.829  0.00  0.00    -0.264 OA
BRANCH   7  10
ATOM     10  N   UNK d   1      10.347   5.128  11.160  0.00  0.00    -0.183 NA
ATOM     11  C   UNK d   1      10.466   4.233  10.250  0.00  0.00     0.150 C 
BRANCH  11  12
ATOM     12  C   UNK d   1      11.604   3.330  10.206  0.00  0.00    -0.013 A 
ATOM     13  C   UNK d   1      11.531   2.036   9.715  0.00  0.00     0.052 A 
ATOM     14  C   UNK d   1      12.623   1.202   9.686  0.00  0.00     0.104 A 
ATOM     15  C   UNK d   1      13.814   1.698  10.165  0.00  0.00     0.116 A 
ATOM     16  C   UNK d   1      13.925   2.991  10.665  0.00  0.00     0.047 A 
ATOM     17 Br   UNK d   1      15.578   3.668  11.326  0.00  0.00    -0.048 Br
ATOM     18  C   UNK d   1      12.816   3.785  10.676  0.00  0.00     0.035 A 
BRANCH  14  19
ATOM     19  O   UNK d   1      12.588  -0.085   9.206  0.00  0.00    -0.349 OA
BRANCH  19  20
ATOM     20  C   UNK d   1      11.557  -0.685   8.493  0.00  0.00     0.171 C 
ATOM     21  C   UNK d   1      10.661  -1.570   9.298  0.00  0.00     0.034 C 
ENDBRANCH  19  20
ENDBRANCH  14  19
BRANCH  15  22
ATOM     22  O   UNK d   1      14.955   0.900  10.160  0.00  0.00    -0.357 OA
ATOM     23  H   UNK d   1      14.986   0.063  10.730  0.00  0.00     0.218 HD
ENDBRANCH  15  22
ENDBRANCH  11  12
ENDBRANCH   7  10
ENDBRANCH   1   6
BRANCH   5  24
ATOM     24  C   UNK d   1       7.737   7.735  14.108  0.00  0.00     0.334 C 
BRANCH  24  25
ATOM     25  N   UNK d   1       8.617   8.347  15.070  0.00  0.00     0.098 N 
ATOM     26  C   UNK d   1       7.750   8.670  16.210  0.00  0.00     0.299 C 
ATOM     27  C   UNK d   1       7.097   7.508  16.846  0.00  0.00     0.198 C 
ATOM     28  O   UNK d   1       7.896   6.377  16.780  0.00  0.00    -0.388 OA
ATOM     29  C   UNK d   1       9.214   6.773  16.849  0.00  0.00     0.198 C 
ATOM     30  C   UNK d   1       9.612   7.368  15.513  0.00  0.00     0.299 C 
ENDBRANCH  24  25
ENDBRANCH   5  24
BRANCH   4  31
ATOM     31  C   UNK d   1       5.479   9.874  13.375  0.00  0.00     0.229 A 
ATOM     32  N   UNK d   1       5.499  10.876  14.267  0.00  0.00    -0.081 NA
ATOM     33  O   UNK d   1       4.298  11.028  14.771  0.00  0.00    -0.103 OA
ATOM     34  N   UNK d   1       3.468  10.159  14.246  0.00  0.00    -0.083 NA
ATOM     35  C   UNK d   1       4.180   9.426  13.371  0.00  0.00     0.201 A 
BRANCH  35  36
ATOM     36  N   UNK d   1       3.622   8.377  12.595  0.00  0.00    -0.379 N 
ATOM     37  H   UNK d   1       3.663   8.336  11.556  0.00  0.00     0.158 HD
ATOM     38  H   UNK d   1       3.129   7.570  13.057  0.00  0.00     0.158 HD
ENDBRANCH  35  36
ENDBRANCH   4  31
TORSDOF 10
ENDMDL
