/Users/jonathanwahrer/Desktop/Msc/3_Semester/Drug_Design_Praktikum/waehrer_HTS_screening/HTS_experiment/out/docking_results/vina_output/2jam/0017_docked.pdbqt
 OpenBabel03162217153D

 38 41  0  0  0  0  0  0  0  0999 V2000
    8.3060    8.2750   11.7220 C   0  0  0  0  0  0  0  0  0  0  0  0
    7.7770    9.0790   10.7910 N   0  0  0  0  0  0  0  0  0  0  0  0
    6.7460    9.7140   11.2930 N   0  0  0  0  0  0  0  0  0  0  0  0
    6.5480    9.3580   12.5750 N   0  0  0  0  0  0  0  0  0  0  0  0
    7.5030    8.4670   12.8620 C   0  0  0  0  0  0  0  0  0  0  0  0
    9.4540    7.3840   11.6160 C   0  0  0  0  0  0  0  0  0  0  0  0
    9.3100    6.0200   11.2780 N   0  0  0  0  0  0  0  0  0  0  0  0
    8.3320    5.6490   11.1000 H   0  0  0  0  0  0  0  0  0  0  0  0
   10.5950    7.8390   11.8290 O   0  0  0  0  0  0  0  0  0  0  0  0
   10.3470    5.1280   11.1600 N   0  0  0  0  0  0  0  0  0  0  0  0
   10.4660    4.2330   10.2500 C   0  0  0  0  0  3  0  0  0  0  0  0
   11.6040    3.3300   10.2060 C   0  0  0  0  0  0  0  0  0  0  0  0
   11.5310    2.0360    9.7150 C   0  0  0  0  0  3  0  0  0  0  0  0
   12.6230    1.2020    9.6860 C   0  0  0  0  0  0  0  0  0  0  0  0
   13.8140    1.6980   10.1650 C   0  0  0  0  0  0  0  0  0  0  0  0
   13.9250    2.9910   10.6650 C   0  0  0  0  0  0  0  0  0  0  0  0
   15.5780    3.6680   11.3260 Br  0  0  0  0  0  0  0  0  0  0  0  0
   12.8160    3.7850   10.6760 C   0  0  0  0  0  3  0  0  0  0  0  0
   12.5880   -0.0850    9.2060 O   0  0  0  0  0  0  0  0  0  0  0  0
   11.5570   -0.6850    8.4930 C   0  0  0  0  0  2  0  0  0  0  0  0
   10.6610   -1.5700    9.2980 C   0  0  0  0  0  1  0  0  0  0  0  0
   14.9550    0.9000   10.1600 O   0  0  0  0  0  0  0  0  0  0  0  0
   14.9860    0.0630   10.7300 H   0  0  0  0  0  0  0  0  0  0  0  0
    7.7370    7.7350   14.1080 C   0  0  0  0  0  2  0  0  0  0  0  0
    8.6170    8.3470   15.0700 N   0  0  0  0  0  0  0  0  0  0  0  0
    7.7500    8.6700   16.2100 C   0  0  0  0  0  2  0  0  0  0  0  0
    7.0970    7.5080   16.8460 C   0  0  0  0  0  2  0  0  0  0  0  0
    7.8960    6.3770   16.7800 O   0  0  0  0  0  0  0  0  0  0  0  0
    9.2140    6.7730   16.8490 C   0  0  0  0  0  2  0  0  0  0  0  0
    9.6120    7.3680   15.5130 C   0  0  0  0  0  2  0  0  0  0  0  0
    5.4790    9.8740   13.3750 C   0  0  0  0  0  0  0  0  0  0  0  0
    5.4990   10.8760   14.2670 N   0  0  0  0  0  0  0  0  0  0  0  0
    4.2980   11.0280   14.7710 O   0  0  0  0  0  0  0  0  0  0  0  0
    3.4680   10.1590   14.2460 N   0  0  0  0  0  0  0  0  0  0  0  0
    4.1800    9.4260   13.3710 C   0  0  0  0  0  0  0  0  0  0  0  0
    3.6220    8.3770   12.5950 N   0  0  0  0  0  0  0  0  0  0  0  0
    3.6630    8.3360   11.5560 H   0  0  0  0  0  0  0  0  0  0  0  0
    3.1290    7.5700   13.0570 H   0  0  0  0  0  0  0  0  0  0  0  0
  1  5  2  0  0  0  0
  2  3  2  0  0  0  0
  2  1  1  0  0  0  0
  3  4  1  0  0  0  0
  4  5  1  0  0  0  0
  4 31  1  0  0  0  0
  5 24  1  0  0  0  0
  6  1  1  0  0  0  0
  6  9  2  0  0  0  0
  7  6  1  0  0  0  0
  8  7  1  0  0  0  0
 10  7  1  0  0  0  0
 11 10  2  0  0  0  0
 12 11  1  0  0  0  0
 12 18  1  0  0  0  0
 13 12  2  0  0  0  0
 14 13  1  0  0  0  0
 14 15  2  0  0  0  0
 15 16  1  0  0  0  0
 16 18  2  0  0  0  0
 16 17  1  0  0  0  0
 19 14  1  0  0  0  0
 20 19  1  0  0  0  0
 20 21  1  0  0  0  0
 22 15  1  0  0  0  0
 22 23  1  0  0  0  0
 24 25  1  0  0  0  0
 25 30  1  0  0  0  0
 25 26  1  0  0  0  0
 26 27  1  0  0  0  0
 28 27  1  0  0  0  0
 28 29  1  0  0  0  0
 30 29  1  0  0  0  0
 31 32  2  0  0  0  0
 32 33  1  0  0  0  0
 34 33  1  0  0  0  0
 35 31  1  0  0  0  0
 35 34  2  0  0  0  0
 36 38  1  0  0  0  0
 36 35  1  0  0  0  0
 37 36  1  0  0  0  0
M  END
>  <Pose>
1

>  <Score>
-8.750

$$$$
