/Users/jonathanwahrer/Desktop/Msc/3_Semester/Drug_Design_Praktikum/waehrer_HTS_screening/HTS_experiment/out/docking_results/vina_output/2jam/0018_docked.pdbqt
 OpenBabel03162217163D

 37 40  0  0  0  0  0  0  0  0999 V2000
    7.9810    6.6480   11.8650 C   0  0  0  0  0  0  0  0  0  0  0  0
    6.8200    6.4110   11.3650 N   0  0  0  0  0  0  0  0  0  0  0  0
    5.9230    7.2220   11.8990 N   0  0  0  0  0  0  0  0  0  0  0  0
    6.5280    8.0040   12.7810 N   0  0  0  0  0  0  0  0  0  0  0  0
    7.8230    7.7370   12.8710 C   0  0  0  0  0  0  0  0  0  0  0  0
    9.3500    6.4440   11.4480 C   0  0  0  0  0  0  0  0  0  0  0  0
   10.0890    5.2900   11.9090 N   0  0  0  0  0  0  0  0  0  0  0  0
   10.1610    4.6340   12.5660 H   0  0  0  0  0  0  0  0  0  0  0  0
    9.8540    7.2170   10.6340 O   0  0  0  0  0  0  0  0  0  0  0  0
   11.1960    5.1240   10.7720 N   0  0  0  0  0  2  0  0  0  0  0  0
   11.0560    3.7900   10.6570 C   0  0  0  0  0  2  0  0  0  0  0  0
   11.4810    2.6640   10.0100 C   0  0  0  0  0  0  0  0  0  0  0  0
   12.7480    2.3450    9.5560 C   0  0  0  0  0  3  0  0  0  0  0  0
   13.0710    1.1730    8.9120 C   0  0  0  0  0  0  0  0  0  0  0  0
   12.0750    0.2590    8.7080 C   0  0  0  0  0  0  0  0  0  0  0  0
   10.7930    0.5290    9.1390 C   0  0  0  0  0  0  0  0  0  0  0  0
    9.4080   -0.7730    8.8070 Br  0  0  0  0  0  0  0  0  0  0  0  0
   10.4750    1.6590    9.7600 C   0  0  0  0  0  3  0  0  0  0  0  0
   14.3810    0.9430    8.4730 O   0  0  0  0  0  0  0  0  0  0  0  0
   15.4000    1.9090    8.8010 C   0  0  0  0  0  1  0  0  0  0  0  0
   12.3450   -0.9510    8.0640 O   0  0  0  0  0  0  0  0  0  0  0  0
   12.4180   -1.8100    8.6500 H   0  0  0  0  0  0  0  0  0  0  0  0
    8.9440    8.3430   13.5290 C   0  0  0  0  0  2  0  0  0  0  0  0
    8.8800    8.5110   14.9820 N   0  0  0  0  0  0  0  0  0  0  0  0
    9.9940    9.2410   15.4950 C   0  0  0  0  0  2  0  0  0  0  0  0
   11.3110    8.5250   15.4080 C   0  0  0  0  0  2  0  0  0  0  0  0
   11.3560    7.5190   16.3590 O   0  0  0  0  0  0  0  0  0  0  0  0
   10.0640    7.1080   16.7040 C   0  0  0  0  0  2  0  0  0  0  0  0
    9.1970    7.1060   15.4900 C   0  0  0  0  0  2  0  0  0  0  0  0
    5.9070    9.2450   13.1990 C   0  0  0  0  0  0  0  0  0  0  0  0
    6.2540   10.4630   13.1620 N   0  0  0  0  0  0  0  0  0  0  0  0
    5.3530   11.2670   13.7280 O   0  0  0  0  0  0  0  0  0  0  0  0
    4.3990   10.5090   14.1350 N   0  0  0  0  0  0  0  0  0  0  0  0
    4.6400    9.2270   13.8580 C   0  0  0  0  0  0  0  0  0  0  0  0
    3.8470    8.1070   14.1590 N   0  0  0  0  0  0  0  0  0  0  0  0
    3.9860    7.1830   13.7140 H   0  0  0  0  0  0  0  0  0  0  0  0
    3.0540    8.1470   14.8850 H   0  0  0  0  0  0  0  0  0  0  0  0
  1  5  2  0  0  0  0
  2  1  1  0  0  0  0
  2  3  2  0  0  0  0
  3  4  1  0  0  0  0
  4  5  1  0  0  0  0
  4 30  1  0  0  0  0
  5 23  1  0  0  0  0
  6  1  1  0  0  0  0
  6  7  1  0  0  0  0
  7  8  1  0  0  0  0
  9  6  2  0  0  0  0
 10  7  1  0  0  0  0
 11 10  1  0  0  0  0
 12 11  1  0  0  0  0
 13 12  2  0  0  0  0
 14 13  1  0  0  0  0
 15 14  2  0  0  0  0
 15 16  1  0  0  0  0
 16 18  2  0  0  0  0
 17 16  1  0  0  0  0
 18 12  1  0  0  0  0
 19 20  1  0  0  0  0
 19 14  1  0  0  0  0
 21 22  1  0  0  0  0
 21 15  1  0  0  0  0
 23 24  1  0  0  0  0
 24 29  1  0  0  0  0
 24 25  1  0  0  0  0
 26 25  1  0  0  0  0
 26 27  1  0  0  0  0
 27 28  1  0  0  0  0
 29 28  1  0  0  0  0
 30 34  1  0  0  0  0
 31 30  2  0  0  0  0
 31 32  1  0  0  0  0
 32 33  1  0  0  0  0
 34 33  2  0  0  0  0
 34 35  1  0  0  0  0
 35 37  1  0  0  0  0
 36 35  1  0  0  0  0
M  END
>  <Pose>
1

>  <Score>
-9.050

$$$$
