MODEL 1
REMARK VINA RESULT:    -7.723      0.000      0.000
REMARK INTER + INTRA:         -13.294
REMARK INTER:                 -11.561
REMARK INTRA:                  -1.734
REMARK UNBOUND:                -1.734
REMARK  9 active torsions:
REMARK  status: ('A' for Active; 'I' for Inactive)
REMARK    1  A    between atoms: C_3  and  O_35 
REMARK    2  A    between atoms: C_4  and  O_33 
REMARK    3  A    between atoms: C_6  and  C_8 
REMARK    4  A    between atoms: N_9  and  C_27 
REMARK    5  A    between atoms: C_14  and  C_15 
REMARK    6  A    between atoms: C_15  and  C_17 
REMARK    7  A    between atoms: C_27  and  C_28 
REMARK    8  A    between atoms: C_28  and  C_29 
REMARK    9  A    between atoms: C_29  and  N_30 
ROOT
ATOM      1  C   UNK d   1       9.611   6.007  13.729  0.00  0.00     0.161 C 
ATOM      2  N   UNK d   1       8.251   6.298  13.327  0.00  0.00    -0.332 N 
ATOM      3  C   UNK d   1       8.190   6.750  12.005  0.00  0.00     0.295 C 
ATOM      4  O   UNK d   1       7.186   7.192  11.426  0.00  0.00    -0.264 OA
ATOM      5  C   UNK d   1       9.527   6.607  11.427  0.00  0.00     0.250 C 
ATOM      6  O   UNK d   1       9.792   6.937  10.242  0.00  0.00    -0.282 OA
ATOM      7  C   UNK d   1      10.396   6.052  12.442  0.00  0.00     0.062 C 
ENDROOT
BRANCH   7   8
ATOM      8  C   UNK d   1      11.642   5.707  12.261  0.00  0.00     0.130 C 
ATOM      9  O   UNK d   1      12.653   6.598  12.583  0.00  0.00    -0.190 OA
BRANCH   8  10
ATOM     10  C   UNK d   1      12.011   4.414  11.739  0.00  0.00     0.002 A 
ATOM     11  C   UNK d   1      13.372   4.269  11.440  0.00  0.00     0.024 A 
ATOM     12  C   UNK d   1      13.873   3.080  10.970  0.00  0.00    -0.021 A 
ATOM     13  C   UNK d   1      13.036   2.005  10.783  0.00  0.00     0.075 A 
ATOM     14  C   UNK d   1      15.277   2.723  10.587  0.00  0.00     0.073 C 
ATOM     15  C   UNK d   1      11.697   2.172  11.084  0.00  0.00     0.038 A 
ATOM     16  O   UNK d   1      13.808   0.929  10.297  0.00  0.00    -0.345 OA
ATOM     17  C   UNK d   1      11.177   3.357  11.559  0.00  0.00     0.017 A 
ATOM     18  C   UNK d   1      15.045   1.444   9.815  0.00  0.00     0.129 C 
ATOM     19  C   UNK d   1      14.976   1.803   8.343  0.00  0.00     0.040 C 
ENDBRANCH   8  10
ENDBRANCH   7   8
BRANCH   1  20
ATOM     20  C   UNK d   1      10.038   7.094  14.649  0.00  0.00    -0.026 A 
ATOM     21  C   UNK d   1      10.125   6.762  15.991  0.00  0.00     0.049 A 
ATOM     22  C   UNK d   1      10.510   7.655  16.935  0.00  0.00     0.103 A 
ATOM     23  C   UNK d   1      10.827   8.948  16.539  0.00  0.00     0.116 A 
ATOM     24  C   UNK d   1      10.738   9.282  15.181  0.00  0.00     0.047 A 
ATOM     25 Br   UNK d   1      11.172  11.047  14.642  0.00  0.00    -0.048 Br
ATOM     26  C   UNK d   1      10.345   8.364  14.227  0.00  0.00     0.031 A 
BRANCH  22  27
ATOM     27  O   UNK d   1      10.596   7.317  18.288  0.00  0.00    -0.353 OA
ATOM     28  C   UNK d   1      10.003   6.170  18.833  0.00  0.00     0.210 C 
ENDBRANCH  22  27
BRANCH  23  29
ATOM     29  O   UNK d   1      11.217   9.862  17.485  0.00  0.00    -0.357 OA
ATOM     30  H   UNK d   1      11.917   9.634  18.147  0.00  0.00     0.218 HD
ENDBRANCH  23  29
ENDBRANCH   1  20
BRANCH   2  31
ATOM     31  C   UNK d   1       7.142   6.124  14.242  0.00  0.00     0.129 C 
BRANCH  31  32
ATOM     32  C   UNK d   1       6.640   7.334  14.909  0.00  0.00     0.048 C 
BRANCH  32  33
ATOM     33  C   UNK d   1       5.321   7.867  14.490  0.00  0.00     0.235 C 
BRANCH  33  34
ATOM     34  N   UNK d   1       5.348   8.620  13.260  0.00  0.00    -0.079 N 
ATOM     35  C   UNK d   1       6.064   9.883  13.490  0.00  0.00     0.269 C 
ATOM     36  C   UNK d   1       3.975   8.964  12.936  0.00  0.00     0.269 C 
ATOM     37  H   UNK d   1       5.741   8.126  12.454  0.00  0.00     0.278 HD
ENDBRANCH  33  34
ENDBRANCH  32  33
ENDBRANCH  31  32
ENDBRANCH   2  31
TORSDOF 9
ENDMDL
