/Users/jonathanwahrer/Desktop/Msc/3_Semester/Drug_Design_Praktikum/waehrer_HTS_screening/HTS_experiment/out/docking_results/vina_output/2jam/0023_docked.pdbqt
 OpenBabel03162217173D

 37 40  0  0  1  0  0  0  0  0999 V2000
    9.6110    6.0070   13.7290 C   0  0  1  0  0  3  0  0  0  0  0  0
    8.2510    6.2980   13.3270 N   0  0  0  0  0  0  0  0  0  0  0  0
    8.1900    6.7500   12.0050 C   0  0  0  0  0  0  0  0  0  0  0  0
    7.1860    7.1920   11.4260 O   0  0  0  0  0  0  0  0  0  0  0  0
    9.5270    6.6070   11.4270 C   0  0  0  0  0  0  0  0  0  0  0  0
    9.7920    6.9370   10.2420 O   0  0  0  0  0  0  0  0  0  0  0  0
   10.3960    6.0520   12.4420 C   0  0  1  0  0  3  0  0  0  0  0  0
   11.6420    5.7070   12.2610 C   0  0  1  0  0  3  0  0  0  0  0  0
   12.6530    6.5980   12.5830 O   0  0  0  0  0  1  0  0  0  0  0  0
   12.0110    4.4140   11.7390 C   0  0  0  0  0  0  0  0  0  0  0  0
   13.3720    4.2690   11.4400 C   0  0  0  0  0  3  0  0  0  0  0  0
   13.8730    3.0800   10.9700 C   0  0  0  0  0  0  0  0  0  0  0  0
   13.0360    2.0050   10.7830 C   0  0  0  0  0  0  0  0  0  0  0  0
   15.2770    2.7230   10.5870 C   0  0  0  0  0  2  0  0  0  0  0  0
   11.6970    2.1720   11.0840 C   0  0  0  0  0  3  0  0  0  0  0  0
   13.8080    0.9290   10.2970 O   0  0  0  0  0  0  0  0  0  0  0  0
   11.1770    3.3570   11.5590 C   0  0  0  0  0  3  0  0  0  0  0  0
   15.0450    1.4440    9.8150 C   0  0  1  0  0  3  0  0  0  0  0  0
   14.9760    1.8030    8.3430 C   0  0  0  0  0  1  0  0  0  0  0  0
   10.0380    7.0940   14.6490 C   0  0  0  0  0  0  0  0  0  0  0  0
   10.1250    6.7620   15.9910 C   0  0  0  0  0  3  0  0  0  0  0  0
   10.5100    7.6550   16.9350 C   0  0  0  0  0  0  0  0  0  0  0  0
   10.8270    8.9480   16.5390 C   0  0  0  0  0  0  0  0  0  0  0  0
   10.7380    9.2820   15.1810 C   0  0  0  0  0  0  0  0  0  0  0  0
   11.1720   11.0470   14.6420 Br  0  0  0  0  0  0  0  0  0  0  0  0
   10.3450    8.3640   14.2270 C   0  0  0  0  0  3  0  0  0  0  0  0
   10.5960    7.3170   18.2880 O   0  0  0  0  0  0  0  0  0  0  0  0
   10.0030    6.1700   18.8330 C   0  0  0  0  0  1  0  0  0  0  0  0
   11.2170    9.8620   17.4850 O   0  0  0  0  0  0  0  0  0  0  0  0
   11.9170    9.6340   18.1470 H   0  0  0  0  0  0  0  0  0  0  0  0
    7.1420    6.1240   14.2420 C   0  0  0  0  0  2  0  0  0  0  0  0
    6.6400    7.3340   14.9090 C   0  0  0  0  0  2  0  0  0  0  0  0
    5.3210    7.8670   14.4900 C   0  0  0  0  0  2  0  0  0  0  0  0
    5.3480    8.6200   13.2600 N   0  0  0  0  0  4  0  0  0  0  0  0
    6.0640    9.8830   13.4900 C   0  0  0  0  0  1  0  0  0  0  0  0
    3.9750    8.9640   12.9360 C   0  0  0  0  0  1  0  0  0  0  0  0
    5.7410    8.1260   12.4540 H   0  0  0  0  0  0  0  0  0  0  0  0
  1 20  1  1  0  0  0
  2  1  1  0  0  0  0
  2 31  1  0  0  0  0
  3  2  1  0  0  0  0
  4  3  2  0  0  0  0
  5  3  1  0  0  0  0
  5  7  1  0  0  0  0
  6  5  2  0  0  0  0
  7  8  1  1  0  0  0
  7  1  1  0  0  0  0
  8  9  1  1  0  0  0
 10  8  1  0  0  0  0
 11 10  2  0  0  0  0
 12 11  1  0  0  0  0
 13 12  2  0  0  0  0
 13 15  1  0  0  0  0
 14 12  1  0  0  0  0
 15 17  2  0  0  0  0
 16 13  1  0  0  0  0
 17 10  1  0  0  0  0
 18 19  1  6  0  0  0
 18 16  1  0  0  0  0
 18 14  1  0  0  0  0
 20 21  1  0  0  0  0
 21 22  2  0  0  0  0
 22 27  1  0  0  0  0
 23 22  1  0  0  0  0
 23 29  1  0  0  0  0
 24 23  2  0  0  0  0
 25 24  1  0  0  0  0
 26 20  2  0  0  0  0
 26 24  1  0  0  0  0
 27 28  1  0  0  0  0
 29 30  1  0  0  0  0
 31 32  1  0  0  0  0
 33 32  1  0  0  0  0
 34 35  1  0  0  0  0
 34 33  1  0  0  0  0
 36 34  1  0  0  0  0
 37 34  1  0  0  0  0
M  END
>  <Pose>
1

>  <Score>
-7.723

$$$$
