/Users/jonathanwahrer/Desktop/Msc/3_Semester/Drug_Design_Praktikum/waehrer_HTS_screening/HTS_experiment/out/docking_results/vina_output/2jam/0026_docked.pdbqt
 OpenBabel03162217173D

 29 32  0  0  1  0  0  0  0  0999 V2000
   11.6930    3.1310   11.5800 C   0  0  2  0  0  3  0  0  0  0  0  0
   10.5060    3.8580   11.3950 N   0  0  0  0  0  4  0  0  0  0  0  0
   10.5040    5.2560   11.6040 C   0  0  1  0  0  3  0  0  0  0  0  0
   11.6270    5.7850   12.4540 C   0  0  0  0  0  2  0  0  0  0  0  0
   12.9340    5.1950   12.0770 C   0  0  0  0  0  0  0  0  0  0  0  0
   14.2060    5.7010   12.0630 C   0  0  0  0  0  0  0  0  0  0  0  0
   14.9990    4.6610   11.6120 C   0  0  0  0  0  0  0  0  0  0  0  0
   14.2150    3.5770   11.3690 N   0  0  0  0  0  0  0  0  0  0  0  0
   12.9470    3.9010   11.6540 C   0  0  0  0  0  0  0  0  0  0  0  0
   16.3510    4.9120   11.5030 C   0  0  0  0  0  3  0  0  0  0  0  0
   16.8880    6.1390   11.8280 C   0  0  0  0  0  3  0  0  0  0  0  0
   16.0960    7.1750   12.2780 C   0  0  0  0  0  3  0  0  0  0  0  0
   14.7360    6.9390   12.3940 C   0  0  0  0  0  3  0  0  0  0  0  0
   10.0720    3.6680   10.4460 H   0  0  0  0  0  0  0  0  0  0  0  0
    9.7670    3.4400   12.0470 H   0  0  0  0  0  0  0  0  0  0  0  0
   14.6240    2.6830   11.0200 H   0  0  0  0  0  0  0  0  0  0  0  0
   11.8570    2.1610   10.4610 C   0  0  0  0  0  0  0  0  0  0  0  0
   13.0290    2.0550    9.7430 C   0  0  0  0  0  3  0  0  0  0  0  0
   13.0630    1.1260    8.7260 C   0  0  0  0  0  0  0  0  0  0  0  0
   12.0020    0.3100    8.3970 C   0  0  0  0  0  0  0  0  0  0  0  0
   14.6690    0.9550    7.7140 Br  0  0  0  0  0  0  0  0  0  0  0  0
   10.8360    0.4200    9.1180 C   0  0  0  0  0  0  0  0  0  0  0  0
    9.3500   -0.6880    8.6950 Br  0  0  0  0  0  0  0  0  0  0  0  0
   10.7810    1.3570   10.1530 C   0  0  0  0  0  3  0  0  0  0  0  0
   12.1170   -0.6170    7.3420 O   0  0  0  0  0  0  0  0  0  0  0  0
   12.9350   -0.5570    6.7520 H   0  0  0  0  0  0  0  0  0  0  0  0
   10.5130    6.0290   10.3310 C   0  0  0  0  0  0  0  0  0  0  0  0
    9.8720    7.1330   10.2650 O   0  0  0  0  0  1  0  0  0  0  0  0
   11.2120    5.5440    9.2380 O   0  0  0  0  0  0  0  0  0  0  0  0
  1 17  1  6  0  0  0
  1  9  1  0  0  0  0
  2  1  1  0  0  0  0
  2  3  1  0  0  0  0
  2 15  1  0  0  0  0
  3 27  1  6  0  0  0
  3  4  1  0  0  0  0
  5  4  1  0  0  0  0
  6  5  1  0  0  0  0
  6 13  1  0  0  0  0
  7  6  2  0  0  0  0
  8  7  1  0  0  0  0
  8  9  1  0  0  0  0
  9  5  2  0  0  0  0
 10  7  1  0  0  0  0
 10 11  2  0  0  0  0
 11 12  1  0  0  0  0
 12 13  2  0  0  0  0
 14  2  1  0  0  0  0
 16  8  1  0  0  0  0
 18 17  2  0  0  0  0
 19 18  1  0  0  0  0
 20 19  2  0  0  0  0
 20 22  1  0  0  0  0
 21 19  1  0  0  0  0
 22 24  2  0  0  0  0
 23 22  1  0  0  0  0
 24 17  1  0  0  0  0
 25 20  1  0  0  0  0
 26 25  1  0  0  0  0
 28 27  1  0  0  0  0
 29 27  2  0  0  0  0
M  END
>  <Pose>
1

>  <Score>
-8.949

$$$$
