MODEL 1
REMARK VINA RESULT:    -8.949      0.000      0.000
REMARK INTER + INTRA:          -9.882
REMARK INTER:                 -10.256
REMARK INTRA:                   0.375
REMARK UNBOUND:                 0.375
REMARK  3 active torsions:
REMARK  status: ('A' for Active; 'I' for Inactive)
REMARK    1  A    between atoms: C_3  and  O_25 
REMARK    2  A    between atoms: C_6  and  C_8 
REMARK    3  A    between atoms: C_10  and  C_21 
ROOT
ATOM      1  C   UNK d   1      11.693   3.131  11.580  0.00  0.00     0.270 C 
ATOM      2  N   UNK d   1      10.506   3.858  11.395  0.00  0.00    -0.047 N 
ATOM      3  C   UNK d   1      10.504   5.256  11.604  0.00  0.00     0.291 C 
ATOM      4  C   UNK d   1      11.627   5.785  12.454  0.00  0.00     0.086 C 
ATOM      5  C   UNK d   1      12.934   5.195  12.077  0.00  0.00    -0.018 A 
ATOM      6  C   UNK d   1      14.206   5.701  12.063  0.00  0.00    -0.001 A 
ATOM      7  C   UNK d   1      14.999   4.661  11.612  0.00  0.00     0.043 A 
ATOM      8  N   UNK d   1      14.215   3.577  11.369  0.00  0.00    -0.356 N 
ATOM      9  C   UNK d   1      12.947   3.901  11.654  0.00  0.00     0.052 A 
ATOM     10  C   UNK d   1      16.351   4.912  11.503  0.00  0.00     0.030 A 
ATOM     11  C   UNK d   1      16.888   6.139  11.828  0.00  0.00     0.002 A 
ATOM     12  C   UNK d   1      16.096   7.175  12.278  0.00  0.00     0.001 A 
ATOM     13  C   UNK d   1      14.736   6.939  12.394  0.00  0.00     0.014 A 
ATOM     14  H   UNK d   1      10.072   3.668  10.446  0.00  0.00     0.279 HD
ATOM     15  H   UNK d   1       9.767   3.440  12.047  0.00  0.00     0.279 HD
ATOM     16  H   UNK d   1      14.624   2.683  11.020  0.00  0.00     0.166 HD
ENDROOT
BRANCH   1  17
ATOM     17  C   UNK d   1      11.857   2.161  10.461  0.00  0.00    -0.019 A 
ATOM     18  C   UNK d   1      13.029   2.055   9.743  0.00  0.00     0.031 A 
ATOM     19  C   UNK d   1      13.063   1.126   8.726  0.00  0.00     0.046 A 
ATOM     20  C   UNK d   1      12.002   0.310   8.397  0.00  0.00     0.100 A 
ATOM     21 Br   UNK d   1      14.669   0.955   7.714  0.00  0.00    -0.048 Br
ATOM     22  C   UNK d   1      10.836   0.420   9.118  0.00  0.00     0.046 A 
ATOM     23 Br   UNK d   1       9.350  -0.688   8.695  0.00  0.00    -0.048 Br
ATOM     24  C   UNK d   1      10.781   1.357  10.153  0.00  0.00     0.031 A 
BRANCH  20  25
ATOM     25  O   UNK d   1      12.117  -0.617   7.342  0.00  0.00    -0.358 OA
ATOM     26  H   UNK d   1      12.935  -0.557   6.752  0.00  0.00     0.217 HD
ENDBRANCH  20  25
ENDBRANCH   1  17
BRANCH   3  27
ATOM     27  C   UNK d   1      10.513   6.029  10.331  0.00  0.00     0.205 C 
ATOM     28  O   UNK d   1       9.872   7.133  10.265  0.00  0.00    -0.646 OA
ATOM     29  O   UNK d   1      11.212   5.544   9.238  0.00  0.00    -0.646 OA
ENDBRANCH   3  27
TORSDOF 3
ENDMDL
