/Users/jonathanwahrer/Desktop/Msc/3_Semester/Drug_Design_Praktikum/waehrer_HTS_screening/HTS_experiment/out/docking_results/vina_output/2jam/0031_docked.pdbqt
 OpenBabel03162217173D

 24 27  0  0  1  0  0  0  0  0999 V2000
   12.7700   -0.5460    7.2740 Br  0  0  0  0  0  0  0  0  0  0  0  0
   13.6710    0.5900    8.5330 C   0  0  0  0  0  0  0  0  0  0  0  0
   13.0660    0.9960    9.6690 C   0  0  0  0  0  0  0  0  0  0  0  0
   13.7220    1.8900   10.5650 C   0  0  0  0  0  0  0  0  0  0  0  0
   14.9600    2.3180   10.2300 C   0  0  0  0  0  3  0  0  0  0  0  0
   15.5570    1.9000    9.0570 C   0  0  0  0  0  3  0  0  0  0  0  0
   14.9320    1.0410    8.2060 C   0  0  0  0  0  3  0  0  0  0  0  0
   12.7980    2.5380   11.5160 C   0  0  0  0  0  2  0  0  0  0  0  0
   12.2630    3.8140   11.2700 N   0  0  2  0  0  4  0  0  0  0  0  0
   12.0620    4.2930    9.9960 C   0  0  0  0  0  2  0  0  0  0  0  0
   11.3730    5.5810    9.9930 N   0  0  2  0  0  0  0  0  0  0  0  0
   12.1830    6.5120   10.7600 C   0  0  0  0  0  2  0  0  0  0  0  0
   10.0740    5.5370   10.6190 C   0  0  0  0  0  2  0  0  0  0  0  0
   12.4500    6.0290   12.0990 N   0  0  2  0  0  0  0  0  0  0  0  0
   13.0540    4.7560   12.1340 C   0  0  0  0  0  2  0  0  0  0  0  0
   11.1960    6.0060   12.8240 C   0  0  0  0  0  2  0  0  0  0  0  0
   10.2830    5.0800   12.0600 C   0  0  2  0  0  3  0  0  0  0  0  0
   10.9430    3.7530   11.9890 C   0  0  0  0  0  2  0  0  0  0  0  0
   11.8270    0.5710    9.9940 O   0  0  0  0  0  0  0  0  0  0  0  0
   10.6420    0.9130    9.2470 C   0  0  0  0  0  2  0  0  0  0  0  0
    9.5940   -0.1000    9.1550 C   0  0  0  0  0  0  0  0  0  0  0  0
    8.4530    0.0230    9.5770 O   0  0  0  0  0  0  0  0  0  0  0  0
    9.9140   -1.2950    8.5000 O   0  0  0  0  0  0  0  0  0  0  0  0
    9.0430   -1.9350    7.6050 C   0  0  0  0  0  1  0  0  0  0  0  0
  1  2  1  0  0  0  0
  2  3  1  0  0  0  0
  3 19  1  0  0  0  0
  3  4  2  0  0  0  0
  4  8  1  0  0  0  0
  5  4  1  0  0  0  0
  6  5  2  0  0  0  0
  7  2  2  0  0  0  0
  7  6  1  0  0  0  0
  9  8  1  6  0  0  0
  9 18  1  0  0  0  0
  9 15  1  0  0  0  0
 10  9  1  0  0  0  0
 11 10  1  1  0  0  0
 11 13  1  0  0  0  0
 11 12  1  0  0  0  0
 14 12  1  6  0  0  0
 14 15  1  0  0  0  0
 14 16  1  0  0  0  0
 17 13  1  6  0  0  0
 17 16  1  0  0  0  0
 18 17  1  0  0  0  0
 20 19  1  0  0  0  0
 21 20  1  0  0  0  0
 21 22  2  0  0  0  0
 23 21  1  0  0  0  0
 24 23  1  0  0  0  0
M  END
>  <Pose>
1

>  <Score>
-7.326

$$$$
