MODEL 1
REMARK VINA RESULT:    -8.603      0.000      0.000
REMARK INTER + INTRA:         -12.645
REMARK INTER:                 -11.621
REMARK INTRA:                  -1.024
REMARK UNBOUND:                -1.024
REMARK  7 active torsions:
REMARK  status: ('A' for Active; 'I' for Inactive)
REMARK    1  A    between atoms: C_3  and  O_30 
REMARK    2  A    between atoms: C_5  and  O_29 
REMARK    3  A    between atoms: C_6  and  C_8 
REMARK    4  A    between atoms: N_9  and  N_10 
REMARK    5  A    between atoms: N_10  and  C_11 
REMARK    6  A    between atoms: C_13  and  N_23 
REMARK    7  A    between atoms: C_15  and  N_17 
ROOT
ATOM      1  C   UNK d   1      11.684   4.868   9.852  0.00  0.00     0.774 A 
ATOM      2  N   UNK d   1      11.262   3.657   9.524  0.00  0.00     0.133 NA
ATOM      3  C   UNK d   1      11.901   2.519   9.847  0.00  0.00     0.756 A 
ATOM      4  N   UNK d   1      13.046   2.646  10.552  0.00  0.00     0.131 NA
ATOM      5  C   UNK d   1      13.530   3.863  10.920  0.00  0.00     0.756 A 
ATOM      6  N   UNK d   1      12.830   4.967  10.559  0.00  0.00     0.133 NA
ENDROOT
BRANCH   1   7
ATOM      7  N   UNK d   1      10.957   6.018   9.438  0.00  0.00    -0.105 N 
ATOM      8  H   UNK d   1      11.202   6.478   8.554  0.00  0.00     0.208 HD
BRANCH   7   9
ATOM      9  N   UNK d   1       9.928   6.518  10.219  0.00  0.00    -0.171 NA
ATOM     10  C   UNK d   1       9.948   6.553  11.507  0.00  0.00     0.153 C 
BRANCH  10  11
ATOM     11  C   UNK d   1       8.844   7.083  12.280  0.00  0.00     0.018 A 
ATOM     12  C   UNK d   1       7.551   6.606  12.066  0.00  0.00     0.080 A 
ATOM     13  C   UNK d   1       6.463   7.082  12.750  0.00  0.00     0.075 A 
ATOM     14  C   UNK d   1       6.595   8.072  13.705  0.00  0.00     0.085 A 
ATOM     15  C   UNK d   1       7.871   8.560  13.936  0.00  0.00     0.045 A 
ATOM     16 Br   UNK d   1       8.088   9.919  15.249  0.00  0.00    -0.048 Br
ATOM     17  C   UNK d   1       8.956   8.070  13.235  0.00  0.00     0.037 A 
BRANCH  12  18
ATOM     18  O   UNK d   1       7.411   5.602  11.102  0.00  0.00    -0.360 OA
ATOM     19  H   UNK d   1       7.861   5.734  10.201  0.00  0.00     0.217 HD
ENDBRANCH  12  18
BRANCH  14  20
ATOM     20  O   UNK d   1       5.482   8.548  14.395  0.00  0.00    -0.359 OA
ATOM     21  H   UNK d   1       5.032   9.428  14.194  0.00  0.00     0.217 HD
ENDBRANCH  14  20
ENDBRANCH  10  11
ENDBRANCH   7   9
ENDBRANCH   1   7
BRANCH   3  22
ATOM     22  N   UNK d   1      11.406   1.225   9.464  0.00  0.00    -0.209 N 
ATOM     23  C   UNK d   1      10.015   0.894   9.577  0.00  0.00     0.167 C 
ATOM     24  C   UNK d   1       9.574  -0.358   8.925  0.00  0.00     0.188 C 
ATOM     25  O   UNK d   1      10.601  -1.235   8.604  0.00  0.00    -0.388 OA
ATOM     26  C   UNK d   1      11.642  -0.599   7.941  0.00  0.00     0.188 C 
ATOM     27  C   UNK d   1      12.344   0.264   8.960  0.00  0.00     0.167 C 
ENDBRANCH   3  22
BRANCH   5  28
ATOM     28  N   UNK d   1      14.734   3.982  11.642  0.00  0.00    -0.209 N 
ATOM     29  C   UNK d   1      15.910   3.239  11.269  0.00  0.00     0.167 C 
ATOM     30  C   UNK d   1      17.025   4.286  11.134  0.00  0.00     0.188 C 
ATOM     31  O   UNK d   1      17.083   5.031  12.294  0.00  0.00    -0.388 OA
ATOM     32  C   UNK d   1      15.961   5.850  12.405  0.00  0.00     0.188 C 
ATOM     33  C   UNK d   1      14.816   4.880  12.767  0.00  0.00     0.167 C 
ENDBRANCH   5  28
TORSDOF 7
ENDMDL
