/Users/jonathanwahrer/Desktop/Msc/3_Semester/Drug_Design_Praktikum/waehrer_HTS_screening/HTS_experiment/out/docking_results/vina_output/2jam/0035_docked.pdbqt
 OpenBabel03162217183D

 33 36  0  0  0  0  0  0  0  0999 V2000
   10.8440    4.9910   12.5120 C   0  0  0  0  0  0  0  0  0  0  0  0
   11.9570    5.7260   12.4450 N   0  0  0  0  0  4  0  0  0  0  0  0
   11.9290    7.0850   12.4310 C   0  0  0  0  0  0  0  0  0  0  0  0
   10.7410    7.7070   12.4860 N   0  0  0  0  0  0  0  0  0  0  0  0
    9.6040    6.9980   12.5540 C   0  0  0  0  0  0  0  0  0  0  0  0
    9.6730    5.6330   12.5660 N   0  0  0  0  0  2  0  0  0  0  0  0
   10.9430    3.5840   12.5310 N   0  0  0  0  0  0  0  0  0  0  0  0
   10.9050    3.1040   13.4540 H   0  0  0  0  0  0  0  0  0  0  0  0
   11.0890    2.8260   11.3370 N   0  0  0  0  0  0  0  0  0  0  0  0
   12.1820    2.1780   11.1000 C   0  0  0  0  0  3  0  0  0  0  0  0
   12.4230    1.3830    9.9210 C   0  0  0  0  0  0  0  0  0  0  0  0
   13.6670    1.2850    9.3420 C   0  0  0  0  0  0  0  0  0  0  0  0
   15.0950    2.2440   10.1640 Br  0  0  0  0  0  0  0  0  0  0  0  0
   13.8920    0.5270    8.2070 C   0  0  0  0  0  0  0  0  0  0  0  0
   12.8360   -0.1610    7.6290 C   0  0  0  0  0  3  0  0  0  0  0  0
   11.5820   -0.0790    8.1890 C   0  0  0  0  0  0  0  0  0  0  0  0
   11.3960    0.6920    9.3270 C   0  0  0  0  0  3  0  0  0  0  0  0
   15.1540    0.4480    7.6480 O   0  0  0  0  0  0  0  0  0  0  0  0
   15.3070    0.8830    6.7470 H   0  0  0  0  0  0  0  0  0  0  0  0
   10.5550   -0.7810    7.5780 O   0  0  0  0  0  0  0  0  0  0  0  0
   10.4800   -1.7890    7.5730 H   0  0  0  0  0  0  0  0  0  0  0  0
   13.1620    7.7640   12.3550 N   0  0  0  0  0  0  0  0  0  0  0  0
   13.7010    8.3820   13.5370 C   0  0  0  0  0  2  0  0  0  0  0  0
   15.0980    7.7660   13.7110 C   0  0  0  0  0  2  0  0  0  0  0  0
   15.8150    8.1440   12.5750 O   0  0  0  0  0  0  0  0  0  0  0  0
   15.3480    7.5110   11.4280 C   0  0  0  0  0  2  0  0  0  0  0  0
   13.9060    7.8660   11.1230 C   0  0  0  0  0  2  0  0  0  0  0  0
    8.3370    7.6510   12.6110 N   0  0  0  0  0  0  0  0  0  0  0  0
    7.0790    6.9470   12.6840 C   0  0  0  0  0  2  0  0  0  0  0  0
    6.0750    7.5370   11.7170 C   0  0  0  0  0  2  0  0  0  0  0  0
    6.6010    8.5880   10.9800 O   0  0  0  0  0  0  0  0  0  0  0  0
    7.0580    9.5820   11.8660 C   0  0  0  0  0  2  0  0  0  0  0  0
    8.3000    9.1000   12.5890 C   0  0  0  0  0  2  0  0  0  0  0  0
  1  7  1  0  0  0  0
  1  6  1  0  0  0  0
  2  1  2  0  0  0  0
  3  2  2  0  0  0  0
  3  4  1  0  0  0  0
  4  5  2  0  0  0  0
  5  6  1  0  0  0  0
  5 28  1  0  0  0  0
  7  8  1  0  0  0  0
  9  7  1  0  0  0  0
 10  9  2  0  0  0  0
 11 10  1  0  0  0  0
 12 11  1  0  0  0  0
 12 13  1  0  0  0  0
 14 12  2  0  0  0  0
 15 16  2  0  0  0  0
 15 14  1  0  0  0  0
 16 17  1  0  0  0  0
 17 11  2  0  0  0  0
 18 14  1  0  0  0  0
 19 18  1  0  0  0  0
 20 16  1  0  0  0  0
 21 20  1  0  0  0  0
 22  3  1  0  0  0  0
 22 23  1  0  0  0  0
 23 24  1  0  0  0  0
 25 24  1  0  0  0  0
 26 25  1  0  0  0  0
 27 26  1  0  0  0  0
 27 22  1  0  0  0  0
 28 29  1  0  0  0  0
 30 29  1  0  0  0  0
 31 30  1  0  0  0  0
 31 32  1  0  0  0  0
 32 33  1  0  0  0  0
 33 28  1  0  0  0  0
M  END
>  <Pose>
1

>  <Score>
-8.787

$$$$
