MODEL 1
REMARK VINA RESULT:    -8.787      0.000      0.000
REMARK INTER + INTRA:         -12.754
REMARK INTER:                 -11.869
REMARK INTRA:                  -0.885
REMARK UNBOUND:                -0.885
REMARK  7 active torsions:
REMARK  status: ('A' for Active; 'I' for Inactive)
REMARK    1  A    between atoms: C_3  and  O_30 
REMARK    2  A    between atoms: C_5  and  O_29 
REMARK    3  A    between atoms: C_7  and  C_8 
REMARK    4  A    between atoms: N_9  and  N_10 
REMARK    5  A    between atoms: N_10  and  C_11 
REMARK    6  A    between atoms: C_13  and  N_23 
REMARK    7  A    between atoms: C_15  and  N_17 
ROOT
ATOM      1  C   UNK d   1      10.844   4.991  12.512  0.00  0.00     0.774 A 
ATOM      2  N   UNK d   1      11.957   5.726  12.445  0.00  0.00     0.133 NA
ATOM      3  C   UNK d   1      11.929   7.085  12.431  0.00  0.00     0.756 A 
ATOM      4  N   UNK d   1      10.741   7.707  12.486  0.00  0.00     0.131 NA
ATOM      5  C   UNK d   1       9.604   6.998  12.554  0.00  0.00     0.756 A 
ATOM      6  N   UNK d   1       9.673   5.633  12.566  0.00  0.00     0.133 NA
ENDROOT
BRANCH   1   7
ATOM      7  N   UNK d   1      10.943   3.584  12.531  0.00  0.00    -0.105 N 
ATOM      8  H   UNK d   1      10.905   3.104  13.454  0.00  0.00     0.208 HD
BRANCH   7   9
ATOM      9  N   UNK d   1      11.089   2.826  11.337  0.00  0.00    -0.172 NA
ATOM     10  C   UNK d   1      12.182   2.178  11.100  0.00  0.00     0.152 C 
BRANCH  10  11
ATOM     11  C   UNK d   1      12.423   1.383   9.921  0.00  0.00     0.006 A 
ATOM     12  C   UNK d   1      13.667   1.285   9.342  0.00  0.00     0.056 A 
ATOM     13 Br   UNK d   1      15.095   2.244  10.164  0.00  0.00    -0.047 Br
ATOM     14  C   UNK d   1      13.892   0.527   8.207  0.00  0.00     0.086 A 
ATOM     15  C   UNK d   1      12.836  -0.161   7.629  0.00  0.00     0.074 A 
ATOM     16  C   UNK d   1      11.582  -0.079   8.189  0.00  0.00     0.069 A 
ATOM     17  C   UNK d   1      11.396   0.692   9.327  0.00  0.00     0.051 A 
BRANCH  14  18
ATOM     18  O   UNK d   1      15.154   0.448   7.648  0.00  0.00    -0.359 OA
ATOM     19  H   UNK d   1      15.307   0.883   6.747  0.00  0.00     0.217 HD
ENDBRANCH  14  18
BRANCH  16  20
ATOM     20  O   UNK d   1      10.555  -0.781   7.578  0.00  0.00    -0.361 OA
ATOM     21  H   UNK d   1      10.480  -1.789   7.573  0.00  0.00     0.217 HD
ENDBRANCH  16  20
ENDBRANCH  10  11
ENDBRANCH   7   9
ENDBRANCH   1   7
BRANCH   3  22
ATOM     22  N   UNK d   1      13.162   7.764  12.355  0.00  0.00    -0.209 N 
ATOM     23  C   UNK d   1      13.701   8.382  13.537  0.00  0.00     0.167 C 
ATOM     24  C   UNK d   1      15.098   7.766  13.711  0.00  0.00     0.188 C 
ATOM     25  O   UNK d   1      15.815   8.144  12.575  0.00  0.00    -0.388 OA
ATOM     26  C   UNK d   1      15.348   7.511  11.428  0.00  0.00     0.188 C 
ATOM     27  C   UNK d   1      13.906   7.866  11.123  0.00  0.00     0.167 C 
ENDBRANCH   3  22
BRANCH   5  28
ATOM     28  N   UNK d   1       8.337   7.651  12.611  0.00  0.00    -0.209 N 
ATOM     29  C   UNK d   1       7.079   6.947  12.684  0.00  0.00     0.167 C 
ATOM     30  C   UNK d   1       6.075   7.537  11.717  0.00  0.00     0.188 C 
ATOM     31  O   UNK d   1       6.601   8.588  10.980  0.00  0.00    -0.388 OA
ATOM     32  C   UNK d   1       7.058   9.582  11.866  0.00  0.00     0.188 C 
ATOM     33  C   UNK d   1       8.300   9.100  12.589  0.00  0.00     0.167 C 
ENDBRANCH   5  28
TORSDOF 7
ENDMDL
