MODEL 1
REMARK VINA RESULT:    -9.150      0.000      0.000
REMARK INTER + INTRA:         -11.893
REMARK INTER:                 -11.290
REMARK INTRA:                  -0.603
REMARK UNBOUND:                -0.603
REMARK  4 active torsions:
REMARK  status: ('A' for Active; 'I' for Inactive)
REMARK    1  A    between atoms: C_5  and  N_8 
REMARK    2  A    between atoms: C_10  and  C_14 
REMARK       I    between atoms: C_14  and  N_16 
REMARK    3  A    between atoms: N_16  and  C_17 
REMARK    4  A    between atoms: C_17  and  C_18 
ROOT
ATOM      1  N   UNK d   1      11.367   4.275  10.817  0.00  0.00    -0.317 N 
ATOM      2  C   UNK d   1      10.409   5.296  10.463  0.00  0.00     0.146 C 
ATOM      3  C   UNK d   1      10.090   5.904  11.811  0.00  0.00     0.105 C 
ATOM      4  C   UNK d   1      11.480   6.047  12.405  0.00  0.00     0.119 C 
ATOM      5  C   UNK d   1      12.076   4.766  11.940  0.00  0.00     0.225 C 
ATOM      6  O   UNK d   1      13.062   4.214  12.473  0.00  0.00    -0.273 OA
ENDROOT
BRANCH   3   7
ATOM      7  C   UNK d   1       9.407   7.208  11.687  0.00  0.00     0.224 C 
ATOM      8  O   UNK d   1       9.467   7.877  10.627  0.00  0.00    -0.273 OA
ATOM      9  N   UNK d   1       8.674   7.704  12.786  0.00  0.00    -0.353 N 
ATOM     10  H   UNK d   1       8.620   7.160  13.665  0.00  0.00     0.162 HD
BRANCH   9  11
ATOM     11  C   UNK d   1       7.989   8.971  12.708  0.00  0.00     0.203 C 
BRANCH  11  12
ATOM     12  C   UNK d   1       6.548   8.785  12.377  0.00  0.00     0.148 A 
ATOM     13  N   UNK d   1       5.475   9.045  13.165  0.00  0.00    -0.319 N 
ATOM     14  C   UNK d   1       4.348   8.745  12.497  0.00  0.00     0.130 A 
ATOM     15  C   UNK d   1       5.188   9.543  14.498  0.00  0.00     0.132 C 
ATOM     16  N   UNK d   1       4.760   8.295  11.284  0.00  0.00    -0.135 NA
ATOM     17  C   UNK d   1       3.139   9.021  13.340  0.00  0.00     0.082 C 
ATOM     18  N   UNK d   1       6.075   8.318  11.211  0.00  0.00    -0.133 NA
ATOM     19  C   UNK d   1       3.739   9.165  14.721  0.00  0.00     0.028 C 
ENDBRANCH  11  12
ENDBRANCH   9  11
ENDBRANCH   3   7
BRANCH   1  20
ATOM     20  C   UNK d   1      11.512   3.046  10.120  0.00  0.00     0.037 A 
ATOM     21  C   UNK d   1      10.495   2.132   9.942  0.00  0.00     0.037 A 
ATOM     22  C   UNK d   1      10.616   0.946   9.273  0.00  0.00    -0.043 A 
ATOM     23  C   UNK d   1      11.860   0.639   8.732  0.00  0.00     0.017 A 
ATOM     24  C   UNK d   1       9.495  -0.017   9.098  0.00  0.00     0.049 C 
ATOM     25 Br   UNK d   1      12.064  -1.007   7.795  0.00  0.00    -0.051 Br
ATOM     26  C   UNK d   1      12.918   1.513   8.877  0.00  0.00     0.022 A 
ATOM     27  C   UNK d   1      12.745   2.700   9.562  0.00  0.00     0.031 A 
ENDBRANCH   1  20
TORSDOF 4
ENDMDL
