/Users/jonathanwahrer/Desktop/Msc/3_Semester/Drug_Design_Praktikum/waehrer_HTS_screening/HTS_experiment/out/docking_results/vina_output/2jam/0039_docked.pdbqt
 OpenBabel03162217183D

 21 23  0  0  1  0  0  0  0  0999 V2000
   11.1730    3.7380   11.2060 N   0  0  0  0  0  0  0  0  0  0  0  0
   11.0610    5.0390   10.7130 C   0  0  0  0  0  0  0  0  0  0  0  0
   11.0400    5.2700    9.4960 O   0  0  0  0  0  0  0  0  0  0  0  0
   11.1820    3.6420   12.2650 H   0  0  0  0  0  0  0  0  0  0  0  0
   10.9660    6.1590   11.6690 C   0  0  0  0  0  2  0  0  0  0  0  0
    9.6520    6.4910   12.1140 N   0  0  1  0  0  4  0  0  0  0  0  0
    9.5200    7.9550   12.0520 C   0  0  0  0  0  2  0  0  0  0  0  0
    8.0490    8.2650   11.9340 C   0  0  0  0  0  2  0  0  0  0  0  0
    7.3660    7.3110   12.8070 N   0  0  1  0  0  0  0  0  0  0  0  0
    7.2770    6.0730   12.0380 C   0  0  0  0  0  2  0  0  0  0  0  0
    8.2100    7.0300   13.9580 C   0  0  0  0  0  2  0  0  0  0  0  0
    8.5990    5.8810   11.3070 C   0  0  0  0  0  2  0  0  0  0  0  0
    9.3790    6.1450   13.4940 C   0  0  0  0  0  2  0  0  0  0  0  0
   11.2760    2.5270   10.4830 C   0  0  0  0  0  0  0  0  0  0  0  0
   12.5230    1.9120   10.3000 C   0  0  0  0  0  0  0  0  0  0  0  0
   14.0300    2.8120   11.0820 Br  0  0  0  0  0  0  0  0  0  0  0  0
   12.6850    0.7370    9.6070 C   0  0  0  0  0  3  0  0  0  0  0  0
   11.6170    0.0820    9.0430 C   0  0  0  0  0  0  0  0  0  0  0  0
   10.3850    0.6660    9.2090 C   0  0  0  0  0  3  0  0  0  0  0  0
   11.7810   -1.1970    8.2870 C   0  0  0  0  0  1  0  0  0  0  0  0
   10.2120    1.8610    9.9110 C   0  0  0  0  0  3  0  0  0  0  0  0
  1  4  1  0  0  0  0
  2  1  1  0  0  0  0
  2  5  1  0  0  0  0
  3  2  2  0  0  0  0
  6  5  1  6  0  0  0
  6 13  1  0  0  0  0
  7  6  1  0  0  0  0
  8  7  1  0  0  0  0
  9  8  1  6  0  0  0
  9 11  1  0  0  0  0
 10  9  1  0  0  0  0
 12 10  1  0  0  0  0
 12  6  1  0  0  0  0
 13 11  1  0  0  0  0
 14  1  1  0  0  0  0
 15 14  1  0  0  0  0
 15 16  1  0  0  0  0
 17 15  2  0  0  0  0
 18 19  2  0  0  0  0
 18 17  1  0  0  0  0
 19 21  1  0  0  0  0
 20 18  1  0  0  0  0
 21 14  2  0  0  0  0
M  END
>  <Pose>
1

>  <Score>
-7.111

$$$$
