MODEL 1
REMARK VINA RESULT:    -6.926      0.000      0.000
REMARK INTER + INTRA:          -7.770
REMARK INTER:                  -7.534
REMARK INTRA:                  -0.236
REMARK UNBOUND:                -0.236
REMARK  2 active torsions:
REMARK  status: ('A' for Active; 'I' for Inactive)
REMARK    1  A    between atoms: C_3  and  C_8 
REMARK    2  A    between atoms: C_12  and  N_16 
ROOT
ATOM      1  C   UNK d   1       6.436   8.423  13.808  0.00  0.00     0.084 A 
ATOM      2  C   UNK d   1       7.542   8.344  12.961  0.00  0.00     0.166 A 
ATOM      3  C   UNK d   1       8.654   7.392  12.694  0.00  0.00     0.295 C 
ATOM      4  N   UNK d   1       7.964   6.727  11.560  0.00  0.00    -0.209 NA
ATOM      5  C   UNK d   1       6.712   6.609  11.873  0.00  0.00     0.124 C 
ATOM      6  C   UNK d   1       6.547   7.163  13.180  0.00  0.00     0.146 A 
ATOM      7  C   UNK d   1       6.941   6.111  14.165  0.00  0.00     0.080 C 
ATOM      8  N   UNK d   1       7.230   5.282  14.958  0.00  0.00    -0.196 NA
ATOM      9  O   UNK d   1       9.742   8.121  12.201  0.00  0.00    -0.333 OA
ATOM     10  C   UNK d   1      10.847   7.749  12.941  0.00  0.00     0.199 C 
ATOM     11  C   UNK d   1      10.462   6.360  13.422  0.00  0.00     0.199 C 
ATOM     12  O   UNK d   1       9.083   6.580  13.665  0.00  0.00    -0.333 OA
ATOM     13  C   UNK d   1       7.338   9.112  11.681  0.00  0.00     0.080 C 
ATOM     14  N   UNK d   1       7.157   9.717  10.683  0.00  0.00    -0.196 NA
ENDROOT
BRANCH   1  15
ATOM     15  C   UNK d   1       6.704   8.620  15.256  0.00  0.00    -0.032 A 
ATOM     16  C   UNK d   1       5.756   8.369  16.215  0.00  0.00     0.017 A 
ATOM     17 Br   UNK d   1       4.016   7.726  15.765  0.00  0.00    -0.051 Br
ATOM     18  C   UNK d   1       6.084   8.585  17.547  0.00  0.00     0.019 A 
ATOM     19  C   UNK d   1       7.349   9.049  17.926  0.00  0.00     0.001 A 
ATOM     20  C   UNK d   1       8.283   9.295  16.948  0.00  0.00     0.001 A 
ATOM     21  C   UNK d   1       7.949   9.076  15.619  0.00  0.00     0.009 A 
ENDBRANCH   1  15
BRANCH   5  22
ATOM     22  N   UNK d   1       5.686   6.022  11.041  0.00  0.00    -0.386 N 
ATOM     23  H   UNK d   1       4.683   6.087  11.299  0.00  0.00     0.157 HD
ATOM     24  H   UNK d   1       5.935   5.523  10.167  0.00  0.00     0.157 HD
ENDBRANCH   5  22
TORSDOF 2
ENDMDL
