/Users/jonathanwahrer/Desktop/Msc/3_Semester/Drug_Design_Praktikum/waehrer_HTS_screening/HTS_experiment/out/docking_results/vina_output/2jam/0056_docked.pdbqt
 OpenBabel03162217183D

 24 27  0  0  1  0  0  0  0  0999 V2000
    6.4360    8.4230   13.8080 C   0  0  1  0  0  3  0  0  0  0  0  0
    7.5420    8.3440   12.9610 C   0  0  1  0  0  0  0  0  0  0  0  0
    8.6540    7.3920   12.6940 C   0  0  0  0  0  0  0  0  0  0  0  0
    7.9640    6.7270   11.5600 N   0  0  0  0  0  2  0  0  0  0  0  0
    6.7120    6.6090   11.8730 C   0  0  2  0  0  3  0  0  0  0  0  0
    6.5470    7.1630   13.1800 C   0  0  2  0  0  0  0  0  0  0  0  0
    6.9410    6.1110   14.1650 C   0  0  0  0  0  0  0  0  0  0  0  0
    7.2300    5.2820   14.9580 N   0  0  0  0  0  0  0  0  0  0  0  0
    9.7420    8.1210   12.2010 O   0  0  0  0  0  0  0  0  0  0  0  0
   10.8470    7.7490   12.9410 C   0  0  0  0  0  2  0  0  0  0  0  0
   10.4620    6.3600   13.4220 C   0  0  0  0  0  2  0  0  0  0  0  0
    9.0830    6.5800   13.6650 O   0  0  0  0  0  0  0  0  0  0  0  0
    7.3380    9.1120   11.6810 C   0  0  0  0  0  0  0  0  0  0  0  0
    7.1570    9.7170   10.6830 N   0  0  0  0  0  0  0  0  0  0  0  0
    6.7040    8.6200   15.2560 C   0  0  0  0  0  0  0  0  0  0  0  0
    5.7560    8.3690   16.2150 C   0  0  0  0  0  0  0  0  0  0  0  0
    4.0160    7.7260   15.7650 Br  0  0  0  0  0  0  0  0  0  0  0  0
    6.0840    8.5850   17.5470 C   0  0  0  0  0  3  0  0  0  0  0  0
    7.3490    9.0490   17.9260 C   0  0  0  0  0  3  0  0  0  0  0  0
    8.2830    9.2950   16.9480 C   0  0  0  0  0  3  0  0  0  0  0  0
    7.9490    9.0760   15.6190 C   0  0  0  0  0  3  0  0  0  0  0  0
    5.6860    6.0220   11.0410 N   0  0  0  0  0  0  0  0  0  0  0  0
    4.6830    6.0870   11.2990 H   0  0  0  0  0  0  0  0  0  0  0  0
    5.9350    5.5230   10.1670 H   0  0  0  0  0  0  0  0  0  0  0  0
  1 15  1  1  0  0  0
  2 13  1  6  0  0  0
  2  6  1  0  0  0  0
  2  1  1  0  0  0  0
  3  2  1  0  0  0  0
  3 12  1  0  0  0  0
  4  5  1  0  0  0  0
  4  3  1  0  0  0  0
  5 22  1  1  0  0  0
  5  6  1  0  0  0  0
  6  1  1  0  0  0  0
  6  7  1  1  0  0  0
  7  8  3  0  0  0  0
  9  3  1  0  0  0  0
  9 10  1  0  0  0  0
 10 11  1  0  0  0  0
 11 12  1  0  0  0  0
 14 13  3  0  0  0  0
 15 21  2  0  0  0  0
 15 16  1  0  0  0  0
 16 18  2  0  0  0  0
 17 16  1  0  0  0  0
 18 19  1  0  0  0  0
 20 19  2  0  0  0  0
 21 20  1  0  0  0  0
 22 23  1  0  0  0  0
 24 22  1  0  0  0  0
M  END
>  <Pose>
1

>  <Score>
-6.926

$$$$
