MODEL 1
REMARK VINA RESULT:    -7.213      0.000      0.000
REMARK INTER + INTRA:          -8.986
REMARK INTER:                  -8.267
REMARK INTRA:                  -0.719
REMARK UNBOUND:                -0.719
REMARK  3 active torsions:
REMARK  status: ('A' for Active; 'I' for Inactive)
REMARK    1  A    between atoms: C_3  and  N_8 
REMARK    2  A    between atoms: C_12  and  C_20 
REMARK    3  A    between atoms: C_20  and  O_21 
ROOT
ATOM      1  N   UNK d   1       5.499   9.136  14.924  0.00  0.00    -0.250 N 
ATOM      2  C   UNK d   1       5.683   7.855  14.345  0.00  0.00     0.239 C 
ATOM      3  O   UNK d   1       5.736   6.794  14.991  0.00  0.00    -0.272 OA
ATOM      4  C   UNK d   1       5.804   7.948  12.871  0.00  0.00     0.135 C 
ATOM      5  C   UNK d   1       7.142   7.535  12.363  0.00  0.00     0.113 C 
ATOM      6  O   UNK d   1       7.583   8.613  11.551  0.00  0.00    -0.363 OA
ATOM      7  C   UNK d   1       7.385   9.630  12.521  0.00  0.00     0.159 C 
ATOM      8  C   UNK d   1       5.865   9.470  12.648  0.00  0.00     0.128 C 
ATOM      9  C   UNK d   1       5.353  10.098  13.875  0.00  0.00     0.239 C 
ATOM     10  O   UNK d   1       4.875  11.245  14.016  0.00  0.00    -0.272 OA
ATOM     11  C   UNK d   1       8.099   9.046  13.676  0.00  0.00     0.005 C 
ATOM     12  C   UNK d   1       8.111   7.726  13.486  0.00  0.00     0.012 C 
ENDROOT
BRANCH   1  13
ATOM     13  C   UNK d   1       5.461   9.504  16.296  0.00  0.00     0.062 A 
ATOM     14  C   UNK d   1       4.351   9.357  17.097  0.00  0.00     0.038 A 
ATOM     15 Br   UNK d   1       2.776   8.606  16.279  0.00  0.00    -0.049 Br
ATOM     16  C   UNK d   1       4.339   9.723  18.424  0.00  0.00     0.021 A 
ATOM     17  C   UNK d   1       5.449  10.261  19.020  0.00  0.00     0.002 A 
ATOM     18  C   UNK d   1       6.588  10.423  18.241  0.00  0.00     0.002 A 
ATOM     19  C   UNK d   1       6.582  10.050  16.910  0.00  0.00     0.031 A 
ENDBRANCH   1  13
BRANCH   5  20
ATOM     20  C   UNK d   1       7.244   6.231  11.692  0.00  0.00     0.207 C 
BRANCH  20  21
ATOM     21  O   UNK d   1       6.041   6.001  10.998  0.00  0.00    -0.398 OA
ATOM     22  H   UNK d   1       5.359   5.631  11.632  0.00  0.00     0.209 HD
ENDBRANCH  20  21
ENDBRANCH   5  20
TORSDOF 3
ENDMDL
