MODEL 1
REMARK VINA RESULT:    -6.695      0.000      0.000
REMARK INTER + INTRA:          -7.338
REMARK INTER:                  -7.869
REMARK INTRA:                   0.531
REMARK UNBOUND:                 0.531
REMARK  3 active torsions:
REMARK  status: ('A' for Active; 'I' for Inactive)
REMARK    1  A    between atoms: C_3  and  N_8 
REMARK    2  A    between atoms: C_13  and  C_17 
REMARK    3  A    between atoms: C_17  and  O_19 
ROOT
ATOM      1  N   UNK d   1      10.619   7.139  12.615  0.00  0.00    -0.313 N 
ATOM      2  C   UNK d   1      10.768   7.978  13.819  0.00  0.00     0.175 C 
ATOM      3  C   UNK d   1       9.473   8.644  13.875  0.00  0.00     0.109 C 
ATOM      4  O   UNK d   1       8.443   7.936  14.517  0.00  0.00    -0.364 OA
ATOM      5  C   UNK d   1       7.404   8.835  14.155  0.00  0.00     0.160 C 
ATOM      6  C   UNK d   1       7.494   8.640  12.635  0.00  0.00     0.134 C 
ATOM      7  C   UNK d   1       8.966   8.823  12.434  0.00  0.00     0.135 C 
ATOM      8  C   UNK d   1       9.672   7.753  11.749  0.00  0.00     0.233 C 
ATOM      9  O   UNK d   1       9.492   7.404  10.564  0.00  0.00    -0.272 OA
ATOM     10  C   UNK d   1       8.003  10.132  14.586  0.00  0.00     0.005 C 
ATOM     11  C   UNK d   1       9.341   9.947  14.520  0.00  0.00     0.012 C 
ENDROOT
BRANCH   1  12
ATOM     12  C   UNK d   1      11.283   5.917  12.332  0.00  0.00     0.054 A 
ATOM     13  C   UNK d   1      12.539   5.871  11.752  0.00  0.00     0.037 A 
ATOM     14 Br   UNK d   1      13.476   7.439  11.286  0.00  0.00    -0.049 Br
ATOM     15  C   UNK d   1      13.165   4.650  11.487  0.00  0.00     0.021 A 
ATOM     16  C   UNK d   1      12.560   3.460  11.793  0.00  0.00     0.002 A 
ATOM     17  C   UNK d   1      11.327   3.485  12.363  0.00  0.00     0.002 A 
ATOM     18  C   UNK d   1      10.713   4.684  12.623  0.00  0.00     0.031 A 
ENDBRANCH   1  12
BRANCH   6  19
ATOM     19  C   UNK d   1       7.113   7.209  12.410  0.00  0.00     0.266 C 
ATOM     20  O   UNK d   1       7.445   6.295  13.179  0.00  0.00    -0.265 OA
BRANCH  19  21
ATOM     21  O   UNK d   1       6.355   6.896  11.289  0.00  0.00    -0.326 OA
ATOM     22  C   UNK d   1       5.290   7.777  10.915  0.00  0.00     0.213 C 
ENDBRANCH  19  21
ENDBRANCH   6  19
TORSDOF 3
ENDMDL
