MODEL 1
REMARK VINA RESULT:    -7.750      0.000      0.000
REMARK INTER + INTRA:          -9.020
REMARK INTER:                  -8.656
REMARK INTRA:                  -0.364
REMARK UNBOUND:                -0.364
REMARK  2 active torsions:
REMARK  status: ('A' for Active; 'I' for Inactive)
REMARK    1  A    between atoms: N_4  and  C_8 
REMARK    2  A    between atoms: C_8  and  C_9 
ROOT
ATOM      1  C   UNK d   1      11.610   4.128  11.696  0.00  0.00     0.168 A 
ATOM      2  N   UNK d   1      11.529   5.172  10.851  0.00  0.00    -0.148 NA
ATOM      3  N   UNK d   1      10.585   6.014  11.276  0.00  0.00    -0.206 N 
ATOM      4  C   UNK d   1      10.040   5.523  12.407  0.00  0.00     0.169 A 
ATOM      5  N   UNK d   1      10.686   4.366  12.643  0.00  0.00    -0.209 NA
ATOM      6  C   UNK d   1       9.032   6.232  13.032  0.00  0.00     0.079 A 
ATOM      7  C   UNK d   1       8.559   7.431  12.540  0.00  0.00     0.162 A 
ATOM      8  N   UNK d   1       7.582   7.907  13.338  0.00  0.00    -0.256 N 
ATOM      9  N   UNK d   1       7.426   7.041  14.321  0.00  0.00    -0.182 NA
ATOM     10  C   UNK d   1       8.294   5.997  14.174  0.00  0.00     0.158 A 
ATOM     11  C   UNK d   1       6.817   9.134  13.187  0.00  0.00     0.182 C 
ATOM     12  N   UNK d   1       9.129   7.886  11.409  0.00  0.00    -0.222 NA
ATOM     13  C   UNK d   1      10.120   7.183  10.800  0.00  0.00     0.239 A 
ENDROOT
BRANCH   1  14
ATOM     14  C   UNK d   1      12.538   2.948  11.599  0.00  0.00     0.233 C 
BRANCH  14  15
ATOM     15  N   UNK d   1      12.049   1.969  10.656  0.00  0.00    -0.265 N 
ATOM     16  C   UNK d   1      12.816   1.309   9.778  0.00  0.00     0.046 A 
ATOM     17  C   UNK d   1      11.979   0.482   9.075  0.00  0.00     0.060 A 
ATOM     18  C   UNK d   1      14.296   1.418   9.571  0.00  0.00     0.071 C 
ATOM     19 Br   UNK d   1      12.470  -0.714   7.684  0.00  0.00    -0.047 Br
ATOM     20  C   UNK d   1      10.702   0.654   9.541  0.00  0.00     0.070 A 
ATOM     21  N   UNK d   1      10.795   1.584  10.519  0.00  0.00    -0.176 NA
ATOM     22  C   UNK d   1       9.444  -0.035   9.078  0.00  0.00     0.074 C 
ENDBRANCH  14  15
ENDBRANCH   1  14
TORSDOF 2
ENDMDL
