MODEL 1
REMARK VINA RESULT:    -8.859      0.000      0.000
REMARK INTER + INTRA:         -11.201
REMARK INTER:                 -10.930
REMARK INTRA:                  -0.271
REMARK UNBOUND:                -0.271
REMARK  4 active torsions:
REMARK  status: ('A' for Active; 'I' for Inactive)
REMARK    1  A    between atoms: C_4  and  C_13 
REMARK    2  A    between atoms: C_5  and  N_8 
REMARK       I    between atoms: C_13  and  N_15 
REMARK    3  A    between atoms: N_15  and  C_16 
REMARK    4  A    between atoms: C_16  and  C_17 
ROOT
ATOM      1  C   UNK d   1      10.689   5.412  10.118  0.00  0.00     0.254 C 
ATOM      2  O   UNK d   1      10.070   5.931   9.134  0.00  0.00    -0.268 OA
ATOM      3  N   UNK d   1      10.689   4.082  10.466  0.00  0.00    -0.350 N 
ATOM      4  H   UNK d   1       9.861   3.796   9.424  0.00  0.00     0.163 HD
ENDROOT
BRANCH   1   5
ATOM      5  C   UNK d   1      11.487   6.379  10.962  0.00  0.00     0.062 A 
ATOM      6  C   UNK d   1      12.848   6.484  10.830  0.00  0.00     0.038 A 
ATOM      7  C   UNK d   1      13.535   7.390  11.648  0.00  0.00     0.012 A 
ATOM      8 Br   UNK d   1      15.414   7.554  11.486  0.00  0.00    -0.051 Br
ATOM      9  C   UNK d   1      12.858   8.157  12.564  0.00  0.00     0.021 A 
ATOM     10  C   UNK d   1      11.488   8.050  12.695  0.00  0.00     0.034 A 
ATOM     11  C   UNK d   1      10.803   7.141  11.872  0.00  0.00     0.077 A 
BRANCH  11  12
ATOM     12  N   UNK d   1       9.398   6.984  11.948  0.00  0.00    -0.205 N 
ATOM     13  N   UNK d   1       8.537   7.814  11.390  0.00  0.00    -0.040 NA
ATOM     14  N   UNK d   1       7.300   7.427  11.618  0.00  0.00    -0.023 NA
ATOM     15  N   UNK d   1       7.342   6.320  12.341  0.00  0.00    -0.122 NA
ATOM     16  C   UNK d   1       8.636   6.053  12.540  0.00  0.00     0.262 A 
ENDBRANCH  11  12
ENDBRANCH   1   5
BRANCH   3  17
ATOM     17  C   UNK d   1      10.689   2.760  10.811  0.00  0.00     0.203 C 
BRANCH  17  18
ATOM     18  C   UNK d   1      11.462   1.871   9.850  0.00  0.00     0.152 A 
ATOM     19  N   UNK d   1      10.961   0.779   9.232  0.00  0.00    -0.290 N 
ATOM     20  C   UNK d   1      11.895   0.219   8.453  0.00  0.00     0.157 A 
ATOM     21  C   UNK d   1       9.720   0.219   9.296  0.00  0.00     0.100 A 
ATOM     22  N   UNK d   1      12.991   0.981   8.594  0.00  0.00    -0.130 NA
ATOM     23  C   UNK d   1      11.607  -0.931   7.707  0.00  0.00     0.053 A 
ATOM     24  N   UNK d   1      12.730   1.986   9.443  0.00  0.00    -0.132 NA
ATOM     25  C   UNK d   1      10.364  -1.497   7.766  0.00  0.00     0.005 A 
ATOM     26  C   UNK d   1       9.401  -0.919   8.570  0.00  0.00     0.018 A 
ENDBRANCH  17  18
ENDBRANCH   3  17
TORSDOF 4
ENDMDL
