/Users/jonathanwahrer/Desktop/Msc/3_Semester/Drug_Design_Praktikum/waehrer_HTS_screening/HTS_experiment/out/docking_results/vina_output/2jam/0095_docked.pdbqt
 OpenBabel03162217193D

 26 29  0  0  0  0  0  0  0  0999 V2000
   10.6890    5.4120   10.1180 C   0  0  0  0  0  0  0  0  0  0  0  0
   10.0700    5.9310    9.1340 O   0  0  0  0  0  0  0  0  0  0  0  0
   10.6890    4.0820   10.4660 N   0  0  0  0  0  0  0  0  0  0  0  0
    9.8610    3.7960    9.4240 H   0  0  0  0  0  0  0  0  0  0  0  0
   11.4870    6.3790   10.9620 C   0  0  0  0  0  0  0  0  0  0  0  0
   12.8480    6.4840   10.8300 C   0  0  0  0  0  3  0  0  0  0  0  0
   13.5350    7.3900   11.6480 C   0  0  0  0  0  0  0  0  0  0  0  0
   15.4140    7.5540   11.4860 Br  0  0  0  0  0  0  0  0  0  0  0  0
   12.8580    8.1570   12.5640 C   0  0  0  0  0  3  0  0  0  0  0  0
   11.4880    8.0500   12.6950 C   0  0  0  0  0  3  0  0  0  0  0  0
   10.8030    7.1410   11.8720 C   0  0  0  0  0  0  0  0  0  0  0  0
    9.3980    6.9840   11.9480 N   0  0  0  0  0  0  0  0  0  0  0  0
    8.5370    7.8140   11.3900 N   0  0  0  0  0  0  0  0  0  0  0  0
    7.3000    7.4270   11.6180 N   0  0  0  0  0  0  0  0  0  0  0  0
    7.3420    6.3200   12.3410 N   0  0  0  0  0  0  0  0  0  0  0  0
    8.6360    6.0530   12.5400 C   0  0  0  0  0  3  0  0  0  0  0  0
   10.6890    2.7600   10.8110 C   0  0  0  0  0  2  0  0  0  0  0  0
   11.4620    1.8710    9.8500 C   0  0  0  0  0  0  0  0  0  0  0  0
   10.9610    0.7790    9.2320 N   0  0  0  0  0  0  0  0  0  0  0  0
   11.8950    0.2190    8.4530 C   0  0  0  0  0  0  0  0  0  0  0  0
    9.7200    0.2190    9.2960 C   0  0  0  0  0  3  0  0  0  0  0  0
   12.9910    0.9810    8.5940 N   0  0  0  0  0  0  0  0  0  0  0  0
   11.6070   -0.9310    7.7070 C   0  0  0  0  0  3  0  0  0  0  0  0
   12.7300    1.9860    9.4430 N   0  0  0  0  0  0  0  0  0  0  0  0
   10.3640   -1.4970    7.7660 C   0  0  0  0  0  3  0  0  0  0  0  0
    9.4010   -0.9190    8.5700 C   0  0  0  0  0  3  0  0  0  0  0  0
  1  3  1  0  0  0  0
  1  5  1  0  0  0  0
  2  1  2  0  0  0  0
  3 17  1  0  0  0  0
  4  3  1  0  0  0  0
  5 11  1  0  0  0  0
  6  5  2  0  0  0  0
  6  7  1  0  0  0  0
  7  9  2  0  0  0  0
  8  7  1  0  0  0  0
  9 10  1  0  0  0  0
 11 12  1  0  0  0  0
 11 10  2  0  0  0  0
 12 16  1  0  0  0  0
 13 14  2  0  0  0  0
 13 12  1  0  0  0  0
 14 15  1  0  0  0  0
 15 16  2  0  0  0  0
 18 17  1  0  0  0  0
 19 21  1  0  0  0  0
 19 18  1  0  0  0  0
 20 22  2  0  0  0  0
 20 19  1  0  0  0  0
 22 24  1  0  0  0  0
 23 25  2  0  0  0  0
 23 20  1  0  0  0  0
 24 18  2  0  0  0  0
 25 26  1  0  0  0  0
 26 21  2  0  0  0  0
M  END
>  <Pose>
1

>  <Score>
-8.859

$$$$
