MODEL 1
REMARK VINA RESULT:    -7.540      0.000      0.000
REMARK INTER + INTRA:         -10.514
REMARK INTER:                  -9.744
REMARK INTRA:                  -0.769
REMARK UNBOUND:                -0.769
REMARK  5 active torsions:
REMARK  status: ('A' for Active; 'I' for Inactive)
REMARK    1  A    between atoms: C_4  and  C_10 
REMARK    2  A    between atoms: C_5  and  O_8 
REMARK    3  A    between atoms: N_15  and  C_25 
REMARK    4  A    between atoms: C_25  and  C_26 
REMARK    5  A    between atoms: C_26  and  O_27 
ROOT
ATOM      1  C   UNK d   1       7.557   7.147  12.455  0.00  0.00     0.188 A 
ATOM      2  N   UNK d   1       8.839   7.341  12.237  0.00  0.00    -0.106 N 
ATOM      3  C   UNK d   1       9.321   6.416  11.348  0.00  0.00     0.736 A 
ATOM      4  N   UNK d   1       8.275   5.622  11.021  0.00  0.00     0.045 NA
ATOM      5  N   UNK d   1       7.236   6.036  11.662  0.00  0.00    -0.114 NA
ATOM      6  N   UNK d   1      10.622   6.627  11.138  0.00  0.00    -0.168 N 
ATOM      7  C   UNK d   1      10.975   7.680  11.893  0.00  0.00     0.165 A 
ATOM      8  C   UNK d   1       9.871   8.146  12.598  0.00  0.00     0.170 A 
ATOM      9  N   UNK d   1       9.938   9.161  13.437  0.00  0.00    -0.287 N 
ATOM     10  C   UNK d   1      11.161   9.759  13.587  0.00  0.00     0.330 A 
ATOM     11  O   UNK d   1      11.337  10.736  14.358  0.00  0.00    -0.246 OA
ATOM     12  N   UNK d   1      12.254   9.337  12.916  0.00  0.00    -0.273 N 
ATOM     13  C   UNK d   1      12.191   8.312  12.074  0.00  0.00     0.280 A 
ATOM     14  O   UNK d   1      13.171   7.872  11.421  0.00  0.00    -0.265 OA
ATOM     15  C   UNK d   1       8.916   9.699  14.284  0.00  0.00     0.163 C 
ATOM     16  H   UNK d   1      13.177   9.803  13.040  0.00  0.00     0.173 HD
ENDROOT
BRANCH   1  17
ATOM     17  C   UNK d   1       6.486   7.716  13.222  0.00  0.00     0.047 A 
ATOM     18  C   UNK d   1       6.212   7.575  14.549  0.00  0.00     0.037 A 
ATOM     19  C   UNK d   1       5.164   8.132  15.223  0.00  0.00     0.012 A 
ATOM     20 Br   UNK d   1       4.962   7.805  17.091  0.00  0.00    -0.051 Br
ATOM     21  C   UNK d   1       4.276   8.914  14.546  0.00  0.00     0.022 A 
ATOM     22  C   UNK d   1       4.478   9.114  13.189  0.00  0.00     0.039 A 
ATOM     23  C   UNK d   1       5.548   8.534  12.551  0.00  0.00     0.082 A 
BRANCH  23  24
ATOM     24  O   UNK d   1       5.711   8.758  11.195  0.00  0.00    -0.355 OA
ATOM     25  C   UNK d   1       4.767   8.434  10.222  0.00  0.00     0.210 C 
ENDBRANCH  23  24
ENDBRANCH   1  17
BRANCH   6  26
ATOM     26  C   UNK d   1      11.499   5.888  10.278  0.00  0.00     0.174 C 
BRANCH  26  27
ATOM     27  C   UNK d   1      11.488   4.428  10.681  0.00  0.00     0.187 C 
BRANCH  27  28
ATOM     28  O   UNK d   1      10.980   3.693   9.628  0.00  0.00    -0.394 OA
ATOM     29  C   UNK d   1      10.633   2.390  10.026  0.00  0.00     0.201 C 
ENDBRANCH  27  28
ENDBRANCH  26  27
ENDBRANCH   6  26
TORSDOF 5
ENDMDL
