MODEL 1
REMARK VINA RESULT:    -8.931      0.000      0.000
REMARK INTER + INTRA:         -11.509
REMARK INTER:                 -11.019
REMARK INTRA:                  -0.490
REMARK UNBOUND:                -0.490
REMARK  4 active torsions:
REMARK  status: ('A' for Active; 'I' for Inactive)
REMARK    1  A    between atoms: C_4  and  C_8 
REMARK    2  A    between atoms: C_8  and  C_10 
REMARK    3  A    between atoms: C_10  and  N_11 
REMARK    4  A    between atoms: N_14  and  C_17 
ROOT
ATOM      1  N   UNK d   1       9.952   6.102  11.400  0.00  0.00    -0.402 N 
ATOM      2  C   UNK d   1       9.947   7.149  12.353  0.00  0.00     0.137 C 
ATOM      3  C   UNK d   1       8.737   8.003  12.375  0.00  0.00     0.143 C 
ATOM      4  N   UNK d   1       7.551   7.216  12.478  0.00  0.00    -0.362 N 
ATOM      5  C   UNK d   1       7.605   5.839  12.078  0.00  0.00     0.143 C 
ATOM      6  C   UNK d   1       8.690   5.536  11.070  0.00  0.00     0.137 C 
ENDROOT
BRANCH   4   7
ATOM      7  C   UNK d   1       6.319   7.755  12.935  0.00  0.00     0.135 A 
ATOM      8  C   UNK d   1       6.021   7.625  14.227  0.00  0.00     0.125 A 
ATOM      9  N   UNK d   1       6.659   7.046  15.351  0.00  0.00    -0.291 N 
ATOM     10  C   UNK d   1       4.730   8.202  14.662  0.00  0.00     0.113 A 
ATOM     11  N   UNK d   1       5.776   7.268  16.433  0.00  0.00    -0.300 N 
ATOM     12  C   UNK d   1       7.935   6.374  15.381  0.00  0.00     0.178 C 
ATOM     13  C   UNK d   1       4.638   7.964  15.961  0.00  0.00     0.053 A 
ATOM     14  H   UNK d   1       5.996   6.942  17.397  0.00  0.00     0.187 HD
ATOM     15  C   UNK d   1       3.464   8.398  16.765  0.00  0.00     0.072 C 
ATOM     16  N   UNK d   1       3.886   8.849  13.716  0.00  0.00    -0.240 NA
ATOM     17  C   UNK d   1       4.222   8.948  12.477  0.00  0.00     0.209 A 
ATOM     18  N   UNK d   1       5.438   8.419  12.006  0.00  0.00    -0.335 N 
ATOM     19  H   UNK d   1       5.751   8.473  11.021  0.00  0.00     0.168 HD
ENDBRANCH   4   7
BRANCH   1  20
ATOM     20  C   UNK d   1      11.048   5.216  11.437  0.00  0.00     0.200 C 
BRANCH  20  21
ATOM     21  C   UNK d   1      11.486   4.747  10.121  0.00  0.00     0.176 C 
ATOM     22  O   UNK d   1      11.635   5.583   9.193  0.00  0.00    -0.291 OA
BRANCH  21  23
ATOM     23  C   UNK d   1      11.737   3.323   9.924  0.00  0.00     0.013 A 
ATOM     24  C   UNK d   1      10.702   2.458   9.682  0.00  0.00     0.034 A 
ATOM     25  C   UNK d   1      10.905   1.098   9.490  0.00  0.00     0.011 A 
ATOM     26 Br   UNK d   1       9.466  -0.100   9.153  0.00  0.00    -0.051 Br
ATOM     27  C   UNK d   1      12.187   0.598   9.544  0.00  0.00     0.019 A 
ATOM     28  C   UNK d   1      13.226   1.486   9.790  0.00  0.00     0.002 A 
ATOM     29  C   UNK d   1      13.020   2.829   9.979  0.00  0.00     0.015 A 
ENDBRANCH  21  23
ENDBRANCH  20  21
ENDBRANCH   1  20
TORSDOF 4
ENDMDL
