MODEL 1
REMARK VINA RESULT:    -9.642      0.000      0.000
REMARK INTER + INTRA:         -11.504
REMARK INTER:                 -11.333
REMARK INTRA:                  -0.171
REMARK UNBOUND:                -0.171
REMARK  3 active torsions:
REMARK  status: ('A' for Active; 'I' for Inactive)
REMARK    1  A    between atoms: C_4  and  C_8 
REMARK       I    between atoms: C_8  and  N_10 
REMARK    2  A    between atoms: N_10  and  C_11 
REMARK    3  A    between atoms: C_11  and  C_13 
REMARK       I    between atoms: C_13  and  N_15 
ROOT
ATOM      1  C   UNK d   1      10.631   4.921  11.845  0.00  0.00     0.242 C 
ATOM      2  O   UNK d   1      10.935   5.340  13.006  0.00  0.00    -0.271 OA
ATOM      3  N   UNK d   1      11.121   3.668  11.377  0.00  0.00    -0.350 N 
ATOM      4  C   UNK d   1      10.945   3.224  10.018  0.00  0.00     0.129 C 
ATOM      5  C   UNK d   1      12.394   3.193   9.476  0.00  0.00     0.068 C 
ATOM      6  C   UNK d   1      13.016   1.984  10.121  0.00  0.00     0.204 C 
ATOM      7  N   UNK d   1      14.461   2.117   9.943  0.00  0.00     0.099 N 
ATOM      8  C   UNK d   1      14.849   2.244   8.588  0.00  0.00     0.277 C 
ATOM      9  C   UNK d   1      14.527   1.016   7.757  0.00  0.00     0.091 C 
ATOM     10  C   UNK d   1      13.286   0.358   8.209  0.00  0.00     0.062 A 
ATOM     11  N   UNK d   1      12.649  -0.704   7.688  0.00  0.00    -0.246 NA
ATOM     12  C   UNK d   1      11.562  -0.936   8.455  0.00  0.00     0.207 A 
ATOM     13  N   UNK d   1      11.539  -0.009   9.446  0.00  0.00    -0.350 N 
ATOM     14  C   UNK d   1      12.598   0.813   9.317  0.00  0.00     0.074 A 
ATOM     15  C   UNK d   1      12.742   1.824  11.575  0.00  0.00     0.068 C 
ATOM     16  C   UNK d   1      11.831   2.796  12.244  0.00  0.00     0.129 C 
ATOM     17  H   UNK d   1      14.993   1.366  10.453  0.00  0.00     0.317 HD
ATOM     18  H   UNK d   1      10.766  -0.034  10.141  0.00  0.00     0.166 HD
ENDROOT
BRANCH   1  19
ATOM     19  C   UNK d   1       9.785   5.788  11.038  0.00  0.00     0.173 C 
ATOM     20  C   UNK d   1      10.591   6.359   9.882  0.00  0.00     0.042 C 
BRANCH  19  21
ATOM     21  N   UNK d   1       9.050   6.744  11.782  0.00  0.00    -0.344 N 
ATOM     22  C   UNK d   1       7.662   6.847  11.805  0.00  0.00     0.252 C 
ATOM     23  O   UNK d   1       6.808   6.164  11.267  0.00  0.00    -0.268 OA
ATOM     24  H   UNK d   1       9.629   7.388  12.400  0.00  0.00     0.163 HD
BRANCH  22  25
ATOM     25  C   UNK d   1       7.160   8.010  12.628  0.00  0.00     0.033 A 
ATOM     26  C   UNK d   1       5.821   8.020  12.952  0.00  0.00     0.036 A 
ATOM     27  C   UNK d   1       5.308   9.077  13.666  0.00  0.00     0.011 A 
ATOM     28 Br   UNK d   1       3.439   9.091  14.134  0.00  0.00    -0.051 Br
ATOM     29  C   UNK d   1       6.093  10.137  14.069  0.00  0.00     0.019 A 
ATOM     30  C   UNK d   1       7.442  10.077  13.710  0.00  0.00     0.002 A 
ATOM     31  C   UNK d   1       7.971   9.033  13.003  0.00  0.00     0.017 A 
ENDBRANCH  22  25
ENDBRANCH  19  21
ENDBRANCH   1  19
TORSDOF 3
ENDMDL
