MODEL 1
REMARK VINA RESULT:    -9.046      0.000      0.000
REMARK INTER + INTRA:         -11.192
REMARK INTER:                 -10.633
REMARK INTRA:                  -0.560
REMARK UNBOUND:                -0.560
REMARK  3 active torsions:
REMARK  status: ('A' for Active; 'I' for Inactive)
REMARK    1  A    between atoms: C_4  and  C_8 
REMARK       I    between atoms: C_8  and  N_10 
REMARK    2  A    between atoms: N_10  and  C_11 
REMARK    3  A    between atoms: C_11  and  C_12 
REMARK       I    between atoms: C_12  and  N_14 
ROOT
ATOM      1  C   UNK d   1       9.964   6.333  11.374  0.00  0.00     0.237 C 
ATOM      2  O   UNK d   1       9.853   6.384  10.098  0.00  0.00    -0.272 OA
ATOM      3  N   UNK d   1       8.878   5.984  12.188  0.00  0.00    -0.351 N 
ATOM      4  C   UNK d   1       8.964   5.921  13.612  0.00  0.00     0.129 C 
ATOM      5  C   UNK d   1       7.701   6.373  14.290  0.00  0.00     0.068 C 
ATOM      6  C   UNK d   1       6.812   7.262  13.450  0.00  0.00     0.204 C 
ATOM      7  N   UNK d   1       5.563   7.308  14.197  0.00  0.00     0.099 N 
ATOM      8  C   UNK d   1       4.603   8.244  13.750  0.00  0.00     0.277 C 
ATOM      9  C   UNK d   1       5.064   9.345  12.867  0.00  0.00     0.091 C 
ATOM     10  C   UNK d   1       6.503   9.679  13.103  0.00  0.00     0.062 A 
ATOM     11  N   UNK d   1       7.161  10.837  13.088  0.00  0.00    -0.246 NA
ATOM     12  C   UNK d   1       8.445  10.534  13.372  0.00  0.00     0.207 A 
ATOM     13  N   UNK d   1       8.582   9.203  13.559  0.00  0.00    -0.350 N 
ATOM     14  C   UNK d   1       7.351   8.639  13.390  0.00  0.00     0.074 A 
ATOM     15  C   UNK d   1       6.572   6.743  12.055  0.00  0.00     0.068 C 
ATOM     16  C   UNK d   1       7.567   5.680  11.627  0.00  0.00     0.129 C 
ATOM     17  H   UNK d   1       5.198   6.314  14.140  0.00  0.00     0.317 HD
ATOM     18  H   UNK d   1       9.464   8.714  13.787  0.00  0.00     0.166 HD
ENDROOT
BRANCH   1  19
ATOM     19  C   UNK d   1      11.336   6.675  11.896  0.00  0.00     0.225 C 
BRANCH  19  20
ATOM     20  N   UNK d   1      12.190   5.586  11.835  0.00  0.00    -0.348 N 
ATOM     21  C   UNK d   1      13.006   4.546  11.777  0.00  0.00     0.252 C 
ATOM     22  O   UNK d   1      14.143   4.390  12.347  0.00  0.00    -0.268 OA
ATOM     23  H   UNK d   1      13.078   6.254  12.660  0.00  0.00     0.163 HD
BRANCH  21  24
ATOM     24  C   UNK d   1      12.592   3.363  10.944  0.00  0.00     0.033 A 
ATOM     25  C   UNK d   1      13.445   2.793  10.037  0.00  0.00     0.036 A 
ATOM     26  C   UNK d   1      13.041   1.724   9.251  0.00  0.00     0.011 A 
ATOM     27 Br   UNK d   1      14.252   0.965   8.019  0.00  0.00    -0.051 Br
ATOM     28  C   UNK d   1      11.759   1.263   9.417  0.00  0.00     0.019 A 
ATOM     29  C   UNK d   1      10.901   1.841  10.334  0.00  0.00     0.002 A 
ATOM     30  C   UNK d   1      11.316   2.918  11.123  0.00  0.00     0.017 A 
ENDBRANCH  21  24
ENDBRANCH  19  20
ENDBRANCH   1  19
TORSDOF 3
ENDMDL
