MODEL 1
REMARK VINA RESULT:    -8.884      0.000      0.000
REMARK INTER + INTRA:         -10.382
REMARK INTER:                  -9.922
REMARK INTRA:                  -0.459
REMARK UNBOUND:                -0.459
REMARK  2 active torsions:
REMARK  status: ('A' for Active; 'I' for Inactive)
REMARK    1  A    between atoms: C_4  and  C_8 
REMARK       I    between atoms: C_8  and  N_10 
REMARK    2  A    between atoms: N_10  and  C_11 
ROOT
ATOM      1  C   UNK d   1      12.071   4.955  10.558  0.00  0.00     0.105 C 
ATOM      2  C   UNK d   1      12.101   5.448  12.052  0.00  0.00     0.152 C 
ATOM      3  N   UNK d   1      11.067   6.424  12.101  0.00  0.00    -0.335 N 
ATOM      4  C   UNK d   1      10.149   6.204  10.994  0.00  0.00     0.181 C 
ATOM      5  C   UNK d   1      10.516   4.881  10.459  0.00  0.00     0.061 C 
ATOM      6  C   UNK d   1       8.759   6.393  11.439  0.00  0.00     0.243 C 
ATOM      7  O   UNK d   1       7.874   5.625  11.023  0.00  0.00    -0.271 OA
ATOM      8  N   UNK d   1       8.431   7.438  12.331  0.00  0.00    -0.337 N 
ATOM      9  C   UNK d   1       9.397   7.865  13.319  0.00  0.00     0.179 C 
ATOM     10  C   UNK d   1       9.161   9.350  13.504  0.00  0.00     0.037 C 
ATOM     11  C   UNK d   1       7.968   9.657  12.669  0.00  0.00     0.022 C 
ATOM     12  C   UNK d   1       7.269   8.295  12.544  0.00  0.00     0.127 C 
ATOM     13  C   UNK d   1      10.769   7.510  12.972  0.00  0.00     0.243 C 
ATOM     14  O   UNK d   1      11.745   8.183  13.456  0.00  0.00    -0.271 OA
ENDROOT
BRANCH   1  15
ATOM     15  N   UNK d   1      12.753   3.832  10.364  0.00  0.00    -0.351 N 
ATOM     16  C   UNK d   1      13.464   2.674  10.165  0.00  0.00     0.252 C 
ATOM     17  O   UNK d   1      14.614   2.341  10.587  0.00  0.00    -0.268 OA
ATOM     18  H   UNK d   1      13.795   4.316  11.123  0.00  0.00     0.163 HD
BRANCH  16  19
ATOM     19  C   UNK d   1      12.856   1.572   9.325  0.00  0.00     0.033 A 
ATOM     20  C   UNK d   1      11.553   1.178   9.507  0.00  0.00     0.036 A 
ATOM     21  C   UNK d   1      10.972   0.183   8.759  0.00  0.00     0.011 A 
ATOM     22 Br   UNK d   1       9.161  -0.344   8.990  0.00  0.00    -0.051 Br
ATOM     23  C   UNK d   1      11.764  -0.426   7.789  0.00  0.00     0.019 A 
ATOM     24  C   UNK d   1      13.063  -0.057   7.582  0.00  0.00     0.002 A 
ATOM     25  C   UNK d   1      13.611   0.954   8.361  0.00  0.00     0.017 A 
ENDBRANCH  16  19
ENDBRANCH   1  15
TORSDOF 2
ENDMDL
