MODEL 1
REMARK VINA RESULT:    -8.846      0.000      0.000
REMARK INTER + INTRA:         -10.182
REMARK INTER:                  -9.880
REMARK INTRA:                  -0.302
REMARK UNBOUND:                -0.302
REMARK  2 active torsions:
REMARK  status: ('A' for Active; 'I' for Inactive)
REMARK    1  A    between atoms: C_4  and  C_8 
REMARK       I    between atoms: C_8  and  N_10 
REMARK    2  A    between atoms: N_10  and  C_11 
ROOT
ATOM      1  C   UNK d   1      10.089   5.126  11.818  0.00  0.00     0.105 C 
ATOM      2  C   UNK d   1       8.813   5.496  11.139  0.00  0.00     0.152 C 
ATOM      3  N   UNK d   1       8.279   6.563  12.004  0.00  0.00    -0.335 N 
ATOM      4  C   UNK d   1       9.324   7.006  12.916  0.00  0.00     0.181 C 
ATOM      5  C   UNK d   1      10.582   6.508  12.274  0.00  0.00     0.061 C 
ATOM      6  C   UNK d   1       9.238   8.460  13.027  0.00  0.00     0.243 C 
ATOM      7  O   UNK d   1      10.255   9.153  13.144  0.00  0.00    -0.271 OA
ATOM      8  N   UNK d   1       7.953   9.098  12.998  0.00  0.00    -0.337 N 
ATOM      9  C   UNK d   1       6.809   8.227  13.122  0.00  0.00     0.179 C 
ATOM     10  C   UNK d   1       5.560   8.995  12.978  0.00  0.00     0.037 C 
ATOM     11  C   UNK d   1       6.028  10.420  13.198  0.00  0.00     0.022 C 
ATOM     12  C   UNK d   1       7.484  10.443  12.874  0.00  0.00     0.127 C 
ATOM     13  C   UNK d   1       6.993   7.172  12.065  0.00  0.00     0.243 C 
ATOM     14  O   UNK d   1       6.067   6.850  11.287  0.00  0.00    -0.271 OA
ENDROOT
BRANCH   1  15
ATOM     15  N   UNK d   1      11.032   4.448  11.009  0.00  0.00    -0.351 N 
ATOM     16  C   UNK d   1      11.654   3.269  11.476  0.00  0.00     0.252 C 
ATOM     17  O   UNK d   1      11.357   2.821  12.638  0.00  0.00    -0.268 OA
ATOM     18  H   UNK d   1      11.275   4.807  10.069  0.00  0.00     0.163 HD
BRANCH  16  19
ATOM     19  C   UNK d   1      12.633   2.489  10.738  0.00  0.00     0.033 A 
ATOM     20  C   UNK d   1      12.288   1.585   9.765  0.00  0.00     0.036 A 
ATOM     21  C   UNK d   1      13.200   0.842   9.061  0.00  0.00     0.011 A 
ATOM     22 Br   UNK d   1      12.684  -0.402   7.720  0.00  0.00    -0.051 Br
ATOM     23  C   UNK d   1      14.543   0.995   9.330  0.00  0.00     0.019 A 
ATOM     24  C   UNK d   1      14.940   1.897  10.304  0.00  0.00     0.002 A 
ATOM     25  C   UNK d   1      13.973   2.637  11.001  0.00  0.00     0.017 A 
ENDBRANCH  16  19
ENDBRANCH   1  15
TORSDOF 2
ENDMDL
