MODEL 1
REMARK VINA RESULT:    -9.519      0.000      0.000
REMARK INTER + INTRA:         -11.440
REMARK INTER:                 -11.188
REMARK INTRA:                  -0.252
REMARK UNBOUND:                -0.252
REMARK  3 active torsions:
REMARK  status: ('A' for Active; 'I' for Inactive)
REMARK    1  A    between atoms: C_4  and  C_8 
REMARK    2  A    between atoms: C_16  and  C_17 
REMARK    3  A    between atoms: C_17  and  N_18 
ROOT
ATOM      1  C   UNK d   1      12.983   0.213   8.727  0.00  0.00     0.053 C 
ATOM      2  C   UNK d   1      13.645   1.155   9.408  0.00  0.00     0.127 A 
ATOM      3  O   UNK d   1      13.150   1.922  10.379  0.00  0.00    -0.305 OA
ATOM      4  C   UNK d   1      14.163   2.779  10.880  0.00  0.00     0.101 A 
ATOM      5  C   UNK d   1      15.335   2.572  10.235  0.00  0.00     0.051 A 
ATOM      6  C   UNK d   1      16.453   3.285  10.663  0.00  0.00     0.021 A 
ATOM      7  C   UNK d   1      16.354   4.178  11.683  0.00  0.00     0.041 A 
ATOM      8  C   UNK d   1      15.137   4.390  12.300  0.00  0.00     0.118 A 
ATOM      9  C   UNK d   1      13.995   3.718  11.935  0.00  0.00     0.039 A 
ATOM     10  O   UNK d   1      15.083   5.325  13.336  0.00  0.00    -0.191 OA
ATOM     11  C   UNK d   1      15.059   1.513   9.236  0.00  0.00     0.218 A 
ATOM     12  O   UNK d   1      15.864   1.032   8.416  0.00  0.00    -0.284 OA
ENDROOT
BRANCH   1  13
ATOM     13  C   UNK d   1      11.555  -0.066   9.041  0.00  0.00    -0.032 A 
ATOM     14  C   UNK d   1      10.848  -0.977   8.243  0.00  0.00     0.030 A 
ATOM     15  C   UNK d   1       9.447  -1.020   8.240  0.00  0.00     0.011 A 
ATOM     16 Br   UNK d   1       8.598  -2.286   7.092  0.00  0.00    -0.051 Br
ATOM     17  C   UNK d   1       8.730  -0.184   9.016  0.00  0.00     0.019 A 
ATOM     18  C   UNK d   1       9.406   0.751   9.843  0.00  0.00     0.002 A 
ATOM     19  C   UNK d   1      10.818   0.773   9.827  0.00  0.00     0.011 A 
ENDBRANCH   1  13
BRANCH   9  20
ATOM     20  C   UNK d   1      12.617   4.124  12.128  0.00  0.00     0.279 C 
BRANCH  20  21
ATOM     21  N   UNK d   1      11.742   5.094  11.798  0.00  0.00    -0.063 N 
ATOM     22  C   UNK d   1      11.923   6.118  10.865  0.00  0.00     0.261 C 
ATOM     23  C   UNK d   1      11.342   5.803   9.469  0.00  0.00     0.195 C 
ATOM     24  O   UNK d   1       9.973   5.692   9.459  0.00  0.00    -0.388 OA
ATOM     25  C   UNK d   1       9.548   5.034  10.619  0.00  0.00     0.195 C 
ATOM     26  C   UNK d   1      10.575   4.236  11.230  0.00  0.00     0.261 C 
ATOM     27  H   UNK d   1      11.306   5.513  12.704  0.00  0.00     0.280 HD
ENDBRANCH  20  21
ENDBRANCH   9  20
TORSDOF 3
ENDMDL
