/Users/jonathanwahrer/Desktop/Msc/3_Semester/Drug_Design_Praktikum/waehrer_HTS_screening/HTS_experiment/out/docking_results/vina_output/2jam/0153_docked.pdbqt
 OpenBabel03162217213D

 34 37  0  0  0  0  0  0  0  0999 V2000
    8.7880    8.0680   11.7680 C   0  0  0  0  0  0  0  0  0  0  0  0
    8.3850    8.7640   10.7610 N   0  0  0  0  0  0  0  0  0  0  0  0
    7.2370    9.3670   11.0560 N   0  0  0  0  0  0  0  0  0  0  0  0
    6.8820    9.0270   12.3230 N   0  0  0  0  0  0  0  0  0  0  0  0
    7.8010    8.2630   12.8120 C   0  0  0  0  0  0  0  0  0  0  0  0
    9.9130    7.0520   11.9060 C   0  0  0  0  0  0  0  0  0  0  0  0
    9.7010    5.8650   11.2650 N   0  0  0  0  0  0  0  0  0  0  0  0
    8.6630    6.0690   10.6490 H   0  0  0  0  0  0  0  0  0  0  0  0
   10.9120    7.4060   12.5700 O   0  0  0  0  0  0  0  0  0  0  0  0
   10.0080    4.6430   10.8920 N   0  0  0  0  0  0  0  0  0  0  0  0
   11.1860    4.0870   10.8540 C   0  0  0  0  0  3  0  0  0  0  0  0
   11.4000    2.7020   10.3920 C   0  0  0  0  0  0  0  0  0  0  0  0
   10.4050    1.8450    9.9620 C   0  0  0  0  0  3  0  0  0  0  0  0
   10.7550    0.6090    9.4210 C   0  0  0  0  0  0  0  0  0  0  0  0
    9.4310   -0.6110    8.7610 Br  0  0  0  0  0  0  0  0  0  0  0  0
   12.0700    0.1780    9.2840 C   0  0  0  0  0  3  0  0  0  0  0  0
   13.0100    1.0640    9.7390 C   0  0  0  0  0  3  0  0  0  0  0  0
   12.7130    2.2850   10.2720 C   0  0  0  0  0  3  0  0  0  0  0  0
    8.0570    7.6250   14.0990 C   0  0  0  0  0  2  0  0  0  0  0  0
    8.4450    8.3230   15.2380 N   0  0  0  0  0  0  0  0  0  0  0  0
    8.3280    9.5820   15.6890 C   0  0  0  0  0  2  0  0  0  0  0  0
    7.3120    9.5900   16.8630 C   0  0  0  0  0  2  0  0  0  0  0  0
    6.4560    8.4720   16.6870 N   0  0  0  0  0  0  0  0  0  0  0  0
    7.1500    7.2470   16.9460 C   0  0  0  0  0  2  0  0  0  0  0  0
    5.1230    8.5440   17.1140 C   0  0  0  0  0  1  0  0  0  0  0  0
    8.5770    7.3980   16.4040 C   0  0  0  0  0  2  0  0  0  0  0  0
    5.4750    9.1740   12.6690 C   0  0  0  0  0  0  0  0  0  0  0  0
    5.2460   10.0760   13.7720 N   0  0  0  0  0  0  0  0  0  0  0  0
    4.0290   10.1640   14.0340 O   0  0  0  0  0  0  0  0  0  0  0  0
    3.3630    9.4010   13.2220 N   0  0  0  0  0  0  0  0  0  0  0  0
    4.2830    8.7890   12.3710 C   0  0  0  0  0  0  0  0  0  0  0  0
    3.8200    7.9040   11.3770 N   0  0  0  0  0  0  0  0  0  0  0  0
    4.2590    6.9200   11.4600 H   0  0  0  0  0  0  0  0  0  0  0  0
    3.1730    8.0170   10.6210 H   0  0  0  0  0  0  0  0  0  0  0  0
  1  6  1  0  0  0  0
  1  5  2  0  0  0  0
  2  3  2  0  0  0  0
  2  1  1  0  0  0  0
  3  4  1  0  0  0  0
  4 27  1  0  0  0  0
  4  5  1  0  0  0  0
  5 19  1  0  0  0  0
  6  9  2  0  0  0  0
  7  6  1  0  0  0  0
  8  7  1  0  0  0  0
 10  7  1  0  0  0  0
 11 10  2  0  0  0  0
 12 11  1  0  0  0  0
 13 12  2  0  0  0  0
 14 13  1  0  0  0  0
 15 14  1  0  0  0  0
 16 14  2  0  0  0  0
 16 17  1  0  0  0  0
 17 18  2  0  0  0  0
 18 12  1  0  0  0  0
 19 20  1  0  0  0  0
 20 21  1  0  0  0  0
 20 26  1  0  0  0  0
 21 22  1  0  0  0  0
 23 22  1  0  0  0  0
 23 24  1  0  0  0  0
 23 25  1  0  0  0  0
 26 24  1  0  0  0  0
 27 28  2  0  0  0  0
 28 29  1  0  0  0  0
 30 29  1  0  0  0  0
 31 27  1  0  0  0  0
 31 30  2  0  0  0  0
 32 33  1  0  0  0  0
 32 31  1  0  0  0  0
 34 32  1  0  0  0  0
M  END
>  <Pose>
1

>  <Score>
-8.900

$$$$
