MODEL 1
REMARK VINA RESULT:    -8.477      0.000      0.000
REMARK INTER + INTRA:         -11.790
REMARK INTER:                 -10.955
REMARK INTRA:                  -0.835
REMARK UNBOUND:                -0.835
REMARK  5 active torsions:
REMARK  status: ('A' for Active; 'I' for Inactive)
REMARK    1  A    between atoms: C_4  and  C_8 
REMARK    2  A    between atoms: N_9  and  N_10 
REMARK    3  A    between atoms: N_10  and  C_11 
REMARK    4  A    between atoms: C_13  and  N_23 
REMARK    5  A    between atoms: C_15  and  N_17 
ROOT
ATOM      1  C   UNK d   1      10.083   6.805  11.094  0.00  0.00     0.774 A 
ATOM      2  N   UNK d   1       8.758   6.977  11.135  0.00  0.00     0.133 NA
ATOM      3  C   UNK d   1       8.089   7.326  12.269  0.00  0.00     0.756 A 
ATOM      4  N   UNK d   1       8.854   7.490  13.370  0.00  0.00     0.131 NA
ATOM      5  C   UNK d   1      10.188   7.332  13.392  0.00  0.00     0.756 A 
ATOM      6  N   UNK d   1      10.773   6.985  12.219  0.00  0.00     0.133 NA
ENDROOT
BRANCH   1   7
ATOM      7  N   UNK d   1      10.719   6.442   9.874  0.00  0.00    -0.105 N 
ATOM      8  H   UNK d   1      10.820   7.136   9.105  0.00  0.00     0.208 HD
BRANCH   7   9
ATOM      9  N   UNK d   1      11.223   5.154   9.670  0.00  0.00    -0.172 NA
ATOM     10  C   UNK d   1      10.698   4.086  10.125  0.00  0.00     0.150 C 
BRANCH  10  11
ATOM     11  C   UNK d   1      11.247   2.755   9.897  0.00  0.00    -0.016 A 
ATOM     12  C   UNK d   1      10.454   1.690   9.508  0.00  0.00     0.032 A 
ATOM     13  C   UNK d   1      10.941   0.425   9.286  0.00  0.00     0.011 A 
ATOM     14 Br   UNK d   1       9.788  -1.006   8.746  0.00  0.00    -0.051 Br
ATOM     15  C   UNK d   1      12.291   0.195   9.459  0.00  0.00     0.019 A 
ATOM     16  C   UNK d   1      13.122   1.224   9.847  0.00  0.00     0.002 A 
ATOM     17  C   UNK d   1      12.590   2.493  10.062  0.00  0.00     0.013 A 
ENDBRANCH  10  11
ENDBRANCH   7   9
ENDBRANCH   1   7
BRANCH   3  18
ATOM     18  N   UNK d   1       6.688   7.501  12.288  0.00  0.00    -0.209 N 
ATOM     19  C   UNK d   1       6.040   8.118  13.412  0.00  0.00     0.167 C 
ATOM     20  C   UNK d   1       5.204   9.269  12.864  0.00  0.00     0.188 C 
ATOM     21  O   UNK d   1       4.291   8.701  11.978  0.00  0.00    -0.388 OA
ATOM     22  C   UNK d   1       4.903   8.197  10.845  0.00  0.00     0.188 C 
ATOM     23  C   UNK d   1       5.872   7.069  11.186  0.00  0.00     0.167 C 
ENDBRANCH   3  18
BRANCH   5  24
ATOM     24  N   UNK d   1      10.961   7.509  14.552  0.00  0.00    -0.209 N 
ATOM     25  C   UNK d   1      12.340   7.915  14.497  0.00  0.00     0.167 C 
ATOM     26  C   UNK d   1      12.544   8.864  15.686  0.00  0.00     0.188 C 
ATOM     27  O   UNK d   1      11.342   9.480  16.024  0.00  0.00    -0.388 OA
ATOM     28  C   UNK d   1      10.412   8.633  16.574  0.00  0.00     0.188 C 
ATOM     29  C   UNK d   1      10.380   7.283  15.845  0.00  0.00     0.167 C 
ENDBRANCH   5  24
TORSDOF 5
ENDMDL
