/Users/jonathanwahrer/Desktop/Msc/3_Semester/Drug_Design_Praktikum/waehrer_HTS_screening/HTS_experiment/out/docking_results/vina_output/2jam/0167_docked.pdbqt
 OpenBabel03162217223D

 35 38  0  0  1  0  0  0  0  0999 V2000
    9.2710    6.7750   14.3720 C   0  0  1  0  0  3  0  0  0  0  0  0
    7.8620    6.6520   14.3430 N   0  0  0  0  0  0  0  0  0  0  0  0
    7.4480    6.1870   13.0680 C   0  0  0  0  0  0  0  0  0  0  0  0
    6.2410    6.0630   12.6940 O   0  0  0  0  0  0  0  0  0  0  0  0
    8.6270    5.8790   12.2870 C   0  0  0  0  0  0  0  0  0  0  0  0
    8.5440    5.4470   11.1050 O   0  0  0  0  0  0  0  0  0  0  0  0
    9.7820    6.1680   13.1150 C   0  0  0  0  0  0  0  0  0  0  0  0
   11.0280    5.9660   12.7530 C   0  0  0  0  0  0  0  0  0  0  0  0
   12.0420    6.3450   13.6030 O   0  0  0  0  0  1  0  0  0  0  0  0
    9.6740    8.1780   14.5110 C   0  0  0  0  0  0  0  0  0  0  0  0
   10.3750    8.5520   15.6440 C   0  0  0  0  0  3  0  0  0  0  0  0
   10.8360    9.8040   15.9140 C   0  0  0  0  0  0  0  0  0  0  0  0
   11.8010   10.2650   17.4960 Br  0  0  0  0  0  0  0  0  0  0  0  0
   10.5690   10.7920   14.9530 C   0  0  0  0  0  3  0  0  0  0  0  0
    9.8690   10.4510   13.8090 C   0  0  0  0  0  3  0  0  0  0  0  0
    9.4160    9.1680   13.5660 C   0  0  0  0  0  3  0  0  0  0  0  0
   11.3500    5.3500   11.4900 C   0  0  0  0  0  0  0  0  0  0  0  0
   11.5470    3.9680   11.3180 C   0  0  0  0  0  0  0  0  0  0  0  0
   11.7920    3.7180   10.0260 N   0  0  0  0  0  0  0  0  0  0  0  0
   11.4800    2.9760   12.4290 C   0  0  0  0  0  1  0  0  0  0  0  0
   11.7560    4.8770    9.3940 N   0  0  0  0  0  0  0  0  0  0  0  0
   11.4910    5.8840   10.2390 C   0  0  0  0  0  3  0  0  0  0  0  0
   12.0320    2.4540    9.4250 C   0  0  0  0  0  0  0  0  0  0  0  0
   13.3260    2.1350    9.0350 C   0  0  0  0  0  3  0  0  0  0  0  0
   13.6340    0.9210    8.4540 C   0  0  0  0  0  3  0  0  0  0  0  0
   12.6470   -0.0420    8.2360 C   0  0  0  0  0  3  0  0  0  0  0  0
   11.3580    0.2760    8.6250 C   0  0  0  0  0  3  0  0  0  0  0  0
   11.0780    1.4890    9.1990 C   0  0  0  0  0  3  0  0  0  0  0  0
    6.9160    6.9300   15.4600 C   0  0  0  0  0  2  0  0  0  0  0  0
    6.2650    8.2720   15.2490 C   0  0  0  0  0  2  0  0  0  0  0  0
    4.7870    8.1900   15.0330 C   0  0  0  0  0  2  0  0  0  0  0  0
    4.3300    8.4170   13.7020 N   0  0  0  0  0  4  0  0  0  0  0  0
    3.0260    8.9770   13.5640 C   0  0  0  0  0  1  0  0  0  0  0  0
    5.2690    9.2960   12.9870 C   0  0  0  0  0  1  0  0  0  0  0  0
    4.3620    7.5040   13.1550 H   0  0  0  0  0  0  0  0  0  0  0  0
  1 10  1  6  0  0  0
  2  1  1  0  0  0  0
  2 29  1  0  0  0  0
  3  2  1  0  0  0  0
  4  3  2  0  0  0  0
  5  3  1  0  0  0  0
  5  7  1  0  0  0  0
  6  5  2  0  0  0  0
  7  1  1  0  0  0  0
  8  7  2  0  0  0  0
  8  9  1  0  0  0  0
 10 11  1  0  0  0  0
 11 12  2  0  0  0  0
 12 13  1  0  0  0  0
 14 12  1  0  0  0  0
 15 14  2  0  0  0  0
 16 15  1  0  0  0  0
 16 10  2  0  0  0  0
 17  8  1  0  0  0  0
 18 17  2  0  0  0  0
 18 20  1  0  0  0  0
 19 18  1  0  0  0  0
 21 19  1  0  0  0  0
 21 22  2  0  0  0  0
 22 17  1  0  0  0  0
 23 19  1  0  0  0  0
 24 23  2  0  0  0  0
 25 24  1  0  0  0  0
 26 25  2  0  0  0  0
 26 27  1  0  0  0  0
 27 28  2  0  0  0  0
 28 23  1  0  0  0  0
 30 29  1  0  0  0  0
 31 30  1  0  0  0  0
 32 31  1  0  0  0  0
 33 32  1  0  0  0  0
 34 32  1  0  0  0  0
 35 32  1  0  0  0  0
M  END
>  <Pose>
1

>  <Score>
-8.174

$$$$
