MODEL 1
REMARK VINA RESULT:    -9.517      0.000      0.000
REMARK INTER + INTRA:         -14.285
REMARK INTER:                 -13.411
REMARK INTRA:                  -0.873
REMARK UNBOUND:                -0.873
REMARK  7 active torsions:
REMARK  status: ('A' for Active; 'I' for Inactive)
REMARK    1  A    between atoms: C_4  and  C_8 
REMARK    2  A    between atoms: N_9  and  C_28 
REMARK    3  A    between atoms: C_15  and  C_17 
REMARK    4  A    between atoms: C_20  and  C_23 
REMARK    5  A    between atoms: C_23  and  O_25 
REMARK    6  A    between atoms: C_28  and  C_29 
REMARK    7  A    between atoms: C_29  and  N_30 
ROOT
ATOM      1  C   UNK d   1      11.399   4.984  12.525  0.00  0.00     0.161 C 
ATOM      2  N   UNK d   1      11.083   4.040  11.470  0.00  0.00    -0.331 N 
ATOM      3  C   UNK d   1      10.702   4.816  10.344  0.00  0.00     0.295 C 
ATOM      4  O   UNK d   1      10.769   4.491   9.138  0.00  0.00    -0.264 OA
ATOM      5  C   UNK d   1      10.205   6.109  10.864  0.00  0.00     0.250 C 
ATOM      6  O   UNK d   1       9.767   7.075  10.202  0.00  0.00    -0.282 OA
ATOM      7  C   UNK d   1      10.327   6.019  12.312  0.00  0.00     0.062 C 
ATOM      8  C   UNK d   1       9.614   6.671  13.178  0.00  0.00     0.132 C 
ATOM      9  O   UNK d   1       9.830   6.408  14.547  0.00  0.00    -0.190 OA
ENDROOT
BRANCH   1  10
ATOM     10  C   UNK d   1      12.736   5.563  12.248  0.00  0.00    -0.029 A 
ATOM     11  C   UNK d   1      13.869   4.767  12.151  0.00  0.00     0.028 A 
ATOM     12  C   UNK d   1      15.116   5.299  11.903  0.00  0.00     0.011 A 
ATOM     13 Br   UNK d   1      16.632   4.148  11.781  0.00  0.00    -0.051 Br
ATOM     14  C   UNK d   1      15.295   6.656  11.740  0.00  0.00     0.019 A 
ATOM     15  C   UNK d   1      14.185   7.466  11.833  0.00  0.00     0.002 A 
ATOM     16  C   UNK d   1      12.942   6.924  12.081  0.00  0.00     0.009 A 
ENDBRANCH   1  10
BRANCH   8  17
ATOM     17  C   UNK d   1       8.600   7.668  12.866  0.00  0.00     0.032 A 
ATOM     18  C   UNK d   1       8.573   9.021  12.916  0.00  0.00     0.019 A 
ATOM     19  N   UNK d   1       7.375   9.436  12.455  0.00  0.00    -0.354 N 
ATOM     20  C   UNK d   1       9.638   9.945  13.432  0.00  0.00     0.069 C 
ATOM     21  C   UNK d   1       6.604   8.400  12.103  0.00  0.00     0.115 A 
ATOM     22  H   UNK d   1       7.089  10.456  12.387  0.00  0.00     0.166 HD
ATOM     23  C   UNK d   1       7.348   7.277  12.350  0.00  0.00    -0.014 A 
ATOM     24  C   UNK d   1       6.897   5.873  12.110  0.00  0.00     0.052 C 
BRANCH  21  25
ATOM     25  C   UNK d   1       5.233   8.455  11.559  0.00  0.00     0.310 C 
ATOM     26  O   UNK d   1       5.039   8.145  10.374  0.00  0.00    -0.258 OA
BRANCH  25  27
ATOM     27  O   UNK d   1       4.173   8.846  12.355  0.00  0.00    -0.321 OA
ATOM     28  C   UNK d   1       4.158   8.717  13.759  0.00  0.00     0.213 C 
ENDBRANCH  25  27
ENDBRANCH  21  25
ENDBRANCH   8  17
BRANCH   2  29
ATOM     29  C   UNK d   1      11.138   2.577  11.540  0.00  0.00     0.155 C 
BRANCH  29  30
ATOM     30  C   UNK d   1      12.173   2.024  10.585  0.00  0.00     0.255 C 
BRANCH  30  31
ATOM     31  N   UNK d   1      11.731   0.888   9.845  0.00  0.00    -0.066 N 
ATOM     32  C   UNK d   1      12.457   0.677   8.598  0.00  0.00     0.261 C 
ATOM     33  C   UNK d   1      12.223  -0.748   8.174  0.00  0.00     0.195 C 
ATOM     34  O   UNK d   1      11.059  -1.206   8.738  0.00  0.00    -0.388 OA
ATOM     35  C   UNK d   1      10.011  -0.303   8.700  0.00  0.00     0.195 C 
ATOM     36  C   UNK d   1      10.328   0.984   9.461  0.00  0.00     0.261 C 
ATOM     37  H   UNK d   1      11.798   0.043  10.441  0.00  0.00     0.280 HD
ENDBRANCH  30  31
ENDBRANCH  29  30
ENDBRANCH   2  29
TORSDOF 7
ENDMDL
