/Users/jonathanwahrer/Desktop/Msc/3_Semester/Drug_Design_Praktikum/waehrer_HTS_screening/HTS_experiment/out/docking_results/vina_output/2jam/0169_docked.pdbqt
 OpenBabel03162217223D

 37 40  0  0  1  0  0  0  0  0999 V2000
   11.3990    4.9840   12.5250 C   0  0  2  0  0  3  0  0  0  0  0  0
   11.0830    4.0400   11.4700 N   0  0  0  0  0  0  0  0  0  0  0  0
   10.7020    4.8160   10.3440 C   0  0  0  0  0  0  0  0  0  0  0  0
   10.7690    4.4910    9.1380 O   0  0  0  0  0  0  0  0  0  0  0  0
   10.2050    6.1090   10.8640 C   0  0  0  0  0  0  0  0  0  0  0  0
    9.7670    7.0750   10.2020 O   0  0  0  0  0  0  0  0  0  0  0  0
   10.3270    6.0190   12.3120 C   0  0  0  0  0  0  0  0  0  0  0  0
    9.6140    6.6710   13.1780 C   0  0  0  0  0  0  0  0  0  0  0  0
    9.8300    6.4080   14.5470 O   0  0  0  0  0  1  0  0  0  0  0  0
   12.7360    5.5630   12.2480 C   0  0  0  0  0  0  0  0  0  0  0  0
   13.8690    4.7670   12.1510 C   0  0  0  0  0  3  0  0  0  0  0  0
   15.1160    5.2990   11.9030 C   0  0  0  0  0  0  0  0  0  0  0  0
   16.6320    4.1480   11.7810 Br  0  0  0  0  0  0  0  0  0  0  0  0
   15.2950    6.6560   11.7400 C   0  0  0  0  0  3  0  0  0  0  0  0
   14.1850    7.4660   11.8330 C   0  0  0  0  0  3  0  0  0  0  0  0
   12.9420    6.9240   12.0810 C   0  0  0  0  0  3  0  0  0  0  0  0
    8.6000    7.6680   12.8660 C   0  0  0  0  0  0  0  0  0  0  0  0
    8.5730    9.0210   12.9160 C   0  0  0  0  0  0  0  0  0  0  0  0
    7.3750    9.4360   12.4550 N   0  0  0  0  0  0  0  0  0  0  0  0
    9.6380    9.9450   13.4320 C   0  0  0  0  0  1  0  0  0  0  0  0
    6.6040    8.4000   12.1030 C   0  0  0  0  0  0  0  0  0  0  0  0
    7.0890   10.4560   12.3870 H   0  0  0  0  0  0  0  0  0  0  0  0
    7.3480    7.2770   12.3500 C   0  0  0  0  0  0  0  0  0  0  0  0
    6.8970    5.8730   12.1100 C   0  0  0  0  0  1  0  0  0  0  0  0
    5.2330    8.4550   11.5590 C   0  0  0  0  0  0  0  0  0  0  0  0
    5.0390    8.1450   10.3740 O   0  0  0  0  0  0  0  0  0  0  0  0
    4.1730    8.8460   12.3550 O   0  0  0  0  0  0  0  0  0  0  0  0
    4.1580    8.7170   13.7590 C   0  0  0  0  0  1  0  0  0  0  0  0
   11.1380    2.5770   11.5400 C   0  0  0  0  0  2  0  0  0  0  0  0
   12.1730    2.0240   10.5850 C   0  0  0  0  0  2  0  0  0  0  0  0
   11.7310    0.8880    9.8450 N   0  0  0  0  0  4  0  0  0  0  0  0
   12.4570    0.6770    8.5980 C   0  0  0  0  0  2  0  0  0  0  0  0
   12.2230   -0.7480    8.1740 C   0  0  0  0  0  2  0  0  0  0  0  0
   11.0590   -1.2060    8.7380 O   0  0  0  0  0  0  0  0  0  0  0  0
   10.0110   -0.3030    8.7000 C   0  0  0  0  0  2  0  0  0  0  0  0
   10.3280    0.9840    9.4610 C   0  0  0  0  0  2  0  0  0  0  0  0
   11.7980    0.0430   10.4410 H   0  0  0  0  0  0  0  0  0  0  0  0
  1 10  1  6  0  0  0
  2 29  1  0  0  0  0
  2  1  1  0  0  0  0
  3  5  1  0  0  0  0
  3  2  1  0  0  0  0
  4  3  2  0  0  0  0
  5  7  1  0  0  0  0
  6  5  2  0  0  0  0
  7  1  1  0  0  0  0
  7  8  2  0  0  0  0
  8  9  1  0  0  0  0
 11 10  1  0  0  0  0
 12 11  2  0  0  0  0
 13 12  1  0  0  0  0
 14 15  2  0  0  0  0
 14 12  1  0  0  0  0
 15 16  1  0  0  0  0
 16 10  2  0  0  0  0
 17 18  2  0  0  0  0
 17  8  1  0  0  0  0
 18 20  1  0  0  0  0
 19 18  1  0  0  0  0
 21 23  2  0  0  0  0
 21 19  1  0  0  0  0
 22 19  1  0  0  0  0
 23 17  1  0  0  0  0
 24 23  1  0  0  0  0
 25 21  1  0  0  0  0
 25 27  1  0  0  0  0
 26 25  2  0  0  0  0
 27 28  1  0  0  0  0
 30 29  1  0  0  0  0
 31 37  1  0  0  0  0
 31 30  1  0  0  0  0
 32 31  1  0  0  0  0
 33 32  1  0  0  0  0
 33 34  1  0  0  0  0
 35 34  1  0  0  0  0
 35 36  1  0  0  0  0
 36 31  1  0  0  0  0
M  END
>  <Pose>
1

>  <Score>
-9.517

$$$$
