/Users/jonathanwahrer/Desktop/Msc/3_Semester/Drug_Design_Praktikum/waehrer_HTS_screening/HTS_experiment/out/docking_results/vina_output/2jam/0170_docked.pdbqt
 OpenBabel03162217233D

 35 38  0  0  1  0  0  0  0  0999 V2000
   12.1200    5.0890   12.3600 C   0  0  1  0  0  3  0  0  0  0  0  0
   11.0580    6.0630   12.2000 N   0  0  0  0  0  0  0  0  0  0  0  0
   10.4880    5.9750   10.9120 C   0  0  0  0  0  0  0  0  0  0  0  0
    9.7860    6.7910   10.2610 O   0  0  0  0  0  0  0  0  0  0  0  0
   10.8830    4.6430   10.3890 C   0  0  0  0  0  0  0  0  0  0  0  0
   10.5500    4.2170    9.2650 O   0  0  0  0  0  0  0  0  0  0  0  0
   11.6850    4.0020   11.4150 C   0  0  0  0  0  0  0  0  0  0  0  0
   11.9250    2.7200   11.5110 C   0  0  0  0  0  0  0  0  0  0  0  0
   12.6640    2.2410   12.6070 O   0  0  0  0  0  1  0  0  0  0  0  0
   13.4500    5.6180   12.0100 C   0  0  0  0  0  0  0  0  0  0  0  0
   14.5750    4.8260   12.0150 C   0  0  0  0  0  3  0  0  0  0  0  0
   15.8210    5.3450   11.6820 C   0  0  0  0  0  0  0  0  0  0  0  0
   17.3670    4.2310   11.6980 Br  0  0  0  0  0  0  0  0  0  0  0  0
   15.9420    6.6810   11.3350 C   0  0  0  0  0  3  0  0  0  0  0  0
   14.8090    7.4660   11.3320 C   0  0  0  0  0  3  0  0  0  0  0  0
   13.5740    6.9450   11.6640 C   0  0  0  0  0  3  0  0  0  0  0  0
   11.4660    1.7740   10.5300 C   0  0  0  0  0  0  0  0  0  0  0  0
   12.4260    1.2740    9.6380 C   0  0  0  0  0  3  0  0  0  0  0  0
   12.0710    0.4020    8.6470 C   0  0  0  0  0  0  0  0  0  0  0  0
   10.7590   -0.0250    8.4780 C   0  0  0  0  0  0  0  0  0  0  0  0
   13.1090   -0.1220    7.7020 C   0  0  0  0  0  1  0  0  0  0  0  0
    9.8460    0.4740    9.3540 C   0  0  0  0  0  3  0  0  0  0  0  0
   10.1860    1.3550   10.3590 C   0  0  0  0  0  3  0  0  0  0  0  0
   10.4830   -0.9070    7.4540 O   0  0  0  0  0  0  0  0  0  0  0  0
    9.4280   -1.8500    7.5690 C   0  0  0  0  0  1  0  0  0  0  0  0
   10.6040    7.0200   13.2220 C   0  0  0  0  0  2  0  0  0  0  0  0
    9.4010    6.4700   13.9380 C   0  0  0  0  0  2  0  0  0  0  0  0
    8.1590    7.2840   13.8030 C   0  0  0  0  0  2  0  0  0  0  0  0
    7.8510    7.6530   12.4390 N   0  0  0  0  0  4  0  0  0  0  0  0
    6.6450    7.0030   11.9650 C   0  0  0  0  0  2  0  0  0  0  0  0
    5.5700    8.0160   11.6760 C   0  0  0  0  0  2  0  0  0  0  0  0
    6.0470    8.8690   10.6610 O   0  0  0  0  0  0  0  0  0  0  0  0
    7.1500    9.5930   11.1090 C   0  0  0  0  0  2  0  0  0  0  0  0
    7.7010    9.1110   12.4130 C   0  0  0  0  0  2  0  0  0  0  0  0
    8.6230    7.4490   11.7700 H   0  0  0  0  0  0  0  0  0  0  0  0
  1 10  1  6  0  0  0
  2  1  1  0  0  0  0
  2 26  1  0  0  0  0
  3  2  1  0  0  0  0
  4  3  2  0  0  0  0
  5  3  1  0  0  0  0
  5  7  1  0  0  0  0
  6  5  2  0  0  0  0
  7  8  2  0  0  0  0
  7  1  1  0  0  0  0
  8  9  1  0  0  0  0
 10 11  1  0  0  0  0
 12 13  1  0  0  0  0
 12 11  2  0  0  0  0
 14 12  1  0  0  0  0
 15 14  2  0  0  0  0
 15 16  1  0  0  0  0
 16 10  2  0  0  0  0
 17  8  1  0  0  0  0
 18 17  2  0  0  0  0
 19 18  1  0  0  0  0
 20 19  2  0  0  0  0
 20 22  1  0  0  0  0
 21 19  1  0  0  0  0
 22 23  2  0  0  0  0
 23 17  1  0  0  0  0
 24 25  1  0  0  0  0
 24 20  1  0  0  0  0
 26 27  1  0  0  0  0
 28 27  1  0  0  0  0
 29 28  1  0  0  0  0
 30 29  1  0  0  0  0
 31 30  1  0  0  0  0
 32 33  1  0  0  0  0
 32 31  1  0  0  0  0
 33 34  1  0  0  0  0
 34 29  1  0  0  0  0
 35 29  1  0  0  0  0
M  END
>  <Pose>
1

>  <Score>
-9.395

$$$$
