MODEL 1
REMARK VINA RESULT:    -9.395      0.000      0.000
REMARK INTER + INTRA:         -14.315
REMARK INTER:                 -13.240
REMARK INTRA:                  -1.075
REMARK UNBOUND:                -1.075
REMARK  7 active torsions:
REMARK  status: ('A' for Active; 'I' for Inactive)
REMARK    1  A    between atoms: C_4  and  C_8 
REMARK    2  A    between atoms: N_9  and  C_26 
REMARK    3  A    between atoms: C_15  and  C_17 
REMARK    4  A    between atoms: C_20  and  O_23 
REMARK    5  A    between atoms: C_26  and  C_27 
REMARK    6  A    between atoms: C_27  and  C_28 
REMARK    7  A    between atoms: C_28  and  N_29 
ROOT
ATOM      1  C   UNK d   1      12.120   5.089  12.360  0.00  0.00     0.161 C 
ATOM      2  N   UNK d   1      11.058   6.063  12.200  0.00  0.00    -0.332 N 
ATOM      3  C   UNK d   1      10.488   5.975  10.912  0.00  0.00     0.295 C 
ATOM      4  O   UNK d   1       9.786   6.791  10.261  0.00  0.00    -0.264 OA
ATOM      5  C   UNK d   1      10.883   4.643  10.389  0.00  0.00     0.250 C 
ATOM      6  O   UNK d   1      10.550   4.217   9.265  0.00  0.00    -0.282 OA
ATOM      7  C   UNK d   1      11.685   4.002  11.415  0.00  0.00     0.062 C 
ATOM      8  C   UNK d   1      11.925   2.720  11.511  0.00  0.00     0.130 C 
ATOM      9  O   UNK d   1      12.664   2.241  12.607  0.00  0.00    -0.190 OA
ENDROOT
BRANCH   1  10
ATOM     10  C   UNK d   1      13.450   5.618  12.010  0.00  0.00    -0.029 A 
ATOM     11  C   UNK d   1      14.575   4.826  12.015  0.00  0.00     0.028 A 
ATOM     12  C   UNK d   1      15.821   5.345  11.682  0.00  0.00     0.011 A 
ATOM     13 Br   UNK d   1      17.367   4.231  11.698  0.00  0.00    -0.051 Br
ATOM     14  C   UNK d   1      15.942   6.681  11.335  0.00  0.00     0.019 A 
ATOM     15  C   UNK d   1      14.809   7.466  11.332  0.00  0.00     0.002 A 
ATOM     16  C   UNK d   1      13.574   6.945  11.664  0.00  0.00     0.009 A 
ENDBRANCH   1  10
BRANCH   8  17
ATOM     17  C   UNK d   1      11.466   1.774  10.530  0.00  0.00     0.002 A 
ATOM     18  C   UNK d   1      12.426   1.274   9.638  0.00  0.00     0.024 A 
ATOM     19  C   UNK d   1      12.071   0.402   8.647  0.00  0.00    -0.028 A 
ATOM     20  C   UNK d   1      10.759  -0.025   8.478  0.00  0.00     0.074 A 
ATOM     21  C   UNK d   1      13.109  -0.122   7.702  0.00  0.00     0.051 C 
ATOM     22  C   UNK d   1       9.846   0.474   9.354  0.00  0.00     0.038 A 
ATOM     23  C   UNK d   1      10.186   1.355  10.359  0.00  0.00     0.017 A 
BRANCH  20  24
ATOM     24  O   UNK d   1      10.483  -0.907   7.454  0.00  0.00    -0.355 OA
ATOM     25  C   UNK d   1       9.428  -1.850   7.569  0.00  0.00     0.210 C 
ENDBRANCH  20  24
ENDBRANCH   8  17
BRANCH   2  26
ATOM     26  C   UNK d   1      10.604   7.020  13.222  0.00  0.00     0.129 C 
BRANCH  26  27
ATOM     27  C   UNK d   1       9.401   6.470  13.938  0.00  0.00     0.048 C 
BRANCH  27  28
ATOM     28  C   UNK d   1       8.159   7.284  13.803  0.00  0.00     0.236 C 
BRANCH  28  29
ATOM     29  N   UNK d   1       7.851   7.653  12.439  0.00  0.00    -0.067 N 
ATOM     30  C   UNK d   1       6.645   7.003  11.965  0.00  0.00     0.261 C 
ATOM     31  C   UNK d   1       5.570   8.016  11.676  0.00  0.00     0.195 C 
ATOM     32  O   UNK d   1       6.047   8.869  10.661  0.00  0.00    -0.388 OA
ATOM     33  C   UNK d   1       7.150   9.593  11.109  0.00  0.00     0.195 C 
ATOM     34  C   UNK d   1       7.701   9.111  12.413  0.00  0.00     0.261 C 
ATOM     35  H   UNK d   1       8.623   7.449  11.770  0.00  0.00     0.280 HD
ENDBRANCH  28  29
ENDBRANCH  27  28
ENDBRANCH  26  27
ENDBRANCH   2  26
TORSDOF 7
ENDMDL
