MODEL 1
REMARK VINA RESULT:    -9.202      0.000      0.000
REMARK INTER + INTRA:         -12.763
REMARK INTER:                 -11.892
REMARK INTRA:                  -0.871
REMARK UNBOUND:                -0.871
REMARK  5 active torsions:
REMARK  status: ('A' for Active; 'I' for Inactive)
REMARK    1  A    between atoms: C_4  and  C_8 
REMARK    2  A    between atoms: N_9  and  C_28 
REMARK    3  A    between atoms: C_15  and  C_17 
REMARK    4  A    between atoms: C_28  and  C_29 
REMARK    5  A    between atoms: C_29  and  N_30 
ROOT
ATOM      1  C   UNK d   1      12.845   6.981  11.301  0.00  0.00     0.161 C 
ATOM      2  N   UNK d   1      11.586   7.414  11.798  0.00  0.00    -0.331 N 
ATOM      3  C   UNK d   1      10.632   6.847  10.840  0.00  0.00     0.295 C 
ATOM      4  O   UNK d   1       9.512   7.305  10.561  0.00  0.00    -0.264 OA
ATOM      5  C   UNK d   1      11.271   5.640  10.289  0.00  0.00     0.251 C 
ATOM      6  O   UNK d   1      10.814   4.841   9.441  0.00  0.00    -0.282 OA
ATOM      7  C   UNK d   1      12.573   5.557  10.947  0.00  0.00     0.064 C 
ATOM      8  C   UNK d   1      13.266   4.473  11.184  0.00  0.00     0.149 C 
ATOM      9  O   UNK d   1      14.476   4.627  11.895  0.00  0.00    -0.189 OA
ENDROOT
BRANCH   1  10
ATOM     10  C   UNK d   1      14.054   7.251  12.020  0.00  0.00    -0.029 A 
ATOM     11  C   UNK d   1      15.193   7.687  11.314  0.00  0.00     0.028 A 
ATOM     12  C   UNK d   1      16.393   7.957  11.918  0.00  0.00     0.011 A 
ATOM     13 Br   UNK d   1      17.900   8.547  10.893  0.00  0.00    -0.051 Br
ATOM     14  C   UNK d   1      16.551   7.813  13.270  0.00  0.00     0.019 A 
ATOM     15  C   UNK d   1      15.466   7.389  14.003  0.00  0.00     0.002 A 
ATOM     16  C   UNK d   1      14.269   7.123  13.374  0.00  0.00     0.009 A 
ENDBRANCH   1  10
BRANCH   8  17
ATOM     17  C   UNK d   1      12.847   3.151  10.744  0.00  0.00     0.102 A 
ATOM     18  N   UNK d   1      13.242   2.383   9.719  0.00  0.00    -0.302 N 
ATOM     19  C   UNK d   1      12.525   1.255   9.699  0.00  0.00     0.140 A 
ATOM     20  C   UNK d   1      14.225   2.637   8.811  0.00  0.00     0.099 A 
ATOM     21  N   UNK d   1      11.655   1.313  10.742  0.00  0.00    -0.233 NA
ATOM     22  C   UNK d   1      12.740   0.267   8.741  0.00  0.00    -0.015 A 
ATOM     23  C   UNK d   1      11.821   2.461  11.410  0.00  0.00     0.063 A 
ATOM     24  C   UNK d   1      11.070   2.917  12.614  0.00  0.00     0.073 C 
ATOM     25  C   UNK d   1      13.731   0.500   7.808  0.00  0.00     0.012 A 
ATOM     26  C   UNK d   1      11.912  -0.964   8.767  0.00  0.00     0.052 C 
ATOM     27  C   UNK d   1      14.456   1.676   7.857  0.00  0.00     0.018 A 
ENDBRANCH   8  17
BRANCH   2  28
ATOM     28  C   UNK d   1      11.159   8.248  12.907  0.00  0.00     0.155 C 
BRANCH  28  29
ATOM     29  C   UNK d   1      10.510   7.523  14.035  0.00  0.00     0.255 C 
BRANCH  29  30
ATOM     30  N   UNK d   1       9.150   7.960  14.281  0.00  0.00    -0.066 N 
ATOM     31  C   UNK d   1       8.189   7.071  13.666  0.00  0.00     0.261 C 
ATOM     32  C   UNK d   1       8.131   5.756  14.449  0.00  0.00     0.195 C 
ATOM     33  O   UNK d   1       7.615   6.086  15.707  0.00  0.00    -0.388 OA
ATOM     34  C   UNK d   1       8.639   6.800  16.362  0.00  0.00     0.195 C 
ATOM     35  C   UNK d   1       8.894   8.132  15.697  0.00  0.00     0.261 C 
ATOM     36  H   UNK d   1       9.010   8.900  13.837  0.00  0.00     0.280 HD
ENDBRANCH  29  30
ENDBRANCH  28  29
ENDBRANCH   2  28
TORSDOF 5
ENDMDL
