MODEL 1
REMARK VINA RESULT:    -7.511      0.000      0.000
REMARK INTER + INTRA:         -10.997
REMARK INTER:                 -10.145
REMARK INTRA:                  -0.851
REMARK UNBOUND:                -0.851
REMARK  6 active torsions:
REMARK  status: ('A' for Active; 'I' for Inactive)
REMARK    1  A    between atoms: C_4  and  C_8 
REMARK    2  A    between atoms: N_9  and  C_27 
REMARK    3  A    between atoms: C_15  and  C_17 
REMARK    4  A    between atoms: C_27  and  C_28 
REMARK    5  A    between atoms: C_28  and  C_29 
REMARK    6  A    between atoms: C_29  and  N_30 
ROOT
ATOM      1  C   UNK d   1       9.803   6.928  13.551  0.00  0.00     0.161 C 
ATOM      2  N   UNK d   1      10.050   6.666  12.146  0.00  0.00    -0.332 N 
ATOM      3  C   UNK d   1       8.800   6.189  11.630  0.00  0.00     0.295 C 
ATOM      4  O   UNK d   1       8.617   5.458  10.641  0.00  0.00    -0.264 OA
ATOM      5  C   UNK d   1       7.753   6.728  12.490  0.00  0.00     0.251 C 
ATOM      6  O   UNK d   1       6.495   6.587  12.441  0.00  0.00    -0.282 OA
ATOM      7  C   UNK d   1       8.430   7.521  13.505  0.00  0.00     0.064 C 
ATOM      8  C   UNK d   1       7.890   8.491  14.216  0.00  0.00     0.149 C 
ATOM      9  O   UNK d   1       8.717   9.075  15.186  0.00  0.00    -0.189 OA
ENDROOT
BRANCH   1  10
ATOM     10  C   UNK d   1      10.762   7.842  14.184  0.00  0.00    -0.029 A 
ATOM     11  C   UNK d   1      11.340   7.624  15.390  0.00  0.00     0.028 A 
ATOM     12  C   UNK d   1      12.237   8.549  15.925  0.00  0.00     0.011 A 
ATOM     13 Br   UNK d   1      13.027   8.208  17.618  0.00  0.00    -0.051 Br
ATOM     14  C   UNK d   1      12.568   9.715  15.248  0.00  0.00     0.019 A 
ATOM     15  C   UNK d   1      11.969   9.916  14.024  0.00  0.00     0.002 A 
ATOM     16  C   UNK d   1      11.092   9.015  13.497  0.00  0.00     0.009 A 
ENDBRANCH   1  10
BRANCH   8  17
ATOM     17  C   UNK d   1       6.531   8.988  14.063  0.00  0.00     0.102 A 
ATOM     18  N   UNK d   1       5.431   8.578  14.711  0.00  0.00    -0.302 N 
ATOM     19  C   UNK d   1       4.349   9.306  14.336  0.00  0.00     0.134 A 
ATOM     20  C   UNK d   1       5.223   7.586  15.628  0.00  0.00     0.099 A 
ATOM     21  N   UNK d   1       4.823  10.194  13.419  0.00  0.00    -0.233 NA
ATOM     22  C   UNK d   1       3.078   9.082  14.842  0.00  0.00     0.051 A 
ATOM     23  C   UNK d   1       6.122  10.038  13.227  0.00  0.00     0.063 A 
ATOM     24  C   UNK d   1       7.072  10.751  12.345  0.00  0.00     0.073 C 
ATOM     25  C   UNK d   1       2.877   8.080  15.769  0.00  0.00     0.005 A 
ATOM     26  C   UNK d   1       3.990   7.338  16.146  0.00  0.00     0.018 A 
ENDBRANCH   8  17
BRANCH   2  27
ATOM     27  C   UNK d   1      11.297   6.826  11.395  0.00  0.00     0.129 C 
BRANCH  27  28
ATOM     28  C   UNK d   1      12.213   5.663  11.508  0.00  0.00     0.048 C 
BRANCH  28  29
ATOM     29  C   UNK d   1      12.020   4.523  10.595  0.00  0.00     0.235 C 
BRANCH  29  30
ATOM     30  N   UNK d   1      11.089   3.530  11.001  0.00  0.00    -0.079 N 
ATOM     31  C   UNK d   1      11.502   2.945  12.254  0.00  0.00     0.269 C 
ATOM     32  C   UNK d   1      11.098   2.426  10.022  0.00  0.00     0.269 C 
ATOM     33  H   UNK d   1      10.095   3.846  11.010  0.00  0.00     0.278 HD
ENDBRANCH  29  30
ENDBRANCH  28  29
ENDBRANCH  27  28
ENDBRANCH   2  27
TORSDOF 6
ENDMDL
