MODEL 1
REMARK VINA RESULT:    -8.571      0.000      0.000
REMARK INTER + INTRA:         -11.843
REMARK INTER:                 -11.578
REMARK INTRA:                  -0.265
REMARK UNBOUND:                -0.265
REMARK  6 active torsions:
REMARK  status: ('A' for Active; 'I' for Inactive)
REMARK    1  A    between atoms: C_4  and  C_8 
REMARK    2  A    between atoms: N_9  and  C_22 
REMARK    3  A    between atoms: C_15  and  C_17 
REMARK    4  A    between atoms: C_22  and  C_23 
REMARK    5  A    between atoms: C_23  and  C_24 
REMARK    6  A    between atoms: C_24  and  N_25 
ROOT
ATOM      1  C   UNK d   1      11.025   5.385  12.462  0.00  0.00     0.161 C 
ATOM      2  N   UNK d   1      10.546   4.576  11.351  0.00  0.00    -0.332 N 
ATOM      3  C   UNK d   1      10.130   5.566  10.380  0.00  0.00     0.295 C 
ATOM      4  O   UNK d   1      10.052   5.408   9.143  0.00  0.00    -0.264 OA
ATOM      5  C   UNK d   1       9.810   6.803  11.081  0.00  0.00     0.251 C 
ATOM      6  O   UNK d   1       9.415   7.917  10.653  0.00  0.00    -0.282 OA
ATOM      7  C   UNK d   1      10.044   6.530  12.498  0.00  0.00     0.064 C 
ATOM      8  C   UNK d   1       9.559   7.128  13.548  0.00  0.00     0.153 C 
ATOM      9  O   UNK d   1       9.981   6.683  14.819  0.00  0.00    -0.188 OA
ENDROOT
BRANCH   2  10
ATOM     10  C   UNK d   1      10.482   3.150  11.167  0.00  0.00     0.129 C 
BRANCH  10  11
ATOM     11  C   UNK d   1      11.836   2.487  11.060  0.00  0.00     0.048 C 
BRANCH  11  12
ATOM     12  C   UNK d   1      11.986   1.876   9.723  0.00  0.00     0.236 C 
BRANCH  12  13
ATOM     13  N   UNK d   1      13.014   0.865   9.621  0.00  0.00    -0.067 N 
ATOM     14  C   UNK d   1      13.210   0.410   8.265  0.00  0.00     0.261 C 
ATOM     15  C   UNK d   1      14.317   1.080   7.533  0.00  0.00     0.195 C 
ATOM     16  O   UNK d   1      15.468   1.296   8.261  0.00  0.00    -0.388 OA
ATOM     17  C   UNK d   1      15.244   1.897   9.493  0.00  0.00     0.195 C 
ATOM     18  C   UNK d   1      14.225   1.148  10.313  0.00  0.00     0.261 C 
ATOM     19  H   UNK d   1      12.590   0.020  10.121  0.00  0.00     0.280 HD
ENDBRANCH  12  13
ENDBRANCH  11  12
ENDBRANCH  10  11
ENDBRANCH   2  10
BRANCH   1  20
ATOM     20  C   UNK d   1      12.352   5.995  12.154  0.00  0.00    -0.029 A 
ATOM     21  C   UNK d   1      13.496   5.229  12.176  0.00  0.00     0.028 A 
ATOM     22  C   UNK d   1      14.753   5.745  11.899  0.00  0.00     0.011 A 
ATOM     23 Br   UNK d   1      16.320   4.639  11.939  0.00  0.00    -0.051 Br
ATOM     24  C   UNK d   1      14.883   7.082  11.585  0.00  0.00     0.019 A 
ATOM     25  C   UNK d   1      13.747   7.870  11.557  0.00  0.00     0.002 A 
ATOM     26  C   UNK d   1      12.488   7.334  11.839  0.00  0.00     0.009 A 
ENDBRANCH   1  20
BRANCH   8  27
ATOM     27  C   UNK d   1       8.610   8.218  13.409  0.00  0.00     0.112 A 
ATOM     28  O   UNK d   1       7.337   8.038  13.178  0.00  0.00    -0.320 OA
ATOM     29  C   UNK d   1       6.706   9.176  13.092  0.00  0.00     0.142 A 
ATOM     30  C   UNK d   1       7.610  10.177  13.278  0.00  0.00     0.027 A 
ATOM     31  C   UNK d   1       8.851   9.562  13.482  0.00  0.00     0.042 A 
ENDBRANCH   8  27
TORSDOF 6
ENDMDL
