MODEL 1
REMARK VINA RESULT:    -8.759      0.000      0.000
REMARK INTER + INTRA:         -11.299
REMARK INTER:                 -10.807
REMARK INTRA:                  -0.492
REMARK UNBOUND:                -0.492
REMARK  4 active torsions:
REMARK  status: ('A' for Active; 'I' for Inactive)
REMARK    1  A    between atoms: C_4  and  N_8 
REMARK    2  A    between atoms: C_11  and  C_13 
REMARK       I    between atoms: C_13  and  N_15 
REMARK    3  A    between atoms: N_15  and  C_16 
REMARK    4  A    between atoms: C_16  and  C_17 
ROOT
ATOM      1  C   UNK d   1       9.529   6.880  11.683  0.00  0.00     0.273 C 
ATOM      2  O   UNK d   1       9.633   7.553  10.628  0.00  0.00    -0.266 OA
ATOM      3  N   UNK d   1       8.843   7.437  12.781  0.00  0.00    -0.348 N 
ATOM      4  H   UNK d   1       8.766   6.862  13.650  0.00  0.00     0.163 HD
ENDROOT
BRANCH   1   5
ATOM      5  C   UNK d   1      10.125   5.550  11.713  0.00  0.00     0.165 A 
ATOM      6  N   UNK d   1      10.572   4.863  12.792  0.00  0.00    -0.125 NA
ATOM      7  N   UNK d   1      11.038   3.696  12.377  0.00  0.00    -0.060 NA
ATOM      8  N   UNK d   1      10.917   3.587  11.080  0.00  0.00    -0.224 N 
ATOM      9  C   UNK d   1      10.353   4.723  10.637  0.00  0.00     0.159 A 
BRANCH   8  10
ATOM     10  C   UNK d   1      11.289   2.501  10.220  0.00  0.00     0.060 A 
ATOM     11  C   UNK d   1      12.554   2.356   9.705  0.00  0.00     0.050 A 
ATOM     12  C   UNK d   1      12.868   1.278   8.870  0.00  0.00     0.013 A 
ATOM     13 Br   UNK d   1      14.622   1.074   8.154  0.00  0.00    -0.051 Br
ATOM     14  C   UNK d   1      11.915   0.338   8.544  0.00  0.00     0.019 A 
ATOM     15  C   UNK d   1      10.645   0.473   9.055  0.00  0.00     0.004 A 
ATOM     16  C   UNK d   1      10.344   1.555   9.889  0.00  0.00     0.032 A 
ENDBRANCH   8  10
ENDBRANCH   1   5
BRANCH   3  17
ATOM     17  C   UNK d   1       8.239   8.750  12.788  0.00  0.00     0.203 C 
BRANCH  17  18
ATOM     18  C   UNK d   1       6.787   8.681  12.400  0.00  0.00     0.148 A 
ATOM     19  N   UNK d   1       5.700   8.892  13.180  0.00  0.00    -0.319 N 
ATOM     20  C   UNK d   1       4.591   8.737  12.450  0.00  0.00     0.130 A 
ATOM     21  C   UNK d   1       5.383   9.228  14.557  0.00  0.00     0.132 C 
ATOM     22  N   UNK d   1       5.008   8.424  11.200  0.00  0.00    -0.135 NA
ATOM     23  C   UNK d   1       3.356   8.963  13.286  0.00  0.00     0.082 C 
ATOM     24  N   UNK d   1       6.326   8.391  11.170  0.00  0.00    -0.133 NA
ATOM     25  C   UNK d   1       3.926   8.823  14.681  0.00  0.00     0.028 C 
ENDBRANCH  17  18
ENDBRANCH   3  17
TORSDOF 4
ENDMDL
