MODEL 1
REMARK VINA RESULT:    -8.845      0.000      0.000
REMARK INTER + INTRA:         -10.251
REMARK INTER:                  -9.879
REMARK INTRA:                  -0.371
REMARK UNBOUND:                -0.371
REMARK  2 active torsions:
REMARK  status: ('A' for Active; 'I' for Inactive)
REMARK    1  A    between atoms: C_4  and  N_8 
REMARK    2  A    between atoms: C_14  and  C_18 
ROOT
ATOM      1  N   UNK d   1      13.356   2.301   9.763  0.00  0.00    -0.246 N 
ATOM      2  C   UNK d   1      12.811   3.577  10.155  0.00  0.00     0.268 C 
ATOM      3  O   UNK d   1      11.856   4.145   9.553  0.00  0.00    -0.269 OA
ATOM      4  C   UNK d   1      13.535   4.069  11.325  0.00  0.00     0.285 C 
ATOM      5  O   UNK d   1      13.757   5.415  11.426  0.00  0.00    -0.260 OA
ATOM      6  N   UNK d   1      15.002   5.461  12.049  0.00  0.00    -0.264 N 
ATOM      7  C   UNK d   1      15.799   4.432  11.512  0.00  0.00     0.083 C 
ATOM      8  C   UNK d   1      14.920   3.538  11.038  0.00  0.00     0.080 C 
ATOM      9  C   UNK d   1      14.680   2.289  10.325  0.00  0.00     0.266 C 
ATOM     10  O   UNK d   1      15.499   1.353  10.217  0.00  0.00    -0.267 OA
ATOM     11  H   UNK d   1      15.288   6.130  12.775  0.00  0.00     0.194 HD
ENDROOT
BRANCH   1  12
ATOM     12  C   UNK d   1      12.765   1.272   8.996  0.00  0.00     0.047 A 
ATOM     13  C   UNK d   1      11.455   0.849   9.212  0.00  0.00     0.049 A 
ATOM     14  C   UNK d   1      10.843  -0.144   8.490  0.00  0.00     0.013 A 
ATOM     15 Br   UNK d   1       9.048  -0.698   8.817  0.00  0.00    -0.051 Br
ATOM     16  C   UNK d   1      11.528  -0.790   7.481  0.00  0.00     0.019 A 
ATOM     17  C   UNK d   1      12.838  -0.381   7.250  0.00  0.00     0.004 A 
ATOM     18  C   UNK d   1      13.441   0.615   7.979  0.00  0.00     0.030 A 
ENDBRANCH   1  12
BRANCH   7  19
ATOM     19  C   UNK d   1      17.247   4.299  11.501  0.00  0.00     0.036 A 
ATOM     20  C   UNK d   1      18.130   5.268  11.014  0.00  0.00     0.040 A 
ATOM     21  N   UNK d   1      19.362   4.831  11.183  0.00  0.00    -0.278 N 
ATOM     22  C   UNK d   1      17.753   6.557  10.387  0.00  0.00     0.071 C 
ATOM     23  N   UNK d   1      19.307   3.629  11.753  0.00  0.00    -0.184 NA
ATOM     24  C   UNK d   1      20.596   5.522  10.812  0.00  0.00     0.179 C 
ATOM     25  C   UNK d   1      18.046   3.287  11.953  0.00  0.00     0.154 A 
ENDBRANCH   7  19
TORSDOF 2
ENDMDL
