MODEL 1
REMARK VINA RESULT:    -7.686      0.000      0.000
REMARK INTER + INTRA:          -9.218
REMARK INTER:                  -8.810
REMARK INTRA:                  -0.408
REMARK UNBOUND:                -0.408
REMARK  3 active torsions:
REMARK  status: ('A' for Active; 'I' for Inactive)
REMARK    1  A    between atoms: C_4  and  N_8 
REMARK    2  A    between atoms: C_12  and  C_20 
REMARK    3  A    between atoms: C_20  and  O_21 
ROOT
ATOM      1  N   UNK d   1      11.534   4.807  10.408  0.00  0.00    -0.252 N 
ATOM      2  C   UNK d   1      10.464   5.659  10.025  0.00  0.00     0.239 C 
ATOM      3  O   UNK d   1       9.756   5.511   8.961  0.00  0.00    -0.272 OA
ATOM      4  C   UNK d   1      10.309   6.716  11.034  0.00  0.00     0.135 C 
ATOM      5  C   UNK d   1       9.290   6.266  12.035  0.00  0.00     0.113 C 
ATOM      6  O   UNK d   1      10.029   5.243  12.683  0.00  0.00    -0.363 OA
ATOM      7  C   UNK d   1      11.075   6.080  13.152  0.00  0.00     0.159 C 
ATOM      8  C   UNK d   1      11.579   6.643  11.836  0.00  0.00     0.128 C 
ATOM      9  C   UNK d   1      12.401   5.585  11.215  0.00  0.00     0.239 C 
ATOM     10  O   UNK d   1      13.638   5.421  11.382  0.00  0.00    -0.272 OA
ATOM     11  C   UNK d   1      10.281   7.092  13.885  0.00  0.00     0.005 C 
ATOM     12  C   UNK d   1       9.135   7.196  13.187  0.00  0.00     0.012 C 
ENDROOT
BRANCH   1  13
ATOM     13  C   UNK d   1      11.704   3.417  10.044  0.00  0.00     0.046 A 
ATOM     14  C   UNK d   1      12.881   2.943   9.485  0.00  0.00     0.049 A 
ATOM     15  C   UNK d   1      13.099   1.652   9.124  0.00  0.00     0.013 A 
ATOM     16 Br   UNK d   1      14.776   1.147   8.363  0.00  0.00    -0.051 Br
ATOM     17  C   UNK d   1      12.089   0.731   9.322  0.00  0.00     0.019 A 
ATOM     18  C   UNK d   1      10.898   1.153   9.876  0.00  0.00     0.004 A 
ATOM     19  C   UNK d   1      10.706   2.489  10.235  0.00  0.00     0.030 A 
ENDBRANCH   1  13
BRANCH   5  20
ATOM     20  C   UNK d   1       8.006   5.792  11.468  0.00  0.00     0.207 C 
BRANCH  20  21
ATOM     21  O   UNK d   1       7.104   6.857  11.451  0.00  0.00    -0.398 OA
ATOM     22  H   UNK d   1       7.324   7.504  12.167  0.00  0.00     0.209 HD
ENDBRANCH  20  21
ENDBRANCH   5  20
TORSDOF 3
ENDMDL
