/Users/jonathanwahrer/Desktop/Msc/3_Semester/Drug_Design_Praktikum/waehrer_HTS_screening/HTS_experiment/out/docking_results/vina_output/2jam/0211_docked.pdbqt
 OpenBabel03162217263D

 22 25  0  0  1  0  0  0  0  0999 V2000
   11.5340    4.8070   10.4080 N   0  0  0  0  0  0  0  0  0  0  0  0
   10.4640    5.6590   10.0250 C   0  0  0  0  0  0  0  0  0  0  0  0
    9.7560    5.5110    8.9610 O   0  0  0  0  0  0  0  0  0  0  0  0
   10.3090    6.7160   11.0340 C   0  0  1  0  0  3  0  0  0  0  0  0
    9.2900    6.2660   12.0350 C   0  0  1  0  0  0  0  0  0  0  0  0
   10.0290    5.2430   12.6830 O   0  0  0  0  0  0  0  0  0  0  0  0
   11.0750    6.0800   13.1520 C   0  0  1  0  0  3  0  0  0  0  0  0
   11.5790    6.6430   11.8360 C   0  0  1  0  0  3  0  0  0  0  0  0
   12.4010    5.5850   11.2150 C   0  0  0  0  0  0  0  0  0  0  0  0
   13.6380    5.4210   11.3820 O   0  0  0  0  0  0  0  0  0  0  0  0
   10.2810    7.0920   13.8850 C   0  0  0  0  0  2  0  0  0  0  0  0
    9.1350    7.1960   13.1870 C   0  0  0  0  0  2  0  0  0  0  0  0
   11.7040    3.4170   10.0440 C   0  0  0  0  0  0  0  0  0  0  0  0
   12.8810    2.9430    9.4850 C   0  0  0  0  0  3  0  0  0  0  0  0
   13.0990    1.6520    9.1240 C   0  0  0  0  0  0  0  0  0  0  0  0
   14.7760    1.1470    8.3630 Br  0  0  0  0  0  0  0  0  0  0  0  0
   12.0890    0.7310    9.3220 C   0  0  0  0  0  3  0  0  0  0  0  0
   10.8980    1.1530    9.8760 C   0  0  0  0  0  3  0  0  0  0  0  0
   10.7060    2.4890   10.2350 C   0  0  0  0  0  3  0  0  0  0  0  0
    8.0060    5.7920   11.4680 C   0  0  0  0  0  2  0  0  0  0  0  0
    7.1040    6.8570   11.4510 O   0  0  0  0  0  0  0  0  0  0  0  0
    7.3240    7.5040   12.1670 H   0  0  0  0  0  0  0  0  0  0  0  0
  1  9  1  0  0  0  0
  2  1  1  0  0  0  0
  3  2  2  0  0  0  0
  4  2  1  6  0  0  0
  4  8  1  0  0  0  0
  4  5  1  0  0  0  0
  5 20  1  6  0  0  0
  5  6  1  0  0  0  0
  5 12  1  0  0  0  0
  6  7  1  0  0  0  0
  7 11  1  1  0  0  0
  8  9  1  6  0  0  0
  8  7  1  0  0  0  0
  9 10  2  0  0  0  0
 12 11  1  0  0  0  0
 13 19  1  0  0  0  0
 13  1  1  0  0  0  0
 14 13  2  0  0  0  0
 15 17  2  0  0  0  0
 15 14  1  0  0  0  0
 16 15  1  0  0  0  0
 17 18  1  0  0  0  0
 18 19  2  0  0  0  0
 21 20  1  0  0  0  0
 21 22  1  0  0  0  0
M  END
>  <Pose>
1

>  <Score>
-7.686

$$$$
