MODEL 1
REMARK VINA RESULT:    -8.540      0.000      0.000
REMARK INTER + INTRA:         -10.274
REMARK INTER:                  -9.538
REMARK INTRA:                  -0.736
REMARK UNBOUND:                -0.736
REMARK  2 active torsions:
REMARK  status: ('A' for Active; 'I' for Inactive)
REMARK    1  A    between atoms: C_4  and  N_8 
REMARK    2  A    between atoms: C_14  and  C_18 
ROOT
ATOM      1  N   UNK d   1      10.712   4.170  10.703  0.00  0.00    -0.246 N 
ATOM      2  C   UNK d   1      10.208   5.330  10.006  0.00  0.00     0.268 C 
ATOM      3  O   UNK d   1       9.684   5.381   8.888  0.00  0.00    -0.269 OA
ATOM      4  C   UNK d   1      10.427   6.513  10.889  0.00  0.00     0.285 C 
ATOM      5  O   UNK d   1       9.427   7.466  10.821  0.00  0.00    -0.260 OA
ATOM      6  N   UNK d   1       9.454   7.984  12.095  0.00  0.00    -0.264 N 
ATOM      7  C   UNK d   1       9.545   6.829  12.948  0.00  0.00     0.083 C 
ATOM      8  C   UNK d   1      10.138   5.896  12.243  0.00  0.00     0.080 C 
ATOM      9  C   UNK d   1      10.665   4.534  12.101  0.00  0.00     0.266 C 
ATOM     10  O   UNK d   1      11.003   3.846  13.070  0.00  0.00    -0.267 OA
ATOM     11  H   UNK d   1       9.417   8.963  12.398  0.00  0.00     0.194 HD
ENDROOT
BRANCH   1  12
ATOM     12  C   UNK d   1      11.146   2.965  10.105  0.00  0.00     0.047 A 
ATOM     13  C   UNK d   1      12.460   2.814   9.725  0.00  0.00     0.049 A 
ATOM     14  C   UNK d   1      12.914   1.635   9.126  0.00  0.00     0.013 A 
ATOM     15 Br   UNK d   1      14.736   1.455   8.610  0.00  0.00    -0.051 Br
ATOM     16  C   UNK d   1      12.062   0.580   8.895  0.00  0.00     0.019 A 
ATOM     17  C   UNK d   1      10.745   0.729   9.274  0.00  0.00     0.004 A 
ATOM     18  C   UNK d   1      10.294   1.913   9.874  0.00  0.00     0.030 A 
ENDBRANCH   1  12
BRANCH   7  19
ATOM     19  C   UNK d   1       9.084   6.675  14.301  0.00  0.00     0.036 A 
ATOM     20  C   UNK d   1       9.903   6.915  15.403  0.00  0.00     0.127 A 
ATOM     21  N   UNK d   1       9.206   6.706  16.534  0.00  0.00    -0.284 N 
ATOM     22  N   UNK d   1       7.993   6.348  16.148  0.00  0.00    -0.177 NA
ATOM     23  C   UNK d   1       9.705   6.849  17.912  0.00  0.00     0.179 C 
ATOM     24  C   UNK d   1       7.864   6.312  14.824  0.00  0.00     0.065 A 
ATOM     25  C   UNK d   1       6.645   5.962  14.019  0.00  0.00     0.073 C 
ENDBRANCH   7  19
TORSDOF 2
ENDMDL
