MODEL 1
REMARK VINA RESULT:    -7.638      0.000      0.000
REMARK INTER + INTRA:         -11.148
REMARK INTER:                  -9.871
REMARK INTRA:                  -1.277
REMARK UNBOUND:                -1.277
REMARK  5 active torsions:
REMARK  status: ('A' for Active; 'I' for Inactive)
REMARK    1  A    between atoms: C_4  and  N_8 
REMARK    2  A    between atoms: C_10  and  C_14 
REMARK       I    between atoms: C_14  and  N_16 
REMARK    3  A    between atoms: N_19  and  C_22 
REMARK    4  A    between atoms: C_22  and  C_23 
REMARK    5  A    between atoms: C_23  and  N_24 
ROOT
ATOM      1  C   UNK d   1      12.091   6.982  12.668  0.00  0.00     0.226 C 
ATOM      2  O   UNK d   1      11.291   6.986  13.636  0.00  0.00    -0.273 OA
ATOM      3  N   UNK d   1      13.282   7.739  12.684  0.00  0.00    -0.348 N 
ATOM      4  C   UNK d   1      14.233   7.757  11.581  0.00  0.00     0.156 C 
ATOM      5  C   UNK d   1      15.621   8.049  12.135  0.00  0.00     0.292 C 
ATOM      6  N   UNK d   1      15.779   7.618  13.510  0.00  0.00     0.093 N 
ATOM      7  C   UNK d   1      14.971   8.430  14.351  0.00  0.00     0.292 C 
ATOM      8  C   UNK d   1      13.560   8.539  13.883  0.00  0.00     0.156 C 
ENDROOT
BRANCH   1   9
ATOM      9  C   UNK d   1      11.765   6.171  11.511  0.00  0.00     0.105 C 
ATOM     10  C   UNK d   1      11.245   4.772  11.903  0.00  0.00     0.146 C 
ATOM     11  N   UNK d   1      10.976   4.303  10.552  0.00  0.00    -0.317 N 
ATOM     12  C   UNK d   1      10.276   5.394   9.964  0.00  0.00     0.225 C 
ATOM     13  C   UNK d   1      10.513   6.633  10.757  0.00  0.00     0.119 C 
ATOM     14  O   UNK d   1       9.567   5.323   8.934  0.00  0.00    -0.273 OA
BRANCH  11  15
ATOM     15  C   UNK d   1      11.369   3.045  10.043  0.00  0.00     0.038 A 
ATOM     16  C   UNK d   1      10.415   2.080   9.779  0.00  0.00     0.048 A 
ATOM     17  C   UNK d   1      10.739   0.821   9.285  0.00  0.00     0.013 A 
ATOM     18 Br   UNK d   1       9.359  -0.426   8.959  0.00  0.00    -0.051 Br
ATOM     19  C   UNK d   1      12.081   0.525   9.048  0.00  0.00     0.019 A 
ATOM     20  C   UNK d   1      13.066   1.455   9.296  0.00  0.00     0.004 A 
ATOM     21  C   UNK d   1      12.674   2.684   9.785  0.00  0.00     0.030 A 
ENDBRANCH  11  15
ENDBRANCH   1   9
BRANCH   6  22
ATOM     22  C   UNK d   1      15.662   6.211  13.656  0.00  0.00     0.292 C 
BRANCH  22  23
ATOM     23  C   UNK d   1      16.956   5.462  13.463  0.00  0.00     0.159 C 
BRANCH  23  24
ATOM     24  N   UNK d   1      16.909   4.469  12.428  0.00  0.00    -0.348 N 
ATOM     25  C   UNK d   1      17.901   3.712  11.957  0.00  0.00     0.209 A 
ATOM     26  N   UNK d   1      17.431   2.911  10.977  0.00  0.00    -0.255 NA
ATOM     27  C   UNK d   1      16.126   3.161  10.824  0.00  0.00     0.135 A 
ATOM     28  C   UNK d   1      15.809   4.139  11.737  0.00  0.00     0.111 A 
ENDBRANCH  23  24
ENDBRANCH  22  23
ENDBRANCH   6  22
TORSDOF 5
ENDMDL
