MODEL 1
REMARK VINA RESULT:    -8.203      0.000      0.000
REMARK INTER + INTRA:         -11.695
REMARK INTER:                 -11.080
REMARK INTRA:                  -0.616
REMARK UNBOUND:                -0.616
REMARK  6 active torsions:
REMARK  status: ('A' for Active; 'I' for Inactive)
REMARK    1  A    between atoms: C_4  and  O_8 
REMARK    2  A    between atoms: O_8  and  C_9 
REMARK    3  A    between atoms: C_9  and  C_10 
REMARK    4  A    between atoms: C_10  and  N_11 
REMARK       I    between atoms: N_11  and  C_12 
REMARK    5  A    between atoms: C_12  and  C_14 
REMARK    6  A    between atoms: C_14  and  N_15 
ROOT
ATOM      1  N   UNK d   1      10.776   4.950  11.566  0.00  0.00    -0.358 N 
ATOM      2  C   UNK d   1       9.634   5.380  10.836  0.00  0.00     0.236 C 
ATOM      3  O   UNK d   1       9.830   5.559   9.583  0.00  0.00    -0.272 OA
ATOM      4  H   UNK d   1      10.673   4.783  12.589  0.00  0.00     0.162 HD
ENDROOT
BRANCH   2   5
ATOM      5  C   UNK d   1       8.297   5.620  11.415  0.00  0.00     0.237 C 
BRANCH   5   6
ATOM      6  N   UNK d   1       8.212   6.769  12.276  0.00  0.00    -0.279 N 
ATOM      7  C   UNK d   1       7.820   6.661  13.654  0.00  0.00     0.232 C 
ATOM      8  O   UNK d   1       7.234   5.702  14.216  0.00  0.00    -0.272 OA
ATOM      9  C   UNK d   1       8.226   7.895  14.328  0.00  0.00     0.100 C 
ATOM     10  C   UNK d   1       8.909   8.781  13.267  0.00  0.00     0.100 C 
ATOM     11  C   UNK d   1       7.093   8.795  14.740  0.00  0.00     0.022 C 
ATOM     12  C   UNK d   1       8.269  10.121  13.371  0.00  0.00     0.022 C 
ATOM     13  C   UNK d   1       8.491   8.146  11.989  0.00  0.00     0.232 C 
ATOM     14  C   UNK d   1       7.857  10.129  14.858  0.00  0.00     0.018 C 
ATOM     15  C   UNK d   1       6.913  10.014  12.778  0.00  0.00    -0.025 C 
ATOM     16  C   UNK d   1       6.278   9.112  13.519  0.00  0.00    -0.025 C 
ATOM     17  O   UNK d   1       8.391   8.677  10.870  0.00  0.00    -0.272 OA
ENDBRANCH   5   6
ENDBRANCH   2   5
BRANCH   1  18
ATOM     18  C   UNK d   1      12.053   4.739  10.955  0.00  0.00     0.149 C 
BRANCH  18  19
ATOM     19  C   UNK d   1      12.669   3.418  11.442  0.00  0.00     0.195 C 
BRANCH  19  20
ATOM     20  O   UNK d   1      12.659   2.511  10.520  0.00  0.00    -0.350 OA
BRANCH  20  21
ATOM     21  C   UNK d   1      12.556   1.601   9.624  0.00  0.00     0.070 A 
ATOM     22  C   UNK d   1      11.387   0.824   9.538  0.00  0.00     0.055 A 
ATOM     23  C   UNK d   1      11.210  -0.164   8.607  0.00  0.00     0.013 A 
ATOM     24 Br   UNK d   1       9.608  -1.199   8.521  0.00  0.00    -0.051 Br
ATOM     25  C   UNK d   1      12.199  -0.435   7.701  0.00  0.00     0.019 A 
ATOM     26  C   UNK d   1      13.371   0.294   7.735  0.00  0.00     0.004 A 
ATOM     27  C   UNK d   1      13.545   1.285   8.670  0.00  0.00     0.037 A 
ENDBRANCH  20  21
ENDBRANCH  19  20
ENDBRANCH  18  19
ENDBRANCH   1  18
TORSDOF 6
ENDMDL
