/Users/jonathanwahrer/Desktop/Msc/3_Semester/Drug_Design_Praktikum/waehrer_HTS_screening/HTS_experiment/out/docking_results/vina_output/2jam/0226_docked.pdbqt
 OpenBabel03162217263D

 30 33  0  0  0  0  0  0  0  0999 V2000
   12.3530    2.3990    9.5070 N   0  0  0  0  0  0  0  0  0  0  0  0
   12.0230    1.2610    8.8740 C   0  0  0  0  0  0  0  0  0  0  0  0
   10.6810    0.9940    9.0640 C   0  0  0  0  0  0  0  0  0  0  0  0
   10.2310    2.0020    9.8200 N   0  0  0  0  0  0  0  0  0  0  0  0
   11.2210    2.8680   10.1040 C   0  0  0  0  0  0  0  0  0  0  0  0
   10.1250   -0.1020    8.5150 N   0  0  0  0  0  0  0  0  0  0  0  0
   10.8640   -0.9510    7.7800 C   0  0  0  0  0  0  0  0  0  0  0  0
   10.3860   -1.9840    7.2500 O   0  0  0  0  0  0  0  0  0  0  0  0
   12.1880   -0.7000    7.5840 N   0  0  0  0  0  0  0  0  0  0  0  0
   12.7890    0.3820    8.1120 C   0  0  0  0  0  0  0  0  0  0  0  0
   14.0310    0.5810    7.9080 O   0  0  0  0  0  0  0  0  0  0  0  0
    8.7220   -0.4100    8.6960 C   0  0  0  0  0  1  0  0  0  0  0  0
   12.7270   -1.3850    7.0050 H   0  0  0  0  0  0  0  0  0  0  0  0
   13.6430    3.0270    9.5510 C   0  0  0  0  0  2  0  0  0  0  0  0
   14.5070    2.5190   10.6630 C   0  0  0  0  0  0  0  0  0  0  0  0
   14.3840    1.3560   11.0800 O   0  0  0  0  0  0  0  0  0  0  0  0
   15.5130    3.3790   11.2800 C   0  0  0  0  0  0  0  0  0  0  0  0
   16.8530    3.2210   11.0230 C   0  0  0  0  0  3  0  0  0  0  0  0
   17.8050    4.0370   11.6120 C   0  0  0  0  0  3  0  0  0  0  0  0
   17.4490    5.0500   12.4910 C   0  0  0  0  0  0  0  0  0  0  0  0
   18.7880    6.1480   13.2780 Br  0  0  0  0  0  0  0  0  0  0  0  0
   16.1070    5.2100   12.7510 C   0  0  0  0  0  3  0  0  0  0  0  0
   15.1720    4.3930   12.1580 C   0  0  0  0  0  3  0  0  0  0  0  0
   11.1680    4.0610   10.8640 N   0  0  0  0  0  0  0  0  0  0  0  0
   10.9510    5.3010   10.1930 C   0  0  0  0  0  2  0  0  0  0  0  0
   10.5520    6.4620   11.0260 C   0  0  0  0  0  2  0  0  0  0  0  0
   10.9450    6.4060   12.4020 N   0  0  0  0  0  0  0  0  0  0  0  0
   10.5140    5.1310   12.9410 C   0  0  0  0  0  2  0  0  0  0  0  0
   12.3420    6.6580   12.6140 C   0  0  0  0  0  1  0  0  0  0  0  0
   11.3260    4.0130   12.2850 C   0  0  0  0  0  2  0  0  0  0  0  0
  1 14  1  0  0  0  0
  1  5  1  0  0  0  0
  2  3  2  0  0  0  0
  2  1  1  0  0  0  0
  3  4  1  0  0  0  0
  4  5  2  0  0  0  0
  5 24  1  0  0  0  0
  6 12  1  0  0  0  0
  6  3  1  0  0  0  0
  7  6  1  0  0  0  0
  8  7  2  0  0  0  0
  9  7  1  0  0  0  0
  9 10  1  0  0  0  0
 10  2  1  0  0  0  0
 11 10  2  0  0  0  0
 13  9  1  0  0  0  0
 14 15  1  0  0  0  0
 15 16  2  0  0  0  0
 15 17  1  0  0  0  0
 17 23  1  0  0  0  0
 18 17  2  0  0  0  0
 18 19  1  0  0  0  0
 19 20  2  0  0  0  0
 20 22  1  0  0  0  0
 20 21  1  0  0  0  0
 23 22  2  0  0  0  0
 24 30  1  0  0  0  0
 25 24  1  0  0  0  0
 25 26  1  0  0  0  0
 26 27  1  0  0  0  0
 27 29  1  0  0  0  0
 27 28  1  0  0  0  0
 30 28  1  0  0  0  0
M  END
>  <Pose>
1

>  <Score>
-8.727

$$$$
