/Users/jonathanwahrer/Desktop/Msc/3_Semester/Drug_Design_Praktikum/waehrer_HTS_screening/HTS_experiment/out/docking_results/vina_output/2jam/0231_docked.pdbqt
 OpenBabel03162217273D

 34 37  0  0  1  0  0  0  0  0999 V2000
   10.7610    6.2150   12.4750 C   0  0  2  0  0  3  0  0  0  0  0  0
    9.4680    6.1870   13.2530 C   0  0  1  0  0  3  0  0  0  0  0  0
    9.8220    6.9060   14.4560 N   0  0  0  0  0  0  0  0  0  0  0  0
   10.7580    7.9050   14.0640 C   0  0  0  0  0  0  0  0  0  0  0  0
   11.2030    8.8370   14.8030 O   0  0  0  0  0  0  0  0  0  0  0  0
   11.1190    7.6700   12.6520 C   0  0  0  0  0  0  0  0  0  0  0  0
   11.5940    8.4880   11.8480 O   0  0  0  0  0  0  0  0  0  0  0  0
   10.6490    5.8430   11.0760 C   0  0  0  0  0  0  0  0  0  0  0  0
   10.2170    6.6480   10.2260 O   0  0  0  0  0  0  0  0  0  0  0  0
   11.0420    4.5150   10.6430 C   0  0  0  0  0  0  0  0  0  0  0  0
   12.3670    4.2430   10.2820 C   0  0  0  0  0  3  0  0  0  0  0  0
   12.7620    2.9990    9.8650 C   0  0  0  0  0  3  0  0  0  0  0  0
   11.8380    1.9840    9.7970 C   0  0  0  0  0  0  0  0  0  0  0  0
   12.4030    0.2680    9.2160 Br  0  0  0  0  0  0  0  0  0  0  0  0
   10.5260    2.1850   10.1360 C   0  0  0  0  0  3  0  0  0  0  0  0
   10.1650    3.4530   10.5530 C   0  0  0  0  0  3  0  0  0  0  0  0
    8.3240    6.7340   12.5410 C   0  0  0  0  0  0  0  0  0  0  0  0
    8.1440    8.1150   12.3720 C   0  0  0  0  0  3  0  0  0  0  0  0
    7.0580    8.6260   11.6920 C   0  0  0  0  0  0  0  0  0  0  0  0
    6.1010    7.7910   11.1450 C   0  0  0  0  0  0  0  0  0  0  0  0
    6.2600    6.4300   11.2980 C   0  0  0  0  0  3  0  0  0  0  0  0
    4.9990    8.2800   10.4550 O   0  0  0  0  0  1  0  0  0  0  0  0
    7.3560    5.9320   11.9850 C   0  0  0  0  0  3  0  0  0  0  0  0
    6.8730    9.9870   11.5220 O   0  0  0  0  0  0  0  0  0  0  0  0
    7.3440   10.9550   12.4260 C   0  0  0  0  0  1  0  0  0  0  0  0
    9.3710    6.7190   15.8120 C   0  0  0  0  0  2  0  0  0  0  0  0
    8.2900    7.6730   16.2210 C   0  0  0  0  0  2  0  0  0  0  0  0
    7.0640    7.0820   16.5940 N   0  0  0  0  0  4  0  0  0  0  0  0
    6.1620    7.1390   15.4390 C   0  0  0  0  0  2  0  0  0  0  0  0
    5.6980    8.5260   15.1430 C   0  0  0  0  0  2  0  0  0  0  0  0
    5.9250    9.4370   16.1450 O   0  0  0  0  0  0  0  0  0  0  0  0
    5.6150    8.9110   17.3760 C   0  0  0  0  0  2  0  0  0  0  0  0
    6.3840    7.6590   17.6990 C   0  0  0  0  0  2  0  0  0  0  0  0
    7.1820    6.0480   16.7870 H   0  0  0  0  0  0  0  0  0  0  0  0
  1  8  1  6  0  0  0
  1  6  1  0  0  0  0
  1  2  1  0  0  0  0
  2 17  1  6  0  0  0
  2  3  1  0  0  0  0
  3 26  1  0  0  0  0
  4  3  1  0  0  0  0
  4  5  2  0  0  0  0
  6  4  1  0  0  0  0
  7  6  2  0  0  0  0
  9  8  2  0  0  0  0
 10  8  1  0  0  0  0
 11 10  2  0  0  0  0
 12 11  1  0  0  0  0
 13 12  2  0  0  0  0
 13 15  1  0  0  0  0
 14 13  1  0  0  0  0
 15 16  2  0  0  0  0
 16 10  1  0  0  0  0
 18 17  1  0  0  0  0
 19 18  2  0  0  0  0
 20 21  2  0  0  0  0
 20 19  1  0  0  0  0
 21 23  1  0  0  0  0
 22 20  1  0  0  0  0
 23 17  2  0  0  0  0
 24 19  1  0  0  0  0
 24 25  1  0  0  0  0
 26 27  1  0  0  0  0
 27 28  1  0  0  0  0
 28 34  1  0  0  0  0
 28 33  1  0  0  0  0
 29 28  1  0  0  0  0
 30 29  1  0  0  0  0
 30 31  1  0  0  0  0
 31 32  1  0  0  0  0
 32 33  1  0  0  0  0
M  END
>  <Pose>
1

>  <Score>
-7.634

$$$$
