MODEL 1
REMARK VINA RESULT:    -7.634      0.000      0.000
REMARK INTER + INTRA:         -11.264
REMARK INTER:                 -10.758
REMARK INTRA:                  -0.506
REMARK UNBOUND:                -0.506
REMARK  7 active torsions:
REMARK  status: ('A' for Active; 'I' for Inactive)
REMARK    1  A    between atoms: C_5  and  C_8 
REMARK    2  A    between atoms: C_8  and  C_10 
REMARK    3  A    between atoms: C_11  and  C_25 
REMARK    4  A    between atoms: N_12  and  C_17 
REMARK    5  A    between atoms: C_17  and  C_18 
REMARK    6  A    between atoms: C_18  and  N_19 
REMARK    7  A    between atoms: C_27  and  O_32 
ROOT
ATOM      1  C   UNK d   1      10.761   6.215  12.475  0.00  0.00     0.167 C 
ATOM      2  C   UNK d   1       9.468   6.187  13.253  0.00  0.00     0.140 C 
ATOM      3  N   UNK d   1       9.822   6.906  14.456  0.00  0.00    -0.334 N 
ATOM      4  C   UNK d   1      10.758   7.905  14.064  0.00  0.00     0.291 C 
ATOM      5  O   UNK d   1      11.203   8.837  14.803  0.00  0.00    -0.264 OA
ATOM      6  C   UNK d   1      11.119   7.670  12.652  0.00  0.00     0.230 C 
ATOM      7  O   UNK d   1      11.594   8.488  11.848  0.00  0.00    -0.286 OA
ENDROOT
BRANCH   1   8
ATOM      8  C   UNK d   1      10.649   5.843  11.076  0.00  0.00     0.173 C 
ATOM      9  O   UNK d   1      10.217   6.648  10.226  0.00  0.00    -0.291 OA
BRANCH   8  10
ATOM     10  C   UNK d   1      11.042   4.515  10.643  0.00  0.00     0.011 A 
ATOM     11  C   UNK d   1      12.367   4.243  10.282  0.00  0.00     0.016 A 
ATOM     12  C   UNK d   1      12.762   2.999   9.865  0.00  0.00     0.020 A 
ATOM     13  C   UNK d   1      11.838   1.984   9.797  0.00  0.00     0.011 A 
ATOM     14 Br   UNK d   1      12.403   0.268   9.216  0.00  0.00    -0.051 Br
ATOM     15  C   UNK d   1      10.526   2.185  10.136  0.00  0.00     0.020 A 
ATOM     16  C   UNK d   1      10.165   3.453  10.553  0.00  0.00     0.016 A 
ENDBRANCH   8  10
ENDBRANCH   1   8
BRANCH   2  17
ATOM     17  C   UNK d   1       8.324   6.734  12.541  0.00  0.00    -0.031 A 
ATOM     18  C   UNK d   1       8.144   8.115  12.372  0.00  0.00     0.049 A 
ATOM     19  C   UNK d   1       7.058   8.626  11.692  0.00  0.00     0.105 A 
ATOM     20  C   UNK d   1       6.101   7.791  11.145  0.00  0.00     0.140 A 
ATOM     21  C   UNK d   1       6.260   6.430  11.298  0.00  0.00     0.043 A 
ATOM     22  O   UNK d   1       4.999   8.280  10.455  0.00  0.00    -0.189 OA
ATOM     23  C   UNK d   1       7.356   5.932  11.985  0.00  0.00     0.012 A 
BRANCH  19  24
ATOM     24  O   UNK d   1       6.873   9.987  11.522  0.00  0.00    -0.353 OA
ATOM     25  C   UNK d   1       7.344  10.955  12.426  0.00  0.00     0.210 C 
ENDBRANCH  19  24
ENDBRANCH   2  17
BRANCH   3  26
ATOM     26  C   UNK d   1       9.371   6.719  15.812  0.00  0.00     0.154 C 
BRANCH  26  27
ATOM     27  C   UNK d   1       8.290   7.673  16.221  0.00  0.00     0.255 C 
BRANCH  27  28
ATOM     28  N   UNK d   1       7.064   7.082  16.594  0.00  0.00    -0.066 N 
ATOM     29  C   UNK d   1       6.162   7.139  15.439  0.00  0.00     0.261 C 
ATOM     30  C   UNK d   1       5.698   8.526  15.143  0.00  0.00     0.195 C 
ATOM     31  O   UNK d   1       5.925   9.437  16.145  0.00  0.00    -0.388 OA
ATOM     32  C   UNK d   1       5.615   8.911  17.376  0.00  0.00     0.195 C 
ATOM     33  C   UNK d   1       6.384   7.659  17.699  0.00  0.00     0.261 C 
ATOM     34  H   UNK d   1       7.182   6.048  16.787  0.00  0.00     0.280 HD
ENDBRANCH  27  28
ENDBRANCH  26  27
ENDBRANCH   3  26
TORSDOF 7
ENDMDL
