MODEL 1
REMARK VINA RESULT:    -8.824      0.000      0.000
REMARK INTER + INTRA:         -11.625
REMARK INTER:                 -10.888
REMARK INTRA:                  -0.737
REMARK UNBOUND:                -0.737
REMARK  4 active torsions:
REMARK  status: ('A' for Active; 'I' for Inactive)
REMARK    1  A    between atoms: C_5  and  C_8 
REMARK       I    between atoms: C_8  and  N_10 
REMARK    2  A    between atoms: N_10  and  C_11 
REMARK    3  A    between atoms: C_19  and  C_22 
REMARK    4  A    between atoms: C_22  and  C_23 
ROOT
ATOM      1  C   UNK d   1      12.444   3.765  11.119  0.00  0.00     0.105 C 
ATOM      2  C   UNK d   1      12.018   4.221  12.493  0.00  0.00     0.152 C 
ATOM      3  N   UNK d   1      11.203   5.390  12.243  0.00  0.00    -0.335 N 
ATOM      4  C   UNK d   1      11.468   5.906  10.911  0.00  0.00     0.181 C 
ATOM      5  C   UNK d   1      12.403   4.973  10.225  0.00  0.00     0.061 C 
ATOM      6  C   UNK d   1      10.150   6.018  10.246  0.00  0.00     0.241 C 
ATOM      7  O   UNK d   1      10.002   5.551   9.095  0.00  0.00    -0.271 OA
ATOM      8  N   UNK d   1       9.100   6.657  10.949  0.00  0.00    -0.346 N 
ATOM      9  C   UNK d   1       9.100   6.861  12.379  0.00  0.00     0.181 C 
ATOM     10  C   UNK d   1      10.236   6.115  12.992  0.00  0.00     0.243 C 
ATOM     11  O   UNK d   1      10.373   6.107  14.268  0.00  0.00    -0.271 OA
ATOM     12  H   UNK d   1       8.287   6.989  10.366  0.00  0.00     0.163 HD
ENDROOT
BRANCH   1  13
ATOM     13  N   UNK d   1      11.556   2.773  10.569  0.00  0.00    -0.351 N 
ATOM     14  C   UNK d   1      12.037   1.768   9.725  0.00  0.00     0.252 C 
ATOM     15  O   UNK d   1      13.276   1.706   9.422  0.00  0.00    -0.268 OA
ATOM     16  H   UNK d   1      10.553   2.821  10.812  0.00  0.00     0.163 HD
BRANCH  14  17
ATOM     17  C   UNK d   1      11.182   0.729   9.132  0.00  0.00     0.032 A 
ATOM     18  C   UNK d   1      11.666  -0.164   8.199  0.00  0.00     0.018 A 
ATOM     19  C   UNK d   1      10.864  -1.140   7.643  0.00  0.00     0.020 A 
ATOM     20  C   UNK d   1       9.534  -1.273   7.989  0.00  0.00     0.011 A 
ATOM     21 Br   UNK d   1       8.393  -2.601   7.250  0.00  0.00    -0.051 Br
ATOM     22  C   UNK d   1       9.049  -0.372   8.929  0.00  0.00     0.020 A 
ATOM     23  C   UNK d   1       9.857   0.596   9.477  0.00  0.00     0.018 A 
ENDBRANCH  14  17
ENDBRANCH   1  13
BRANCH   9  24
ATOM     24  C   UNK d   1       9.124   8.331  12.722  0.00  0.00     0.073 C 
BRANCH  24  25
ATOM     25  C   UNK d   1       7.755   8.845  13.010  0.00  0.00    -0.056 A 
ATOM     26  C   UNK d   1       7.464  10.202  12.870  0.00  0.00     0.007 A 
ATOM     27  C   UNK d   1       6.182  10.621  13.149  0.00  0.00     0.001 A 
ATOM     28  C   UNK d   1       5.179   9.760  13.559  0.00  0.00     0.000 A 
ATOM     29  C   UNK d   1       5.514   8.432  13.683  0.00  0.00     0.001 A 
ATOM     30  C   UNK d   1       6.778   7.954  13.418  0.00  0.00     0.007 A 
ENDBRANCH  24  25
ENDBRANCH   9  24
TORSDOF 4
ENDMDL
