MODEL 1
REMARK VINA RESULT:    -7.917      0.000      0.000
REMARK INTER + INTRA:          -9.268
REMARK INTER:                  -8.843
REMARK INTRA:                  -0.426
REMARK UNBOUND:                -0.426
REMARK  2 active torsions:
REMARK  status: ('A' for Active; 'I' for Inactive)
REMARK    1  A    between atoms: C_5  and  C_8 
REMARK       I    between atoms: C_8  and  N_10 
REMARK    2  A    between atoms: N_10  and  C_11 
ROOT
ATOM      1  C   UNK d   1      10.860   7.096  13.954  0.00  0.00     0.105 C 
ATOM      2  C   UNK d   1       9.865   7.198  15.087  0.00  0.00     0.152 C 
ATOM      3  N   UNK d   1       8.692   7.758  14.441  0.00  0.00    -0.335 N 
ATOM      4  C   UNK d   1       9.108   8.520  13.280  0.00  0.00     0.181 C 
ATOM      5  C   UNK d   1      10.564   8.278  13.064  0.00  0.00     0.061 C 
ATOM      6  C   UNK d   1       8.266   8.059  12.147  0.00  0.00     0.243 C 
ATOM      7  O   UNK d   1       8.720   7.785  11.012  0.00  0.00    -0.271 OA
ATOM      8  N   UNK d   1       6.870   7.912  12.329  0.00  0.00    -0.337 N 
ATOM      9  C   UNK d   1       6.279   7.637  13.622  0.00  0.00     0.179 C 
ATOM     10  C   UNK d   1       5.223   8.694  13.681  0.00  0.00     0.037 C 
ATOM     11  C   UNK d   1       4.683   8.666  12.246  0.00  0.00     0.022 C 
ATOM     12  C   UNK d   1       5.771   7.989  11.407  0.00  0.00     0.127 C 
ATOM     13  C   UNK d   1       7.294   7.716  14.703  0.00  0.00     0.243 C 
ATOM     14  O   UNK d   1       6.919   7.748  15.924  0.00  0.00    -0.271 OA
ENDROOT
BRANCH   1  15
ATOM     15  N   UNK d   1      10.713   5.908  13.179  0.00  0.00    -0.351 N 
ATOM     16  C   UNK d   1      11.827   5.392  12.467  0.00  0.00     0.252 C 
ATOM     17  O   UNK d   1      12.926   5.982  12.526  0.00  0.00    -0.268 OA
ATOM     18  H   UNK d   1       9.771   5.444  13.156  0.00  0.00     0.163 HD
BRANCH  16  19
ATOM     19  C   UNK d   1      11.715   4.166  11.654  0.00  0.00     0.032 A 
ATOM     20  C   UNK d   1      12.720   3.226  11.715  0.00  0.00     0.018 A 
ATOM     21  C   UNK d   1      12.646   2.072  10.968  0.00  0.00     0.020 A 
ATOM     22  C   UNK d   1      11.574   1.803  10.134  0.00  0.00     0.011 A 
ATOM     23 Br   UNK d   1      11.541   0.189   9.135  0.00  0.00    -0.051 Br
ATOM     24  C   UNK d   1      10.565   2.745  10.073  0.00  0.00     0.020 A 
ATOM     25  C   UNK d   1      10.657   3.908  10.835  0.00  0.00     0.018 A 
ENDBRANCH  16  19
ENDBRANCH   1  15
TORSDOF 2
ENDMDL
