MODEL 1
REMARK VINA RESULT:    -7.866      0.000      0.000
REMARK INTER + INTRA:          -9.251
REMARK INTER:                  -8.786
REMARK INTRA:                  -0.465
REMARK UNBOUND:                -0.465
REMARK  2 active torsions:
REMARK  status: ('A' for Active; 'I' for Inactive)
REMARK    1  A    between atoms: C_5  and  C_8 
REMARK       I    between atoms: C_8  and  N_10 
REMARK    2  A    between atoms: N_10  and  N_11 
ROOT
ATOM      1  N   UNK d   1      10.332   5.499  11.258  0.00  0.00    -0.187 N 
ATOM      2  C   UNK d   1      11.623   5.396  11.849  0.00  0.00     0.251 C 
ATOM      3  O   UNK d   1      11.853   5.831  13.028  0.00  0.00    -0.271 OA
ATOM      4  C   UNK d   1      12.575   4.742  10.914  0.00  0.00     0.101 C 
ATOM      5  C   UNK d   1      11.662   4.324   9.777  0.00  0.00     0.101 C 
ATOM      6  C   UNK d   1      11.437   2.867  10.118  0.00  0.00     0.022 C 
ATOM      7  C   UNK d   1      12.919   2.479  10.305  0.00  0.00     0.018 C 
ATOM      8  C   UNK d   1      13.101   3.454  11.483  0.00  0.00     0.022 C 
ATOM      9  C   UNK d   1      12.004   2.913  12.362  0.00  0.00    -0.025 C 
ATOM     10  C   UNK d   1      10.991   2.707  11.530  0.00  0.00    -0.025 C 
ATOM     11  C   UNK d   1      10.431   5.125   9.898  0.00  0.00     0.251 C 
ATOM     12  O   UNK d   1       9.647   5.404   8.965  0.00  0.00    -0.271 OA
ENDROOT
BRANCH   1  13
ATOM     13  N   UNK d   1       9.106   5.897  11.852  0.00  0.00    -0.254 N 
ATOM     14  C   UNK d   1       8.644   7.227  11.763  0.00  0.00     0.270 C 
ATOM     15  O   UNK d   1       9.303   8.126  11.146  0.00  0.00    -0.266 OA
ATOM     16  H   UNK d   1       8.545   5.185  12.353  0.00  0.00     0.191 HD
BRANCH  14  17
ATOM     17  C   UNK d   1       7.395   7.614  12.375  0.00  0.00     0.033 A 
ATOM     18  C   UNK d   1       6.611   8.581  11.754  0.00  0.00     0.018 A 
ATOM     19  C   UNK d   1       5.416   8.991  12.308  0.00  0.00     0.020 A 
ATOM     20  C   UNK d   1       4.976   8.453  13.483  0.00  0.00     0.011 A 
ATOM     21 Br   UNK d   1       3.318   9.040  14.233  0.00  0.00    -0.051 Br
ATOM     22  C   UNK d   1       5.750   7.482  14.118  0.00  0.00     0.020 A 
ATOM     23  C   UNK d   1       6.936   7.083  13.559  0.00  0.00     0.018 A 
ENDBRANCH  14  17
ENDBRANCH   1  13
TORSDOF 2
ENDMDL
