/Users/jonathanwahrer/Desktop/Msc/3_Semester/Drug_Design_Praktikum/waehrer_HTS_screening/HTS_experiment/out/docking_results/vina_output/2jam/0247_docked.pdbqt
 OpenBabel03162217283D

 23 26  0  0  1  0  0  0  0  0999 V2000
   10.3320    5.4990   11.2580 N   0  0  0  0  0  0  0  0  0  0  0  0
   11.6230    5.3960   11.8490 C   0  0  0  0  0  0  0  0  0  0  0  0
   11.8530    5.8310   13.0280 O   0  0  0  0  0  0  0  0  0  0  0  0
   12.5750    4.7420   10.9140 C   0  0  2  0  0  3  0  0  0  0  0  0
   11.6620    4.3240    9.7770 C   0  0  1  0  0  3  0  0  0  0  0  0
   11.4370    2.8670   10.1180 C   0  0  1  0  0  3  0  0  0  0  0  0
   12.9190    2.4790   10.3050 C   0  0  0  0  0  2  0  0  0  0  0  0
   13.1010    3.4540   11.4830 C   0  0  2  0  0  3  0  0  0  0  0  0
   12.0040    2.9130   12.3620 C   0  0  0  0  0  2  0  0  0  0  0  0
   10.9910    2.7070   11.5300 C   0  0  0  0  0  2  0  0  0  0  0  0
   10.4310    5.1250    9.8980 C   0  0  0  0  0  0  0  0  0  0  0  0
    9.6470    5.4040    8.9650 O   0  0  0  0  0  0  0  0  0  0  0  0
    9.1060    5.8970   11.8520 N   0  0  0  0  0  0  0  0  0  0  0  0
    8.6440    7.2270   11.7630 C   0  0  0  0  0  0  0  0  0  0  0  0
    9.3030    8.1260   11.1460 O   0  0  0  0  0  0  0  0  0  0  0  0
    8.5450    5.1850   12.3530 H   0  0  0  0  0  0  0  0  0  0  0  0
    7.3950    7.6140   12.3750 C   0  0  0  0  0  0  0  0  0  0  0  0
    6.6110    8.5810   11.7540 C   0  0  0  0  0  3  0  0  0  0  0  0
    5.4160    8.9910   12.3080 C   0  0  0  0  0  3  0  0  0  0  0  0
    4.9760    8.4530   13.4830 C   0  0  0  0  0  0  0  0  0  0  0  0
    3.3180    9.0400   14.2330 Br  0  0  0  0  0  0  0  0  0  0  0  0
    5.7500    7.4820   14.1180 C   0  0  0  0  0  3  0  0  0  0  0  0
    6.9360    7.0830   13.5590 C   0  0  0  0  0  3  0  0  0  0  0  0
  1  2  1  0  0  0  0
  1 13  1  0  0  0  0
  2  3  2  0  0  0  0
  4  8  1  0  0  0  0
  4  2  1  1  0  0  0
  5 11  1  1  0  0  0
  5  6  1  0  0  0  0
  5  4  1  0  0  0  0
  6  7  1  1  0  0  0
  6 10  1  0  0  0  0
  8  7  1  6  0  0  0
  8  9  1  0  0  0  0
 10  9  1  0  0  0  0
 11  1  1  0  0  0  0
 12 11  2  0  0  0  0
 13 16  1  0  0  0  0
 14 13  1  0  0  0  0
 14 17  1  0  0  0  0
 15 14  2  0  0  0  0
 17 23  1  0  0  0  0
 18 19  1  0  0  0  0
 18 17  2  0  0  0  0
 19 20  2  0  0  0  0
 20 22  1  0  0  0  0
 20 21  1  0  0  0  0
 23 22  2  0  0  0  0
M  END
>  <Pose>
1

>  <Score>
-7.866

$$$$
