MODEL 1
REMARK VINA RESULT:    -7.490      0.000      0.000
REMARK INTER + INTRA:         -11.683
REMARK INTER:                 -10.554
REMARK INTRA:                  -1.128
REMARK UNBOUND:                -1.128
REMARK  7 active torsions:
REMARK  status: ('A' for Active; 'I' for Inactive)
REMARK    1  A    between atoms: C_5  and  C_8 
REMARK    2  A    between atoms: C_8  and  C_9 
REMARK    3  A    between atoms: C_10  and  C_24 
REMARK    4  A    between atoms: N_11  and  C_16 
REMARK    5  A    between atoms: C_16  and  C_17 
REMARK    6  A    between atoms: C_17  and  C_18 
REMARK    7  A    between atoms: C_18  and  N_19 
ROOT
ATOM      1  C   UNK d   1      10.821   5.217  11.226  0.00  0.00     0.064 C 
ATOM      2  C   UNK d   1      11.574   5.416  12.506  0.00  0.00     0.180 C 
ATOM      3  N   UNK d   1      11.007   6.679  12.964  0.00  0.00    -0.331 N 
ATOM      4  C   UNK d   1       9.603   6.573  12.651  0.00  0.00     0.295 C 
ATOM      5  O   UNK d   1       8.703   7.186  13.247  0.00  0.00    -0.264 OA
ATOM      6  C   UNK d   1       9.460   5.631  11.530  0.00  0.00     0.251 C 
ATOM      7  O   UNK d   1       8.400   5.260  10.961  0.00  0.00    -0.282 OA
ENDROOT
BRANCH   1   8
ATOM      8  C   UNK d   1      11.259   4.744  10.088  0.00  0.00     0.130 C 
ATOM      9  O   UNK d   1      11.664   5.652   9.090  0.00  0.00    -0.190 OA
BRANCH   8  10
ATOM     10  C   UNK d   1      11.321   3.309   9.872  0.00  0.00     0.001 A 
ATOM     11  C   UNK d   1      12.554   2.704   9.596  0.00  0.00     0.015 A 
ATOM     12  C   UNK d   1      12.640   1.350   9.357  0.00  0.00     0.020 A 
ATOM     13  C   UNK d   1      11.535   0.526   9.376  0.00  0.00     0.011 A 
ATOM     14 Br   UNK d   1      11.627  -1.349   9.050  0.00  0.00    -0.051 Br
ATOM     15  C   UNK d   1      10.311   1.101   9.646  0.00  0.00     0.020 A 
ATOM     16  C   UNK d   1      10.226   2.471   9.887  0.00  0.00     0.015 A 
ENDBRANCH   8  10
ENDBRANCH   1   8
BRANCH   2  17
ATOM     17  C   UNK d   1      13.034   5.494  12.251  0.00  0.00     0.061 A 
ATOM     18  N   UNK d   1      13.525   6.644  11.762  0.00  0.00    -0.263 NA
ATOM     19  C   UNK d   1      14.821   6.835  11.505  0.00  0.00     0.117 A 
ATOM     20  C   UNK d   1      15.690   5.799  11.754  0.00  0.00     0.019 A 
ATOM     21  C   UNK d   1      15.231   4.604  12.255  0.00  0.00     0.003 A 
ATOM     22  C   UNK d   1      13.890   4.459  12.503  0.00  0.00     0.029 A 
ENDBRANCH   2  17
BRANCH   3  23
ATOM     23  C   UNK d   1      11.701   7.764  13.593  0.00  0.00     0.129 C 
BRANCH  23  24
ATOM     24  C   UNK d   1      11.412   9.096  12.916  0.00  0.00     0.040 C 
BRANCH  24  25
ATOM     25  C   UNK d   1      11.157  10.127  14.015  0.00  0.00     0.131 C 
BRANCH  25  26
ATOM     26  N   UNK d   1       9.749  10.214  14.350  0.00  0.00    -0.352 N 
ATOM     27  C   UNK d   1       8.727  10.549  13.527  0.00  0.00     0.182 A 
ATOM     28  N   UNK d   1       7.578  10.511  14.223  0.00  0.00    -0.361 N 
ATOM     29  C   UNK d   1       7.832  10.156  15.491  0.00  0.00     0.106 A 
ATOM     30  H   UNK d   1       6.611  10.725  13.849  0.00  0.00     0.166 HD
ATOM     31  C   UNK d   1       9.199   9.974  15.550  0.00  0.00     0.108 A 
ENDBRANCH  25  26
ENDBRANCH  24  25
ENDBRANCH  23  24
ENDBRANCH   3  23
TORSDOF 7
ENDMDL
