MODEL 1
REMARK VINA RESULT:    -8.931      0.000      0.000
REMARK INTER + INTRA:         -12.317
REMARK INTER:                 -12.064
REMARK INTRA:                  -0.253
REMARK UNBOUND:                -0.253
REMARK  6 active torsions:
REMARK  status: ('A' for Active; 'I' for Inactive)
REMARK    1  A    between atoms: C_5  and  C_8 
REMARK    2  A    between atoms: C_10  and  C_24 
REMARK    3  A    between atoms: N_11  and  C_16 
REMARK    4  A    between atoms: C_16  and  C_17 
REMARK    5  A    between atoms: C_17  and  N_18 
REMARK    6  A    between atoms: C_26  and  N_30 
ROOT
ATOM      1  C   UNK d   1      15.042   4.546  11.911  0.00  0.00     0.130 C 
ATOM      2  C   UNK d   1      14.967   3.437  11.225  0.00  0.00     0.062 C 
ATOM      3  C   UNK d   1      13.756   2.559  11.043  0.00  0.00     0.161 C 
ATOM      4  N   UNK d   1      13.935   2.019   9.739  0.00  0.00    -0.331 N 
ATOM      5  C   UNK d   1      15.362   1.941   9.503  0.00  0.00     0.295 C 
ATOM      6  O   UNK d   1      15.957   1.236   8.653  0.00  0.00    -0.264 OA
ATOM      7  C   UNK d   1      16.025   2.840  10.442  0.00  0.00     0.250 C 
ATOM      8  O   UNK d   1      17.286   3.029  10.516  0.00  0.00    -0.282 OA
ATOM      9  O   UNK d   1      13.876   5.006  12.562  0.00  0.00    -0.190 OA
ENDROOT
BRANCH   1  10
ATOM     10  C   UNK d   1      16.287   5.290  12.005  0.00  0.00     0.001 A 
ATOM     11  C   UNK d   1      16.448   6.318  11.077  0.00  0.00     0.015 A 
ATOM     12  C   UNK d   1      17.559   7.113  11.100  0.00  0.00     0.020 A 
ATOM     13  C   UNK d   1      18.520   6.883  12.058  0.00  0.00     0.011 A 
ATOM     14 Br   UNK d   1      20.070   8.022  12.061  0.00  0.00    -0.051 Br
ATOM     15  C   UNK d   1      18.366   5.869  12.979  0.00  0.00     0.020 A 
ATOM     16  C   UNK d   1      17.240   5.074  12.945  0.00  0.00     0.015 A 
ENDBRANCH   1  10
BRANCH   3  17
ATOM     17  C   UNK d   1      12.524   3.285  11.320  0.00  0.00    -0.028 A 
ATOM     18  C   UNK d   1      11.999   4.296  10.561  0.00  0.00     0.045 A 
ATOM     19  C   UNK d   1      10.825   4.925  10.886  0.00  0.00     0.103 A 
ATOM     20  C   UNK d   1      10.143   4.540  12.009  0.00  0.00     0.036 A 
ATOM     21  C   UNK d   1      10.627   3.519  12.821  0.00  0.00     0.003 A 
ATOM     22  C   UNK d   1      11.804   2.911  12.466  0.00  0.00     0.010 A 
BRANCH  19  23
ATOM     23  N   UNK d   1      10.342   5.958  10.058  0.00  0.00    -0.116 N 
ATOM     24  O   UNK d   1      10.249   5.830   8.810  0.00  0.00    -0.532 OA
ATOM     25  O   UNK d   1       9.962   7.144  10.643  0.00  0.00    -0.532 OA
ENDBRANCH  19  23
ENDBRANCH   3  17
BRANCH   4  26
ATOM     26  C   UNK d   1      13.020   1.532   8.724  0.00  0.00     0.155 C 
BRANCH  26  27
ATOM     27  C   UNK d   1      12.929   0.045   8.599  0.00  0.00     0.255 C 
BRANCH  27  28
ATOM     28  N   UNK d   1      11.572  -0.453   8.756  0.00  0.00    -0.066 N 
ATOM     29  C   UNK d   1      11.090  -1.050   7.506  0.00  0.00     0.261 C 
ATOM     30  C   UNK d   1       9.731  -1.667   7.862  0.00  0.00     0.195 C 
ATOM     31  O   UNK d   1       8.836  -0.730   8.317  0.00  0.00    -0.388 OA
ATOM     32  C   UNK d   1       9.312   0.053   9.357  0.00  0.00     0.195 C 
ATOM     33  C   UNK d   1      10.672   0.632   9.056  0.00  0.00     0.261 C 
ATOM     34  H   UNK d   1      11.468  -1.180   9.468  0.00  0.00     0.280 HD
ENDBRANCH  27  28
ENDBRANCH  26  27
ENDBRANCH   4  26
TORSDOF 6
ENDMDL
