MODEL 1
REMARK VINA RESULT:    -8.184      0.000      0.000
REMARK INTER + INTRA:         -12.639
REMARK INTER:                 -11.534
REMARK INTRA:                  -1.106
REMARK UNBOUND:                -1.106
REMARK  7 active torsions:
REMARK  status: ('A' for Active; 'I' for Inactive)
REMARK    1  A    between atoms: C_5  and  C_8 
REMARK    2  A    between atoms: C_10  and  C_24 
REMARK    3  A    between atoms: N_11  and  C_16 
REMARK    4  A    between atoms: C_16  and  C_17 
REMARK    5  A    between atoms: C_17  and  N_18 
REMARK    6  A    between atoms: C_27  and  C_30 
REMARK    7  A    between atoms: C_30  and  O_32 
ROOT
ATOM      1  C   UNK d   1      12.813   4.119  11.691  0.00  0.00     0.130 C 
ATOM      2  C   UNK d   1      12.074   5.206  11.701  0.00  0.00     0.062 A 
ATOM      3  C   UNK d   1      12.189   6.344  12.682  0.00  0.00     0.161 A 
ATOM      4  N   UNK d   1      11.141   7.250  12.360  0.00  0.00    -0.331 N 
ATOM      5  C   UNK d   1      10.451   6.842  11.160  0.00  0.00     0.295 A 
ATOM      6  O   UNK d   1       9.538   7.422  10.557  0.00  0.00    -0.264 OA
ATOM      7  C   UNK d   1      11.045   5.551  10.746  0.00  0.00     0.250 A 
ATOM      8  O   UNK d   1      10.693   4.883   9.721  0.00  0.00    -0.282 OA
ATOM      9  O   UNK d   1      13.801   4.042  12.700  0.00  0.00    -0.190 OA
ENDROOT
BRANCH   3  10
ATOM     10  C   UNK d   1      13.533   6.939  12.407  0.00  0.00    -0.030 A 
ATOM     11  C   UNK d   1      14.375   7.137  13.456  0.00  0.00     0.011 A 
ATOM     12  C   UNK d   1      15.625   7.687  13.261  0.00  0.00     0.018 A 
ATOM     13  C   UNK d   1      16.027   8.038  12.001  0.00  0.00     0.039 A 
ATOM     14  C   UNK d   1      15.177   7.836  10.944  0.00  0.00     0.018 A 
ATOM     15  C   UNK d   1      13.921   7.284  11.134  0.00  0.00     0.011 A 
BRANCH  13  16
ATOM     16  C   UNK d   1      17.351   8.626  11.781  0.00  0.00     0.292 C 
ATOM     17  O   UNK d   1      17.583   9.794  12.185  0.00  0.00    -0.259 OA
BRANCH  16  18
ATOM     18  O   UNK d   1      18.367   7.964  11.148  0.00  0.00    -0.323 OA
ATOM     19  C   UNK d   1      18.724   6.634  11.451  0.00  0.00     0.213 C 
ENDBRANCH  16  18
ENDBRANCH  13  16
ENDBRANCH   3  10
BRANCH   4  20
ATOM     20  C   UNK d   1      10.752   8.441  13.066  0.00  0.00     0.155 C 
BRANCH  20  21
ATOM     21  C   UNK d   1       9.479   8.340  13.833  0.00  0.00     0.255 C 
BRANCH  21  22
ATOM     22  N   UNK d   1       8.355   9.012  13.252  0.00  0.00    -0.066 N 
ATOM     23  C   UNK d   1       8.463  10.457  13.262  0.00  0.00     0.261 C 
ATOM     24  C   UNK d   1       7.306  10.996  12.447  0.00  0.00     0.195 C 
ATOM     25  O   UNK d   1       6.140  10.698  13.192  0.00  0.00    -0.388 OA
ATOM     26  C   UNK d   1       6.000   9.309  13.136  0.00  0.00     0.195 C 
ATOM     27  C   UNK d   1       7.109   8.701  13.979  0.00  0.00     0.261 C 
ATOM     28  H   UNK d   1       8.149   8.666  12.277  0.00  0.00     0.280 HD
ENDBRANCH  21  22
ENDBRANCH  20  21
ENDBRANCH   4  20
BRANCH   1  29
ATOM     29  C   UNK d   1      12.659   3.043  10.723  0.00  0.00     0.001 A 
ATOM     30  C   UNK d   1      13.553   2.925   9.651  0.00  0.00     0.015 A 
ATOM     31  C   UNK d   1      13.478   1.908   8.723  0.00  0.00     0.020 A 
ATOM     32  C   UNK d   1      12.497   0.944   8.817  0.00  0.00     0.011 A 
ATOM     33 Br   UNK d   1      12.412  -0.454   7.515  0.00  0.00    -0.051 Br
ATOM     34  C   UNK d   1      11.607   1.037   9.861  0.00  0.00     0.020 A 
ATOM     35  C   UNK d   1      11.688   2.073  10.801  0.00  0.00     0.015 A 
ENDBRANCH   1  29
TORSDOF 7
ENDMDL
