/Users/jonathanwahrer/Desktop/Msc/3_Semester/Drug_Design_Praktikum/waehrer_HTS_screening/HTS_experiment/out/docking_results/vina_output/2jam/0274_docked.pdbqt
 OpenBabel03162217293D

 31 34  0  0  1  0  0  0  0  0999 V2000
    9.7560    6.6840   13.6570 C   0  0  0  0  0  0  0  0  0  0  0  0
   10.2010    6.1950   12.5150 C   0  0  0  0  0  0  0  0  0  0  0  0
   11.3430    5.2740   12.2480 C   0  0  1  0  0  3  0  0  0  0  0  0
   10.8660    4.4870   11.0990 N   0  0  0  0  0  0  0  0  0  0  0  0
   10.1030    5.3950   10.3290 C   0  0  0  0  0  0  0  0  0  0  0  0
    9.8560    5.2660    9.1230 O   0  0  0  0  0  0  0  0  0  0  0  0
    9.6660    6.4890   11.1880 C   0  0  0  0  0  0  0  0  0  0  0  0
    8.9780    7.5080   10.9270 O   0  0  0  0  0  0  0  0  0  0  0  0
   10.4370    6.3090   14.8310 O   0  0  0  0  0  1  0  0  0  0  0  0
    8.6190    7.5780   13.7910 C   0  0  0  0  0  0  0  0  0  0  0  0
    8.7800    8.9440   13.8510 C   0  0  0  0  0  3  0  0  0  0  0  0
    7.7010    9.8000   14.0080 C   0  0  0  0  0  3  0  0  0  0  0  0
    6.4190    9.3090   14.1090 C   0  0  0  0  0  0  0  0  0  0  0  0
    4.9190   10.4840   14.3250 Br  0  0  0  0  0  0  0  0  0  0  0  0
    6.2430    7.9470   14.0520 C   0  0  0  0  0  3  0  0  0  0  0  0
    7.3360    7.0900   13.8940 C   0  0  0  0  0  3  0  0  0  0  0  0
   12.6140    5.9530   11.9880 C   0  0  0  0  0  0  0  0  0  0  0  0
   13.8310    5.2720   12.1130 C   0  0  0  0  0  3  0  0  0  0  0  0
   15.0440    5.8440   11.8860 C   0  0  0  0  0  3  0  0  0  0  0  0
   15.1190    7.1720   11.5090 C   0  0  0  0  0  3  0  0  0  0  0  0
   13.9480    7.8630   11.3780 C   0  0  0  0  0  3  0  0  0  0  0  0
   12.7020    7.2740   11.6130 C   0  0  0  0  0  3  0  0  0  0  0  0
   11.1880    3.1170   10.9240 C   0  0  0  0  0  2  0  0  0  0  0  0
   12.2170    2.7500    9.9360 C   0  0  0  0  0  2  0  0  0  0  0  0
   13.0760    1.6610   10.2870 N   0  0  0  0  0  4  0  0  0  0  0  0
   14.4700    1.9400   10.2760 C   0  0  0  0  0  2  0  0  0  0  0  0
   15.0910    1.2840    9.0620 C   0  0  0  0  0  2  0  0  0  0  0  0
   14.2830    1.3880    7.9330 O   0  0  0  0  0  0  0  0  0  0  0  0
   13.1170    0.6540    8.0480 C   0  0  0  0  0  2  0  0  0  0  0  0
   12.8190    0.4630    9.5180 C   0  0  0  0  0  2  0  0  0  0  0  0
   12.8120    1.4160   11.2900 H   0  0  0  0  0  0  0  0  0  0  0  0
  1 10  1  0  0  0  0
  1  9  1  0  0  0  0
  2  1  2  0  0  0  0
  3 17  1  6  0  0  0
  3  2  1  0  0  0  0
  4  3  1  0  0  0  0
  5  4  1  0  0  0  0
  5  7  1  0  0  0  0
  6  5  2  0  0  0  0
  7  2  1  0  0  0  0
  8  7  2  0  0  0  0
 10 11  2  0  0  0  0
 10 16  1  0  0  0  0
 11 12  1  0  0  0  0
 12 13  2  0  0  0  0
 13 14  1  0  0  0  0
 15 13  1  0  0  0  0
 16 15  2  0  0  0  0
 17 18  1  0  0  0  0
 19 18  2  0  0  0  0
 20 19  1  0  0  0  0
 21 20  2  0  0  0  0
 21 22  1  0  0  0  0
 22 17  2  0  0  0  0
 23  4  1  0  0  0  0
 24 25  1  0  0  0  0
 24 23  1  0  0  0  0
 25 31  1  0  0  0  0
 26 25  1  0  0  0  0
 27 26  1  0  0  0  0
 28 29  1  0  0  0  0
 28 27  1  0  0  0  0
 29 30  1  0  0  0  0
 30 25  1  0  0  0  0
M  END
>  <Pose>
1

>  <Score>
-8.184

$$$$
