/Users/jonathanwahrer/Desktop/Msc/3_Semester/Drug_Design_Praktikum/waehrer_HTS_screening/HTS_experiment/out/docking_results/vina_output/2jam/0278_docked.pdbqt
 OpenBabel03162217293D

 30 33  0  0  1  0  0  0  0  0999 V2000
   12.1800    5.3560   11.3760 N   0  0  0  0  0  0  0  0  0  0  0  0
   13.5140    5.4620   11.5830 C   0  0  0  0  0  0  0  0  0  0  0  0
   14.0050    4.1670   11.6140 C   0  0  0  0  0  0  0  0  0  0  0  0
   15.3580    3.9740   11.8210 C   0  0  0  0  0  3  0  0  0  0  0  0
   16.2390    5.0480   11.9980 C   0  0  0  0  0  3  0  0  0  0  0  0
   15.7000    6.3270   11.9600 C   0  0  0  0  0  3  0  0  0  0  0  0
   14.3600    6.5470   11.7560 C   0  0  0  0  0  3  0  0  0  0  0  0
   12.9840    3.2770   11.4250 N   0  0  0  0  0  0  0  0  0  0  0  0
   11.8730    4.0480   11.2840 C   0  0  1  0  0  3  0  0  0  0  0  0
   11.3300    6.5070   11.2830 C   0  0  0  0  0  2  0  0  0  0  0  0
   10.5830    6.8010   12.5490 C   0  0  1  0  0  3  0  0  0  0  0  0
    9.1450    7.1570   12.2490 C   0  0  0  0  0  0  0  0  0  0  0  0
    8.2030    6.1680   12.1170 C   0  0  0  0  0  3  0  0  0  0  0  0
    6.8990    6.4880   11.8490 C   0  0  0  0  0  3  0  0  0  0  0  0
    6.5520    7.8130   11.7150 C   0  0  0  0  0  0  0  0  0  0  0  0
    4.7310    8.2710   11.3410 Br  0  0  0  0  0  0  0  0  0  0  0  0
    7.4550    8.8430   11.8390 C   0  0  0  0  0  3  0  0  0  0  0  0
    8.7620    8.4690   12.1100 C   0  0  0  0  0  3  0  0  0  0  0  0
   10.5610    5.7540   13.4500 O   0  0  0  0  0  0  0  0  0  0  0  0
   11.3280    5.1540   13.3740 H   0  0  0  0  0  0  0  0  0  0  0  0
   10.6940    3.5590   11.0890 N   0  0  0  0  0  0  0  0  0  0  0  0
   10.6030    2.5350   10.8150 H   0  0  0  0  0  0  0  0  0  0  0  0
    9.8060    4.0590   11.1640 H   0  0  0  0  0  0  0  0  0  0  0  0
   13.1550    1.8560   11.3860 C   0  0  0  0  0  2  0  0  0  0  0  0
   13.2270    1.2960    9.9930 C   0  0  0  0  0  0  0  0  0  0  0  0
   12.1600    0.5570    9.5120 C   0  0  0  0  0  3  0  0  0  0  0  0
   12.1500    0.0110    8.2430 C   0  0  0  0  0  3  0  0  0  0  0  0
   13.2510    0.2270    7.4520 C   0  0  0  0  0  3  0  0  0  0  0  0
   14.3210    0.9540    7.9040 C   0  0  0  0  0  3  0  0  0  0  0  0
   14.3000    1.4820    9.1670 C   0  0  0  0  0  3  0  0  0  0  0  0
  1  2  1  0  0  0  0
  2  3  2  0  0  0  0
  2  7  1  0  0  0  0
  3  4  1  0  0  0  0
  4  5  2  0  0  0  0
  6  5  1  0  0  0  0
  7  6  2  0  0  0  0
  8  3  1  0  0  0  0
  9 21  1  1  0  0  0
  9  1  1  0  0  0  0
  9  8  1  0  0  0  0
 10  1  1  0  0  0  0
 11 10  1  6  0  0  0
 11 19  1  0  0  0  0
 12 11  1  0  0  0  0
 13 12  1  0  0  0  0
 14 13  2  0  0  0  0
 15 17  2  0  0  0  0
 15 14  1  0  0  0  0
 16 15  1  0  0  0  0
 17 18  1  0  0  0  0
 18 12  2  0  0  0  0
 20 19  1  0  0  0  0
 21 23  1  0  0  0  0
 22 21  1  0  0  0  0
 24  8  1  0  0  0  0
 25 24  1  0  0  0  0
 26 25  1  0  0  0  0
 27 26  2  0  0  0  0
 28 29  2  0  0  0  0
 28 27  1  0  0  0  0
 29 30  1  0  0  0  0
 30 25  2  0  0  0  0
M  END
>  <Pose>
1

>  <Score>
-8.368

$$$$
