MODEL 1
REMARK VINA RESULT:    -8.368      0.000      0.000
REMARK INTER + INTRA:         -12.322
REMARK INTER:                 -11.303
REMARK INTRA:                  -1.019
REMARK UNBOUND:                -1.019
REMARK  7 active torsions:
REMARK  status: ('A' for Active; 'I' for Inactive)
REMARK    1  A    between atoms: C_5  and  C_8 
REMARK    2  A    between atoms: C_8  and  O_9 
REMARK    3  A    between atoms: C_8  and  C_10 
REMARK    4  A    between atoms: C_10  and  N_11 
REMARK    5  A    between atoms: N_18  and  C_21 
REMARK    6  A    between atoms: C_19  and  N_20 
REMARK    7  A    between atoms: C_21  and  C_22 
ROOT
ATOM      1  N   UNK d   1      12.180   5.356  11.376  0.00  0.00    -0.178 N 
ATOM      2  C   UNK d   1      13.514   5.462  11.583  0.00  0.00     0.079 A 
ATOM      3  C   UNK d   1      14.005   4.167  11.614  0.00  0.00     0.079 A 
ATOM      4  C   UNK d   1      15.358   3.974  11.821  0.00  0.00     0.032 A 
ATOM      5  C   UNK d   1      16.239   5.048  11.998  0.00  0.00     0.002 A 
ATOM      6  C   UNK d   1      15.700   6.327  11.960  0.00  0.00     0.002 A 
ATOM      7  C   UNK d   1      14.360   6.547  11.756  0.00  0.00     0.032 A 
ATOM      8  N   UNK d   1      12.984   3.277  11.425  0.00  0.00    -0.177 N 
ATOM      9  C   UNK d   1      11.873   4.048  11.284  0.00  0.00     0.681 A 
ENDROOT
BRANCH   1  10
ATOM     10  C   UNK d   1      11.330   6.507  11.283  0.00  0.00     0.184 C 
BRANCH  10  11
ATOM     11  C   UNK d   1      10.583   6.801  12.549  0.00  0.00     0.170 C 
BRANCH  11  12
ATOM     12  C   UNK d   1       9.145   7.157  12.249  0.00  0.00    -0.028 A 
ATOM     13  C   UNK d   1       8.203   6.168  12.117  0.00  0.00     0.011 A 
ATOM     14  C   UNK d   1       6.899   6.488  11.849  0.00  0.00     0.019 A 
ATOM     15  C   UNK d   1       6.552   7.813  11.715  0.00  0.00     0.011 A 
ATOM     16 Br   UNK d   1       4.731   8.271  11.341  0.00  0.00    -0.051 Br
ATOM     17  C   UNK d   1       7.455   8.843  11.839  0.00  0.00     0.019 A 
ATOM     18  C   UNK d   1       8.762   8.469  12.110  0.00  0.00     0.011 A 
ENDBRANCH  11  12
BRANCH  11  19
ATOM     19  O   UNK d   1      10.561   5.754  13.450  0.00  0.00    -0.389 OA
ATOM     20  H   UNK d   1      11.328   5.154  13.374  0.00  0.00     0.210 HD
ENDBRANCH  11  19
ENDBRANCH  10  11
ENDBRANCH   1  10
BRANCH   9  21
ATOM     21  N   UNK d   1      10.694   3.559  11.089  0.00  0.00    -0.234 N 
ATOM     22  H   UNK d   1      10.603   2.535  10.815  0.00  0.00     0.174 HD
ATOM     23  H   UNK d   1       9.806   4.059  11.164  0.00  0.00     0.174 HD
ENDBRANCH   9  21
BRANCH   8  24
ATOM     24  C   UNK d   1      13.155   1.856  11.386  0.00  0.00     0.186 C 
BRANCH  24  25
ATOM     25  C   UNK d   1      13.227   1.296   9.993  0.00  0.00    -0.039 A 
ATOM     26  C   UNK d   1      12.160   0.557   9.512  0.00  0.00     0.009 A 
ATOM     27  C   UNK d   1      12.150   0.011   8.243  0.00  0.00     0.001 A 
ATOM     28  C   UNK d   1      13.251   0.227   7.452  0.00  0.00     0.000 A 
ATOM     29  C   UNK d   1      14.321   0.954   7.904  0.00  0.00     0.001 A 
ATOM     30  C   UNK d   1      14.300   1.482   9.167  0.00  0.00     0.009 A 
ENDBRANCH  24  25
ENDBRANCH   8  24
TORSDOF 7
ENDMDL
