MODEL 1
REMARK VINA RESULT:    -8.127      0.000      0.000
REMARK INTER + INTRA:         -11.377
REMARK INTER:                 -10.978
REMARK INTRA:                  -0.399
REMARK UNBOUND:                -0.399
REMARK  6 active torsions:
REMARK  status: ('A' for Active; 'I' for Inactive)
REMARK    1  A    between atoms: C_5  and  C_8 
REMARK    2  A    between atoms: C_8  and  N_9 
REMARK    3  A    between atoms: N_12  and  C_15 
REMARK    4  A    between atoms: N_16  and  C_27 
REMARK    5  A    between atoms: C_27  and  C_28 
REMARK    6  A    between atoms: C_28  and  O_29 
ROOT
ATOM      1  C   UNK d   1       9.688   7.074  13.420  0.00  0.00     0.707 A 
ATOM      2  N   UNK d   1       8.355   7.237  13.401  0.00  0.00    -0.170 N 
ATOM      3  C   UNK d   1       7.882   7.191  14.669  0.00  0.00     0.166 A 
ATOM      4  C   UNK d   1       8.943   6.993  15.526  0.00  0.00     0.185 A 
ATOM      5  N   UNK d   1      10.022   6.924  14.747  0.00  0.00    -0.044 NA
ATOM      6  N   UNK d   1       8.718   6.914  16.851  0.00  0.00    -0.286 N 
ATOM      7  C   UNK d   1       7.487   7.024  17.368  0.00  0.00     0.330 A 
ATOM      8  O   UNK d   1       7.315   6.947  18.627  0.00  0.00    -0.246 OA
ATOM      9  N   UNK d   1       6.440   7.219  16.549  0.00  0.00    -0.273 N 
ATOM     10  C   UNK d   1       6.627   7.301  15.225  0.00  0.00     0.280 A 
ATOM     11  O   UNK d   1       5.647   7.483  14.462  0.00  0.00    -0.265 OA
ATOM     12  C   UNK d   1       9.872   6.708  17.733  0.00  0.00     0.163 C 
ATOM     13  H   UNK d   1       5.462   7.306  16.951  0.00  0.00     0.173 HD
ENDROOT
BRANCH   1  14
ATOM     14  N   UNK d   1      10.583   7.097  12.336  0.00  0.00    -0.213 N 
ATOM     15  C   UNK d   1      10.176   7.001  10.977  0.00  0.00     0.160 C 
ATOM     16  C   UNK d   1      10.810   5.736  10.407  0.00  0.00     0.137 C 
ATOM     17  N   UNK d   1      11.682   5.116  11.312  0.00  0.00    -0.405 N 
ATOM     18  C   UNK d   1      12.576   5.867  12.094  0.00  0.00     0.137 C 
ATOM     19  C   UNK d   1      12.002   7.204  12.575  0.00  0.00     0.160 C 
BRANCH  17  20
ATOM     20  C   UNK d   1      11.281   3.838  11.798  0.00  0.00     0.155 C 
BRANCH  20  21
ATOM     21  C   UNK d   1      11.503   2.725  10.856  0.00  0.00    -0.041 A 
ATOM     22  C   UNK d   1      10.407   2.151  10.261  0.00  0.00     0.010 A 
ATOM     23  C   UNK d   1      10.568   1.112   9.359  0.00  0.00     0.019 A 
ATOM     24  C   UNK d   1      11.825   0.637   9.045  0.00  0.00     0.011 A 
ATOM     25 Br   UNK d   1      12.044  -0.803   7.791  0.00  0.00    -0.051 Br
ATOM     26  C   UNK d   1      12.911   1.226   9.654  0.00  0.00     0.019 A 
ATOM     27  C   UNK d   1      12.767   2.262  10.554  0.00  0.00     0.010 A 
ENDBRANCH  20  21
ENDBRANCH  17  20
ENDBRANCH   1  14
BRANCH   2  28
ATOM     28  C   UNK d   1       7.488   7.389  12.264  0.00  0.00     0.174 C 
BRANCH  28  29
ATOM     29  C   UNK d   1       7.298   8.839  11.882  0.00  0.00     0.187 C 
BRANCH  29  30
ATOM     30  O   UNK d   1       6.481   9.028  10.786  0.00  0.00    -0.394 OA
ATOM     31  C   UNK d   1       5.294   8.312  11.063  0.00  0.00     0.201 C 
ENDBRANCH  29  30
ENDBRANCH  28  29
ENDBRANCH   2  28
TORSDOF 6
ENDMDL
