MODEL 1
REMARK VINA RESULT:    -9.473      0.000      0.000
REMARK INTER + INTRA:         -11.510
REMARK INTER:                 -11.134
REMARK INTRA:                  -0.376
REMARK UNBOUND:                -0.376
REMARK  3 active torsions:
REMARK  status: ('A' for Active; 'I' for Inactive)
REMARK    1  A    between atoms: C_5  and  C_8 
REMARK    2  A    between atoms: C_16  and  C_17 
REMARK    3  A    between atoms: C_17  and  N_18 
ROOT
ATOM      1  C   UNK d   1      15.961   2.536   9.882  0.00  0.00     0.053 C 
ATOM      2  C   UNK d   1      14.836   1.921   9.496  0.00  0.00     0.127 A 
ATOM      3  O   UNK d   1      13.608   2.124  10.103  0.00  0.00    -0.305 OA
ATOM      4  C   UNK d   1      12.608   1.363   9.506  0.00  0.00     0.101 A 
ATOM      5  C   UNK d   1      13.172   0.645   8.495  0.00  0.00     0.051 A 
ATOM      6  C   UNK d   1      12.395  -0.201   7.732  0.00  0.00     0.021 A 
ATOM      7  C   UNK d   1      11.061  -0.283   8.036  0.00  0.00     0.041 A 
ATOM      8  C   UNK d   1      10.479   0.454   9.075  0.00  0.00     0.118 A 
ATOM      9  C   UNK d   1      11.235   1.301   9.846  0.00  0.00     0.039 A 
ATOM     10  O   UNK d   1       9.112   0.314   9.319  0.00  0.00    -0.191 OA
ATOM     11  C   UNK d   1      14.605   0.967   8.446  0.00  0.00     0.218 A 
ATOM     12  O   UNK d   1      15.482   0.523   7.661  0.00  0.00    -0.284 OA
ENDROOT
BRANCH   1  13
ATOM     13  C   UNK d   1      15.922   3.475  10.998  0.00  0.00    -0.033 A 
ATOM     14  C   UNK d   1      17.097   3.931  11.572  0.00  0.00     0.013 A 
ATOM     15  C   UNK d   1      17.095   4.817  12.633  0.00  0.00     0.020 A 
ATOM     16  C   UNK d   1      15.916   5.287  13.164  0.00  0.00     0.011 A 
ATOM     17 Br   UNK d   1      15.915   6.523  14.637  0.00  0.00    -0.051 Br
ATOM     18  C   UNK d   1      14.735   4.844  12.605  0.00  0.00     0.020 A 
ATOM     19  C   UNK d   1      14.744   3.947  11.534  0.00  0.00     0.013 A 
ENDBRANCH   1  13
BRANCH   9  20
ATOM     20  C   UNK d   1      10.770   2.131  10.964  0.00  0.00     0.279 C 
BRANCH  20  21
ATOM     21  N   UNK d   1      11.286   3.439  11.090  0.00  0.00    -0.063 N 
ATOM     22  C   UNK d   1      10.613   4.385  10.224  0.00  0.00     0.261 C 
ATOM     23  C   UNK d   1       9.379   4.924  10.924  0.00  0.00     0.195 C 
ATOM     24  O   UNK d   1       9.791   5.882  11.838  0.00  0.00    -0.388 OA
ATOM     25  C   UNK d   1      11.022   5.475  12.362  0.00  0.00     0.195 C 
ATOM     26  C   UNK d   1      11.072   3.958  12.452  0.00  0.00     0.261 C 
ATOM     27  H   UNK d   1      12.318   3.470  10.963  0.00  0.00     0.280 HD
ENDBRANCH  20  21
ENDBRANCH   9  20
TORSDOF 3
ENDMDL
