/Users/jonathanwahrer/Desktop/Msc/3_Semester/Drug_Design_Praktikum/waehrer_HTS_screening/HTS_experiment/out/docking_results/vina_output/2jam/0294_docked.pdbqt
 OpenBabel03162217303D

 35 38  0  0  0  0  0  0  0  0999 V2000
   12.5210    1.8610    9.8680 N   0  0  0  0  0  0  0  0  0  0  0  0
   12.4490    3.1480   10.3250 N   0  0  0  0  0  0  0  0  0  0  0  0
   11.2310    3.6360   10.0500 C   0  0  0  0  0  0  0  0  0  0  0  0
   10.5800    2.6500    9.4350 N   0  0  0  0  0  0  0  0  0  0  0  0
   11.3840    1.5280    9.3160 C   0  0  0  0  0  0  0  0  0  0  0  0
   13.7390    1.0990   10.0620 C   0  0  0  0  0  2  0  0  0  0  0  0
   14.9440    1.9460    9.8650 C   0  0  0  0  0  0  0  0  0  0  0  0
   15.3460    2.8820   10.8490 N   0  0  0  0  0  0  0  0  0  0  0  0
   14.7930    2.9980   11.7520 H   0  0  0  0  0  0  0  0  0  0  0  0
   15.6180    1.8350    8.8160 O   0  0  0  0  0  0  0  0  0  0  0  0
   16.4690    3.6510   10.6350 N   0  0  0  0  0  0  0  0  0  0  0  0
   17.1110    4.2940   11.5290 C   0  0  0  0  0  3  0  0  0  0  0  0
   18.2970    5.0950   11.2450 C   0  0  0  0  0  0  0  0  0  0  0  0
   19.5680    4.5800   11.3940 C   0  0  0  0  0  3  0  0  0  0  0  0
   20.6790    5.3580   11.1190 C   0  0  0  0  0  3  0  0  0  0  0  0
   20.5660    6.6710   10.6860 C   0  0  0  0  0  0  0  0  0  0  0  0
   22.1180    7.7190   10.3130 Br  0  0  0  0  0  0  0  0  0  0  0  0
   19.2960    7.1860   10.5370 C   0  0  0  0  0  3  0  0  0  0  0  0
   18.1960    6.4000   10.8150 C   0  0  0  0  0  3  0  0  0  0  0  0
   10.9240    0.3090    8.6830 C   0  0  0  0  0  0  0  0  0  0  0  0
    9.6320   -0.1740    8.8710 N   0  0  0  0  0  0  0  0  0  0  0  0
    9.4720   -1.2450    8.1980 O   0  0  0  0  0  0  0  0  0  0  0  0
   10.5430   -1.5310    7.5680 N   0  0  0  0  0  0  0  0  0  0  0  0
   11.4800   -0.5750    7.8500 C   0  0  0  0  0  0  0  0  0  0  0  0
   12.7550   -0.6370    7.2760 N   0  0  0  0  0  0  0  0  0  0  0  0
   13.1030    0.1740    6.7140 H   0  0  0  0  0  0  0  0  0  0  0  0
   13.4060   -1.4440    7.3740 H   0  0  0  0  0  0  0  0  0  0  0  0
   10.7170    4.9650   10.3570 C   0  0  0  0  0  0  0  0  0  0  0  0
   10.1570    5.8310    9.5060 N   0  0  0  0  0  0  0  0  0  0  0  0
    9.8200    6.9270   10.1620 O   0  0  0  0  0  0  0  0  0  0  0  0
   10.1370    6.8180   11.4210 N   0  0  0  0  0  0  0  0  0  0  0  0
   10.7090    5.5860   11.5800 C   0  0  0  0  0  0  0  0  0  0  0  0
   11.1890    5.0950   12.8210 N   0  0  0  0  0  0  0  0  0  0  0  0
   12.0710    4.5100   12.8490 H   0  0  0  0  0  0  0  0  0  0  0  0
   10.7250    5.2730   13.7330 H   0  0  0  0  0  0  0  0  0  0  0  0
  1  6  1  0  0  0  0
  1  2  1  0  0  0  0
  3  2  2  0  0  0  0
  3 28  1  0  0  0  0
  4  3  1  0  0  0  0
  5  4  2  0  0  0  0
  5  1  1  0  0  0  0
  7  6  1  0  0  0  0
  7  8  1  0  0  0  0
  8  9  1  0  0  0  0
 10  7  2  0  0  0  0
 11  8  1  0  0  0  0
 11 12  2  0  0  0  0
 13 14  1  0  0  0  0
 13 12  1  0  0  0  0
 15 14  2  0  0  0  0
 16 15  1  0  0  0  0
 17 16  1  0  0  0  0
 18 16  2  0  0  0  0
 18 19  1  0  0  0  0
 19 13  2  0  0  0  0
 20 21  2  0  0  0  0
 20  5  1  0  0  0  0
 22 21  1  0  0  0  0
 23 24  2  0  0  0  0
 23 22  1  0  0  0  0
 24 20  1  0  0  0  0
 25 27  1  0  0  0  0
 25 24  1  0  0  0  0
 26 25  1  0  0  0  0
 28 32  1  0  0  0  0
 29 30  1  0  0  0  0
 29 28  2  0  0  0  0
 30 31  1  0  0  0  0
 31 32  2  0  0  0  0
 32 33  1  0  0  0  0
 33 34  1  0  0  0  0
 33 35  1  0  0  0  0
M  END
>  <Pose>
1

>  <Score>
-8.774

$$$$
