/Users/jonathanwahrer/Desktop/Msc/3_Semester/Drug_Design_Praktikum/waehrer_HTS_screening/HTS_experiment/out/docking_results/vina_output/2jam/0302_docked.pdbqt
 OpenBabel03162217303D

 29 33  0  0  1  0  0  0  0  0999 V2000
   12.1930    1.5030    9.7570 C   0  0  0  0  0  0  0  0  0  0  0  0
   11.8480    2.6340   10.4060 N   0  0  0  0  0  0  0  0  0  0  0  0
   12.9550    3.2500   10.8880 C   0  0  1  0  0  3  0  0  0  0  0  0
   14.0280    2.5150   10.5490 N   0  0  0  0  0  0  0  0  0  0  0  0
   13.5680    1.4460    9.8590 C   0  0  0  0  0  3  0  0  0  0  0  0
   15.0970    3.1660   11.0480 C   0  0  0  0  0  0  0  0  0  0  0  0
   14.6940    4.3110   11.7000 C   0  0  0  0  0  0  0  0  0  0  0  0
   15.5980    5.1720   12.3100 C   0  0  0  0  0  3  0  0  0  0  0  0
   16.9430    4.8850   12.2690 C   0  0  0  0  0  3  0  0  0  0  0  0
   17.3370    3.7380   11.6140 C   0  0  0  0  0  3  0  0  0  0  0  0
   16.4620    2.8670   11.0010 C   0  0  0  0  0  3  0  0  0  0  0  0
   13.3400    4.3340   11.5810 N   0  0  0  0  0  0  0  0  0  0  0  0
   10.8820    2.9990   10.5330 H   0  0  0  0  0  0  0  0  0  0  0  0
   12.5280    5.3950   12.1420 C   0  0  0  0  0  2  0  0  0  0  0  0
   12.1360    6.4130   11.0940 C   0  0  0  0  0  2  0  0  0  0  0  0
   10.7090    6.4500   10.9430 N   0  0  0  0  0  4  0  0  0  0  0  0
   10.1890    7.7280   11.3790 C   0  0  0  0  0  2  0  0  0  0  0  0
    8.9610    7.5930   12.2460 C   0  0  0  0  0  2  0  0  0  0  0  0
    8.0370    6.7730   11.5940 O   0  0  0  0  0  0  0  0  0  0  0  0
    8.5480    5.5200   11.3280 C   0  0  0  0  0  2  0  0  0  0  0  0
   10.0140    5.4220   11.6590 C   0  0  0  0  0  2  0  0  0  0  0  0
   10.4450    6.3540    9.9300 H   0  0  0  0  0  0  0  0  0  0  0  0
   11.2900    0.5630    9.1000 C   0  0  0  0  0  0  0  0  0  0  0  0
   11.7260   -0.2940    8.1150 C   0  0  0  0  0  3  0  0  0  0  0  0
   10.8640   -1.1920    7.4900 C   0  0  0  0  0  3  0  0  0  0  0  0
    9.5320   -1.2420    7.8500 C   0  0  0  0  0  0  0  0  0  0  0  0
    8.3540   -2.4630    6.9990 Br  0  0  0  0  0  0  0  0  0  0  0  0
    9.0820   -0.3880    8.8360 C   0  0  0  0  0  3  0  0  0  0  0  0
    9.9610    0.5060    9.4530 C   0  0  0  0  0  3  0  0  0  0  0  0
  1  5  2  0  0  0  0
  1  2  1  0  0  0  0
  2 13  1  0  0  0  0
  3  2  1  6  0  0  0
  3 12  1  0  0  0  0
  4  3  1  0  0  0  0
  4  6  1  0  0  0  0
  5  4  1  0  0  0  0
  6  7  1  0  0  0  0
  7  8  2  0  0  0  0
  9  8  1  0  0  0  0
 10  9  2  0  0  0  0
 11  6  2  0  0  0  0
 11 10  1  0  0  0  0
 12  7  1  0  0  0  0
 12 14  1  0  0  0  0
 15 14  1  0  0  0  0
 16 15  1  0  0  0  0
 16 17  1  0  0  0  0
 16 21  1  0  0  0  0
 17 18  1  0  0  0  0
 19 18  1  0  0  0  0
 20 19  1  0  0  0  0
 20 21  1  0  0  0  0
 22 16  1  0  0  0  0
 23 29  1  0  0  0  0
 23  1  1  0  0  0  0
 24 23  2  0  0  0  0
 25 26  2  0  0  0  0
 25 24  1  0  0  0  0
 26 28  1  0  0  0  0
 27 26  1  0  0  0  0
 28 29  2  0  0  0  0
M  END
>  <Pose>
1

>  <Score>
-9.279

$$$$
