MODEL 1
REMARK VINA RESULT:    -8.409      0.000      0.000
REMARK INTER + INTRA:         -12.643
REMARK INTER:                 -11.359
REMARK INTRA:                  -1.284
REMARK UNBOUND:                -1.284
REMARK  6 active torsions:
REMARK  status: ('A' for Active; 'I' for Inactive)
REMARK    1  A    between atoms: C_5  and  C_8 
REMARK    2  A    between atoms: C_9  and  C_28 
REMARK    3  A    between atoms: C_16  and  C_17 
REMARK    4  A    between atoms: C_17  and  N_18 
REMARK    5  A    between atoms: C_28  and  O_30 
REMARK    6  A    between atoms: O_30  and  C_31 
ROOT
ATOM      1  C   UNK d   1      15.626   3.430  10.796  0.00  0.00     0.065 A 
ATOM      2  C   UNK d   1      14.570   3.971  11.489  0.00  0.00     0.166 A 
ATOM      3  O   UNK d   1      13.322   3.581  11.311  0.00  0.00    -0.302 OA
ATOM      4  C   UNK d   1      13.012   2.642  10.454  0.00  0.00     0.101 A 
ATOM      5  C   UNK d   1      14.006   2.072   9.741  0.00  0.00     0.050 A 
ATOM      6  C   UNK d   1      13.711   1.079   8.833  0.00  0.00     0.021 A 
ATOM      7  C   UNK d   1      12.403   0.698   8.682  0.00  0.00     0.041 A 
ATOM      8  C   UNK d   1      11.373   1.300   9.431  0.00  0.00     0.118 A 
ATOM      9  C   UNK d   1      11.641   2.285  10.335  0.00  0.00     0.039 A 
ATOM     10  O   UNK d   1      10.119   0.787   9.146  0.00  0.00    -0.191 OA
ATOM     11  C   UNK d   1      15.335   2.426   9.870  0.00  0.00     0.199 A 
ATOM     12  O   UNK d   1      16.243   1.903   9.216  0.00  0.00    -0.286 OA
ENDROOT
BRANCH   9  13
ATOM     13  C   UNK d   1      10.698   3.006  11.155  0.00  0.00     0.279 C 
BRANCH  13  14
ATOM     14  N   UNK d   1      10.760   4.394  11.369  0.00  0.00    -0.064 N 
ATOM     15  C   UNK d   1      10.556   4.745  12.729  0.00  0.00     0.254 C 
ATOM     16  C   UNK d   1       9.989   6.070  13.055  0.00  0.00     0.144 C 
ATOM     17  N   UNK d   1       9.325   6.679  11.984  0.00  0.00    -0.413 N 
ATOM     18  C   UNK d   1       9.922   6.650  10.721  0.00  0.00     0.144 C 
ATOM     19  C   UNK d   1       8.081   7.297  12.175  0.00  0.00     0.143 C 
ATOM     20  C   UNK d   1      10.308   5.257  10.338  0.00  0.00     0.254 C 
ATOM     21  H   UNK d   1      11.883   4.562  11.286  0.00  0.00     0.280 HD
ENDBRANCH  13  14
ENDBRANCH   9  13
BRANCH   2  22
ATOM     22  C   UNK d   1      14.854   5.032  12.468  0.00  0.00     0.318 C 
ATOM     23  O   UNK d   1      14.549   6.212  12.161  0.00  0.00    -0.257 OA
BRANCH  22  24
ATOM     24  O   UNK d   1      15.426   4.806  13.682  0.00  0.00    -0.316 OA
BRANCH  24  25
ATOM     25  C   UNK d   1      15.894   5.878  14.463  0.00  0.00     0.175 C 
ATOM     26  C   UNK d   1      17.393   5.941  14.363  0.00  0.00     0.034 C 
ENDBRANCH  24  25
ENDBRANCH  22  24
ENDBRANCH   2  22
BRANCH   1  27
ATOM     27  C   UNK d   1      16.972   3.869  11.047  0.00  0.00    -0.019 A 
ATOM     28  C   UNK d   1      17.465   5.101  10.624  0.00  0.00     0.014 A 
ATOM     29  C   UNK d   1      18.750   5.530  10.876  0.00  0.00     0.020 A 
ATOM     30  C   UNK d   1      19.597   4.719  11.573  0.00  0.00     0.011 A 
ATOM     31 Br   UNK d   1      21.375   5.332  11.917  0.00  0.00    -0.051 Br
ATOM     32  C   UNK d   1      19.158   3.488  12.014  0.00  0.00     0.020 A 
ATOM     33  C   UNK d   1      17.844   3.074  11.744  0.00  0.00     0.014 A 
ENDBRANCH   1  27
TORSDOF 6
ENDMDL
