/Users/jonathanwahrer/Desktop/Msc/3_Semester/Drug_Design_Praktikum/waehrer_HTS_screening/HTS_experiment/out/docking_results/vina_output/2jam/0309_docked.pdbqt
 OpenBabel03162217313D

 33 36  0  0  0  0  0  0  0  0999 V2000
   15.6260    3.4300   10.7960 C   0  0  0  0  0  0  0  0  0  0  0  0
   14.5700    3.9710   11.4890 C   0  0  0  0  0  0  0  0  0  0  0  0
   13.3220    3.5810   11.3110 O   0  0  0  0  0  0  0  0  0  0  0  0
   13.0120    2.6420   10.4540 C   0  0  0  0  0  0  0  0  0  0  0  0
   14.0060    2.0720    9.7410 C   0  0  0  0  0  0  0  0  0  0  0  0
   13.7110    1.0790    8.8330 C   0  0  0  0  0  3  0  0  0  0  0  0
   12.4030    0.6980    8.6820 C   0  0  0  0  0  3  0  0  0  0  0  0
   11.3730    1.3000    9.4310 C   0  0  0  0  0  0  0  0  0  0  0  0
   11.6410    2.2850   10.3350 C   0  0  0  0  0  0  0  0  0  0  0  0
   10.1190    0.7870    9.1460 O   0  0  0  0  0  1  0  0  0  0  0  0
   15.3350    2.4260    9.8700 C   0  0  0  0  0  0  0  0  0  0  0  0
   16.2430    1.9030    9.2160 O   0  0  0  0  0  0  0  0  0  0  0  0
   10.6980    3.0060   11.1550 C   0  0  0  0  0  2  0  0  0  0  0  0
   10.7600    4.3940   11.3690 N   0  0  0  0  0  4  0  0  0  0  0  0
   10.5560    4.7450   12.7290 C   0  0  0  0  0  2  0  0  0  0  0  0
    9.9890    6.0700   13.0550 C   0  0  0  0  0  2  0  0  0  0  0  0
    9.3250    6.6790   11.9840 N   0  0  0  0  0  0  0  0  0  0  0  0
    9.9220    6.6500   10.7210 C   0  0  0  0  0  2  0  0  0  0  0  0
    8.0810    7.2970   12.1750 C   0  0  0  0  0  1  0  0  0  0  0  0
   10.3080    5.2570   10.3380 C   0  0  0  0  0  2  0  0  0  0  0  0
   11.8830    4.5620   11.2860 H   0  0  0  0  0  0  0  0  0  0  0  0
   14.8540    5.0320   12.4680 C   0  0  0  0  0  0  0  0  0  0  0  0
   14.5490    6.2120   12.1610 O   0  0  0  0  0  0  0  0  0  0  0  0
   15.4260    4.8060   13.6820 O   0  0  0  0  0  0  0  0  0  0  0  0
   15.8940    5.8780   14.4630 C   0  0  0  0  0  2  0  0  0  0  0  0
   17.3930    5.9410   14.3630 C   0  0  0  0  0  1  0  0  0  0  0  0
   16.9720    3.8690   11.0470 C   0  0  0  0  0  0  0  0  0  0  0  0
   17.4650    5.1010   10.6240 C   0  0  0  0  0  3  0  0  0  0  0  0
   18.7500    5.5300   10.8760 C   0  0  0  0  0  3  0  0  0  0  0  0
   19.5970    4.7190   11.5730 C   0  0  0  0  0  0  0  0  0  0  0  0
   21.3750    5.3320   11.9170 Br  0  0  0  0  0  0  0  0  0  0  0  0
   19.1580    3.4880   12.0140 C   0  0  0  0  0  3  0  0  0  0  0  0
   17.8440    3.0740   11.7440 C   0  0  0  0  0  3  0  0  0  0  0  0
  1 27  1  0  0  0  0
  1  2  2  0  0  0  0
  2 22  1  0  0  0  0
  3  2  1  0  0  0  0
  4  3  1  0  0  0  0
  5 11  1  0  0  0  0
  5  4  2  0  0  0  0
  6  5  1  0  0  0  0
  7  6  2  0  0  0  0
  7  8  1  0  0  0  0
  8  9  2  0  0  0  0
  9  4  1  0  0  0  0
  9 13  1  0  0  0  0
 10  8  1  0  0  0  0
 11  1  1  0  0  0  0
 12 11  2  0  0  0  0
 13 14  1  0  0  0  0
 14 15  1  0  0  0  0
 15 16  1  0  0  0  0
 17 19  1  0  0  0  0
 17 16  1  0  0  0  0
 18 17  1  0  0  0  0
 20 18  1  0  0  0  0
 20 14  1  0  0  0  0
 21 14  1  0  0  0  0
 22 24  1  0  0  0  0
 23 22  2  0  0  0  0
 24 25  1  0  0  0  0
 26 25  1  0  0  0  0
 27 33  1  0  0  0  0
 28 29  1  0  0  0  0
 28 27  2  0  0  0  0
 29 30  2  0  0  0  0
 30 31  1  0  0  0  0
 30 32  1  0  0  0  0
 33 32  2  0  0  0  0
M  END
>  <Pose>
1

>  <Score>
-8.409

$$$$
