/Users/jonathanwahrer/Desktop/Msc/3_Semester/Drug_Design_Praktikum/waehrer_HTS_screening/HTS_experiment/out/docking_results/vina_output/2jam/0346_docked.pdbqt
 OpenBabel03162217323D

 35 38  0  0  1  0  0  0  0  0999 V2000
   10.8280    5.8300   12.4960 C   0  0  2  0  0  3  0  0  0  0  0  0
    9.6960    6.4080   11.8250 N   0  0  0  0  0  0  0  0  0  0  0  0
    9.8890    7.7910   11.5980 C   0  0  0  0  0  0  0  0  0  0  0  0
    9.0930    8.6180   11.0550 O   0  0  0  0  0  0  0  0  0  0  0  0
   11.2240    8.1800   12.1060 C   0  0  0  0  0  0  0  0  0  0  0  0
   11.7050    9.3350   12.0620 O   0  0  0  0  0  0  0  0  0  0  0  0
   11.8020    6.9630   12.6370 C   0  0  1  0  0  3  0  0  0  0  0  0
   12.9900    6.9230   13.1980 C   0  0  1  0  0  3  0  0  0  0  0  0
   13.0830    7.2720   14.5610 O   0  0  0  0  0  1  0  0  0  0  0  0
   14.2220    6.5450   12.5530 C   0  0  0  0  0  0  0  0  0  0  0  0
   14.7260    5.2970   12.4380 C   0  0  0  0  0  3  0  0  0  0  0  0
   15.9060    5.0690   11.7620 C   0  0  0  0  0  0  0  0  0  0  0  0
   16.6410    6.0730   11.1670 C   0  0  0  0  0  0  0  0  0  0  0  0
   16.4240    3.6650   11.6610 C   0  0  0  0  0  1  0  0  0  0  0  0
   16.1050    7.3390   11.3000 C   0  0  0  0  0  3  0  0  0  0  0  0
   14.9380    7.5980   11.9640 C   0  0  0  0  0  3  0  0  0  0  0  0
   17.8290    5.8360   10.4870 O   0  0  0  0  0  0  0  0  0  0  0  0
   18.2080    6.6740    9.4050 C   0  0  0  0  0  1  0  0  0  0  0  0
   11.4070    4.6900   11.7810 C   0  0  0  0  0  0  0  0  0  0  0  0
   11.5730    3.4730   12.4070 C   0  0  0  0  0  3  0  0  0  0  0  0
   12.1270    2.3830   11.7270 C   0  0  0  0  0  3  0  0  0  0  0  0
   12.5210    2.5000   10.4130 C   0  0  0  0  0  0  0  0  0  0  0  0
   13.2790    0.9830    9.5110 Br  0  0  0  0  0  0  0  0  0  0  0  0
   12.3590    3.7040    9.7850 C   0  0  0  0  0  3  0  0  0  0  0  0
   11.8130    4.7650   10.4680 C   0  0  0  0  0  3  0  0  0  0  0  0
    8.5170    5.6520   11.4480 C   0  0  0  0  0  2  0  0  0  0  0  0
    7.3780    5.7970   12.4190 C   0  0  0  0  0  2  0  0  0  0  0  0
    6.3690    6.7990   11.9470 C   0  0  0  0  0  2  0  0  0  0  0  0
    6.4790    8.0680   12.6060 N   0  0  0  0  0  4  0  0  0  0  0  0
    7.0280    7.9760   13.9430 C   0  0  0  0  0  2  0  0  0  0  0  0
    7.3090    9.4090   14.4040 C   0  0  0  0  0  2  0  0  0  0  0  0
    6.7350   10.3260   13.5360 O   0  0  0  0  0  0  0  0  0  0  0  0
    5.3630   10.0390   13.3610 C   0  0  0  0  0  2  0  0  0  0  0  0
    5.2090    8.7360   12.5860 C   0  0  0  0  0  2  0  0  0  0  0  0
    7.1570    8.6740   12.0540 H   0  0  0  0  0  0  0  0  0  0  0  0
  1 19  1  6  0  0  0
  1  7  1  0  0  0  0
  2  1  1  0  0  0  0
  3  2  1  0  0  0  0
  3  5  1  0  0  0  0
  4  3  2  0  0  0  0
  5  7  1  0  0  0  0
  6  5  2  0  0  0  0
  7  8  1  1  0  0  0
  8  9  1  1  0  0  0
 10  8  1  0  0  0  0
 11 10  1  0  0  0  0
 12 11  2  0  0  0  0
 13 15  2  0  0  0  0
 13 12  1  0  0  0  0
 14 12  1  0  0  0  0
 15 16  1  0  0  0  0
 16 10  2  0  0  0  0
 17 13  1  0  0  0  0
 18 17  1  0  0  0  0
 19 20  1  0  0  0  0
 21 20  2  0  0  0  0
 22 21  1  0  0  0  0
 23 22  1  0  0  0  0
 24 22  2  0  0  0  0
 24 25  1  0  0  0  0
 25 19  2  0  0  0  0
 26  2  1  0  0  0  0
 26 27  1  0  0  0  0
 28 27  1  0  0  0  0
 28 29  1  0  0  0  0
 29 30  1  0  0  0  0
 30 31  1  0  0  0  0
 32 31  1  0  0  0  0
 33 32  1  0  0  0  0
 34 29  1  0  0  0  0
 34 33  1  0  0  0  0
 35 29  1  0  0  0  0
M  END
>  <Pose>
1

>  <Score>
-7.726

$$$$
