MODEL 1
REMARK VINA RESULT:    -7.726      0.000      0.000
REMARK INTER + INTRA:         -14.164
REMARK INTER:                 -11.340
REMARK INTRA:                  -2.824
REMARK UNBOUND:                -2.824
REMARK  8 active torsions:
REMARK  status: ('A' for Active; 'I' for Inactive)
REMARK    1  A    between atoms: C_5  and  C_8 
REMARK    2  A    between atoms: N_9  and  C_26 
REMARK    3  A    between atoms: C_14  and  C_15 
REMARK    4  A    between atoms: C_15  and  C_17 
REMARK    5  A    between atoms: C_20  and  O_23 
REMARK    6  A    between atoms: C_26  and  C_27 
REMARK    7  A    between atoms: C_27  and  C_28 
REMARK    8  A    between atoms: C_28  and  N_29 
ROOT
ATOM      1  C   UNK d   1      10.828   5.830  12.496  0.00  0.00     0.161 A 
ATOM      2  N   UNK d   1       9.696   6.408  11.825  0.00  0.00    -0.332 N 
ATOM      3  C   UNK d   1       9.889   7.791  11.598  0.00  0.00     0.295 A 
ATOM      4  O   UNK d   1       9.093   8.618  11.055  0.00  0.00    -0.264 OA
ATOM      5  C   UNK d   1      11.224   8.180  12.106  0.00  0.00     0.250 A 
ATOM      6  O   UNK d   1      11.705   9.335  12.062  0.00  0.00    -0.282 OA
ATOM      7  C   UNK d   1      11.802   6.963  12.637  0.00  0.00     0.062 A 
ENDROOT
BRANCH   7   8
ATOM      8  C   UNK d   1      12.990   6.923  13.198  0.00  0.00     0.130 C 
ATOM      9  O   UNK d   1      13.083   7.272  14.561  0.00  0.00    -0.190 OA
BRANCH   8  10
ATOM     10  C   UNK d   1      14.222   6.545  12.553  0.00  0.00     0.002 A 
ATOM     11  C   UNK d   1      14.726   5.297  12.438  0.00  0.00     0.024 A 
ATOM     12  C   UNK d   1      15.906   5.069  11.762  0.00  0.00    -0.028 A 
ATOM     13  C   UNK d   1      16.641   6.073  11.167  0.00  0.00     0.074 A 
ATOM     14  C   UNK d   1      16.424   3.665  11.661  0.00  0.00     0.051 C 
ATOM     15  C   UNK d   1      16.105   7.339  11.300  0.00  0.00     0.038 A 
ATOM     16  C   UNK d   1      14.938   7.598  11.964  0.00  0.00     0.017 A 
BRANCH  13  17
ATOM     17  O   UNK d   1      17.829   5.836  10.487  0.00  0.00    -0.355 OA
ATOM     18  C   UNK d   1      18.208   6.674   9.405  0.00  0.00     0.210 C 
ENDBRANCH  13  17
ENDBRANCH   8  10
ENDBRANCH   7   8
BRANCH   1  19
ATOM     19  C   UNK d   1      11.407   4.690  11.781  0.00  0.00    -0.030 A 
ATOM     20  C   UNK d   1      11.573   3.473  12.407  0.00  0.00     0.011 A 
ATOM     21  C   UNK d   1      12.127   2.383  11.727  0.00  0.00     0.019 A 
ATOM     22  C   UNK d   1      12.521   2.500  10.413  0.00  0.00     0.011 A 
ATOM     23 Br   UNK d   1      13.279   0.983   9.511  0.00  0.00    -0.051 Br
ATOM     24  C   UNK d   1      12.359   3.704   9.785  0.00  0.00     0.019 A 
ATOM     25  C   UNK d   1      11.813   4.765  10.468  0.00  0.00     0.011 A 
ENDBRANCH   1  19
BRANCH   2  26
ATOM     26  C   UNK d   1       8.517   5.652  11.448  0.00  0.00     0.129 C 
BRANCH  26  27
ATOM     27  C   UNK d   1       7.378   5.797  12.419  0.00  0.00     0.048 C 
BRANCH  27  28
ATOM     28  C   UNK d   1       6.369   6.799  11.947  0.00  0.00     0.236 C 
BRANCH  28  29
ATOM     29  N   UNK d   1       6.479   8.068  12.606  0.00  0.00    -0.067 N 
ATOM     30  C   UNK d   1       7.028   7.976  13.943  0.00  0.00     0.261 C 
ATOM     31  C   UNK d   1       7.309   9.409  14.404  0.00  0.00     0.195 C 
ATOM     32  O   UNK d   1       6.735  10.326  13.536  0.00  0.00    -0.388 OA
ATOM     33  C   UNK d   1       5.363  10.039  13.361  0.00  0.00     0.195 C 
ATOM     34  C   UNK d   1       5.209   8.736  12.586  0.00  0.00     0.261 C 
ATOM     35  H   UNK d   1       7.157   8.674  12.054  0.00  0.00     0.280 HD
ENDBRANCH  28  29
ENDBRANCH  27  28
ENDBRANCH  26  27
ENDBRANCH   2  26
TORSDOF 8
ENDMDL
