MODEL 1
REMARK VINA RESULT:    -9.177      0.000      0.000
REMARK INTER + INTRA:         -13.615
REMARK INTER:                 -12.933
REMARK INTRA:                  -0.682
REMARK UNBOUND:                -0.682
REMARK  7 active torsions:
REMARK  status: ('A' for Active; 'I' for Inactive)
REMARK    1  A    between atoms: C_5  and  C_8 
REMARK    2  A    between atoms: N_9  and  C_25 
REMARK    3  A    between atoms: C_15  and  C_17 
REMARK    4  A    between atoms: C_19  and  O_23 
REMARK    5  A    between atoms: C_25  and  C_26 
REMARK    6  A    between atoms: C_26  and  C_27 
REMARK    7  A    between atoms: C_27  and  N_28 
ROOT
ATOM      1  C   UNK d   1      11.130   5.386  12.382  0.00  0.00     0.161 C 
ATOM      2  N   UNK d   1      10.618   4.595  11.281  0.00  0.00    -0.332 N 
ATOM      3  C   UNK d   1      10.175   5.525  10.290  0.00  0.00     0.295 C 
ATOM      4  O   UNK d   1      10.083   5.322   9.054  0.00  0.00    -0.264 OA
ATOM      5  C   UNK d   1       9.853   6.751  11.011  0.00  0.00     0.250 C 
ATOM      6  O   UNK d   1       9.426   7.847  10.570  0.00  0.00    -0.282 OA
ATOM      7  C   UNK d   1      10.120   6.507  12.425  0.00  0.00     0.062 C 
ATOM      8  C   UNK d   1       9.617   7.152  13.449  0.00  0.00     0.130 C 
ATOM      9  O   UNK d   1      10.079   6.757  14.717  0.00  0.00    -0.190 OA
ENDROOT
BRANCH   2  10
ATOM     10  C   UNK d   1      10.557   3.127  11.180  0.00  0.00     0.129 C 
BRANCH  10  11
ATOM     11  C   UNK d   1      11.538   2.625  10.110  0.00  0.00     0.048 C 
BRANCH  11  12
ATOM     12  C   UNK d   1      10.955   1.417   9.434  0.00  0.00     0.236 C 
BRANCH  12  13
ATOM     13  N   UNK d   1      11.795   0.275   9.705  0.00  0.00    -0.067 N 
ATOM     14  C   UNK d   1      13.120   0.388   9.184  0.00  0.00     0.261 C 
ATOM     15  C   UNK d   1      13.182   0.253   7.700  0.00  0.00     0.195 C 
ATOM     16  O   UNK d   1      12.611  -0.938   7.287  0.00  0.00    -0.388 OA
ATOM     17  C   UNK d   1      11.270  -0.919   7.673  0.00  0.00     0.195 C 
ATOM     18  C   UNK d   1      11.225  -0.956   9.188  0.00  0.00     0.261 C 
ATOM     19  H   UNK d   1      11.854   0.154  10.743  0.00  0.00     0.280 HD
ENDBRANCH  12  13
ENDBRANCH  11  12
ENDBRANCH  10  11
ENDBRANCH   2  10
BRANCH   1  20
ATOM     20  C   UNK d   1      12.470   5.881  12.101  0.00  0.00    -0.030 A 
ATOM     21  C   UNK d   1      13.533   5.015  12.018  0.00  0.00     0.011 A 
ATOM     22  C   UNK d   1      14.827   5.477  11.762  0.00  0.00     0.019 A 
ATOM     23  C   UNK d   1      15.059   6.820  11.587  0.00  0.00     0.011 A 
ATOM     24 Br   UNK d   1      16.828   7.447  11.240  0.00  0.00    -0.051 Br
ATOM     25  C   UNK d   1      14.008   7.695  11.668  0.00  0.00     0.019 A 
ATOM     26  C   UNK d   1      12.734   7.220  11.921  0.00  0.00     0.011 A 
ENDBRANCH   1  20
BRANCH   8  27
ATOM     27  C   UNK d   1       8.628   8.218  13.320  0.00  0.00     0.004 A 
ATOM     28  C   UNK d   1       7.284   8.004  13.116  0.00  0.00     0.051 A 
ATOM     29  C   UNK d   1       6.344   9.009  12.973  0.00  0.00     0.069 A 
ATOM     30  C   UNK d   1       6.765  10.306  13.037  0.00  0.00     0.037 A 
ATOM     31  C   UNK d   1       8.116  10.570  13.244  0.00  0.00     0.004 A 
ATOM     32  C   UNK d   1       9.025   9.542  13.382  0.00  0.00     0.014 A 
BRANCH  29  33
ATOM     33  O   UNK d   1       5.041   8.613  12.775  0.00  0.00    -0.356 OA
ATOM     34  C   UNK d   1       3.916   9.000  13.486  0.00  0.00     0.210 C 
ENDBRANCH  29  33
ENDBRANCH   8  27
TORSDOF 7
ENDMDL
