/Users/jonathanwahrer/Desktop/Msc/3_Semester/Drug_Design_Praktikum/waehrer_HTS_screening/HTS_experiment/out/docking_results/vina_output/2jam/0347_docked.pdbqt
 OpenBabel03162217323D

 34 37  0  0  1  0  0  0  0  0999 V2000
   11.1300    5.3860   12.3820 C   0  0  2  0  0  3  0  0  0  0  0  0
   10.6180    4.5950   11.2810 N   0  0  0  0  0  0  0  0  0  0  0  0
   10.1750    5.5250   10.2900 C   0  0  0  0  0  0  0  0  0  0  0  0
   10.0830    5.3220    9.0540 O   0  0  0  0  0  0  0  0  0  0  0  0
    9.8530    6.7510   11.0110 C   0  0  0  0  0  0  0  0  0  0  0  0
    9.4260    7.8470   10.5700 O   0  0  0  0  0  0  0  0  0  0  0  0
   10.1200    6.5070   12.4250 C   0  0  0  0  0  0  0  0  0  0  0  0
    9.6170    7.1520   13.4490 C   0  0  0  0  0  0  0  0  0  0  0  0
   10.0790    6.7570   14.7170 O   0  0  0  0  0  1  0  0  0  0  0  0
   10.5570    3.1270   11.1800 C   0  0  0  0  0  2  0  0  0  0  0  0
   11.5380    2.6250   10.1100 C   0  0  0  0  0  2  0  0  0  0  0  0
   10.9550    1.4170    9.4340 C   0  0  0  0  0  2  0  0  0  0  0  0
   11.7950    0.2750    9.7050 N   0  0  0  0  0  4  0  0  0  0  0  0
   13.1200    0.3880    9.1840 C   0  0  0  0  0  2  0  0  0  0  0  0
   13.1820    0.2530    7.7000 C   0  0  0  0  0  2  0  0  0  0  0  0
   12.6110   -0.9380    7.2870 O   0  0  0  0  0  0  0  0  0  0  0  0
   11.2700   -0.9190    7.6730 C   0  0  0  0  0  2  0  0  0  0  0  0
   11.2250   -0.9560    9.1880 C   0  0  0  0  0  2  0  0  0  0  0  0
   11.8540    0.1540   10.7430 H   0  0  0  0  0  0  0  0  0  0  0  0
   12.4700    5.8810   12.1010 C   0  0  0  0  0  0  0  0  0  0  0  0
   13.5330    5.0150   12.0180 C   0  0  0  0  0  3  0  0  0  0  0  0
   14.8270    5.4770   11.7620 C   0  0  0  0  0  3  0  0  0  0  0  0
   15.0590    6.8200   11.5870 C   0  0  0  0  0  0  0  0  0  0  0  0
   16.8280    7.4470   11.2400 Br  0  0  0  0  0  0  0  0  0  0  0  0
   14.0080    7.6950   11.6680 C   0  0  0  0  0  3  0  0  0  0  0  0
   12.7340    7.2200   11.9210 C   0  0  0  0  0  3  0  0  0  0  0  0
    8.6280    8.2180   13.3200 C   0  0  0  0  0  0  0  0  0  0  0  0
    7.2840    8.0040   13.1160 C   0  0  0  0  0  3  0  0  0  0  0  0
    6.3440    9.0090   12.9730 C   0  0  0  0  0  0  0  0  0  0  0  0
    6.7650   10.3060   13.0370 C   0  0  0  0  0  3  0  0  0  0  0  0
    8.1160   10.5700   13.2440 C   0  0  0  0  0  3  0  0  0  0  0  0
    9.0250    9.5420   13.3820 C   0  0  0  0  0  3  0  0  0  0  0  0
    5.0410    8.6130   12.7750 O   0  0  0  0  0  0  0  0  0  0  0  0
    3.9160    9.0000   13.4860 C   0  0  0  0  0  1  0  0  0  0  0  0
  1 20  1  6  0  0  0
  1  7  1  0  0  0  0
  2  1  1  0  0  0  0
  3  5  1  0  0  0  0
  3  2  1  0  0  0  0
  4  3  2  0  0  0  0
  5  7  1  0  0  0  0
  6  5  2  0  0  0  0
  7  8  2  0  0  0  0
  8  9  1  0  0  0  0
 10  2  1  0  0  0  0
 11 10  1  0  0  0  0
 12 13  1  0  0  0  0
 12 11  1  0  0  0  0
 13 19  1  0  0  0  0
 14 13  1  0  0  0  0
 15 14  1  0  0  0  0
 16 17  1  0  0  0  0
 16 15  1  0  0  0  0
 17 18  1  0  0  0  0
 18 13  1  0  0  0  0
 21 20  1  0  0  0  0
 22 21  2  0  0  0  0
 23 25  2  0  0  0  0
 23 22  1  0  0  0  0
 24 23  1  0  0  0  0
 25 26  1  0  0  0  0
 26 20  2  0  0  0  0
 27 32  1  0  0  0  0
 27  8  1  0  0  0  0
 28 27  2  0  0  0  0
 29 30  2  0  0  0  0
 29 28  1  0  0  0  0
 30 31  1  0  0  0  0
 31 32  2  0  0  0  0
 33 29  1  0  0  0  0
 33 34  1  0  0  0  0
M  END
>  <Pose>
1

>  <Score>
-9.177

$$$$
