/Users/jonathanwahrer/Desktop/Msc/3_Semester/Drug_Design_Praktikum/waehrer_HTS_screening/HTS_experiment/out/docking_results/vina_output/2jam/0351_docked.pdbqt
 OpenBabel03162217333D

 32 35  0  0  1  0  0  0  0  0999 V2000
   12.4950    6.1380   11.0660 C   0  0  1  0  0  3  0  0  0  0  0  0
   11.6870    5.0490   10.6540 N   0  0  0  0  0  0  0  0  0  0  0  0
   10.4620    5.6950   10.1940 C   0  0  0  0  0  0  0  0  0  0  0  0
    9.6770    5.2540    9.3110 O   0  0  0  0  0  0  0  0  0  0  0  0
   10.3500    6.9320   10.9650 C   0  0  0  0  0  0  0  0  0  0  0  0
    9.4470    7.8070   10.9100 O   0  0  0  0  0  0  0  0  0  0  0  0
   11.5220    6.9620   11.8430 C   0  0  0  0  0  0  0  0  0  0  0  0
   11.6300    7.5380   13.0270 C   0  0  0  0  0  0  0  0  0  0  0  0
   12.7990    7.4150   13.7610 O   0  0  0  0  0  1  0  0  0  0  0  0
   11.8940    3.6000   10.5830 C   0  0  0  0  0  2  0  0  0  0  0  0
   12.7870    3.1570    9.4660 C   0  0  0  0  0  2  0  0  0  0  0  0
   13.2170    1.7830    9.6020 N   0  0  0  0  0  4  0  0  0  0  0  0
   14.2420    1.6130   10.5930 C   0  0  0  0  0  2  0  0  0  0  0  0
   15.5710    2.1900   10.2000 C   0  0  0  0  0  2  0  0  0  0  0  0
   15.9890    1.7410    8.9460 O   0  0  0  0  0  0  0  0  0  0  0  0
   15.0090    2.1630    8.0340 C   0  0  0  0  0  2  0  0  0  0  0  0
   13.7620    1.3570    8.3260 C   0  0  0  0  0  2  0  0  0  0  0  0
   12.4340    1.1400    9.8290 H   0  0  0  0  0  0  0  0  0  0  0  0
   13.7800    5.9730   11.6300 C   0  0  0  0  0  0  0  0  0  0  0  0
   14.1190    4.9160   12.4260 C   0  0  0  0  0  3  0  0  0  0  0  0
   15.4150    4.7930   12.9480 C   0  0  0  0  0  3  0  0  0  0  0  0
   16.3900    5.7270   12.6800 C   0  0  0  0  0  0  0  0  0  0  0  0
   18.1610    5.6070   13.3630 Br  0  0  0  0  0  0  0  0  0  0  0  0
   16.0540    6.7890   11.8840 C   0  0  0  0  0  3  0  0  0  0  0  0
   14.7780    6.8930   11.3800 C   0  0  0  0  0  3  0  0  0  0  0  0
   10.5710    8.3300   13.6370 C   0  0  0  0  0  0  0  0  0  0  0  0
    9.6340    7.5870   14.3670 C   0  0  0  0  0  3  0  0  0  0  0  0
    8.5930    8.1850   15.0390 C   0  0  0  0  0  3  0  0  0  0  0  0
    8.4840    9.5700   14.9820 C   0  0  0  0  0  0  0  0  0  0  0  0
    9.4090   10.2940   14.2630 C   0  0  0  0  0  3  0  0  0  0  0  0
    7.1560   10.3190   15.8400 Cl  0  0  0  0  0  0  0  0  0  0  0  0
   10.4490    9.6840   13.5930 C   0  0  0  0  0  3  0  0  0  0  0  0
  1 19  1  1  0  0  0
  1  7  1  0  0  0  0
  2  1  1  0  0  0  0
  3  2  1  0  0  0  0
  3  5  1  0  0  0  0
  4  3  2  0  0  0  0
  5  7  1  0  0  0  0
  6  5  2  0  0  0  0
  7  8  2  0  0  0  0
  8 26  1  0  0  0  0
  8  9  1  0  0  0  0
 10  2  1  0  0  0  0
 11 12  1  0  0  0  0
 11 10  1  0  0  0  0
 12 18  1  0  0  0  0
 12 13  1  0  0  0  0
 14 13  1  0  0  0  0
 15 14  1  0  0  0  0
 16 17  1  0  0  0  0
 16 15  1  0  0  0  0
 17 12  1  0  0  0  0
 19 20  1  0  0  0  0
 20 21  2  0  0  0  0
 22 21  1  0  0  0  0
 22 23  1  0  0  0  0
 24 22  2  0  0  0  0
 25 19  2  0  0  0  0
 25 24  1  0  0  0  0
 26 27  1  0  0  0  0
 27 28  2  0  0  0  0
 29 28  1  0  0  0  0
 29 31  1  0  0  0  0
 30 29  2  0  0  0  0
 32 26  2  0  0  0  0
 32 30  1  0  0  0  0
M  END
>  <Pose>
1

>  <Score>
-8.274

$$$$
