MODEL 1
REMARK VINA RESULT:    -8.274      0.000      0.000
REMARK INTER + INTRA:         -11.427
REMARK INTER:                 -10.692
REMARK INTRA:                  -0.735
REMARK UNBOUND:                -0.735
REMARK  5 active torsions:
REMARK  status: ('A' for Active; 'I' for Inactive)
REMARK    1  A    between atoms: C_5  and  C_8 
REMARK    2  A    between atoms: N_9  and  C_24 
REMARK    3  A    between atoms: C_15  and  C_17 
REMARK    4  A    between atoms: C_24  and  C_25 
REMARK    5  A    between atoms: C_25  and  N_26 
ROOT
ATOM      1  C   UNK d   1      12.495   6.138  11.066  0.00  0.00     0.161 C 
ATOM      2  N   UNK d   1      11.687   5.049  10.654  0.00  0.00    -0.331 N 
ATOM      3  C   UNK d   1      10.462   5.695  10.194  0.00  0.00     0.295 C 
ATOM      4  O   UNK d   1       9.677   5.254   9.311  0.00  0.00    -0.264 OA
ATOM      5  C   UNK d   1      10.350   6.932  10.965  0.00  0.00     0.250 C 
ATOM      6  O   UNK d   1       9.447   7.807  10.910  0.00  0.00    -0.282 OA
ATOM      7  C   UNK d   1      11.522   6.962  11.843  0.00  0.00     0.062 C 
ATOM      8  C   UNK d   1      11.630   7.538  13.027  0.00  0.00     0.130 C 
ATOM      9  O   UNK d   1      12.799   7.415  13.761  0.00  0.00    -0.190 OA
ENDROOT
BRANCH   2  10
ATOM     10  C   UNK d   1      11.894   3.600  10.583  0.00  0.00     0.155 C 
BRANCH  10  11
ATOM     11  C   UNK d   1      12.787   3.157   9.466  0.00  0.00     0.255 C 
BRANCH  11  12
ATOM     12  N   UNK d   1      13.217   1.783   9.602  0.00  0.00    -0.066 N 
ATOM     13  C   UNK d   1      14.242   1.613  10.593  0.00  0.00     0.261 C 
ATOM     14  C   UNK d   1      15.571   2.190  10.200  0.00  0.00     0.195 C 
ATOM     15  O   UNK d   1      15.989   1.741   8.946  0.00  0.00    -0.388 OA
ATOM     16  C   UNK d   1      15.009   2.163   8.034  0.00  0.00     0.195 C 
ATOM     17  C   UNK d   1      13.762   1.357   8.326  0.00  0.00     0.261 C 
ATOM     18  H   UNK d   1      12.434   1.140   9.829  0.00  0.00     0.280 HD
ENDBRANCH  11  12
ENDBRANCH  10  11
ENDBRANCH   2  10
BRANCH   1  19
ATOM     19  C   UNK d   1      13.780   5.973  11.630  0.00  0.00    -0.030 A 
ATOM     20  C   UNK d   1      14.119   4.916  12.426  0.00  0.00     0.011 A 
ATOM     21  C   UNK d   1      15.415   4.793  12.948  0.00  0.00     0.019 A 
ATOM     22  C   UNK d   1      16.390   5.727  12.680  0.00  0.00     0.011 A 
ATOM     23 Br   UNK d   1      18.161   5.607  13.363  0.00  0.00    -0.051 Br
ATOM     24  C   UNK d   1      16.054   6.789  11.884  0.00  0.00     0.019 A 
ATOM     25  C   UNK d   1      14.778   6.893  11.380  0.00  0.00     0.011 A 
ENDBRANCH   1  19
BRANCH   8  26
ATOM     26  C   UNK d   1      10.571   8.330  13.637  0.00  0.00     0.001 A 
ATOM     27  C   UNK d   1       9.634   7.587  14.367  0.00  0.00     0.016 A 
ATOM     28  C   UNK d   1       8.593   8.185  15.039  0.00  0.00     0.024 A 
ATOM     29  C   UNK d   1       8.484   9.570  14.982  0.00  0.00     0.034 A 
ATOM     30  C   UNK d   1       9.409  10.294  14.263  0.00  0.00     0.024 A 
ATOM     31 Cl   UNK d   1       7.156  10.319  15.840  0.00  0.00    -0.084 Cl
ATOM     32  C   UNK d   1      10.449   9.684  13.593  0.00  0.00     0.016 A 
ENDBRANCH   8  26
TORSDOF 5
ENDMDL
