/Users/jonathanwahrer/Desktop/Msc/3_Semester/Drug_Design_Praktikum/waehrer_HTS_screening/HTS_experiment/out/docking_results/vina_output/2jam/0354_docked.pdbqt
 OpenBabel03162217333D

 32 35  0  0  1  0  0  0  0  0999 V2000
   12.5060    6.4340   10.8570 C   0  0  1  0  0  3  0  0  0  0  0  0
   11.8310    5.3600   10.2010 N   0  0  0  0  0  0  0  0  0  0  0  0
   10.4650    5.8140   10.0160 C   0  0  0  0  0  0  0  0  0  0  0  0
    9.6610    5.3330    9.1770 O   0  0  0  0  0  0  0  0  0  0  0  0
   10.2230    6.8910   10.9570 C   0  0  0  0  0  0  0  0  0  0  0  0
    9.1540    7.5540   11.1190 O   0  0  0  0  0  0  0  0  0  0  0  0
   11.4560    7.0720   11.6950 C   0  0  0  0  0  0  0  0  0  0  0  0
   11.5760    7.6550   12.8740 C   0  0  0  0  0  0  0  0  0  0  0  0
   12.8790    7.6760   13.4290 O   0  0  0  0  0  1  0  0  0  0  0  0
   12.3020    4.0710    9.6910 C   0  0  0  0  0  2  0  0  0  0  0  0
   11.8340    2.8780   10.4530 C   0  0  0  0  0  2  0  0  0  0  0  0
   10.6960    2.1600    9.7440 C   0  0  0  0  0  2  0  0  0  0  0  0
   10.9320    0.7360    9.6840 N   0  0  0  0  0  4  0  0  0  0  0  0
    9.8700    0.0260    9.0080 C   0  0  0  0  0  2  0  0  0  0  0  0
   10.4280   -1.3510    8.6390 C   0  0  0  0  0  2  0  0  0  0  0  0
   11.2800   -1.2010    7.5450 O   0  0  0  0  0  0  0  0  0  0  0  0
   12.0590   -0.0490    7.6550 C   0  0  0  0  0  2  0  0  0  0  0  0
   12.1910    0.3970    9.0960 C   0  0  0  0  0  2  0  0  0  0  0  0
   10.9410    0.3950   10.6750 H   0  0  0  0  0  0  0  0  0  0  0  0
   13.7280    6.1430   11.5800 C   0  0  0  0  0  0  0  0  0  0  0  0
   13.9560    5.1110   12.4260 C   0  0  0  0  0  3  0  0  0  0  0  0
   15.1750    4.9170   13.0460 C   0  0  0  0  0  3  0  0  0  0  0  0
   16.2350    5.7730   12.8360 C   0  0  0  0  0  0  0  0  0  0  0  0
   17.9280    5.5240   13.6820 Br  0  0  0  0  0  0  0  0  0  0  0  0
   16.0380    6.8350   11.9810 C   0  0  0  0  0  3  0  0  0  0  0  0
   14.8160    7.0080   11.3730 C   0  0  0  0  0  3  0  0  0  0  0  0
   10.4820    8.2630   13.6040 C   0  0  0  0  0  0  0  0  0  0  0  0
    9.7770    7.4200   14.4720 C   0  0  0  0  0  3  0  0  0  0  0  0
    8.7410    7.8750   15.2600 C   0  0  0  0  0  3  0  0  0  0  0  0
    8.3840    9.1710   15.2030 N   0  0  0  0  0  0  0  0  0  0  0  0
    9.0460   10.0060   14.3760 C   0  0  0  0  0  3  0  0  0  0  0  0
   10.0950    9.5580   13.5760 C   0  0  0  0  0  3  0  0  0  0  0  0
  1 20  1  1  0  0  0
  1  7  1  0  0  0  0
  2  1  1  0  0  0  0
  3  2  1  0  0  0  0
  3  5  1  0  0  0  0
  4  3  2  0  0  0  0
  5  6  2  0  0  0  0
  5  7  1  0  0  0  0
  7  8  2  0  0  0  0
  8  9  1  0  0  0  0
  8 27  1  0  0  0  0
 10  2  1  0  0  0  0
 10 11  1  0  0  0  0
 12 11  1  0  0  0  0
 13 12  1  0  0  0  0
 13 19  1  0  0  0  0
 14 13  1  0  0  0  0
 15 14  1  0  0  0  0
 16 17  1  0  0  0  0
 16 15  1  0  0  0  0
 17 18  1  0  0  0  0
 18 13  1  0  0  0  0
 20 21  1  0  0  0  0
 21 22  2  0  0  0  0
 23 22  1  0  0  0  0
 23 24  1  0  0  0  0
 25 23  2  0  0  0  0
 26 20  2  0  0  0  0
 26 25  1  0  0  0  0
 27 28  1  0  0  0  0
 28 29  2  0  0  0  0
 30 29  1  0  0  0  0
 31 30  2  0  0  0  0
 32 27  2  0  0  0  0
 32 31  1  0  0  0  0
M  END
>  <Pose>
1

>  <Score>
-8.337

$$$$
