/Users/jonathanwahrer/Desktop/Msc/3_Semester/Drug_Design_Praktikum/waehrer_HTS_screening/HTS_experiment/out/docking_results/vina_output/2jam/0362_docked.pdbqt
 OpenBabel03162217343D

 36 40  0  0  1  0  0  0  0  0999 V2000
   12.8600    7.0540   11.4000 C   0  0  2  0  0  3  0  0  0  0  0  0
   11.6220    7.5130   11.8750 N   0  0  0  0  0  0  0  0  0  0  0  0
   10.6850    6.9550   10.9150 C   0  0  0  0  0  0  0  0  0  0  0  0
    9.5310    7.3990   10.5920 O   0  0  0  0  0  0  0  0  0  0  0  0
   11.2930    5.7540   10.3520 C   0  0  0  0  0  0  0  0  0  0  0  0
   10.8630    4.9340    9.4790 O   0  0  0  0  0  0  0  0  0  0  0  0
   12.5920    5.6450   11.0150 C   0  0  0  0  0  0  0  0  0  0  0  0
   13.3410    4.5720   11.1800 C   0  0  0  0  0  0  0  0  0  0  0  0
   14.5810    4.6790   11.7940 O   0  0  0  0  0  1  0  0  0  0  0  0
   14.0960    7.2840   12.0810 C   0  0  0  0  0  0  0  0  0  0  0  0
   14.2280    7.1560   13.4340 C   0  0  0  0  0  3  0  0  0  0  0  0
   15.4410    7.4060   14.0400 C   0  0  0  0  0  3  0  0  0  0  0  0
   16.5580    7.7900   13.3210 C   0  0  0  0  0  0  0  0  0  0  0  0
   18.2350    8.1360   14.1600 Br  0  0  0  0  0  0  0  0  0  0  0  0
   16.4150    7.9170   11.9520 C   0  0  0  0  0  3  0  0  0  0  0  0
   15.1970    7.6630   11.3660 C   0  0  0  0  0  3  0  0  0  0  0  0
   12.9240    3.2470   10.7460 C   0  0  0  0  0  0  0  0  0  0  0  0
   13.3970    2.5300    9.7120 N   0  0  0  0  0  0  0  0  0  0  0  0
   12.7770    1.3280    9.6590 C   0  0  0  0  0  0  0  0  0  0  0  0
   14.3230    2.7520    8.7340 C   0  0  0  0  0  3  0  0  0  0  0  0
   11.9060    1.3070   10.6800 N   0  0  0  0  0  0  0  0  0  0  0  0
   13.0610    0.3910    8.6880 C   0  0  0  0  0  3  0  0  0  0  0  0
   11.9610    2.4480   11.3640 C   0  0  0  0  0  0  0  0  0  0  0  0
   11.1900    2.8790   12.5610 C   0  0  0  0  0  1  0  0  0  0  0  0
   14.0010    0.6440    7.7170 C   0  0  0  0  0  3  0  0  0  0  0  0
   14.6400    1.8630    7.7550 C   0  0  0  0  0  3  0  0  0  0  0  0
   11.0900    8.3240   12.9210 C   0  0  0  0  0  2  0  0  0  0  0  0
   10.3310    7.7940   14.0330 C   0  0  0  0  0  2  0  0  0  0  0  0
    8.9020    8.2550   14.1980 C   0  0  0  0  0  2  0  0  0  0  0  0
    8.0230    7.6230   13.2190 N   0  0  0  0  0  4  0  0  0  0  0  0
    6.7490    8.2630   13.0800 C   0  0  0  0  0  2  0  0  0  0  0  0
    5.6950    7.7790   14.0320 C   0  0  0  0  0  2  0  0  0  0  0  0
    6.1900    7.0360   15.0710 O   0  0  0  0  0  0  0  0  0  0  0  0
    6.9970    5.9880   14.7140 C   0  0  0  0  0  2  0  0  0  0  0  0
    7.8200    6.2330   13.4920 C   0  0  0  0  0  2  0  0  0  0  0  0
    8.5100    7.7110   12.2920 H   0  0  0  0  0  0  0  0  0  0  0  0
  1  2  1  0  0  0  0
  1 10  1  1  0  0  0
  2 27  1  0  0  0  0
  3  2  1  0  0  0  0
  4  3  2  0  0  0  0
  5  3  1  0  0  0  0
  5  7  1  0  0  0  0
  6  5  2  0  0  0  0
  7  8  2  0  0  0  0
  7  1  1  0  0  0  0
  8  9  1  0  0  0  0
 10 11  1  0  0  0  0
 11 12  2  0  0  0  0
 13 12  1  0  0  0  0
 13 14  1  0  0  0  0
 15 13  2  0  0  0  0
 16 15  1  0  0  0  0
 16 10  2  0  0  0  0
 17  8  1  0  0  0  0
 17 23  2  0  0  0  0
 18 17  1  0  0  0  0
 19 18  1  0  0  0  0
 19 21  2  0  0  0  0
 20 18  1  0  0  0  0
 21 23  1  0  0  0  0
 22 19  1  0  0  0  0
 23 24  1  0  0  0  0
 25 26  1  0  0  0  0
 25 22  2  0  0  0  0
 26 20  2  0  0  0  0
 27 28  1  0  0  0  0
 28 29  1  0  0  0  0
 30 35  1  0  0  0  0
 30 29  1  0  0  0  0
 31 30  1  0  0  0  0
 31 32  1  0  0  0  0
 32 33  1  0  0  0  0
 34 33  1  0  0  0  0
 35 34  1  0  0  0  0
 36 30  1  0  0  0  0
M  END
>  <Pose>
1

>  <Score>
-8.470

$$$$
