MODEL 1
REMARK VINA RESULT:    -8.167      0.000      0.000
REMARK INTER + INTRA:         -11.454
REMARK INTER:                 -10.077
REMARK INTRA:                  -1.376
REMARK UNBOUND:                -1.376
REMARK  4 active torsions:
REMARK  status: ('A' for Active; 'I' for Inactive)
REMARK    1  A    between atoms: C_5  and  N_8 
REMARK       I    between atoms: N_8  and  C_9 
REMARK    2  A    between atoms: C_9  and  C_11 
REMARK    3  A    between atoms: C_11  and  N_12 
REMARK    4  A    between atoms: N_18  and  C_19 
ROOT
ATOM      1  N   UNK d   1      10.887   7.287  11.941  0.00  0.00    -0.205 N 
ATOM      2  N   UNK d   1      12.139   6.840  11.923  0.00  0.00     0.023 NA
ATOM      3  C   UNK d   1      13.110   7.396  12.703  0.00  0.00     0.729 A 
ATOM      4  N   UNK d   1      12.796   8.421  13.511  0.00  0.00    -0.138 N 
ATOM      5  C   UNK d   1      13.966   8.876  14.229  0.00  0.00     0.172 A 
ATOM      6  C   UNK d   1      15.108   8.005  13.799  0.00  0.00     0.169 A 
ATOM      7  N   UNK d   1      14.483   7.071  12.881  0.00  0.00    -0.178 N 
ATOM      8  C   UNK d   1      11.552   8.914  13.573  0.00  0.00     0.332 A 
ATOM      9  O   UNK d   1      11.261   9.872  14.328  0.00  0.00    -0.261 OA
ATOM     10  C   UNK d   1      10.608   8.314  12.763  0.00  0.00     0.333 A 
ATOM     11  O   UNK d   1       9.427   8.743  12.785  0.00  0.00    -0.260 OA
ENDROOT
BRANCH   1  12
ATOM     12  C   UNK d   1       9.821   6.676  11.129  0.00  0.00     0.258 C 
BRANCH  12  13
ATOM     13  C   UNK d   1      10.325   5.510  10.405  0.00  0.00     0.242 C 
ATOM     14  N   UNK d   1      10.868   4.335  10.937  0.00  0.00    -0.326 N 
ATOM     15  H   UNK d   1      10.931   4.282  11.993  0.00  0.00     0.169 HD
ATOM     16  O   UNK d   1      10.235   5.632   9.119  0.00  0.00    -0.271 OA
BRANCH  14  17
ATOM     17  C   UNK d   1      11.331   3.242  10.200  0.00  0.00     0.034 A 
ATOM     18  C   UNK d   1      12.612   3.020   9.759  0.00  0.00     0.031 A 
ATOM     19  C   UNK d   1      12.984   1.872   9.045  0.00  0.00     0.021 A 
ATOM     20  C   UNK d   1      12.074   0.893   8.746  0.00  0.00     0.011 A 
ATOM     21 Br   UNK d   1      12.565  -0.680   7.778  0.00  0.00    -0.051 Br
ATOM     22  C   UNK d   1      10.778   1.094   9.178  0.00  0.00     0.021 A 
ATOM     23  C   UNK d   1      10.422   2.217   9.873  0.00  0.00     0.031 A 
ENDBRANCH  14  17
ENDBRANCH  12  13
ENDBRANCH   1  12
BRANCH   7  24
ATOM     24  C   UNK d   1      15.188   6.003  12.278  0.00  0.00     0.051 A 
ATOM     25  C   UNK d   1      14.794   4.694  12.348  0.00  0.00     0.030 A 
ATOM     26  C   UNK d   1      15.515   3.669  11.759  0.00  0.00     0.002 A 
ATOM     27  C   UNK d   1      16.678   3.961  11.072  0.00  0.00     0.000 A 
ATOM     28  C   UNK d   1      17.086   5.254  10.990  0.00  0.00     0.002 A 
ATOM     29  C   UNK d   1      16.363   6.269  11.580  0.00  0.00     0.030 A 
ENDBRANCH   7  24
TORSDOF 4
ENDMDL
