/Users/jonathanwahrer/Desktop/Msc/3_Semester/Drug_Design_Praktikum/waehrer_HTS_screening/HTS_experiment/out/docking_results/vina_output/2jam/0382_docked.pdbqt
 OpenBabel03162217353D

 31 34  0  0  0  0  0  0  0  0999 V2000
   13.3120    5.5470   11.1880 N   0  0  0  0  0  0  0  0  0  0  0  0
   14.4300    5.3590   11.8900 N   0  0  0  0  0  0  0  0  0  0  0  0
   14.7210    4.0790   11.9120 N   0  0  0  0  0  0  0  0  0  0  0  0
   13.7760    3.4120   11.2080 C   0  0  0  0  0  0  0  0  0  0  0  0
   12.9120    4.3350   10.7670 C   0  0  0  0  0  0  0  0  0  0  0  0
   11.9700    3.6190   10.0590 C   0  0  0  0  0  0  0  0  0  0  0  0
   10.9820    4.1700    9.4880 O   0  0  0  0  0  0  0  0  0  0  0  0
   12.2330    2.3030   10.0570 N   0  0  0  0  0  0  0  0  0  0  0  0
   13.3780    2.1650   10.7850 C   0  0  0  0  0  0  0  0  0  0  0  0
   13.9240    1.0480   10.9950 O   0  0  0  0  0  0  0  0  0  0  0  0
   14.9590    6.1380   12.3340 H   0  0  0  0  0  0  0  0  0  0  0  0
   15.5320    3.6000   12.3770 H   0  0  0  0  0  0  0  0  0  0  0  0
   12.6950    6.8390   10.9580 C   0  0  0  0  0  2  0  0  0  0  0  0
   11.4450    6.9360   11.8160 C   0  0  0  0  0  0  0  0  0  0  0  0
   10.2520    7.4170   11.2610 N   0  0  0  0  0  0  0  0  0  0  0  0
   10.2510    7.7110   10.2330 H   0  0  0  0  0  0  0  0  0  0  0  0
   11.5040    6.5860   13.0130 O   0  0  0  0  0  0  0  0  0  0  0  0
    9.0170    7.5540   11.9350 C   0  0  0  0  0  0  0  0  0  0  0  0
    8.0780    6.5570   12.0940 C   0  0  0  0  0  3  0  0  0  0  0  0
    6.8890    6.7370   12.7890 C   0  0  0  0  0  3  0  0  0  0  0  0
    6.5960    7.9490   13.3600 C   0  0  0  0  0  0  0  0  0  0  0  0
    4.9890    8.2640   14.3260 Br  0  0  0  0  0  0  0  0  0  0  0  0
    7.5190    8.9600   13.2150 C   0  0  0  0  0  3  0  0  0  0  0  0
    8.6810    8.7830   12.5340 C   0  0  0  0  0  3  0  0  0  0  0  0
   11.4990    1.2380    9.4360 C   0  0  0  0  0  0  0  0  0  0  0  0
   10.1810    1.0020    9.7630 C   0  0  0  0  0  3  0  0  0  0  0  0
    9.4640   -0.0140    9.1620 C   0  0  0  0  0  3  0  0  0  0  0  0
   10.0260   -0.8440    8.2090 C   0  0  0  0  0  0  0  0  0  0  0  0
   11.3450   -0.6100    7.8810 C   0  0  0  0  0  3  0  0  0  0  0  0
    9.2240   -1.9270    7.5780 C   0  0  0  0  0  1  0  0  0  0  0  0
   12.0590    0.4110    8.4860 C   0  0  0  0  0  3  0  0  0  0  0  0
  1  2  1  0  0  0  0
  2  3  1  0  0  0  0
  2 11  1  0  0  0  0
  3 12  1  0  0  0  0
  4  3  1  0  0  0  0
  5  1  1  0  0  0  0
  5  4  2  0  0  0  0
  6  5  1  0  0  0  0
  7  6  2  0  0  0  0
  8  6  1  0  0  0  0
  8  9  1  0  0  0  0
  9 10  2  0  0  0  0
  9  4  1  0  0  0  0
 13  1  1  0  0  0  0
 13 14  1  0  0  0  0
 14 17  2  0  0  0  0
 15 14  1  0  0  0  0
 15 18  1  0  0  0  0
 16 15  1  0  0  0  0
 18 19  2  0  0  0  0
 18 24  1  0  0  0  0
 19 20  1  0  0  0  0
 20 21  2  0  0  0  0
 21 22  1  0  0  0  0
 23 21  1  0  0  0  0
 24 23  2  0  0  0  0
 25 26  1  0  0  0  0
 25  8  1  0  0  0  0
 27 26  2  0  0  0  0
 28 27  1  0  0  0  0
 29 28  2  0  0  0  0
 29 31  1  0  0  0  0
 30 28  1  0  0  0  0
 31 25  2  0  0  0  0
M  END
>  <Pose>
1

>  <Score>
-9.275

$$$$
