MODEL 1
REMARK VINA RESULT:    -8.787      0.000      0.000
REMARK INTER + INTRA:         -11.137
REMARK INTER:                 -10.585
REMARK INTRA:                  -0.551
REMARK UNBOUND:                -0.551
REMARK  4 active torsions:
REMARK  status: ('A' for Active; 'I' for Inactive)
REMARK    1  A    between atoms: C_5  and  N_8 
REMARK       I    between atoms: N_8  and  C_9 
REMARK    2  A    between atoms: C_9  and  C_11 
REMARK    3  A    between atoms: C_18  and  N_23 
REMARK    4  A    between atoms: C_20  and  N_22 
ROOT
ATOM      1  C   UNK d   1      10.257   6.196  11.277  0.00  0.00     0.127 C 
ATOM      2  C   UNK d   1      11.573   6.882  11.058  0.00  0.00     0.122 C 
ATOM      3  C   UNK d   1      11.958   7.818  12.121  0.00  0.00     0.224 C 
ATOM      4  O   UNK d   1      13.188   7.977  12.350  0.00  0.00    -0.273 OA
ATOM      5  N   UNK d   1      10.965   8.510  12.857  0.00  0.00    -0.310 N 
ATOM      6  C   UNK d   1       9.622   8.074  12.814  0.00  0.00     0.160 A 
ATOM      7  N   UNK d   1       8.677   8.766  13.522  0.00  0.00    -0.044 NA
ATOM      8  C   UNK d   1       7.388   8.419  13.516  0.00  0.00     0.728 A 
ATOM      9  N   UNK d   1       7.035   7.354  12.784  0.00  0.00    -0.045 NA
ATOM     10  C   UNK d   1       7.938   6.629  12.061  0.00  0.00     0.151 A 
ATOM     11  C   UNK d   1       9.276   6.968  12.051  0.00  0.00     0.048 A 
ATOM     12  H   UNK d   1      11.199   9.358  13.449  0.00  0.00     0.170 HD
ENDROOT
BRANCH   1  13
ATOM     13  C   UNK d   1      10.608   4.859  11.965  0.00  0.00     0.231 C 
ATOM     14  N   UNK d   1      11.028   3.837  11.239  0.00  0.00    -0.327 N 
ATOM     15  H   UNK d   1      10.963   3.028  12.332  0.00  0.00     0.169 HD
ATOM     16  O   UNK d   1      10.416   4.967  13.241  0.00  0.00    -0.272 OA
BRANCH  14  17
ATOM     17  C   UNK d   1      11.463   2.775  10.486  0.00  0.00     0.034 A 
ATOM     18  C   UNK d   1      10.449   1.943   9.914  0.00  0.00     0.031 A 
ATOM     19  C   UNK d   1      10.756   0.916   9.098  0.00  0.00     0.021 A 
ATOM     20  C   UNK d   1      12.056   0.615   8.778  0.00  0.00     0.011 A 
ATOM     21 Br   UNK d   1      12.475  -0.849   7.609  0.00  0.00    -0.051 Br
ATOM     22  C   UNK d   1      13.064   1.390   9.310  0.00  0.00     0.021 A 
ATOM     23  C   UNK d   1      12.754   2.439  10.140  0.00  0.00     0.031 A 
ENDBRANCH  14  17
ENDBRANCH   1  13
BRANCH  10  24
ATOM     24  N   UNK d   1       7.514   5.496  11.309  0.00  0.00    -0.383 N 
ATOM     25  H   UNK d   1       7.142   5.561  10.357  0.00  0.00     0.157 HD
ATOM     26  H   UNK d   1       7.582   4.546  11.755  0.00  0.00     0.157 HD
ENDBRANCH  10  24
BRANCH   8  27
ATOM     27  N   UNK d   1       6.408   9.164  14.274  0.00  0.00    -0.210 N 
ATOM     28  C   UNK d   1       6.603   9.246  15.680  0.00  0.00     0.167 C 
ATOM     29  C   UNK d   1       5.852  10.363  16.344  0.00  0.00     0.188 C 
ATOM     30  O   UNK d   1       5.175  11.165  15.432  0.00  0.00    -0.388 OA
ATOM     31  C   UNK d   1       4.391  10.415  14.565  0.00  0.00     0.188 C 
ATOM     32  C   UNK d   1       5.308   9.774  13.556  0.00  0.00     0.167 C 
ENDBRANCH   8  27
TORSDOF 4
ENDMDL
