MODEL 1
REMARK VINA RESULT:    -7.765      0.000      0.000
REMARK INTER + INTRA:         -10.071
REMARK INTER:                  -9.126
REMARK INTRA:                  -0.945
REMARK UNBOUND:                -0.945
REMARK  3 active torsions:
REMARK  status: ('A' for Active; 'I' for Inactive)
REMARK    1  A    between atoms: C_5  and  N_8 
REMARK    2  A    between atoms: C_11  and  C_18 
REMARK    3  A    between atoms: C_12  and  N_13 
REMARK       I    between atoms: C_18  and  N_20 
ROOT
ATOM      1  N   UNK d   1      15.041   3.067  10.853  0.00  0.00    -0.216 N 
ATOM      2  N   UNK d   1      16.332   3.036  11.071  0.00  0.00    -0.177 NA
ATOM      3  C   UNK d   1      16.739   4.022  11.895  0.00  0.00     0.160 A 
ATOM      4  C   UNK d   1      15.613   4.727  12.219  0.00  0.00     0.097 A 
ATOM      5  C   UNK d   1      14.569   4.115  11.559  0.00  0.00     0.153 A 
ENDROOT
BRANCH   4   6
ATOM      6  C   UNK d   1      15.573   5.892  13.095  0.00  0.00     0.259 C 
ATOM      7  O   UNK d   1      15.442   5.665  14.322  0.00  0.00    -0.267 OA
ATOM      8  N   UNK d   1      15.673   7.221  12.630  0.00  0.00    -0.338 N 
ATOM      9  C   UNK d   1      15.622   8.303  13.583  0.00  0.00     0.146 C 
ATOM     10  C   UNK d   1      15.825   7.608  11.246  0.00  0.00     0.228 C 
ATOM     11  C   UNK d   1      16.966   8.966  13.603  0.00  0.00     0.142 C 
ATOM     12  N   UNK d   1      17.728   8.704  12.387  0.00  0.00    -0.358 N 
ATOM     13  C   UNK d   1      17.108   8.343  11.158  0.00  0.00     0.235 C 
ATOM     14  H   UNK d   1      18.787   8.792  12.444  0.00  0.00     0.162 HD
ATOM     15  O   UNK d   1      17.654   8.649  10.069  0.00  0.00    -0.272 OA
ENDBRANCH   4   6
BRANCH   5  16
ATOM     16  N   UNK d   1      13.181   4.517  11.604  0.00  0.00    -0.317 N 
ATOM     17  C   UNK d   1      12.226   4.088  12.415  0.00  0.00     0.098 A 
ATOM     18  C   UNK d   1      11.036   4.718  12.136  0.00  0.00     0.019 A 
ATOM     19  C   UNK d   1      11.311   5.571  11.094  0.00  0.00     0.019 A 
ATOM     20  C   UNK d   1      12.645   5.432  10.779  0.00  0.00     0.098 A 
ENDBRANCH   5  16
BRANCH   1  21
ATOM     21  C   UNK d   1      14.313   2.156  10.025  0.00  0.00     0.060 A 
ATOM     22  C   UNK d   1      13.205   1.471  10.488  0.00  0.00     0.033 A 
ATOM     23  C   UNK d   1      12.487   0.587   9.709  0.00  0.00     0.021 A 
ATOM     24  C   UNK d   1      12.871   0.357   8.404  0.00  0.00     0.011 A 
ATOM     25 Br   UNK d   1      11.891  -0.863   7.305  0.00  0.00    -0.051 Br
ATOM     26  C   UNK d   1      13.978   1.033   7.924  0.00  0.00     0.021 A 
ATOM     27  C   UNK d   1      14.686   1.915   8.715  0.00  0.00     0.033 A 
ENDBRANCH   1  21
TORSDOF 3
ENDMDL
