/Users/jonathanwahrer/Desktop/Msc/3_Semester/Drug_Design_Praktikum/waehrer_HTS_screening/HTS_experiment/out/docking_results/vina_output/2jam/0395_docked.pdbqt
 OpenBabel03162217363D

 28 31  0  0  1  0  0  0  0  0999 V2000
   12.0970    1.5760    9.7560 N   0  0  0  0  0  0  0  0  0  0  0  0
   13.3790    1.4540   10.0510 N   0  0  0  0  0  0  0  0  0  0  0  0
   13.8490    2.5480   10.6260 N   0  0  0  0  0  0  0  0  0  0  0  0
   12.8400    3.4550   10.7250 C   0  0  0  0  0  0  0  0  0  0  0  0
   11.7510    2.8090   10.1660 C   0  0  0  0  0  0  0  0  0  0  0  0
   10.5970    3.4850   10.1310 N   0  0  0  0  0  0  0  0  0  0  0  0
   10.5150    4.7350   10.6210 C   0  0  0  0  0  3  0  0  0  0  0  0
   11.5750    5.3730   11.1680 N   0  0  0  0  0  0  0  0  0  0  0  0
   12.7490    4.7330   11.2220 C   0  0  0  0  0  0  0  0  0  0  0  0
   13.7310    5.3200   11.7270 O   0  0  0  0  0  0  0  0  0  0  0  0
   11.3870    6.7220   11.6680 C   0  0  0  0  0  2  0  0  0  0  0  0
   10.4910    6.7060   12.8800 C   0  0  0  0  0  0  0  0  0  0  0  0
   10.8310    6.0840   13.9210 O   0  0  0  0  0  0  0  0  0  0  0  0
    9.2520    7.3890   12.8740 N   0  0  0  0  0  0  0  0  0  0  0  0
    8.3850    7.3810   14.0290 C   0  0  0  0  0  2  0  0  0  0  0  0
    8.8260    8.1130   11.7000 C   0  0  0  0  0  2  0  0  0  0  0  0
    6.9770    7.1210   13.5210 C   0  0  2  0  0  3  0  0  0  0  0  0
    6.5680    8.0080   12.5590 O   0  0  0  0  0  0  0  0  0  0  0  0
    6.0500    7.3070   14.7270 C   0  0  0  0  0  1  0  0  0  0  0  0
    7.5520    8.8390   12.0820 C   0  0  2  0  0  3  0  0  0  0  0  0
    7.1030    9.7050   10.9420 C   0  0  0  0  0  1  0  0  0  0  0  0
   11.2390    0.6190    9.1310 C   0  0  0  0  0  0  0  0  0  0  0  0
    9.9170    0.5190    9.5110 C   0  0  0  0  0  3  0  0  0  0  0  0
    9.0780   -0.4080    8.9090 C   0  0  0  0  0  3  0  0  0  0  0  0
    9.5210   -1.2590    7.9190 C   0  0  0  0  0  0  0  0  0  0  0  0
    8.3430   -2.5300    7.1040 Br  0  0  0  0  0  0  0  0  0  0  0  0
   10.8430   -1.1600    7.5390 C   0  0  0  0  0  3  0  0  0  0  0  0
   11.6740   -0.2370    8.1400 C   0  0  0  0  0  3  0  0  0  0  0  0
  1  2  1  0  0  0  0
  1  5  1  0  0  0  0
  2  3  2  0  0  0  0
  3  4  1  0  0  0  0
  4  9  1  0  0  0  0
  5  4  2  0  0  0  0
  6  5  1  0  0  0  0
  6  7  2  0  0  0  0
  7  8  1  0  0  0  0
  8  9  1  0  0  0  0
  8 11  1  0  0  0  0
  9 10  2  0  0  0  0
 11 12  1  0  0  0  0
 12 13  2  0  0  0  0
 14 12  1  0  0  0  0
 14 15  1  0  0  0  0
 16 20  1  0  0  0  0
 16 14  1  0  0  0  0
 17 15  1  0  0  0  0
 17 19  1  1  0  0  0
 18 17  1  0  0  0  0
 20 21  1  6  0  0  0
 20 18  1  0  0  0  0
 22 23  1  0  0  0  0
 22  1  1  0  0  0  0
 24 23  2  0  0  0  0
 25 24  1  0  0  0  0
 26 25  1  0  0  0  0
 27 25  2  0  0  0  0
 27 28  1  0  0  0  0
 28 22  2  0  0  0  0
M  END
>  <Pose>
1

>  <Score>
-8.897

$$$$
