MODEL 1
REMARK VINA RESULT:    -8.897      0.000      0.000
REMARK INTER + INTRA:         -10.919
REMARK INTER:                 -10.457
REMARK INTRA:                  -0.462
REMARK UNBOUND:                -0.462
REMARK  3 active torsions:
REMARK  status: ('A' for Active; 'I' for Inactive)
REMARK    1  A    between atoms: C_5  and  N_8 
REMARK    2  A    between atoms: N_15  and  C_18 
REMARK    3  A    between atoms: C_18  and  C_19 
REMARK       I    between atoms: C_19  and  N_21 
ROOT
ATOM      1  N   UNK d   1      12.097   1.576   9.756  0.00  0.00    -0.218 N 
ATOM      2  N   UNK d   1      13.379   1.454  10.051  0.00  0.00     0.012 NA
ATOM      3  N   UNK d   1      13.849   2.548  10.626  0.00  0.00    -0.150 NA
ATOM      4  C   UNK d   1      12.840   3.455  10.725  0.00  0.00     0.190 A 
ATOM      5  C   UNK d   1      11.751   2.809  10.166  0.00  0.00     0.185 A 
ATOM      6  N   UNK d   1      10.597   3.485  10.131  0.00  0.00    -0.222 NA
ATOM      7  C   UNK d   1      10.515   4.735  10.621  0.00  0.00     0.215 A 
ATOM      8  N   UNK d   1      11.575   5.373  11.168  0.00  0.00    -0.298 N 
ATOM      9  C   UNK d   1      12.749   4.733  11.222  0.00  0.00     0.283 A 
ATOM     10  O   UNK d   1      13.731   5.320  11.727  0.00  0.00    -0.265 OA
ENDROOT
BRANCH   8  11
ATOM     11  C   UNK d   1      11.387   6.722  11.668  0.00  0.00     0.236 C 
BRANCH  11  12
ATOM     12  C   UNK d   1      10.491   6.706  12.880  0.00  0.00     0.238 C 
ATOM     13  O   UNK d   1      10.831   6.084  13.921  0.00  0.00    -0.272 OA
ATOM     14  N   UNK d   1       9.252   7.389  12.874  0.00  0.00    -0.346 N 
ATOM     15  C   UNK d   1       8.385   7.381  14.029  0.00  0.00     0.157 C 
ATOM     16  C   UNK d   1       8.826   8.113  11.700  0.00  0.00     0.157 C 
ATOM     17  C   UNK d   1       6.977   7.121  13.521  0.00  0.00     0.136 C 
ATOM     18  O   UNK d   1       6.568   8.008  12.559  0.00  0.00    -0.378 OA
ATOM     19  C   UNK d   1       6.050   7.307  14.727  0.00  0.00     0.041 C 
ATOM     20  C   UNK d   1       7.552   8.839  12.082  0.00  0.00     0.136 C 
ATOM     21  C   UNK d   1       7.103   9.705  10.942  0.00  0.00     0.041 C 
ENDBRANCH  11  12
ENDBRANCH   8  11
BRANCH   1  22
ATOM     22  C   UNK d   1      11.239   0.619   9.131  0.00  0.00     0.057 A 
ATOM     23  C   UNK d   1       9.917   0.519   9.511  0.00  0.00     0.032 A 
ATOM     24  C   UNK d   1       9.078  -0.408   8.909  0.00  0.00     0.021 A 
ATOM     25  C   UNK d   1       9.521  -1.259   7.919  0.00  0.00     0.011 A 
ATOM     26 Br   UNK d   1       8.343  -2.530   7.104  0.00  0.00    -0.051 Br
ATOM     27  C   UNK d   1      10.843  -1.160   7.539  0.00  0.00     0.021 A 
ATOM     28  C   UNK d   1      11.674  -0.237   8.140  0.00  0.00     0.032 A 
ENDBRANCH   1  22
TORSDOF 3
ENDMDL
