/Users/jonathanwahrer/Desktop/Msc/3_Semester/Drug_Design_Praktikum/waehrer_HTS_screening/HTS_experiment/out/docking_results/vina_output/2jam/0399_docked.pdbqt
 OpenBabel03162217363D

 28 31  0  0  1  0  0  0  0  0999 V2000
   12.1130    2.9180   10.2790 N   0  0  0  0  0  0  0  0  0  0  0  0
   11.7920    4.3000   10.1700 C   0  0  0  0  0  0  0  0  0  0  0  0
   10.9150    4.7750    9.4170 O   0  0  0  0  0  0  0  0  0  0  0  0
   12.6290    5.1140   11.0630 C   0  0  2  0  0  3  0  0  0  0  0  0
   13.8490    4.2200   11.2580 C   0  0  0  0  0  2  0  0  0  0  0  0
   13.2630    2.8470   11.1430 C   0  0  0  0  0  0  0  0  0  0  0  0
   13.7710    1.8800   11.7400 O   0  0  0  0  0  0  0  0  0  0  0  0
   12.0350    5.4370   12.3410 N   0  0  1  0  0  4  0  0  0  0  0  0
   12.1980    6.8290   12.6880 C   0  0  0  0  0  2  0  0  0  0  0  0
   10.9970    7.6940   12.3770 C   0  0  0  0  0  2  0  0  0  0  0  0
    9.7660    7.0220   12.7040 N   0  0  0  0  0  0  0  0  0  0  0  0
    9.9330    5.8050   13.4640 C   0  0  0  0  0  2  0  0  0  0  0  0
   10.7410    4.8880   12.5270 C   0  0  0  0  0  2  0  0  0  0  0  0
   12.6690    4.9290   13.0460 H   0  0  0  0  0  0  0  0  0  0  0  0
    8.5010    7.4750   12.3140 C   0  0  0  0  0  0  0  0  0  0  0  0
    8.1520    8.7940   12.1050 C   0  0  0  0  0  3  0  0  0  0  0  0
    6.8750    9.1900   11.7430 C   0  0  0  0  0  3  0  0  0  0  0  0
    5.8880    8.2570   11.5770 C   0  0  0  0  0  0  0  0  0  0  0  0
    6.1810    6.9230   11.7740 C   0  0  0  0  0  3  0  0  0  0  0  0
    4.5820    8.5890   11.2130 O   0  0  0  0  0  1  0  0  0  0  0  0
    7.4640    6.5510   12.1350 C   0  0  0  0  0  3  0  0  0  0  0  0
   11.4620    1.7930    9.6830 C   0  0  0  0  0  0  0  0  0  0  0  0
   10.1740    1.4650    9.9920 C   0  0  0  0  0  3  0  0  0  0  0  0
    9.5420    0.3620    9.4080 C   0  0  0  0  0  3  0  0  0  0  0  0
   10.1890   -0.4330    8.5020 C   0  0  0  0  0  0  0  0  0  0  0  0
    9.3320   -1.9450    7.6970 Br  0  0  0  0  0  0  0  0  0  0  0  0
   11.4880   -0.1060    8.1870 C   0  0  0  0  0  3  0  0  0  0  0  0
   12.1120    1.0030    8.7800 C   0  0  0  0  0  3  0  0  0  0  0  0
  1  6  1  0  0  0  0
  2  1  1  0  0  0  0
  2  4  1  0  0  0  0
  3  2  2  0  0  0  0
  4  5  1  1  0  0  0
  4  8  1  0  0  0  0
  6  5  1  0  0  0  0
  6  7  2  0  0  0  0
  8 13  1  0  0  0  0
  8  9  1  0  0  0  0
  8 14  1  1  0  0  0
 10  9  1  0  0  0  0
 10 11  1  0  0  0  0
 11 12  1  0  0  0  0
 13 12  1  0  0  0  0
 15 11  1  0  0  0  0
 16 15  2  0  0  0  0
 17 16  1  0  0  0  0
 18 17  2  0  0  0  0
 18 19  1  0  0  0  0
 19 21  2  0  0  0  0
 20 18  1  0  0  0  0
 21 15  1  0  0  0  0
 22 23  1  0  0  0  0
 22  1  1  0  0  0  0
 24 23  2  0  0  0  0
 25 24  1  0  0  0  0
 26 25  1  0  0  0  0
 27 25  2  0  0  0  0
 27 28  1  0  0  0  0
 28 22  2  0  0  0  0
M  END
>  <Pose>
1

>  <Score>
-9.291

$$$$
