MODEL 1
REMARK VINA RESULT:    -9.291      0.000      0.000
REMARK INTER + INTRA:         -11.437
REMARK INTER:                 -10.921
REMARK INTRA:                  -0.517
REMARK UNBOUND:                -0.517
REMARK  3 active torsions:
REMARK  status: ('A' for Active; 'I' for Inactive)
REMARK    1  A    between atoms: C_5  and  N_8 
REMARK    2  A    between atoms: C_11  and  N_15 
REMARK    3  A    between atoms: N_18  and  C_21 
ROOT
ATOM      1  N   UNK d   1      12.113   2.918  10.279  0.00  0.00    -0.251 N 
ATOM      2  C   UNK d   1      11.792   4.300  10.170  0.00  0.00     0.262 C 
ATOM      3  O   UNK d   1      10.915   4.775   9.417  0.00  0.00    -0.270 OA
ATOM      4  C   UNK d   1      12.629   5.114  11.063  0.00  0.00     0.289 C 
ATOM      5  C   UNK d   1      13.849   4.220  11.258  0.00  0.00     0.146 C 
ATOM      6  C   UNK d   1      13.263   2.847  11.143  0.00  0.00     0.233 C 
ATOM      7  O   UNK d   1      13.771   1.880  11.740  0.00  0.00    -0.273 OA
ENDROOT
BRANCH   4   8
ATOM      8  N   UNK d   1      12.035   5.437  12.341  0.00  0.00    -0.055 N 
ATOM      9  C   UNK d   1      12.198   6.829  12.688  0.00  0.00     0.255 C 
ATOM     10  C   UNK d   1      10.997   7.694  12.377  0.00  0.00     0.150 C 
ATOM     11  N   UNK d   1       9.766   7.022  12.704  0.00  0.00    -0.378 N 
ATOM     12  C   UNK d   1       9.933   5.805  13.464  0.00  0.00     0.150 C 
ATOM     13  C   UNK d   1      10.741   4.888  12.527  0.00  0.00     0.255 C 
ATOM     14  H   UNK d   1      12.669   4.929  13.046  0.00  0.00     0.281 HD
BRANCH  11  15
ATOM     15  C   UNK d   1       8.501   7.475  12.314  0.00  0.00     0.030 A 
ATOM     16  C   UNK d   1       8.152   8.794  12.105  0.00  0.00     0.032 A 
ATOM     17  C   UNK d   1       6.875   9.190  11.743  0.00  0.00     0.042 A 
ATOM     18  C   UNK d   1       5.888   8.257  11.577  0.00  0.00     0.107 A 
ATOM     19  C   UNK d   1       6.181   6.923  11.774  0.00  0.00     0.042 A 
ATOM     20  O   UNK d   1       4.582   8.589  11.213  0.00  0.00    -0.192 OA
ATOM     21  C   UNK d   1       7.464   6.551  12.135  0.00  0.00     0.032 A 
ENDBRANCH  11  15
ENDBRANCH   4   8
BRANCH   1  22
ATOM     22  C   UNK d   1      11.462   1.793   9.683  0.00  0.00     0.045 A 
ATOM     23  C   UNK d   1      10.174   1.465   9.992  0.00  0.00     0.031 A 
ATOM     24  C   UNK d   1       9.542   0.362   9.408  0.00  0.00     0.021 A 
ATOM     25  C   UNK d   1      10.189  -0.433   8.502  0.00  0.00     0.011 A 
ATOM     26 Br   UNK d   1       9.332  -1.945   7.697  0.00  0.00    -0.051 Br
ATOM     27  C   UNK d   1      11.488  -0.106   8.187  0.00  0.00     0.021 A 
ATOM     28  C   UNK d   1      12.112   1.003   8.780  0.00  0.00     0.031 A 
ENDBRANCH   1  22
TORSDOF 3
ENDMDL
