/Users/jonathanwahrer/Desktop/Msc/3_Semester/Drug_Design_Praktikum/waehrer_HTS_screening/HTS_experiment/out/docking_results/vina_output/2jam/0400_docked.pdbqt
 OpenBabel03162217363D

 31 34  0  0  1  0  0  0  0  0999 V2000
   10.5380    6.8900   11.3500 N   0  0  2  0  0  0  0  0  0  0  0  0
   10.2930    8.1230   11.9840 C   0  0  0  0  0  2  0  0  0  0  0  0
    8.7850    8.2510   12.2400 C   0  0  0  0  0  2  0  0  0  0  0  0
    8.3180    7.2430   13.2660 C   0  0  1  0  0  0  0  0  0  0  0  0
    8.9820    5.9470   13.0260 C   0  0  0  0  0  2  0  0  0  0  0  0
    9.6030    5.8740   11.6530 C   0  0  0  0  0  2  0  0  0  0  0  0
   11.8640    6.4850   11.1160 C   0  0  2  0  0  3  0  0  0  0  0  0
   11.8980    5.5090    9.9960 C   0  0  0  0  0  0  0  0  0  0  0  0
   12.2560    4.2350   10.5420 N   0  0  0  0  0  0  0  0  0  0  0  0
   11.6510    5.7870    8.7980 O   0  0  0  0  0  0  0  0  0  0  0  0
   13.0020    4.5300   11.7160 C   0  0  0  0  0  0  0  0  0  0  0  0
   12.5250    5.8130   12.2980 C   0  0  0  0  0  2  0  0  0  0  0  0
   13.9370    3.7890   12.1840 O   0  0  0  0  0  0  0  0  0  0  0  0
   11.9260    2.9510   10.0070 C   0  0  0  0  0  0  0  0  0  0  0  0
   10.6380    2.4910   10.0750 C   0  0  0  0  0  3  0  0  0  0  0  0
   10.2960    1.2370    9.5550 C   0  0  0  0  0  3  0  0  0  0  0  0
   11.2290    0.4210    8.9580 C   0  0  0  0  0  0  0  0  0  0  0  0
   10.7730   -1.2930    8.2440 Br  0  0  0  0  0  0  0  0  0  0  0  0
   12.5250    0.8830    8.8890 C   0  0  0  0  0  3  0  0  0  0  0  0
   12.8520    2.1270    9.4070 C   0  0  0  0  0  3  0  0  0  0  0  0
    8.4690    7.8060   14.5430 N   0  0  0  0  0  0  0  0  0  0  0  0
    9.1470    7.0750   15.5300 C   0  0  0  0  0  2  0  0  0  0  0  0
    8.1970    6.9710   16.7360 C   0  0  0  0  0  2  0  0  0  0  0  0
    8.0270    8.3880   17.2470 C   0  0  0  0  0  2  0  0  0  0  0  0
    8.4500    9.4290   16.2650 C   0  0  0  0  0  2  0  0  0  0  0  0
    8.0420    9.0900   14.8240 C   0  0  0  0  0  2  0  0  0  0  0  0
    6.8430    7.0710   13.0130 C   0  0  0  0  0  0  0  0  0  0  0  0
    6.3050    7.6370   12.0140 O   0  0  0  0  0  0  0  0  0  0  0  0
    6.0050    6.2950   13.8490 N   0  0  0  0  0  0  0  0  0  0  0  0
    5.2320    6.7450   14.3520 H   0  0  0  0  0  0  0  0  0  0  0  0
    6.1590    5.2750   13.9600 H   0  0  0  0  0  0  0  0  0  0  0  0
  1  6  1  1  0  0  0
  1  2  1  0  0  0  0
  2  3  1  0  0  0  0
  3  4  1  0  0  0  0
  4 27  1  6  0  0  0
  4 21  1  0  0  0  0
  5  4  1  0  0  0  0
  6  5  1  0  0  0  0
  7  1  1  0  0  0  0
  7 12  1  1  0  0  0
  8  9  1  0  0  0  0
  8  7  1  0  0  0  0
  9 11  1  0  0  0  0
 10  8  2  0  0  0  0
 11 13  2  0  0  0  0
 11 12  1  0  0  0  0
 14 15  1  0  0  0  0
 14  9  1  0  0  0  0
 16 15  2  0  0  0  0
 17 16  1  0  0  0  0
 18 17  1  0  0  0  0
 19 17  2  0  0  0  0
 19 20  1  0  0  0  0
 20 14  2  0  0  0  0
 21 26  1  0  0  0  0
 21 22  1  0  0  0  0
 22 23  1  0  0  0  0
 23 24  1  0  0  0  0
 25 24  1  0  0  0  0
 26 25  1  0  0  0  0
 27 29  1  0  0  0  0
 28 27  2  0  0  0  0
 29 31  1  0  0  0  0
 29 30  1  0  0  0  0
M  END
>  <Pose>
1

>  <Score>
-8.447

$$$$
