MODEL 1
REMARK VINA RESULT:    -8.447      0.000      0.000
REMARK INTER + INTRA:         -11.856
REMARK INTER:                 -10.422
REMARK INTRA:                  -1.434
REMARK UNBOUND:                -1.434
REMARK  4 active torsions:
REMARK  status: ('A' for Active; 'I' for Inactive)
REMARK    1  A    between atoms: C_5  and  N_8 
REMARK    2  A    between atoms: C_11  and  N_15 
REMARK    3  A    between atoms: C_18  and  N_21 
REMARK    4  A    between atoms: C_18  and  C_27 
REMARK       I    between atoms: C_27  and  N_29 
ROOT
ATOM      1  N   UNK d   1      10.538   6.890  11.350  0.00  0.00    -0.399 N 
ATOM      2  C   UNK d   1      10.293   8.123  11.984  0.00  0.00     0.120 C 
ATOM      3  C   UNK d   1       8.785   8.251  12.240  0.00  0.00     0.060 C 
ATOM      4  C   UNK d   1       8.318   7.243  13.266  0.00  0.00     0.112 C 
ATOM      5  C   UNK d   1       8.982   5.947  13.026  0.00  0.00     0.060 C 
ATOM      6  C   UNK d   1       9.603   5.874  11.653  0.00  0.00     0.120 C 
ENDROOT
BRANCH   1   7
ATOM      7  C   UNK d   1      11.864   6.485  11.116  0.00  0.00     0.181 C 
ATOM      8  C   UNK d   1      11.898   5.509   9.996  0.00  0.00     0.254 C 
ATOM      9  N   UNK d   1      12.256   4.235  10.542  0.00  0.00    -0.251 N 
ATOM     10  O   UNK d   1      11.651   5.787   8.798  0.00  0.00    -0.270 OA
ATOM     11  C   UNK d   1      13.002   4.530  11.716  0.00  0.00     0.233 C 
ATOM     12  C   UNK d   1      12.525   5.813  12.298  0.00  0.00     0.138 C 
ATOM     13  O   UNK d   1      13.937   3.789  12.184  0.00  0.00    -0.273 OA
BRANCH   9  14
ATOM     14  C   UNK d   1      11.926   2.951  10.007  0.00  0.00     0.045 A 
ATOM     15  C   UNK d   1      10.638   2.491  10.075  0.00  0.00     0.031 A 
ATOM     16  C   UNK d   1      10.296   1.237   9.555  0.00  0.00     0.021 A 
ATOM     17  C   UNK d   1      11.229   0.421   8.958  0.00  0.00     0.011 A 
ATOM     18 Br   UNK d   1      10.773  -1.293   8.244  0.00  0.00    -0.051 Br
ATOM     19  C   UNK d   1      12.525   0.883   8.889  0.00  0.00     0.021 A 
ATOM     20  C   UNK d   1      12.852   2.127   9.407  0.00  0.00     0.031 A 
ENDBRANCH   9  14
ENDBRANCH   1   7
BRANCH   4  21
ATOM     21  N   UNK d   1       8.469   7.806  14.543  0.00  0.00    -0.396 N 
ATOM     22  C   UNK d   1       9.147   7.075  15.530  0.00  0.00     0.118 C 
ATOM     23  C   UNK d   1       8.197   6.971  16.736  0.00  0.00     0.019 C 
ATOM     24  C   UNK d   1       8.027   8.388  17.247  0.00  0.00     0.003 C 
ATOM     25  C   UNK d   1       8.450   9.429  16.265  0.00  0.00     0.019 C 
ATOM     26  C   UNK d   1       8.042   9.090  14.824  0.00  0.00     0.118 C 
ENDBRANCH   4  21
BRANCH   4  27
ATOM     27  C   UNK d   1       6.843   7.071  13.013  0.00  0.00     0.243 C 
ATOM     28  O   UNK d   1       6.305   7.637  12.014  0.00  0.00    -0.271 OA
ATOM     29  N   UNK d   1       6.005   6.295  13.849  0.00  0.00    -0.368 N 
ATOM     30  H   UNK d   1       5.232   6.745  14.352  0.00  0.00     0.159 HD
ATOM     31  H   UNK d   1       6.159   5.275  13.960  0.00  0.00     0.159 HD
ENDBRANCH   4  27
TORSDOF 4
ENDMDL
