MODEL 1
REMARK VINA RESULT:    -9.033      0.000      0.000
REMARK INTER + INTRA:         -13.544
REMARK INTER:                 -12.201
REMARK INTRA:                  -1.343
REMARK UNBOUND:                -1.343
REMARK  6 active torsions:
REMARK  status: ('A' for Active; 'I' for Inactive)
REMARK    1  A    between atoms: C_5  and  N_8 
REMARK    2  A    between atoms: N_15  and  C_16 
REMARK    3  A    between atoms: C_16  and  C_17 
REMARK       I    between atoms: C_17  and  N_19 
REMARK    4  A    between atoms: N_19  and  C_20 
REMARK    5  A    between atoms: C_22  and  O_28 
REMARK    6  A    between atoms: C_23  and  O_26 
ROOT
ATOM      1  N   UNK d   1      15.517   5.641  11.867  0.00  0.00    -0.241 N 
ATOM      2  C   UNK d   1      14.247   5.221  11.980  0.00  0.00     0.286 A 
ATOM      3  O   UNK d   1      13.952   4.050  12.332  0.00  0.00    -0.265 OA
ATOM      4  C   UNK d   1      13.355   6.233  11.666  0.00  0.00     0.155 A 
ATOM      5  C   UNK d   1      14.099   7.287  11.355  0.00  0.00     0.152 A 
ATOM      6  N   UNK d   1      13.235   8.267  11.050  0.00  0.00    -0.279 N 
ATOM      7  N   UNK d   1      11.997   7.823  11.170  0.00  0.00    -0.239 N 
ATOM      8  N   UNK d   1      12.049   6.574  11.549  0.00  0.00    -0.261 N 
ATOM      9  C   UNK d   1      15.426   6.932  11.475  0.00  0.00     0.286 A 
ATOM     10  O   UNK d   1      16.419   7.701  11.254  0.00  0.00    -0.265 OA
ATOM     11  H   UNK d   1      13.466   9.238  10.758  0.00  0.00     0.189 HD
ATOM     12  H   UNK d   1      11.098   8.365  10.997  0.00  0.00     0.208 HD
ENDROOT
BRANCH   8  13
ATOM     13  C   UNK d   1      10.943   5.683  11.806  0.00  0.00     0.254 C 
BRANCH  13  14
ATOM     14  C   UNK d   1      10.926   4.599  10.754  0.00  0.00     0.242 C 
ATOM     15  O   UNK d   1      10.602   4.891   9.581  0.00  0.00    -0.271 OA
ATOM     16  N   UNK d   1      11.270   3.283  11.094  0.00  0.00    -0.326 N 
ATOM     17  H   UNK d   1      11.538   3.106  12.117  0.00  0.00     0.169 HD
BRANCH  16  18
ATOM     18  C   UNK d   1      11.302   2.183  10.213  0.00  0.00     0.037 A 
ATOM     19  C   UNK d   1      12.408   1.710   9.555  0.00  0.00     0.069 A 
ATOM     20  C   UNK d   1      12.369   0.636   8.689  0.00  0.00     0.103 A 
ATOM     21  C   UNK d   1      11.156   0.014   8.483  0.00  0.00     0.101 A 
ATOM     22  C   UNK d   1      10.015   0.460   9.130  0.00  0.00     0.042 A 
ATOM     23  C   UNK d   1      10.077   1.528   9.983  0.00  0.00     0.032 A 
BRANCH  20  24
ATOM     24  O   UNK d   1      13.510   0.178   8.034  0.00  0.00    -0.353 OA
ATOM     25  C   UNK d   1      14.588   1.105   7.854  0.00  0.00     0.210 C 
ENDBRANCH  20  24
BRANCH  21  26
ATOM     26  O   UNK d   1      11.094  -1.072   7.614  0.00  0.00    -0.353 OA
ATOM     27  C   UNK d   1       9.895  -1.814   7.521  0.00  0.00     0.210 C 
ENDBRANCH  21  26
ENDBRANCH  16  18
ENDBRANCH  13  14
ENDBRANCH   8  13
BRANCH   1  28
ATOM     28  C   UNK d   1      16.736   4.942  12.091  0.00  0.00     0.046 A 
ATOM     29  C   UNK d   1      17.596   5.246  13.126  0.00  0.00     0.031 A 
ATOM     30  C   UNK d   1      18.781   4.541  13.316  0.00  0.00     0.021 A 
ATOM     31  C   UNK d   1      19.140   3.510  12.469  0.00  0.00     0.011 A 
ATOM     32 Br   UNK d   1      20.769   2.536  12.723  0.00  0.00    -0.051 Br
ATOM     33  C   UNK d   1      18.274   3.214  11.435  0.00  0.00     0.021 A 
ATOM     34  C   UNK d   1      17.100   3.913  11.250  0.00  0.00     0.031 A 
ENDBRANCH   1  28
TORSDOF 6
ENDMDL
