/Users/jonathanwahrer/Desktop/Msc/3_Semester/Drug_Design_Praktikum/waehrer_HTS_screening/HTS_experiment/out/docking_results/vina_output/2jam/0412_docked.pdbqt
 OpenBabel03162217373D

 34 37  0  0  0  0  0  0  0  0999 V2000
   15.3280    5.6790   11.8440 N   0  0  0  0  0  0  0  0  0  0  0  0
   14.0750    5.2180   11.8710 C   0  0  0  0  0  0  0  0  0  0  0  0
   13.7660    4.0030   12.1140 O   0  0  0  0  0  0  0  0  0  0  0  0
   13.1300    6.1810   11.6050 C   0  0  0  0  0  0  0  0  0  0  0  0
   13.8530    7.3000   11.4040 C   0  0  0  0  0  0  0  0  0  0  0  0
   12.9430    8.2690   11.1400 N   0  0  0  0  0  0  0  0  0  0  0  0
   11.7210    7.7680   11.1790 N   0  0  0  0  0  0  0  0  0  0  0  0
   11.8310    6.4870   11.4640 N   0  0  0  0  0  0  0  0  0  0  0  0
   15.1890    7.0080   11.5460 C   0  0  0  0  0  0  0  0  0  0  0  0
   16.1730    7.7790   11.4360 O   0  0  0  0  0  0  0  0  0  0  0  0
   13.1990    9.2630   10.9360 H   0  0  0  0  0  0  0  0  0  0  0  0
   10.8570    8.3460   11.0000 H   0  0  0  0  0  0  0  0  0  0  0  0
   10.7250    5.5830   11.6000 C   0  0  0  0  0  2  0  0  0  0  0  0
   10.7620    4.4600   10.6670 C   0  0  0  0  0  0  0  0  0  0  0  0
   10.4930    4.5870    9.4370 O   0  0  0  0  0  0  0  0  0  0  0  0
   11.1080    3.1860   11.1700 N   0  0  0  0  0  0  0  0  0  0  0  0
   11.3330    3.0540   12.2040 H   0  0  0  0  0  0  0  0  0  0  0  0
   11.1490    2.0840   10.2790 C   0  0  0  0  0  0  0  0  0  0  0  0
   12.3670    1.7990    9.7110 C   0  0  0  0  0  3  0  0  0  0  0  0
   12.4850    0.7450    8.7970 C   0  0  0  0  0  0  0  0  0  0  0  0
   11.3830    0.0010    8.4690 C   0  0  0  0  0  3  0  0  0  0  0  0
   10.1410    0.2780    9.0350 C   0  0  0  0  0  0  0  0  0  0  0  0
   10.0580    1.3270    9.9380 C   0  0  0  0  0  3  0  0  0  0  0  0
   13.7490    0.5480    8.2960 O   0  0  0  0  0  0  0  0  0  0  0  0
   14.6580    1.5560    8.0410 C   0  0  0  0  0  1  0  0  0  0  0  0
    9.0760   -0.5100    8.6540 O   0  0  0  0  0  0  0  0  0  0  0  0
    9.1100   -1.6190    7.8100 C   0  0  0  0  0  1  0  0  0  0  0  0
   16.5640    4.9960   12.0690 C   0  0  0  0  0  0  0  0  0  0  0  0
   16.9530    3.9570   11.2590 C   0  0  0  0  0  3  0  0  0  0  0  0
   18.1680    3.2920   11.4850 C   0  0  0  0  0  3  0  0  0  0  0  0
   18.9960    3.6620   12.5170 C   0  0  0  0  0  0  0  0  0  0  0  0
   20.6680    2.7530   12.8280 Br  0  0  0  0  0  0  0  0  0  0  0  0
   18.6040    4.7020   13.3280 C   0  0  0  0  0  3  0  0  0  0  0  0
   17.4110    5.3460   13.0990 C   0  0  0  0  0  3  0  0  0  0  0  0
  1  2  1  0  0  0  0
  1 28  1  0  0  0  0
  2  3  2  0  0  0  0
  4  2  1  0  0  0  0
  5  9  1  0  0  0  0
  5  4  2  0  0  0  0
  6  7  1  0  0  0  0
  6  5  1  0  0  0  0
  7  8  1  0  0  0  0
  8 13  1  0  0  0  0
  8  4  1  0  0  0  0
  9  1  1  0  0  0  0
 10  9  2  0  0  0  0
 11  6  1  0  0  0  0
 12  7  1  0  0  0  0
 14 16  1  0  0  0  0
 14 13  1  0  0  0  0
 15 14  2  0  0  0  0
 16 17  1  0  0  0  0
 18 16  1  0  0  0  0
 19 18  2  0  0  0  0
 20 19  1  0  0  0  0
 21 20  2  0  0  0  0
 21 22  1  0  0  0  0
 22 23  2  0  0  0  0
 23 18  1  0  0  0  0
 24 20  1  0  0  0  0
 25 24  1  0  0  0  0
 26 22  1  0  0  0  0
 27 26  1  0  0  0  0
 28 34  1  0  0  0  0
 29 30  1  0  0  0  0
 29 28  2  0  0  0  0
 30 31  2  0  0  0  0
 31 32  1  0  0  0  0
 31 33  1  0  0  0  0
 34 33  2  0  0  0  0
M  END
>  <Pose>
1

>  <Score>
-9.177

$$$$
