MODEL 1
REMARK VINA RESULT:    -9.177      0.000      0.000
REMARK INTER + INTRA:         -13.513
REMARK INTER:                 -12.396
REMARK INTRA:                  -1.117
REMARK UNBOUND:                -1.117
REMARK  6 active torsions:
REMARK  status: ('A' for Active; 'I' for Inactive)
REMARK    1  A    between atoms: C_5  and  N_8 
REMARK    2  A    between atoms: N_15  and  C_16 
REMARK    3  A    between atoms: C_16  and  C_17 
REMARK       I    between atoms: C_17  and  N_19 
REMARK    4  A    between atoms: N_19  and  C_20 
REMARK    5  A    between atoms: C_22  and  O_28 
REMARK    6  A    between atoms: C_24  and  O_26 
ROOT
ATOM      1  N   UNK d   1      15.328   5.679  11.844  0.00  0.00    -0.241 N 
ATOM      2  C   UNK d   1      14.075   5.218  11.871  0.00  0.00     0.286 A 
ATOM      3  O   UNK d   1      13.766   4.003  12.114  0.00  0.00    -0.265 OA
ATOM      4  C   UNK d   1      13.130   6.181  11.605  0.00  0.00     0.155 A 
ATOM      5  C   UNK d   1      13.853   7.300  11.404  0.00  0.00     0.152 A 
ATOM      6  N   UNK d   1      12.943   8.269  11.140  0.00  0.00    -0.279 N 
ATOM      7  N   UNK d   1      11.721   7.768  11.179  0.00  0.00    -0.239 N 
ATOM      8  N   UNK d   1      11.831   6.487  11.464  0.00  0.00    -0.261 N 
ATOM      9  C   UNK d   1      15.189   7.008  11.546  0.00  0.00     0.286 A 
ATOM     10  O   UNK d   1      16.173   7.779  11.436  0.00  0.00    -0.265 OA
ATOM     11  H   UNK d   1      13.199   9.263  10.936  0.00  0.00     0.189 HD
ATOM     12  H   UNK d   1      10.857   8.346  11.000  0.00  0.00     0.208 HD
ENDROOT
BRANCH   8  13
ATOM     13  C   UNK d   1      10.725   5.583  11.600  0.00  0.00     0.254 C 
BRANCH  13  14
ATOM     14  C   UNK d   1      10.762   4.460  10.667  0.00  0.00     0.242 C 
ATOM     15  O   UNK d   1      10.493   4.587   9.437  0.00  0.00    -0.271 OA
ATOM     16  N   UNK d   1      11.108   3.186  11.170  0.00  0.00    -0.326 N 
ATOM     17  H   UNK d   1      11.333   3.054  12.204  0.00  0.00     0.169 HD
BRANCH  16  18
ATOM     18  C   UNK d   1      11.149   2.084  10.279  0.00  0.00     0.040 A 
ATOM     19  C   UNK d   1      12.367   1.799   9.711  0.00  0.00     0.066 A 
ATOM     20  C   UNK d   1      12.485   0.745   8.797  0.00  0.00     0.073 A 
ATOM     21  C   UNK d   1      11.383   0.001   8.469  0.00  0.00     0.073 A 
ATOM     22  C   UNK d   1      10.141   0.278   9.035  0.00  0.00     0.073 A 
ATOM     23  C   UNK d   1      10.058   1.327   9.938  0.00  0.00     0.066 A 
BRANCH  20  24
ATOM     24  O   UNK d   1      13.749   0.548   8.296  0.00  0.00    -0.356 OA
ATOM     25  C   UNK d   1      14.658   1.556   8.041  0.00  0.00     0.210 C 
ENDBRANCH  20  24
BRANCH  22  26
ATOM     26  O   UNK d   1       9.076  -0.510   8.654  0.00  0.00    -0.356 OA
ATOM     27  C   UNK d   1       9.110  -1.619   7.810  0.00  0.00     0.210 C 
ENDBRANCH  22  26
ENDBRANCH  16  18
ENDBRANCH  13  14
ENDBRANCH   8  13
BRANCH   1  28
ATOM     28  C   UNK d   1      16.564   4.996  12.069  0.00  0.00     0.046 A 
ATOM     29  C   UNK d   1      16.953   3.957  11.259  0.00  0.00     0.031 A 
ATOM     30  C   UNK d   1      18.168   3.292  11.485  0.00  0.00     0.021 A 
ATOM     31  C   UNK d   1      18.996   3.662  12.517  0.00  0.00     0.011 A 
ATOM     32 Br   UNK d   1      20.668   2.753  12.828  0.00  0.00    -0.051 Br
ATOM     33  C   UNK d   1      18.604   4.702  13.328  0.00  0.00     0.021 A 
ATOM     34  C   UNK d   1      17.411   5.346  13.099  0.00  0.00     0.031 A 
ENDBRANCH   1  28
TORSDOF 6
ENDMDL
