MODEL 1
REMARK VINA RESULT:    -9.622      0.000      0.000
REMARK INTER + INTRA:         -13.659
REMARK INTER:                 -13.559
REMARK INTRA:                  -0.100
REMARK UNBOUND:                -0.100
REMARK  7 active torsions:
REMARK  status: ('A' for Active; 'I' for Inactive)
REMARK    1  A    between atoms: C_5  and  N_8 
REMARK    2  A    between atoms: N_15  and  C_16 
REMARK    3  A    between atoms: C_16  and  C_17 
REMARK       I    between atoms: C_17  and  N_19 
REMARK    4  A    between atoms: N_19  and  C_20 
REMARK    5  A    between atoms: C_23  and  C_26 
REMARK    6  A    between atoms: C_26  and  O_28 
REMARK    7  A    between atoms: O_28  and  C_29 
ROOT
ATOM      1  N   UNK d   1      13.548   1.333   9.361  0.00  0.00    -0.241 N 
ATOM      2  C   UNK d   1      13.529   2.147  10.447  0.00  0.00     0.286 A 
ATOM      3  O   UNK d   1      12.544   2.331  11.228  0.00  0.00    -0.265 OA
ATOM      4  C   UNK d   1      14.761   2.762  10.587  0.00  0.00     0.155 A 
ATOM      5  C   UNK d   1      15.504   2.307   9.580  0.00  0.00     0.152 A 
ATOM      6  N   UNK d   1      16.719   2.896   9.694  0.00  0.00    -0.279 N 
ATOM      7  N   UNK d   1      16.679   3.687  10.763  0.00  0.00    -0.239 N 
ATOM      8  N   UNK d   1      15.492   3.630  11.336  0.00  0.00    -0.261 N 
ATOM      9  C   UNK d   1      14.770   1.429   8.819  0.00  0.00     0.286 A 
ATOM     10  O   UNK d   1      15.150   0.815   7.798  0.00  0.00    -0.265 OA
ATOM     11  H   UNK d   1      17.526   2.746   9.055  0.00  0.00     0.189 HD
ATOM     12  H   UNK d   1      17.473   4.263  11.092  0.00  0.00     0.208 HD
ENDROOT
BRANCH   8  13
ATOM     13  C   UNK d   1      15.006   4.325  12.522  0.00  0.00     0.254 C 
BRANCH  13  14
ATOM     14  C   UNK d   1      13.854   5.219  12.132  0.00  0.00     0.242 C 
ATOM     15  O   UNK d   1      14.201   6.135  11.345  0.00  0.00    -0.271 OA
ATOM     16  N   UNK d   1      12.580   4.975  12.641  0.00  0.00    -0.326 N 
ATOM     17  H   UNK d   1      12.500   4.137  13.300  0.00  0.00     0.169 HD
BRANCH  16  18
ATOM     18  C   UNK d   1      11.397   5.710  12.381  0.00  0.00     0.034 A 
ATOM     19  C   UNK d   1      10.411   5.337  11.499  0.00  0.00     0.030 A 
ATOM     20  C   UNK d   1       9.267   6.121  11.296  0.00  0.00     0.020 A 
ATOM     21  C   UNK d   1       9.080   7.302  11.974  0.00  0.00     0.039 A 
ATOM     22  C   UNK d   1      10.060   7.684  12.858  0.00  0.00     0.020 A 
ATOM     23  C   UNK d   1      11.186   6.910  13.056  0.00  0.00     0.030 A 
BRANCH  21  24
ATOM     24  C   UNK d   1       7.874   8.086  11.731  0.00  0.00     0.293 C 
ATOM     25  O   UNK d   1       7.972   9.121  11.025  0.00  0.00    -0.259 OA
BRANCH  24  26
ATOM     26  O   UNK d   1       6.637   7.772  12.221  0.00  0.00    -0.318 OA
BRANCH  26  27
ATOM     27  C   UNK d   1       5.501   8.588  12.187  0.00  0.00     0.174 C 
ATOM     28  C   UNK d   1       4.766   8.257  10.881  0.00  0.00     0.034 C 
ENDBRANCH  26  27
ENDBRANCH  24  26
ENDBRANCH  21  24
ENDBRANCH  16  18
ENDBRANCH  13  14
ENDBRANCH   8  13
BRANCH   1  29
ATOM     29  C   UNK d   1      12.431   0.554   8.938  0.00  0.00     0.046 A 
ATOM     30  C   UNK d   1      12.568  -0.310   7.863  0.00  0.00     0.031 A 
ATOM     31  C   UNK d   1      11.525  -1.069   7.432  0.00  0.00     0.021 A 
ATOM     32  C   UNK d   1      10.289  -1.016   8.042  0.00  0.00     0.011 A 
ATOM     33 Br   UNK d   1       8.804  -2.059   7.474  0.00  0.00    -0.051 Br
ATOM     34  C   UNK d   1      10.167  -0.154   9.109  0.00  0.00     0.021 A 
ATOM     35  C   UNK d   1      11.208   0.616   9.554  0.00  0.00     0.031 A 
ENDBRANCH   1  29
TORSDOF 7
ENDMDL
