MODEL 1
REMARK VINA RESULT:    -9.599      0.000      0.000
REMARK INTER + INTRA:         -13.114
REMARK INTER:                 -12.966
REMARK INTRA:                  -0.149
REMARK UNBOUND:                -0.149
REMARK  6 active torsions:
REMARK  status: ('A' for Active; 'I' for Inactive)
REMARK    1  A    between atoms: C_5  and  N_8 
REMARK    2  A    between atoms: N_15  and  C_16 
REMARK    3  A    between atoms: C_16  and  C_17 
REMARK       I    between atoms: C_17  and  N_19 
REMARK    4  A    between atoms: N_19  and  C_20 
REMARK    5  A    between atoms: C_23  and  O_26 
REMARK    6  A    between atoms: O_26  and  C_27 
ROOT
ATOM      1  N   UNK d   1      13.397   1.241   9.354  0.00  0.00    -0.241 N 
ATOM      2  C   UNK d   1      13.357   2.091  10.418  0.00  0.00     0.286 A 
ATOM      3  O   UNK d   1      12.334   2.282  11.118  0.00  0.00    -0.265 OA
ATOM      4  C   UNK d   1      14.579   2.699  10.609  0.00  0.00     0.155 A 
ATOM      5  C   UNK d   1      15.372   2.222   9.662  0.00  0.00     0.152 A 
ATOM      6  N   UNK d   1      16.576   2.800   9.823  0.00  0.00    -0.279 N 
ATOM      7  N   UNK d   1      16.502   3.619  10.862  0.00  0.00    -0.239 N 
ATOM      8  N   UNK d   1      15.285   3.581  11.371  0.00  0.00    -0.261 N 
ATOM      9  C   UNK d   1      14.654   1.332   8.895  0.00  0.00     0.286 A 
ATOM     10  O   UNK d   1      15.080   0.675   7.894  0.00  0.00    -0.265 OA
ATOM     11  H   UNK d   1      17.432   2.654   9.259  0.00  0.00     0.189 HD
ATOM     12  H   UNK d   1      17.307   4.209  11.223  0.00  0.00     0.208 HD
ENDROOT
BRANCH   8  13
ATOM     13  C   UNK d   1      14.768   4.315  12.488  0.00  0.00     0.254 C 
BRANCH  13  14
ATOM     14  C   UNK d   1      13.529   5.115  12.160  0.00  0.00     0.242 C 
ATOM     15  O   UNK d   1      13.710   6.118  11.435  0.00  0.00    -0.271 OA
ATOM     16  N   UNK d   1      12.270   4.751  12.632  0.00  0.00    -0.326 N 
ATOM     17  H   UNK d   1      12.251   3.868  13.254  0.00  0.00     0.169 HD
BRANCH  16  18
ATOM     18  C   UNK d   1      11.017   5.354  12.429  0.00  0.00     0.034 A 
ATOM     19  C   UNK d   1      10.229   4.978  11.342  0.00  0.00     0.032 A 
ATOM     20  C   UNK d   1       9.010   5.553  11.096  0.00  0.00     0.039 A 
ATOM     21  C   UNK d   1       8.517   6.548  11.941  0.00  0.00     0.068 A 
ATOM     22  C   UNK d   1       9.316   6.895  13.003  0.00  0.00     0.039 A 
ATOM     23  C   UNK d   1      10.540   6.320  13.256  0.00  0.00     0.032 A 
BRANCH  21  24
ATOM     24  O   UNK d   1       7.291   7.100  11.655  0.00  0.00    -0.352 OA
BRANCH  24  25
ATOM     25  C   UNK d   1       6.765   8.278  12.175  0.00  0.00     0.171 C 
ATOM     26  C   UNK d   1       7.179   9.512  11.449  0.00  0.00     0.034 C 
ENDBRANCH  24  25
ENDBRANCH  21  24
ENDBRANCH  16  18
ENDBRANCH  13  14
ENDBRANCH   8  13
BRANCH   1  27
ATOM     27  C   UNK d   1      12.340   0.437   8.837  0.00  0.00     0.046 A 
ATOM     28  C   UNK d   1      12.457  -0.347   7.708  0.00  0.00     0.031 A 
ATOM     29  C   UNK d   1      11.402  -1.112   7.234  0.00  0.00     0.021 A 
ATOM     30  C   UNK d   1      10.179  -1.125   7.872  0.00  0.00     0.011 A 
ATOM     31 Br   UNK d   1       8.712  -2.167   7.235  0.00  0.00    -0.051 Br
ATOM     32  C   UNK d   1      10.066  -0.336   9.009  0.00  0.00     0.021 A 
ATOM     33  C   UNK d   1      11.116   0.425   9.480  0.00  0.00     0.031 A 
ENDBRANCH   1  27
TORSDOF 6
ENDMDL
