MODEL 1
REMARK VINA RESULT:    -8.765      0.000      0.000
REMARK INTER + INTRA:         -10.409
REMARK INTER:                 -10.302
REMARK INTRA:                  -0.108
REMARK UNBOUND:                -0.108
REMARK  3 active torsions:
REMARK  status: ('A' for Active; 'I' for Inactive)
REMARK    1  A    between atoms: C_5  and  N_8 
REMARK    2  A    between atoms: N_15  and  C_16 
REMARK    3  A    between atoms: C_19  and  N_22 
ROOT
ATOM      1  N   UNK d   1      11.750   3.998  11.091  0.00  0.00    -0.241 N 
ATOM      2  C   UNK d   1      10.616   4.730  11.158  0.00  0.00     0.286 A 
ATOM      3  O   UNK d   1       9.535   4.546  10.511  0.00  0.00    -0.265 OA
ATOM      4  C   UNK d   1      10.754   5.770  12.058  0.00  0.00     0.160 A 
ATOM      5  C   UNK d   1      11.995   5.653  12.536  0.00  0.00     0.152 A 
ATOM      6  N   UNK d   1      12.133   6.671  13.419  0.00  0.00    -0.278 N 
ATOM      7  N   UNK d   1      11.003   7.357  13.451  0.00  0.00    -0.234 N 
ATOM      8  N   UNK d   1      10.128   6.822  12.616  0.00  0.00    -0.234 N 
ATOM      9  C   UNK d   1      12.613   4.569  11.948  0.00  0.00     0.286 A 
ATOM     10  O   UNK d   1      13.778   4.142  12.142  0.00  0.00    -0.265 OA
ATOM     11  H   UNK d   1      13.008   6.860  13.975  0.00  0.00     0.189 HD
ATOM     12  H   UNK d   1      10.787   8.207  14.034  0.00  0.00     0.209 HD
ENDROOT
BRANCH   8  13
ATOM     13  C   UNK d   1       8.792   7.275  12.366  0.00  0.00     0.058 A 
ATOM     14  C   UNK d   1       7.709   6.443  12.563  0.00  0.00     0.034 A 
ATOM     15  C   UNK d   1       6.402   6.855  12.331  0.00  0.00     0.038 A 
ATOM     16  C   UNK d   1       6.151   8.135  11.886  0.00  0.00     0.103 A 
ATOM     17  C   UNK d   1       7.231   8.968  11.688  0.00  0.00     0.038 A 
ATOM     18  C   UNK d   1       8.534   8.555  11.922  0.00  0.00     0.034 A 
BRANCH  16  19
ATOM     19  N   UNK d   1       4.822   8.586  11.638  0.00  0.00    -0.116 N 
ATOM     20  O   UNK d   1       4.155   9.190  12.499  0.00  0.00    -0.532 OA
ATOM     21  O   UNK d   1       4.257   8.352  10.424  0.00  0.00    -0.532 OA
ENDBRANCH  16  19
ENDBRANCH   8  13
BRANCH   1  22
ATOM     22  C   UNK d   1      11.963   2.848  10.263  0.00  0.00     0.046 A 
ATOM     23  C   UNK d   1      13.105   2.680   9.508  0.00  0.00     0.031 A 
ATOM     24  C   UNK d   1      13.282   1.551   8.713  0.00  0.00     0.021 A 
ATOM     25  C   UNK d   1      12.321   0.563   8.657  0.00  0.00     0.011 A 
ATOM     26 Br   UNK d   1      12.546  -0.998   7.570  0.00  0.00    -0.051 Br
ATOM     27  C   UNK d   1      11.178   0.727   9.412  0.00  0.00     0.021 A 
ATOM     28  C   UNK d   1      11.011   1.851  10.197  0.00  0.00     0.031 A 
ENDBRANCH   1  22
TORSDOF 3
ENDMDL
