MODEL 1
REMARK VINA RESULT:    -8.790      0.000      0.000
REMARK INTER + INTRA:         -12.185
REMARK INTER:                 -11.359
REMARK INTRA:                  -0.826
REMARK UNBOUND:                -0.826
REMARK  5 active torsions:
REMARK  status: ('A' for Active; 'I' for Inactive)
REMARK    1  A    between atoms: C_5  and  N_8 
REMARK    2  A    between atoms: C_14  and  C_18 
REMARK    3  A    between atoms: C_18  and  O_20 
REMARK    4  A    between atoms: O_20  and  C_21 
REMARK    5  A    between atoms: C_21  and  C_22 
ROOT
ATOM      1  N   UNK d   1       8.143   7.063  13.367  0.00  0.00    -0.247 N 
ATOM      2  C   UNK d   1       9.407   7.127  14.055  0.00  0.00     0.255 C 
ATOM      3  O   UNK d   1       9.572   7.222  15.304  0.00  0.00    -0.270 OA
ATOM      4  C   UNK d   1      10.463   7.060  13.020  0.00  0.00     0.210 C 
ATOM      5  N   UNK d   1      11.666   6.364  13.434  0.00  0.00    -0.222 NA
ATOM      6  N   UNK d   1      11.989   5.734  12.192  0.00  0.00    -0.314 N 
ATOM      7  C   UNK d   1      10.782   5.260  11.596  0.00  0.00     0.132 C 
ATOM      8  C   UNK d   1       9.834   6.051  12.085  0.00  0.00     0.073 C 
ATOM      9  C   UNK d   1       8.416   6.388  12.133  0.00  0.00     0.266 C 
ATOM     10  O   UNK d   1       7.634   6.089  11.188  0.00  0.00    -0.267 OA
ATOM     11  H   UNK d   1      11.327   5.574  14.051  0.00  0.00     0.147 HD
ATOM     12  H   UNK d   1      12.938   5.631  11.784  0.00  0.00     0.181 HD
ENDROOT
BRANCH   7  13
ATOM     13  C   UNK d   1      10.610   4.159  10.654  0.00  0.00     0.312 C 
ATOM     14  O   UNK d   1      10.250   4.354   9.470  0.00  0.00    -0.258 OA
BRANCH  13  15
ATOM     15  O   UNK d   1      10.834   2.838  11.014  0.00  0.00    -0.312 OA
BRANCH  15  16
ATOM     16  C   UNK d   1      12.115   2.237  10.890  0.00  0.00     0.217 C 
BRANCH  16  17
ATOM     17  C   UNK d   1      12.118   1.318   9.703  0.00  0.00    -0.034 A 
ATOM     18  C   UNK d   1      10.970   0.606   9.361  0.00  0.00     0.009 A 
ATOM     19  C   UNK d   1      10.929  -0.238   8.284  0.00  0.00     0.001 A 
ATOM     20  C   UNK d   1      12.072  -0.393   7.505  0.00  0.00     0.000 A 
ATOM     21  C   UNK d   1      13.205   0.312   7.848  0.00  0.00     0.001 A 
ATOM     22  C   UNK d   1      13.236   1.172   8.948  0.00  0.00     0.009 A 
ENDBRANCH  16  17
ENDBRANCH  15  16
ENDBRANCH  13  15
ENDBRANCH   7  13
BRANCH   1  23
ATOM     23  C   UNK d   1       6.885   7.547  13.790  0.00  0.00     0.045 A 
ATOM     24  C   UNK d   1       6.332   8.688  13.196  0.00  0.00     0.031 A 
ATOM     25  C   UNK d   1       5.132   9.218  13.543  0.00  0.00     0.021 A 
ATOM     26  C   UNK d   1       4.405   8.612  14.535  0.00  0.00     0.011 A 
ATOM     27 Br   UNK d   1       2.696   9.344  15.047  0.00  0.00    -0.051 Br
ATOM     28  C   UNK d   1       4.916   7.483  15.147  0.00  0.00     0.021 A 
ATOM     29  C   UNK d   1       6.140   6.960  14.777  0.00  0.00     0.031 A 
ENDBRANCH   1  23
TORSDOF 5
ENDMDL
