/Users/jonathanwahrer/Desktop/Msc/3_Semester/Drug_Design_Praktikum/waehrer_HTS_screening/HTS_experiment/out/docking_results/vina_output/2jam/0426_docked.pdbqt
 OpenBabel03162217383D

 29 32  0  0  1  0  0  0  0  0999 V2000
    8.1430    7.0630   13.3670 N   0  0  0  0  0  0  0  0  0  0  0  0
    9.4070    7.1270   14.0550 C   0  0  0  0  0  0  0  0  0  0  0  0
    9.5720    7.2220   15.3040 O   0  0  0  0  0  0  0  0  0  0  0  0
   10.4630    7.0600   13.0200 C   0  0  1  0  0  3  0  0  0  0  0  0
   11.6660    6.3640   13.4340 N   0  0  0  0  0  0  0  0  0  0  0  0
   11.9890    5.7340   12.1920 N   0  0  0  0  0  0  0  0  0  0  0  0
   10.7820    5.2600   11.5960 C   0  0  0  0  0  0  0  0  0  0  0  0
    9.8340    6.0510   12.0850 C   0  0  0  0  0  0  0  0  0  0  0  0
    8.4160    6.3880   12.1330 C   0  0  0  0  0  0  0  0  0  0  0  0
    7.6340    6.0890   11.1880 O   0  0  0  0  0  0  0  0  0  0  0  0
   11.3270    5.5740   14.0510 H   0  0  0  0  0  0  0  0  0  0  0  0
   12.9380    5.6310   11.7840 H   0  0  0  0  0  0  0  0  0  0  0  0
   10.6100    4.1590   10.6540 C   0  0  0  0  0  0  0  0  0  0  0  0
   10.2500    4.3540    9.4700 O   0  0  0  0  0  0  0  0  0  0  0  0
   10.8340    2.8380   11.0140 O   0  0  0  0  0  0  0  0  0  0  0  0
   12.1150    2.2370   10.8900 C   0  0  0  0  0  2  0  0  0  0  0  0
   12.1180    1.3180    9.7030 C   0  0  0  0  0  0  0  0  0  0  0  0
   10.9700    0.6060    9.3610 C   0  0  0  0  0  3  0  0  0  0  0  0
   10.9290   -0.2380    8.2840 C   0  0  0  0  0  3  0  0  0  0  0  0
   12.0720   -0.3930    7.5050 C   0  0  0  0  0  3  0  0  0  0  0  0
   13.2050    0.3120    7.8480 C   0  0  0  0  0  3  0  0  0  0  0  0
   13.2360    1.1720    8.9480 C   0  0  0  0  0  3  0  0  0  0  0  0
    6.8850    7.5470   13.7900 C   0  0  0  0  0  0  0  0  0  0  0  0
    6.3320    8.6880   13.1960 C   0  0  0  0  0  3  0  0  0  0  0  0
    5.1320    9.2180   13.5430 C   0  0  0  0  0  3  0  0  0  0  0  0
    4.4050    8.6120   14.5350 C   0  0  0  0  0  0  0  0  0  0  0  0
    2.6960    9.3440   15.0470 Br  0  0  0  0  0  0  0  0  0  0  0  0
    4.9160    7.4830   15.1470 C   0  0  0  0  0  3  0  0  0  0  0  0
    6.1400    6.9600   14.7770 C   0  0  0  0  0  3  0  0  0  0  0  0
  1 23  1  0  0  0  0
  1  2  1  0  0  0  0
  2  3  2  0  0  0  0
  4  8  1  6  0  0  0
  4  5  1  0  0  0  0
  4  2  1  0  0  0  0
  5 11  1  0  0  0  0
  6  5  1  0  0  0  0
  7  8  2  0  0  0  0
  7  6  1  0  0  0  0
  8  9  1  0  0  0  0
  9  1  1  0  0  0  0
 10  9  2  0  0  0  0
 12  6  1  0  0  0  0
 13 15  1  0  0  0  0
 13  7  1  0  0  0  0
 14 13  2  0  0  0  0
 16 15  1  0  0  0  0
 17 16  1  0  0  0  0
 18 17  1  0  0  0  0
 19 18  2  0  0  0  0
 20 21  2  0  0  0  0
 20 19  1  0  0  0  0
 21 22  1  0  0  0  0
 22 17  2  0  0  0  0
 23 29  1  0  0  0  0
 24 25  1  0  0  0  0
 24 23  2  0  0  0  0
 25 26  2  0  0  0  0
 26 27  1  0  0  0  0
 26 28  1  0  0  0  0
 29 28  2  0  0  0  0
M  END
>  <Pose>
1

>  <Score>
-8.790

$$$$
