MODEL 1
REMARK VINA RESULT:    -8.741      0.000      0.000
REMARK INTER + INTRA:          -9.549
REMARK INTER:                  -9.252
REMARK INTRA:                  -0.297
REMARK UNBOUND:                -0.297
REMARK  1 active torsions:
REMARK  status: ('A' for Active; 'I' for Inactive)
REMARK    1  A    between atoms: C_5  and  N_8 
ROOT
ATOM      1  N   UNK d   1       5.049   8.675  14.366  0.00  0.00    -0.231 N 
ATOM      2  C   UNK d   1       3.971   9.009  13.472  0.00  0.00     0.357 A 
ATOM      3  O   UNK d   1       2.910   9.509  13.937  0.00  0.00    -0.244 OA
ATOM      4  N   UNK d   1       4.170   8.752  12.100  0.00  0.00    -0.169 NA
ATOM      5  C   UNK d   1       5.227   8.251  11.610  0.00  0.00     0.202 A 
ATOM      6  C   UNK d   1       6.435   7.846  12.371  0.00  0.00     0.140 A 
ATOM      7  C   UNK d   1       6.728   6.420  12.054  0.00  0.00     0.269 C 
ATOM      8  N   UNK d   1       8.081   6.005  12.139  0.00  0.00    -0.043 N 
ATOM      9  C   UNK d   1       8.969   6.914  12.749  0.00  0.00     0.140 A 
ATOM     10  C   UNK d   1       8.772   8.294  12.619  0.00  0.00    -0.021 A 
ATOM     11  C   UNK d   1       9.643   9.160  13.218  0.00  0.00     0.016 A 
ATOM     12  C   UNK d   1      10.730   8.757  13.960  0.00  0.00    -0.061 A 
ATOM     13  C   UNK d   1      10.920   7.397  14.085  0.00  0.00     0.009 A 
ATOM     14  C   UNK d   1      10.052   6.492  13.488  0.00  0.00     0.038 A 
ATOM     15  C   UNK d   1      11.653   9.726  14.596  0.00  0.00     0.048 C 
ATOM     16  C   UNK d   1       7.587   8.685  11.812  0.00  0.00     0.070 C 
ATOM     17  C   UNK d   1       8.613   5.563  10.839  0.00  0.00     0.276 C 
ATOM     18  C   UNK d   1       6.233   8.112  13.811  0.00  0.00     0.251 A 
ATOM     19  O   UNK d   1       7.148   7.838  14.657  0.00  0.00    -0.271 OA
ATOM     20  O   UNK d   1       5.291   8.048  10.215  0.00  0.00    -0.173 OA
ATOM     21  H   UNK d   1       8.107   5.124  12.735  0.00  0.00     0.286 HD
ENDROOT
BRANCH   1  22
ATOM     22  C   UNK d   1       4.923   8.906  15.761  0.00  0.00     0.047 A 
ATOM     23  C   UNK d   1       4.191   8.005  16.500  0.00  0.00     0.031 A 
ATOM     24  C   UNK d   1       4.014   8.154  17.871  0.00  0.00     0.021 A 
ATOM     25  C   UNK d   1       4.581   9.224  18.510  0.00  0.00     0.011 A 
ATOM     26 Br   UNK d   1       4.333   9.420  20.391  0.00  0.00    -0.051 Br
ATOM     27  C   UNK d   1       5.323  10.145  17.789  0.00  0.00     0.021 A 
ATOM     28  C   UNK d   1       5.485   9.975  16.424  0.00  0.00     0.031 A 
ENDBRANCH   1  22
TORSDOF 1
ENDMDL
