MODEL 1
REMARK VINA RESULT:   -10.484      0.000      0.000
REMARK INTER + INTRA:         -12.523
REMARK INTER:                 -12.936
REMARK INTRA:                   0.413
REMARK UNBOUND:                 0.413
REMARK  4 active torsions:
REMARK  status: ('A' for Active; 'I' for Inactive)
REMARK    1  A    between atoms: C_5  and  N_8 
REMARK    2  A    between atoms: C_15  and  N_16 
REMARK    3  A    between atoms: N_16  and  N_17 
REMARK    4  A    between atoms: N_17  and  C_18 
ROOT
ATOM      1  N   UNK d   1      12.224   2.195  10.002  0.00  0.00    -0.229 N 
ATOM      2  C   UNK d   1      13.555   1.943  10.456  0.00  0.00     0.337 A 
ATOM      3  O   UNK d   1      14.031   0.780  10.259  0.00  0.00    -0.246 OA
ATOM      4  N   UNK d   1      14.284   2.972  11.100  0.00  0.00    -0.274 N 
ATOM      5  C   UNK d   1      13.771   4.280  11.332  0.00  0.00     0.266 A 
ATOM      6  O   UNK d   1      14.446   5.179  11.908  0.00  0.00    -0.267 OA
ATOM      7  C   UNK d   1      12.401   4.576  10.875  0.00  0.00     0.117 A 
ATOM      8  C   UNK d   1      11.867   5.772  11.063  0.00  0.00     0.130 C 
ATOM      9  C   UNK d   1      11.676   3.495  10.216  0.00  0.00     0.273 A 
ATOM     10  O   UNK d   1      10.504   3.700   9.809  0.00  0.00    -0.266 OA
ATOM     11  H   UNK d   1      15.256   2.747  11.417  0.00  0.00     0.173 HD
ENDROOT
BRANCH   8  12
ATOM     12  N   UNK d   1      10.544   6.026  10.612  0.00  0.00    -0.296 N 
ATOM     13  H   UNK d   1      10.470   6.577   9.714  0.00  0.00     0.186 HD
BRANCH  12  14
ATOM     14  N   UNK d   1       9.386   5.614  11.252  0.00  0.00    -0.130 N 
ATOM     15  H   UNK d   1       9.222   4.565  11.245  0.00  0.00     0.205 HD
BRANCH  14  16
ATOM     16  C   UNK d   1       8.457   6.487  11.882  0.00  0.00     0.723 A 
ATOM     17  N   UNK d   1       8.605   7.022  13.098  0.00  0.00    -0.175 N 
ATOM     18  C   UNK d   1       7.545   7.798  13.379  0.00  0.00     0.166 A 
ATOM     19  C   UNK d   1       9.706   6.858  14.054  0.00  0.00     0.176 C 
ATOM     20  C   UNK d   1       6.693   7.743  12.284  0.00  0.00     0.186 A 
ATOM     21  C   UNK d   1       7.148   8.573  14.435  0.00  0.00     0.282 A 
ATOM     22  N   UNK d   1       7.293   6.937  11.410  0.00  0.00    -0.042 NA
ATOM     23  N   UNK d   1       5.532   8.420  12.259  0.00  0.00    -0.285 N 
ATOM     24  C   UNK d   1       5.194   9.161  13.315  0.00  0.00     0.332 A 
ATOM     25  C   UNK d   1       4.704   8.314  11.093  0.00  0.00     0.163 C 
ATOM     26  O   UNK d   1       4.107   9.816  13.331  0.00  0.00    -0.246 OA
ATOM     27  N   UNK d   1       5.981   9.260  14.419  0.00  0.00    -0.269 N 
ATOM     28  C   UNK d   1       5.573  10.075  15.534  0.00  0.00     0.164 C 
ATOM     29  O   UNK d   1       7.873   8.660  15.448  0.00  0.00    -0.265 OA
ENDBRANCH  14  16
ENDBRANCH  12  14
ENDBRANCH   8  12
BRANCH   1  30
ATOM     30  C   UNK d   1      11.504   1.176   9.368  0.00  0.00     0.047 A 
ATOM     31  C   UNK d   1      10.211   0.897   9.764  0.00  0.00     0.031 A 
ATOM     32  C   UNK d   1       9.461  -0.098   9.167  0.00  0.00     0.021 A 
ATOM     33  C   UNK d   1       9.995  -0.855   8.138  0.00  0.00     0.011 A 
ATOM     34 Br   UNK d   1       8.967  -2.237   7.303  0.00  0.00    -0.051 Br
ATOM     35  C   UNK d   1      11.287  -0.560   7.760  0.00  0.00     0.021 A 
ATOM     36  C   UNK d   1      12.050   0.431   8.345  0.00  0.00     0.031 A 
ENDBRANCH   1  30
TORSDOF 4
ENDMDL
