/Users/jonathanwahrer/Desktop/Msc/3_Semester/Drug_Design_Praktikum/waehrer_HTS_screening/HTS_experiment/out/docking_results/vina_output/2jam/0429_docked.pdbqt
 OpenBabel03162217393D

 36 39  0  0  0  0  0  0  0  0999 V2000
   12.2240    2.1950   10.0020 N   0  0  0  0  0  0  0  0  0  0  0  0
   13.5550    1.9430   10.4560 C   0  0  0  0  0  0  0  0  0  0  0  0
   14.0310    0.7800   10.2590 O   0  0  0  0  0  0  0  0  0  0  0  0
   14.2840    2.9720   11.1000 N   0  0  0  0  0  0  0  0  0  0  0  0
   13.7710    4.2800   11.3320 C   0  0  0  0  0  0  0  0  0  0  0  0
   14.4460    5.1790   11.9080 O   0  0  0  0  0  0  0  0  0  0  0  0
   12.4010    4.5760   10.8750 C   0  0  0  0  0  0  0  0  0  0  0  0
   11.8670    5.7720   11.0630 C   0  0  0  0  0  3  0  0  0  0  0  0
   11.6760    3.4950   10.2160 C   0  0  0  0  0  0  0  0  0  0  0  0
   10.5040    3.7000    9.8090 O   0  0  0  0  0  0  0  0  0  0  0  0
   15.2560    2.7470   11.4170 H   0  0  0  0  0  0  0  0  0  0  0  0
   10.5440    6.0260   10.6120 N   0  0  0  0  0  0  0  0  0  0  0  0
   10.4700    6.5770    9.7140 H   0  0  0  0  0  0  0  0  0  0  0  0
    9.3860    5.6140   11.2520 N   0  0  0  0  0  0  0  0  0  0  0  0
    9.2220    4.5650   11.2450 H   0  0  0  0  0  0  0  0  0  0  0  0
    8.4570    6.4870   11.8820 C   0  0  0  0  0  0  0  0  0  0  0  0
    8.6050    7.0220   13.0980 N   0  0  0  0  0  0  0  0  0  0  0  0
    7.5450    7.7980   13.3790 C   0  0  0  0  0  0  0  0  0  0  0  0
    9.7060    6.8580   14.0540 C   0  0  0  0  0  1  0  0  0  0  0  0
    6.6930    7.7430   12.2840 C   0  0  0  0  0  0  0  0  0  0  0  0
    7.1480    8.5730   14.4350 C   0  0  0  0  0  0  0  0  0  0  0  0
    7.2930    6.9370   11.4100 N   0  0  0  0  0  0  0  0  0  0  0  0
    5.5320    8.4200   12.2590 N   0  0  0  0  0  0  0  0  0  0  0  0
    5.1940    9.1610   13.3150 C   0  0  0  0  0  0  0  0  0  0  0  0
    4.7040    8.3140   11.0930 C   0  0  0  0  0  1  0  0  0  0  0  0
    4.1070    9.8160   13.3310 O   0  0  0  0  0  0  0  0  0  0  0  0
    5.9810    9.2600   14.4190 N   0  0  0  0  0  0  0  0  0  0  0  0
    5.5730   10.0750   15.5340 C   0  0  0  0  0  1  0  0  0  0  0  0
    7.8730    8.6600   15.4480 O   0  0  0  0  0  0  0  0  0  0  0  0
   11.5040    1.1760    9.3680 C   0  0  0  0  0  0  0  0  0  0  0  0
   10.2110    0.8970    9.7640 C   0  0  0  0  0  3  0  0  0  0  0  0
    9.4610   -0.0980    9.1670 C   0  0  0  0  0  3  0  0  0  0  0  0
    9.9950   -0.8550    8.1380 C   0  0  0  0  0  0  0  0  0  0  0  0
    8.9670   -2.2370    7.3030 Br  0  0  0  0  0  0  0  0  0  0  0  0
   11.2870   -0.5600    7.7600 C   0  0  0  0  0  3  0  0  0  0  0  0
   12.0500    0.4310    8.3450 C   0  0  0  0  0  3  0  0  0  0  0  0
  1  9  1  0  0  0  0
  1  2  1  0  0  0  0
  2  4  1  0  0  0  0
  3  2  2  0  0  0  0
  4  5  1  0  0  0  0
  4 11  1  0  0  0  0
  5  6  2  0  0  0  0
  7  8  2  0  0  0  0
  7  5  1  0  0  0  0
  9  7  1  0  0  0  0
 10  9  2  0  0  0  0
 12  8  1  0  0  0  0
 12 14  1  0  0  0  0
 13 12  1  0  0  0  0
 14 16  1  0  0  0  0
 15 14  1  0  0  0  0
 16 17  1  0  0  0  0
 17 18  1  0  0  0  0
 17 19  1  0  0  0  0
 18 21  1  0  0  0  0
 20 18  2  0  0  0  0
 21 29  2  0  0  0  0
 22 16  2  0  0  0  0
 22 20  1  0  0  0  0
 23 20  1  0  0  0  0
 23 24  1  0  0  0  0
 24 26  2  0  0  0  0
 24 27  1  0  0  0  0
 25 23  1  0  0  0  0
 27 21  1  0  0  0  0
 27 28  1  0  0  0  0
 30 31  1  0  0  0  0
 30  1  1  0  0  0  0
 32 31  2  0  0  0  0
 33 32  1  0  0  0  0
 34 33  1  0  0  0  0
 35 33  2  0  0  0  0
 35 36  1  0  0  0  0
 36 30  2  0  0  0  0
M  END
>  <Pose>
1

>  <Score>
-10.484

$$$$
