MODEL 1
REMARK VINA RESULT:    -8.689      0.000      0.000
REMARK INTER + INTRA:         -10.456
REMARK INTER:                 -10.213
REMARK INTRA:                  -0.243
REMARK UNBOUND:                -0.243
REMARK  3 active torsions:
REMARK  status: ('A' for Active; 'I' for Inactive)
REMARK    1  A    between atoms: C_5  and  N_8 
REMARK    2  A    between atoms: N_19  and  C_24 
REMARK    3  A    between atoms: C_24  and  C_25 
REMARK       I    between atoms: C_25  and  N_27 
ROOT
ATOM      1  N   UNK d   1      12.927   1.142   8.786  0.00  0.00    -0.181 N 
ATOM      2  C   UNK d   1      14.216   0.794   8.223  0.00  0.00     0.149 C 
ATOM      3  C   UNK d   1      15.328   1.708   8.684  0.00  0.00     0.042 C 
ATOM      4  C   UNK d   1      15.149   1.896  10.198  0.00  0.00     0.150 C 
ATOM      5  N   UNK d   1      13.964   2.701  10.336  0.00  0.00    -0.172 N 
ATOM      6  C   UNK d   1      12.873   2.295   9.616  0.00  0.00     0.712 A 
ATOM      7  N   UNK d   1      11.865   3.150   9.856  0.00  0.00    -0.043 NA
ATOM      8  C   UNK d   1      12.342   4.077  10.724  0.00  0.00     0.185 A 
ATOM      9  C   UNK d   1      13.665   3.801  11.032  0.00  0.00     0.166 A 
ATOM     10  C   UNK d   1      14.370   4.612  11.901  0.00  0.00     0.283 A 
ATOM     11  O   UNK d   1      15.586   4.323  12.159  0.00  0.00    -0.265 OA
ATOM     12  N   UNK d   1      13.760   5.677  12.450  0.00  0.00    -0.255 N 
ATOM     13  C   UNK d   1      12.476   5.921  12.134  0.00  0.00     0.333 A 
ATOM     14  O   UNK d   1      11.943   6.929  12.671  0.00  0.00    -0.246 OA
ATOM     15  N   UNK d   1      11.777   5.154  11.298  0.00  0.00    -0.285 N 
ATOM     16  C   UNK d   1      10.388   5.448  10.978  0.00  0.00     0.163 C 
ENDROOT
BRANCH   1  17
ATOM     17  C   UNK d   1      11.805   0.336   8.490  0.00  0.00     0.051 A 
ATOM     18  C   UNK d   1      10.614   0.390   9.177  0.00  0.00     0.031 A 
ATOM     19  C   UNK d   1       9.559  -0.448   8.808  0.00  0.00     0.021 A 
ATOM     20  C   UNK d   1       9.685  -1.335   7.760  0.00  0.00     0.011 A 
ATOM     21 Br   UNK d   1       8.281  -2.480   7.236  0.00  0.00    -0.051 Br
ATOM     22  C   UNK d   1      10.877  -1.394   7.067  0.00  0.00     0.021 A 
ATOM     23  C   UNK d   1      11.894  -0.562   7.451  0.00  0.00     0.031 A 
ENDBRANCH   1  17
BRANCH  12  24
ATOM     24  C   UNK d   1      14.492   6.534  13.366  0.00  0.00     0.239 C 
BRANCH  24  25
ATOM     25  C   UNK d   1      15.287   7.521  12.563  0.00  0.00     0.233 C 
ATOM     26  O   UNK d   1      16.491   7.740  12.833  0.00  0.00    -0.272 OA
ATOM     27  N   UNK d   1      14.707   8.229  11.485  0.00  0.00    -0.369 N 
ATOM     28  H   UNK d   1      15.235   8.460  10.613  0.00  0.00     0.159 HD
ATOM     29  H   UNK d   1      13.709   8.553  11.518  0.00  0.00     0.159 HD
ENDBRANCH  24  25
ENDBRANCH  12  24
TORSDOF 3
ENDMDL
