MODEL 1
REMARK VINA RESULT:    -8.141      0.000      0.000
REMARK INTER + INTRA:         -11.008
REMARK INTER:                 -10.045
REMARK INTRA:                  -0.963
REMARK UNBOUND:                -0.963
REMARK  4 active torsions:
REMARK  status: ('A' for Active; 'I' for Inactive)
REMARK    1  A    between atoms: C_5  and  N_8 
REMARK    2  A    between atoms: C_12  and  C_13 
REMARK    3  A    between atoms: C_13  and  N_14 
REMARK    4  A    between atoms: N_14  and  C_15 
ROOT
ATOM      1  N   UNK d   1      10.742   4.659  11.425  0.00  0.00    -0.220 N 
ATOM      2  N   UNK d   1      10.877   4.852  12.733  0.00  0.00    -0.291 N 
ATOM      3  C   UNK d   1      10.289   6.005  13.102  0.00  0.00     0.056 A 
ATOM      4  C   UNK d   1      10.235   6.502  14.331  0.00  0.00     0.045 C 
ATOM      5  C   UNK d   1       9.742   6.596  11.981  0.00  0.00     0.076 A 
ATOM      6  C   UNK d   1      10.051   5.717  10.954  0.00  0.00     0.280 A 
ATOM      7  O   UNK d   1       9.725   5.899   9.758  0.00  0.00    -0.265 OA
ATOM      8  H   UNK d   1      11.368   4.203  13.380  0.00  0.00     0.187 HD
ENDROOT
BRANCH   5   9
ATOM      9  C   UNK d   1       9.070   7.747  11.889  0.00  0.00     0.103 C 
BRANCH   9  10
ATOM     10  N   UNK d   1       7.654   7.683  11.773  0.00  0.00    -0.384 N 
ATOM     11  H   UNK d   1       7.259   7.206  10.949  0.00  0.00     0.159 HD
BRANCH  10  12
ATOM     12  C   UNK d   1       6.779   8.255  12.755  0.00  0.00     0.109 C 
ATOM     13  C   UNK d   1       6.552   7.302  13.885  0.00  0.00     0.311 C 
ATOM     14  N   UNK d   1       5.742   7.956  14.903  0.00  0.00     0.147 N 
ATOM     15  C   UNK d   1       6.473   9.129  15.366  0.00  0.00     0.547 C 
ATOM     16  C   UNK d   1       4.475   8.331  14.329  0.00  0.00     0.547 C 
ATOM     17  N   UNK d   1       6.648  10.099  14.314  0.00  0.00     0.147 N 
ATOM     18  C   UNK d   1       5.349  10.434  13.738  0.00  0.00     0.547 C 
ATOM     19  C   UNK d   1       7.456   9.531  13.267  0.00  0.00     0.311 C 
ATOM     20  N   UNK d   1       4.665   9.261  13.241  0.00  0.00     0.147 N 
ATOM     21  C   UNK d   1       5.433   8.642  12.188  0.00  0.00     0.311 C 
ENDBRANCH  10  12
ENDBRANCH   9  10
ENDBRANCH   5   9
BRANCH   1  22
ATOM     22  C   UNK d   1      11.221   3.565  10.651  0.00  0.00     0.060 A 
ATOM     23  C   UNK d   1      12.523   3.557  10.195  0.00  0.00     0.033 A 
ATOM     24  C   UNK d   1      13.025   2.503   9.435  0.00  0.00     0.021 A 
ATOM     25  C   UNK d   1      12.225   1.445   9.122  0.00  0.00     0.011 A 
ATOM     26 Br   UNK d   1      12.866  -0.035   8.075  0.00  0.00    -0.051 Br
ATOM     27  C   UNK d   1      10.913   1.425   9.565  0.00  0.00     0.021 A 
ATOM     28  C   UNK d   1      10.442   2.479  10.315  0.00  0.00     0.033 A 
ENDBRANCH   1  22
TORSDOF 4
ENDMDL
