MODEL 1
REMARK VINA RESULT:    -8.699      0.000      0.000
REMARK INTER + INTRA:         -13.656
REMARK INTER:                 -12.768
REMARK INTRA:                  -0.889
REMARK UNBOUND:                -0.889
REMARK  10 active torsions:
REMARK  status: ('A' for Active; 'I' for Inactive)
REMARK    1  A    between atoms: C_5  and  O_8 
REMARK    2  A    between atoms: O_8  and  C_9 
REMARK    3  A    between atoms: C_9  and  C_10 
REMARK       I    between atoms: C_10  and  N_12 
REMARK    4  A    between atoms: N_12  and  C_13 
REMARK    5  A    between atoms: N_16  and  C_23 
REMARK    6  A    between atoms: C_20  and  O_22 
REMARK    7  A    between atoms: C_25  and  C_30 
REMARK    8  A    between atoms: C_26  and  O_29 
REMARK    9  A    between atoms: C_27  and  O_28 
REMARK   10  A    between atoms: C_30  and  O_31 
ROOT
ATOM      1  C   UNK d   1       7.324   7.018  12.085  0.00  0.00     0.733 A 
ATOM      2  N   UNK d   1       7.308   7.719  13.234  0.00  0.00    -0.042 NA
ATOM      3  C   UNK d   1       6.303   8.542  13.484  0.00  0.00     0.185 A 
ATOM      4  N   UNK d   1       6.068   9.335  14.538  0.00  0.00    -0.293 N 
ATOM      5  C   UNK d   1       4.898   9.959  14.271  0.00  0.00     0.214 A 
ATOM      6  N   UNK d   1       4.424   9.562  13.086  0.00  0.00    -0.235 NA
ATOM      7  C   UNK d   1       5.266   8.675  12.553  0.00  0.00     0.158 A 
ATOM      8  C   UNK d   1       5.275   7.958  11.371  0.00  0.00     0.214 A 
ATOM      9  N   UNK d   1       6.315   7.142  11.173  0.00  0.00    -0.036 NA
ENDROOT
BRANCH   1  10
ATOM     10  N   UNK d   1       8.391   6.124  11.778  0.00  0.00    -0.154 N 
ATOM     11  C   UNK d   1       9.602   6.554  11.198  0.00  0.00     0.260 C 
ATOM     12  O   UNK d   1       9.777   7.756  10.929  0.00  0.00    -0.270 OA
ATOM     13  H   UNK d   1       8.241   5.100  12.007  0.00  0.00     0.187 HD
BRANCH  11  14
ATOM     14  C   UNK d   1      10.663   5.572  10.909  0.00  0.00     0.279 C 
BRANCH  14  15
ATOM     15  O   UNK d   1      10.291   4.257  11.203  0.00  0.00    -0.342 OA
BRANCH  15  16
ATOM     16  C   UNK d   1      10.830   3.218  10.475  0.00  0.00     0.069 A 
ATOM     17  C   UNK d   1      12.145   3.254  10.075  0.00  0.00     0.038 A 
ATOM     18  C   UNK d   1      12.701   2.206   9.336  0.00  0.00     0.022 A 
ATOM     19  C   UNK d   1      11.923   1.119   9.004  0.00  0.00     0.011 A 
ATOM     20 Br   UNK d   1      12.687  -0.322   7.990  0.00  0.00    -0.051 Br
ATOM     21  C   UNK d   1      10.605   1.086   9.408  0.00  0.00     0.022 A 
ATOM     22  C   UNK d   1      10.072   2.126  10.134  0.00  0.00     0.038 A 
ENDBRANCH  15  16
ENDBRANCH  14  15
ENDBRANCH  11  14
ENDBRANCH   1  10
BRANCH   8  23
ATOM     23  O   UNK d   1       4.222   8.128  10.484  0.00  0.00    -0.343 OA
ATOM     24  H   UNK d   1       3.484   7.417  10.530  0.00  0.00     0.219 HD
ENDBRANCH   8  23
BRANCH   4  25
ATOM     25  C   UNK d   1       6.805   9.555  15.723  0.00  0.00     0.262 C 
ATOM     26  O   UNK d   1       7.085   8.357  16.394  0.00  0.00    -0.353 OA
ATOM     27  C   UNK d   1       6.096   8.317  17.373  0.00  0.00     0.179 C 
ATOM     28  C   UNK d   1       6.259   9.703  17.979  0.00  0.00     0.182 C 
ATOM     29  C   UNK d   1       6.273  10.523  16.692  0.00  0.00     0.198 C 
BRANCH  27  30
ATOM     30  C   UNK d   1       6.325   7.227  18.379  0.00  0.00     0.198 C 
BRANCH  30  31
ATOM     31  O   UNK d   1       7.325   6.358  18.038  0.00  0.00    -0.398 OA
ATOM     32  H   UNK d   1       7.878   6.777  17.328  0.00  0.00     0.209 HD
ENDBRANCH  30  31
ENDBRANCH  27  30
BRANCH  28  33
ATOM     33  O   UNK d   1       5.252  10.050  18.835  0.00  0.00    -0.390 OA
ATOM     34  H   UNK d   1       5.388  10.953  19.266  0.00  0.00     0.210 HD
ENDBRANCH  28  33
BRANCH  29  35
ATOM     35  O   UNK d   1       7.121  11.643  16.845  0.00  0.00    -0.388 OA
ATOM     36  H   UNK d   1       8.035  11.272  16.920  0.00  0.00     0.210 HD
ENDBRANCH  29  35
ENDBRANCH   4  25
TORSDOF 10
ENDMDL
