MODEL 1
REMARK VINA RESULT:    -8.215      0.000      0.000
REMARK INTER + INTRA:         -12.704
REMARK INTER:                 -11.336
REMARK INTRA:                  -1.367
REMARK UNBOUND:                -1.367
REMARK  7 active torsions:
REMARK  status: ('A' for Active; 'I' for Inactive)
REMARK    1  A    between atoms: C_5  and  O_8 
REMARK    2  A    between atoms: O_8  and  C_9 
REMARK    3  A    between atoms: C_9  and  C_10 
REMARK    4  A    between atoms: C_10  and  O_11 
REMARK    5  A    between atoms: C_10  and  C_12 
REMARK    6  A    between atoms: C_12  and  N_13 
REMARK    7  A    between atoms: C_17  and  N_18 
ROOT
ATOM      1  N   UNK d   1       9.258   7.256  12.823  0.00  0.00    -0.170 N 
ATOM      2  C   UNK d   1       7.956   7.418  12.490  0.00  0.00     0.166 A 
ATOM      3  C   UNK d   1       7.480   8.537  13.136  0.00  0.00     0.185 A 
ATOM      4  N   UNK d   1       8.500   8.999  13.828  0.00  0.00    -0.044 NA
ATOM      5  C   UNK d   1       9.624   8.234  13.667  0.00  0.00     0.707 A 
ATOM      6  N   UNK d   1       6.199   8.994  13.024  0.00  0.00    -0.286 N 
ATOM      7  C   UNK d   1       5.368   8.306  12.239  0.00  0.00     0.330 A 
ATOM      8  O   UNK d   1       4.181   8.714  12.123  0.00  0.00    -0.246 OA
ATOM      9  N   UNK d   1       5.803   7.212  11.600  0.00  0.00    -0.273 N 
ATOM     10  C   UNK d   1       7.066   6.735  11.690  0.00  0.00     0.280 A 
ATOM     11  O   UNK d   1       7.441   5.718  11.087  0.00  0.00    -0.265 OA
ATOM     12  C   UNK d   1       5.789  10.200  13.744  0.00  0.00     0.163 C 
ATOM     13  H   UNK d   1       5.126   6.701  10.996  0.00  0.00     0.173 HD
ENDROOT
BRANCH   1  14
ATOM     14  C   UNK d   1      10.144   6.232  12.314  0.00  0.00     0.182 C 
BRANCH  14  15
ATOM     15  C   UNK d   1      10.958   6.621  11.114  0.00  0.00     0.161 C 
BRANCH  15  16
ATOM     16  C   UNK d   1      12.205   5.834  10.861  0.00  0.00     0.209 C 
BRANCH  16  17
ATOM     17  O   UNK d   1      12.055   4.747  10.133  0.00  0.00    -0.349 OA
BRANCH  17  18
ATOM     18  C   UNK d   1      11.932   3.462   9.907  0.00  0.00     0.069 A 
ATOM     19  C   UNK d   1      12.964   2.622   9.540  0.00  0.00     0.038 A 
ATOM     20  C   UNK d   1      12.774   1.276   9.313  0.00  0.00     0.022 A 
ATOM     21  C   UNK d   1      11.519   0.747   9.455  0.00  0.00     0.011 A 
ATOM     22 Br   UNK d   1      11.263  -1.109   9.141  0.00  0.00    -0.051 Br
ATOM     23  C   UNK d   1      10.467   1.562   9.823  0.00  0.00     0.022 A 
ATOM     24  C   UNK d   1      10.650   2.885  10.047  0.00  0.00     0.038 A 
ENDBRANCH  17  18
ENDBRANCH  16  17
ENDBRANCH  15  16
BRANCH  15  25
ATOM     25  O   UNK d   1      10.202   6.603   9.933  0.00  0.00    -0.392 OA
ATOM     26  H   UNK d   1       9.292   6.997  10.126  0.00  0.00     0.210 HD
ENDBRANCH  15  25
ENDBRANCH  14  15
ENDBRANCH   1  14
BRANCH   5  27
ATOM     27  N   UNK d   1      10.861   8.474  14.365  0.00  0.00    -0.212 N 
ATOM     28  C   UNK d   1      11.713   9.496  13.718  0.00  0.00     0.171 C 
ATOM     29  C   UNK d   1      12.828   9.985  14.551  0.00  0.00     0.292 C 
ATOM     30  N   UNK d   1      13.393   8.972  15.406  0.00  0.00     0.087 N 
ATOM     31  C   UNK d   1      12.354   8.591  16.309  0.00  0.00     0.292 C 
ATOM     32  C   UNK d   1      13.994   7.905  14.676  0.00  0.00     0.310 C 
ATOM     33  C   UNK d   1      11.226   7.852  15.588  0.00  0.00     0.171 C 
ENDBRANCH   5  27
TORSDOF 7
ENDMDL
