/Users/jonathanwahrer/Desktop/Msc/3_Semester/Drug_Design_Praktikum/waehrer_HTS_screening/HTS_experiment/out/docking_results/vina_output/2jam/0444_docked.pdbqt
 OpenBabel03162217403D

 33 36  0  0  1  0  0  0  0  0999 V2000
    9.2580    7.2560   12.8230 N   0  0  0  0  0  0  0  0  0  0  0  0
    7.9560    7.4180   12.4900 C   0  0  0  0  0  0  0  0  0  0  0  0
    7.4800    8.5370   13.1360 C   0  0  0  0  0  0  0  0  0  0  0  0
    8.5000    8.9990   13.8280 N   0  0  0  0  0  0  0  0  0  0  0  0
    9.6240    8.2340   13.6670 C   0  0  0  0  0  0  0  0  0  0  0  0
    6.1990    8.9940   13.0240 N   0  0  0  0  0  0  0  0  0  0  0  0
    5.3680    8.3060   12.2390 C   0  0  0  0  0  0  0  0  0  0  0  0
    4.1810    8.7140   12.1230 O   0  0  0  0  0  0  0  0  0  0  0  0
    5.8030    7.2120   11.6000 N   0  0  0  0  0  0  0  0  0  0  0  0
    7.0660    6.7350   11.6900 C   0  0  0  0  0  0  0  0  0  0  0  0
    7.4410    5.7180   11.0870 O   0  0  0  0  0  0  0  0  0  0  0  0
    5.7890   10.2000   13.7440 C   0  0  0  0  0  1  0  0  0  0  0  0
    5.1260    6.7010   10.9960 H   0  0  0  0  0  0  0  0  0  0  0  0
   10.1440    6.2320   12.3140 C   0  0  0  0  0  2  0  0  0  0  0  0
   10.9580    6.6210   11.1140 C   0  0  1  0  0  3  0  0  0  0  0  0
   12.2050    5.8340   10.8610 C   0  0  0  0  0  2  0  0  0  0  0  0
   12.0550    4.7470   10.1330 O   0  0  0  0  0  0  0  0  0  0  0  0
   11.9320    3.4620    9.9070 C   0  0  0  0  0  0  0  0  0  0  0  0
   12.9640    2.6220    9.5400 C   0  0  0  0  0  3  0  0  0  0  0  0
   12.7740    1.2760    9.3130 C   0  0  0  0  0  3  0  0  0  0  0  0
   11.5190    0.7470    9.4550 C   0  0  0  0  0  0  0  0  0  0  0  0
   11.2630   -1.1090    9.1410 Br  0  0  0  0  0  0  0  0  0  0  0  0
   10.4670    1.5620    9.8230 C   0  0  0  0  0  3  0  0  0  0  0  0
   10.6500    2.8850   10.0470 C   0  0  0  0  0  3  0  0  0  0  0  0
   10.2020    6.6030    9.9330 O   0  0  0  0  0  0  0  0  0  0  0  0
    9.2920    6.9970   10.1260 H   0  0  0  0  0  0  0  0  0  0  0  0
   10.8610    8.4740   14.3650 N   0  0  0  0  0  0  0  0  0  0  0  0
   11.7130    9.4960   13.7180 C   0  0  0  0  0  2  0  0  0  0  0  0
   12.8280    9.9850   14.5510 C   0  0  0  0  0  2  0  0  0  0  0  0
   13.3930    8.9720   15.4060 N   0  0  0  0  0  0  0  0  0  0  0  0
   12.3540    8.5910   16.3090 C   0  0  0  0  0  2  0  0  0  0  0  0
   13.9940    7.9050   14.6760 C   0  0  0  0  0  1  0  0  0  0  0  0
   11.2260    7.8520   15.5880 C   0  0  0  0  0  2  0  0  0  0  0  0
  1  5  1  0  0  0  0
  2  1  1  0  0  0  0
  2  3  2  0  0  0  0
  3  4  1  0  0  0  0
  5  4  2  0  0  0  0
  5 27  1  0  0  0  0
  6  3  1  0  0  0  0
  6 12  1  0  0  0  0
  7  6  1  0  0  0  0
  8  7  2  0  0  0  0
  9 10  1  0  0  0  0
  9  7  1  0  0  0  0
 10  2  1  0  0  0  0
 11 10  2  0  0  0  0
 13  9  1  0  0  0  0
 14  1  1  0  0  0  0
 15 16  1  6  0  0  0
 15 14  1  0  0  0  0
 17 16  1  0  0  0  0
 18 24  1  0  0  0  0
 18 17  1  0  0  0  0
 19 18  2  0  0  0  0
 20 21  2  0  0  0  0
 20 19  1  0  0  0  0
 21 23  1  0  0  0  0
 22 21  1  0  0  0  0
 23 24  2  0  0  0  0
 25 26  1  0  0  0  0
 25 15  1  0  0  0  0
 27 33  1  0  0  0  0
 28 27  1  0  0  0  0
 28 29  1  0  0  0  0
 29 30  1  0  0  0  0
 30 31  1  0  0  0  0
 32 30  1  0  0  0  0
 33 31  1  0  0  0  0
M  END
>  <Pose>
1

>  <Score>
-8.215

$$$$
