MODEL 1
REMARK VINA RESULT:    -7.668      0.000      0.000
REMARK INTER + INTRA:          -8.774
REMARK INTER:                  -8.565
REMARK INTRA:                  -0.209
REMARK UNBOUND:                -0.209
REMARK  2 active torsions:
REMARK  status: ('A' for Active; 'I' for Inactive)
REMARK    1  A    between atoms: C_7  and  C_8 
REMARK    2  A    between atoms: C_8  and  N_9 
ROOT
ATOM      1  C   UNK d   1      11.926   4.225  10.003  0.00  0.00     0.284 C 
ENDROOT
BRANCH   1   2
ATOM      2  C   UNK d   1      11.769   2.772   9.929  0.00  0.00    -0.012 A 
ATOM      3  C   UNK d   1      12.920   1.984  10.100  0.00  0.00     0.021 A 
ATOM      4 Br   UNK d   1      14.624   2.708  10.584  0.00  0.00    -0.050 Br
ATOM      5  C   UNK d   1      12.774   0.626   9.885  0.00  0.00     0.059 A 
ATOM      6  C   UNK d   1      11.553   0.090   9.529  0.00  0.00     0.106 A 
ATOM      7  C   UNK d   1      10.408   0.831   9.353  0.00  0.00     0.105 A 
ATOM      8  O   UNK d   1      11.224  -1.275   9.267  0.00  0.00    -0.323 OA
ATOM      9  C   UNK d   1      10.560   2.174   9.566  0.00  0.00     0.050 A 
ATOM     10  O   UNK d   1       9.435  -0.087   8.993  0.00  0.00    -0.323 OA
ATOM     11  C   UNK d   1      10.102  -1.202   8.338  0.00  0.00     0.352 C 
ENDBRANCH   1   2
BRANCH   1  12
ATOM     12  N   UNK d   1      11.076   4.990  10.816  0.00  0.00     0.016 N 
ATOM     13  C   UNK d   1      11.730   6.344  10.710  0.00  0.00     0.517 C 
ATOM     14  N   UNK d   1      11.289   7.283  11.652  0.00  0.00     0.171 N 
ATOM     15  C   UNK d   1      11.505   6.709  12.969  0.00  0.00     0.551 C 
ATOM     16  C   UNK d   1       9.872   7.522  11.356  0.00  0.00     0.551 C 
ATOM     17  N   UNK d   1      10.649   5.554  13.077  0.00  0.00     0.171 N 
ATOM     18  C   UNK d   1      11.069   4.512  12.197  0.00  0.00     0.517 C 
ATOM     19  C   UNK d   1       9.235   5.842  12.809  0.00  0.00     0.551 C 
ATOM     20  N   UNK d   1       9.146   6.277  11.424  0.00  0.00     0.171 N 
ATOM     21  C   UNK d   1       9.708   5.265  10.504  0.00  0.00     0.517 C 
ENDBRANCH   1  12
TORSDOF 2
ENDMDL
