/Users/jonathanwahrer/Desktop/Msc/3_Semester/Drug_Design_Praktikum/waehrer_HTS_screening/HTS_experiment/out/docking_results/vina_output/2jam/0459_docked.pdbqt
 OpenBabel03162217413D

 29 32  0  0  0  0  0  0  0  0999 V2000
   12.2260    4.1480   10.8580 C   0  0  0  0  0  0  0  0  0  0  0  0
   11.5340    4.9380    9.9300 C   0  0  0  0  0  3  0  0  0  0  0  0
   10.3920    5.6360   10.2470 C   0  0  0  0  0  3  0  0  0  0  0  0
    9.8720    5.5840   11.5220 C   0  0  0  0  0  0  0  0  0  0  0  0
   10.5390    4.8110   12.4480 C   0  0  0  0  0  3  0  0  0  0  0  0
   11.6980    4.1020   12.1290 C   0  0  0  0  0  3  0  0  0  0  0  0
   13.3690    3.4630   10.4840 O   0  0  0  0  0  0  0  0  0  0  0  0
   13.5630    2.0960   10.6940 C   0  0  0  0  0  2  0  0  0  0  0  0
   12.8410    1.2310    9.7450 C   0  0  0  0  0  0  0  0  0  0  0  0
   13.4980    0.7040    8.6260 C   0  0  0  0  0  0  0  0  0  0  0  0
   15.3310    1.2020    8.3750 Br  0  0  0  0  0  0  0  0  0  0  0  0
   12.8540   -0.1340    7.7500 C   0  0  0  0  0  3  0  0  0  0  0  0
   11.5330   -0.4820    7.9460 C   0  0  0  0  0  0  0  0  0  0  0  0
   10.8620    0.0230    9.0400 C   0  0  0  0  0  0  0  0  0  0  0  0
   10.6310   -1.2900    7.2510 O   0  0  0  0  0  0  0  0  0  0  0  0
   11.5240    0.8720    9.9250 C   0  0  0  0  0  3  0  0  0  0  0  0
    9.5770   -0.4800    8.9910 O   0  0  0  0  0  0  0  0  0  0  0  0
    9.4960   -1.5390    8.0530 C   0  0  0  0  0  2  0  0  0  0  0  0
    8.6570    6.3220   11.8750 C   0  0  0  0  0  0  0  0  0  0  0  0
    8.2060    7.4870   11.3790 N   0  0  0  0  0  0  0  0  0  0  0  0
    7.0560    7.7940   11.9880 N   0  0  0  0  0  0  0  0  0  0  0  0
    6.7770    6.8390   12.8620 N   0  0  0  0  0  0  0  0  0  0  0  0
    7.7510    5.9470   12.7920 N   0  0  0  0  0  0  0  0  0  0  0  0
    6.2130    8.9530   11.7780 C   0  0  0  0  0  2  0  0  0  0  0  0
    4.9100    8.5410   11.2100 C   0  0  0  0  0  0  0  0  0  0  0  0
    4.8130    8.3190    9.9930 O   0  0  0  0  0  0  0  0  0  0  0  0
    3.7960    8.4070   12.0660 N   0  0  0  0  0  0  0  0  0  0  0  0
    3.6760    8.9870   12.9430 H   0  0  0  0  0  0  0  0  0  0  0  0
    3.0490    7.7150   11.8440 H   0  0  0  0  0  0  0  0  0  0  0  0
  1  6  1  0  0  0  0
  2  3  1  0  0  0  0
  2  1  2  0  0  0  0
  3  4  2  0  0  0  0
  4 19  1  0  0  0  0
  4  5  1  0  0  0  0
  6  5  2  0  0  0  0
  7  8  1  0  0  0  0
  7  1  1  0  0  0  0
  9 16  1  0  0  0  0
  9  8  1  0  0  0  0
 10  9  2  0  0  0  0
 11 10  1  0  0  0  0
 12 13  2  0  0  0  0
 12 10  1  0  0  0  0
 13 14  1  0  0  0  0
 14 16  2  0  0  0  0
 15 13  1  0  0  0  0
 15 18  1  0  0  0  0
 17 14  1  0  0  0  0
 18 17  1  0  0  0  0
 19 23  1  0  0  0  0
 20 19  2  0  0  0  0
 20 21  1  0  0  0  0
 21 22  1  0  0  0  0
 23 22  2  0  0  0  0
 24 21  1  0  0  0  0
 25 24  1  0  0  0  0
 25 27  1  0  0  0  0
 26 25  2  0  0  0  0
 27 28  1  0  0  0  0
 29 27  1  0  0  0  0
M  END
>  <Pose>
1

>  <Score>
-9.559

$$$$
