MODEL 1
REMARK VINA RESULT:    -9.559      0.000      0.000
REMARK INTER + INTRA:         -13.916
REMARK INTER:                 -12.912
REMARK INTRA:                  -1.004
REMARK UNBOUND:                -1.004
REMARK  6 active torsions:
REMARK  status: ('A' for Active; 'I' for Inactive)
REMARK    1  A    between atoms: C_7  and  C_8 
REMARK    2  A    between atoms: C_8  and  O_9 
REMARK    3  A    between atoms: O_9  and  C_10 
REMARK    4  A    between atoms: C_13  and  C_16 
REMARK    5  A    between atoms: N_18  and  C_21 
REMARK    6  A    between atoms: C_21  and  C_22 
REMARK       I    between atoms: C_22  and  N_24 
ROOT
ATOM      1  C   UNK d   1      12.226   4.148  10.858  0.00  0.00     0.069 A 
ATOM      2  C   UNK d   1      11.534   4.938   9.930  0.00  0.00     0.038 A 
ATOM      3  C   UNK d   1      10.392   5.636  10.247  0.00  0.00     0.018 A 
ATOM      4  C   UNK d   1       9.872   5.584  11.522  0.00  0.00     0.015 A 
ATOM      5  C   UNK d   1      10.539   4.811  12.448  0.00  0.00     0.018 A 
ATOM      6  C   UNK d   1      11.698   4.102  12.129  0.00  0.00     0.038 A 
ENDROOT
BRANCH   1   7
ATOM      7  O   UNK d   1      13.369   3.463  10.484  0.00  0.00    -0.347 OA
BRANCH   7   8
ATOM      8  C   UNK d   1      13.563   2.096  10.694  0.00  0.00     0.215 C 
BRANCH   8   9
ATOM      9  C   UNK d   1      12.841   1.231   9.745  0.00  0.00    -0.014 A 
ATOM     10  C   UNK d   1      13.498   0.704   8.626  0.00  0.00     0.022 A 
ATOM     11 Br   UNK d   1      15.331   1.202   8.375  0.00  0.00    -0.050 Br
ATOM     12  C   UNK d   1      12.854  -0.134   7.750  0.00  0.00     0.059 A 
ATOM     13  C   UNK d   1      11.533  -0.482   7.946  0.00  0.00     0.106 A 
ATOM     14  C   UNK d   1      10.862   0.023   9.040  0.00  0.00     0.105 A 
ATOM     15  O   UNK d   1      10.631  -1.290   7.251  0.00  0.00    -0.323 OA
ATOM     16  C   UNK d   1      11.524   0.872   9.925  0.00  0.00     0.050 A 
ATOM     17  O   UNK d   1       9.577  -0.480   8.991  0.00  0.00    -0.323 OA
ATOM     18  C   UNK d   1       9.496  -1.539   8.053  0.00  0.00     0.352 C 
ENDBRANCH   8   9
ENDBRANCH   7   8
ENDBRANCH   1   7
BRANCH   4  19
ATOM     19  C   UNK d   1       8.657   6.322  11.875  0.00  0.00     0.198 A 
ATOM     20  N   UNK d   1       8.206   7.487  11.379  0.00  0.00    -0.136 NA
ATOM     21  N   UNK d   1       7.056   7.794  11.988  0.00  0.00    -0.182 N 
ATOM     22  N   UNK d   1       6.777   6.839  12.862  0.00  0.00     0.025 NA
ATOM     23  N   UNK d   1       7.751   5.947  12.792  0.00  0.00    -0.136 NA
BRANCH  21  24
ATOM     24  C   UNK d   1       6.213   8.953  11.778  0.00  0.00     0.272 C 
BRANCH  24  25
ATOM     25  C   UNK d   1       4.910   8.541  11.210  0.00  0.00     0.236 C 
ATOM     26  O   UNK d   1       4.813   8.319   9.993  0.00  0.00    -0.272 OA
ATOM     27  N   UNK d   1       3.796   8.407  12.066  0.00  0.00    -0.369 N 
ATOM     28  H   UNK d   1       3.676   8.987  12.943  0.00  0.00     0.159 HD
ATOM     29  H   UNK d   1       3.049   7.715  11.844  0.00  0.00     0.159 HD
ENDBRANCH  24  25
ENDBRANCH  21  24
ENDBRANCH   4  19
TORSDOF 6
ENDMDL
