MODEL 1
REMARK VINA RESULT:    -8.883      0.000      0.000
REMARK INTER + INTRA:         -12.067
REMARK INTER:                 -11.480
REMARK INTRA:                  -0.587
REMARK UNBOUND:                -0.587
REMARK  5 active torsions:
REMARK  status: ('A' for Active; 'I' for Inactive)
REMARK    1  A    between atoms: C_7  and  C_8 
REMARK    2  A    between atoms: N_9  and  N_10 
REMARK    3  A    between atoms: N_10  and  C_11 
REMARK    4  A    between atoms: C_13  and  N_19 
REMARK    5  A    between atoms: C_15  and  O_17 
ROOT
ATOM      1  C   UNK d   1      10.344   6.884  11.051  0.00  0.00     0.762 A 
ATOM      2  N   UNK d   1       9.138   7.476  11.026  0.00  0.00     0.132 NA
ATOM      3  C   UNK d   1       8.590   8.074  12.118  0.00  0.00     0.744 A 
ATOM      4  N   UNK d   1       9.324   8.039  13.229  0.00  0.00    -0.017 NA
ATOM      5  C   UNK d   1      10.523   7.470  13.320  0.00  0.00     0.302 A 
ATOM      6  N   UNK d   1      11.029   6.884  12.194  0.00  0.00    -0.016 NA
ENDROOT
BRANCH   1   7
ATOM      7  N   UNK d   1      10.771   6.276   9.850  0.00  0.00    -0.105 N 
ATOM      8  H   UNK d   1      11.021   6.885   9.042  0.00  0.00     0.208 HD
BRANCH   7   9
ATOM      9  N   UNK d   1      10.869   4.906   9.701  0.00  0.00    -0.172 NA
ATOM     10  C   UNK d   1      11.774   4.133  10.127  0.00  0.00     0.152 C 
BRANCH  10  11
ATOM     11  C   UNK d   1      11.735   2.705   9.884  0.00  0.00     0.003 A 
ATOM     12  C   UNK d   1      12.865   1.922   9.959  0.00  0.00     0.025 A 
ATOM     13 Br   UNK d   1      14.523   2.727  10.400  0.00  0.00    -0.050 Br
ATOM     14  C   UNK d   1      12.796   0.563   9.717  0.00  0.00     0.059 A 
ATOM     15  C   UNK d   1      11.598  -0.074   9.388  0.00  0.00     0.106 A 
ATOM     16  C   UNK d   1      10.450   0.710   9.309  0.00  0.00     0.105 A 
ATOM     17  O   UNK d   1      11.238  -1.380   9.098  0.00  0.00    -0.323 OA
ATOM     18  C   UNK d   1      10.543   2.064   9.555  0.00  0.00     0.054 A 
ATOM     19  O   UNK d   1       9.420  -0.140   8.973  0.00  0.00    -0.323 OA
ATOM     20  C   UNK d   1       9.908  -1.428   8.654  0.00  0.00     0.352 C 
ENDBRANCH  10  11
ENDBRANCH   7   9
ENDBRANCH   1   7
BRANCH   3  21
ATOM     21  N   UNK d   1       7.335   8.676  12.003  0.00  0.00    -0.209 N 
ATOM     22  C   UNK d   1       6.149   7.896  11.739  0.00  0.00     0.167 C 
ATOM     23  C   UNK d   1       4.896   8.685  12.057  0.00  0.00     0.188 C 
ATOM     24  O   UNK d   1       4.991   9.551  13.097  0.00  0.00    -0.388 OA
ATOM     25  C   UNK d   1       6.144  10.248  13.280  0.00  0.00     0.188 C 
ATOM     26  C   UNK d   1       7.171  10.098  12.161  0.00  0.00     0.167 C 
ENDBRANCH   3  21
BRANCH   5  27
ATOM     27  O   UNK d   1      11.261   7.451  14.491  0.00  0.00    -0.323 OA
ATOM     28  C   UNK d   1      12.383   8.279  14.644  0.00  0.00     0.213 C 
ENDBRANCH   5  27
TORSDOF 5
ENDMDL
