/Users/jonathanwahrer/Desktop/Msc/3_Semester/Drug_Design_Praktikum/waehrer_HTS_screening/HTS_experiment/out/docking_results/vina_output/2jam/0467_docked.pdbqt
 OpenBabel03162217413D

 28 31  0  0  1  0  0  0  0  0999 V2000
   10.3440    6.8840   11.0510 C   0  0  1  0  0  3  0  0  0  0  0  0
    9.1380    7.4760   11.0260 N   0  0  0  0  0  0  0  0  0  0  0  0
    8.5900    8.0740   12.1180 C   0  0  0  0  0  0  0  0  0  0  0  0
    9.3240    8.0390   13.2290 N   0  0  0  0  0  0  0  0  0  0  0  0
   10.5230    7.4700   13.3200 C   0  0  0  0  0  0  0  0  0  0  0  0
   11.0290    6.8840   12.1940 N   0  0  0  0  0  0  0  0  0  0  0  0
   10.7710    6.2760    9.8500 N   0  0  0  0  0  0  0  0  0  0  0  0
   11.0210    6.8850    9.0420 H   0  0  0  0  0  0  0  0  0  0  0  0
   10.8690    4.9060    9.7010 N   0  0  0  0  0  0  0  0  0  0  0  0
   11.7740    4.1330   10.1270 C   0  0  0  0  0  3  0  0  0  0  0  0
   11.7350    2.7050    9.8840 C   0  0  0  0  0  0  0  0  0  0  0  0
   12.8650    1.9220    9.9590 C   0  0  0  0  0  0  0  0  0  0  0  0
   14.5230    2.7270   10.4000 Br  0  0  0  0  0  0  0  0  0  0  0  0
   12.7960    0.5630    9.7170 C   0  0  0  0  0  3  0  0  0  0  0  0
   11.5980   -0.0740    9.3880 C   0  0  0  0  0  0  0  0  0  0  0  0
   10.4500    0.7100    9.3090 C   0  0  0  0  0  0  0  0  0  0  0  0
   11.2380   -1.3800    9.0980 O   0  0  0  0  0  0  0  0  0  0  0  0
   10.5430    2.0640    9.5550 C   0  0  0  0  0  3  0  0  0  0  0  0
    9.4200   -0.1400    8.9730 O   0  0  0  0  0  0  0  0  0  0  0  0
    9.9080   -1.4280    8.6540 C   0  0  0  0  0  2  0  0  0  0  0  0
    7.3350    8.6760   12.0030 N   0  0  0  0  0  0  0  0  0  0  0  0
    6.1490    7.8960   11.7390 C   0  0  0  0  0  2  0  0  0  0  0  0
    4.8960    8.6850   12.0570 C   0  0  0  0  0  2  0  0  0  0  0  0
    4.9910    9.5510   13.0970 O   0  0  0  0  0  0  0  0  0  0  0  0
    6.1440   10.2480   13.2800 C   0  0  0  0  0  2  0  0  0  0  0  0
    7.1710   10.0980   12.1610 C   0  0  0  0  0  2  0  0  0  0  0  0
   11.2610    7.4510   14.4910 O   0  0  0  0  0  0  0  0  0  0  0  0
   12.3830    8.2790   14.6440 C   0  0  0  0  0  1  0  0  0  0  0  0
  1  7  1  1  0  0  0
  1  6  1  0  0  0  0
  2  1  1  0  0  0  0
  2  3  2  0  0  0  0
  3  4  1  0  0  0  0
  4  5  2  0  0  0  0
  5 27  1  0  0  0  0
  6  5  2  0  0  0  0
  8  7  1  0  0  0  0
  9  7  1  0  0  0  0
  9 10  2  0  0  0  0
 11 12  1  0  0  0  0
 11 10  1  0  0  0  0
 12 13  1  0  0  0  0
 14 12  2  0  0  0  0
 15 14  1  0  0  0  0
 16 15  2  0  0  0  0
 16 18  1  0  0  0  0
 17 15  1  0  0  0  0
 18 11  2  0  0  0  0
 19 16  1  0  0  0  0
 20 19  1  0  0  0  0
 20 17  1  0  0  0  0
 21  3  1  0  0  0  0
 21 26  1  0  0  0  0
 22 21  1  0  0  0  0
 22 23  1  0  0  0  0
 23 24  1  0  0  0  0
 24 25  1  0  0  0  0
 26 25  1  0  0  0  0
 27 28  1  0  0  0  0
M  END
>  <Pose>
1

>  <Score>
-8.883

$$$$
