MODEL 1
REMARK VINA RESULT:    -9.998      0.000      0.000
REMARK INTER + INTRA:         -12.944
REMARK INTER:                 -12.335
REMARK INTRA:                  -0.609
REMARK UNBOUND:                -0.609
REMARK  4 active torsions:
REMARK  status: ('A' for Active; 'I' for Inactive)
REMARK    1  A    between atoms: C_7  and  N_8 
REMARK       I    between atoms: N_8  and  C_9 
REMARK    2  A    between atoms: C_9  and  C_11 
REMARK    3  A    between atoms: C_11  and  N_12 
REMARK    4  A    between atoms: N_15  and  C_18 
ROOT
ATOM      1  N   UNK d   1      10.442   6.731  11.614  0.00  0.00    -0.401 N 
ATOM      2  C   UNK d   1      10.426   8.064  11.989  0.00  0.00     0.137 C 
ATOM      3  C   UNK d   1       9.360   8.586  12.874  0.00  0.00     0.144 C 
ATOM      4  N   UNK d   1       8.251   7.676  12.855  0.00  0.00    -0.362 N 
ATOM      5  C   UNK d   1       8.599   6.319  13.195  0.00  0.00     0.144 C 
ATOM      6  C   UNK d   1       9.482   5.811  12.085  0.00  0.00     0.137 C 
ENDROOT
BRANCH   1   7
ATOM      7  C   UNK d   1      11.744   6.158  11.361  0.00  0.00     0.220 C 
BRANCH   7   8
ATOM      8  C   UNK d   1      11.648   4.928  10.485  0.00  0.00     0.239 C 
ATOM      9  N   UNK d   1      11.735   3.671  11.118  0.00  0.00    -0.324 N 
ATOM     10  H   UNK d   1      11.862   3.665  12.178  0.00  0.00     0.169 HD
ATOM     11  O   UNK d   1      11.500   5.119   9.267  0.00  0.00    -0.271 OA
BRANCH   9  12
ATOM     12  C   UNK d   1      11.668   2.418  10.463  0.00  0.00     0.055 A 
ATOM     13  C   UNK d   1      12.875   1.782  10.137  0.00  0.00     0.040 A 
ATOM     14 Br   UNK d   1      14.505   2.639  10.595  0.00  0.00    -0.049 Br
ATOM     15  C   UNK d   1      12.852   0.564   9.499  0.00  0.00     0.061 A 
ATOM     16  C   UNK d   1      11.690  -0.059   9.166  0.00  0.00     0.103 A 
ATOM     17  C   UNK d   1      10.488   0.541   9.474  0.00  0.00     0.104 A 
ATOM     18  O   UNK d   1      11.621  -1.286   8.522  0.00  0.00    -0.346 OA
ATOM     19  C   UNK d   1      10.487   1.781  10.123  0.00  0.00     0.070 A 
ATOM     20  O   UNK d   1       9.329  -0.106   9.129  0.00  0.00    -0.346 OA
ATOM     21  C   UNK d   1       9.230  -1.054   8.095  0.00  0.00     0.202 C 
ATOM     22  C   UNK d   1      10.558  -1.517   7.587  0.00  0.00     0.202 C 
ENDBRANCH   9  12
ENDBRANCH   7   8
ENDBRANCH   1   7
BRANCH   4  23
ATOM     23  C   UNK d   1       6.917   7.987  12.544  0.00  0.00     0.142 A 
ATOM     24  N   UNK d   1       6.398   7.920  11.292  0.00  0.00    -0.224 NA
ATOM     25  C   UNK d   1       5.115   8.223  11.025  0.00  0.00     0.237 A 
ATOM     26  N   UNK d   1       4.276   8.611  12.001  0.00  0.00    -0.222 NA
ATOM     27  C   UNK d   1       4.704   8.705  13.276  0.00  0.00     0.162 A 
ATOM     28  N   UNK d   1       4.096   9.060  14.437  0.00  0.00    -0.256 N 
ATOM     29  C   UNK d   1       6.016   8.393  13.533  0.00  0.00     0.076 A 
ATOM     30  N   UNK d   1       5.017   8.966  15.379  0.00  0.00    -0.182 NA
ATOM     31  C   UNK d   1       2.696   9.463  14.581  0.00  0.00     0.182 C 
ATOM     32  C   UNK d   1       6.193   8.568  14.887  0.00  0.00     0.158 A 
ENDBRANCH   4  23
TORSDOF 4
ENDMDL
