MODEL 1
REMARK VINA RESULT:    -8.786      0.000      0.000
REMARK INTER + INTRA:         -11.081
REMARK INTER:                 -10.326
REMARK INTRA:                  -0.754
REMARK UNBOUND:                -0.754
REMARK  3 active torsions:
REMARK  status: ('A' for Active; 'I' for Inactive)
REMARK    1  A    between atoms: C_11  and  C_13 
REMARK       I    between atoms: C_13  and  N_15 
REMARK    2  A    between atoms: N_18  and  C_21 
REMARK    3  A    between atoms: C_21  and  C_22 
ROOT
ATOM      1  C   UNK d   1      11.192   3.117  11.939  0.00  0.00     0.277 C 
ATOM      2  O   UNK d   1      11.309   2.679  13.120  0.00  0.00    -0.265 OA
ATOM      3  N   UNK d   1      10.829   4.463  11.735  0.00  0.00    -0.343 N 
ATOM      4  C   UNK d   1      10.601   5.305  12.882  0.00  0.00     0.145 C 
ATOM      5  C   UNK d   1      11.440   6.565  12.862  0.00  0.00     0.137 C 
ATOM      6  N   UNK d   1      11.660   6.938  11.515  0.00  0.00    -0.404 N 
ATOM      7  C   UNK d   1      10.583   6.604  10.669  0.00  0.00     0.137 C 
ATOM      8  C   UNK d   1      10.663   5.083  10.442  0.00  0.00     0.145 C 
ENDROOT
BRANCH   1   9
ATOM      9  C   UNK d   1      11.443   2.185  10.833  0.00  0.00     0.147 A 
ATOM     10  C   UNK d   1      12.697   2.104  10.275  0.00  0.00     0.098 A 
ATOM     11  C   UNK d   1      12.979   1.244   9.235  0.00  0.00     0.187 A 
ATOM     12  C   UNK d   1      11.970   0.438   8.740  0.00  0.00     0.048 A 
ATOM     13  O   UNK d   1      14.146   1.176   8.724  0.00  0.00    -0.287 OA
ATOM     14  C   UNK d   1      10.732   0.566   9.341  0.00  0.00     0.091 A 
ATOM     15  C   UNK d   1      12.222  -0.428   7.705  0.00  0.00     0.020 A 
ATOM     16  C   UNK d   1       9.723  -0.243   8.841  0.00  0.00     0.057 A 
ATOM     17  O   UNK d   1      10.522   1.402  10.328  0.00  0.00    -0.304 OA
ATOM     18  C   UNK d   1       9.949  -1.126   7.798  0.00  0.00     0.013 A 
ATOM     19 Br   UNK d   1       8.535  -2.222   7.138  0.00  0.00    -0.051 Br
ATOM     20  C   UNK d   1      11.205  -1.218   7.228  0.00  0.00     0.020 A 
ENDBRANCH   1   9
BRANCH   6  21
ATOM     21  C   UNK d   1      12.965   6.786  11.009  0.00  0.00     0.181 C 
BRANCH  21  22
ATOM     22  C   UNK d   1      14.042   6.910  11.986  0.00  0.00     0.108 A 
ATOM     23  N   UNK d   1      14.468   8.060  12.535  0.00  0.00    -0.106 NA
ATOM     24  O   UNK d   1      15.424   7.766  13.342  0.00  0.00    -0.106 OA
ATOM     25  N   UNK d   1      15.656   6.477  13.360  0.00  0.00    -0.108 NA
ATOM     26  C   UNK d   1      14.792   5.889  12.503  0.00  0.00     0.088 A 
ATOM     27  C   UNK d   1      14.686   4.432  12.194  0.00  0.00     0.075 C 
ENDBRANCH  21  22
ENDBRANCH   6  21
TORSDOF 3
ENDMDL
