MODEL 1
REMARK VINA RESULT:    -8.832      0.000      0.000
REMARK INTER + INTRA:         -12.366
REMARK INTER:                 -11.414
REMARK INTRA:                  -0.952
REMARK UNBOUND:                -0.952
REMARK  5 active torsions:
REMARK  status: ('A' for Active; 'I' for Inactive)
REMARK    1  A    between atoms: N_10  and  C_13 
REMARK    2  A    between atoms: C_13  and  C_14 
REMARK    3  A    between atoms: C_14  and  C_15 
REMARK    4  A    between atoms: C_15  and  C_16 
REMARK       I    between atoms: C_16  and  N_18 
REMARK    5  A    between atoms: N_21  and  C_24 
ROOT
ATOM      1  C   UNK d   1      11.457   7.151  12.865  0.00  0.00     0.104 C 
ENDROOT
BRANCH   1   2
ATOM      2  C   UNK d   1      12.709   6.438  12.440  0.00  0.00     0.029 C 
BRANCH   2   3
ATOM      3  C   UNK d   1      12.688   6.214  10.973  0.00  0.00     0.136 C 
BRANCH   3   4
ATOM      4  N   UNK d   1      12.445   4.838  10.600  0.00  0.00    -0.280 N 
ATOM      5  C   UNK d   1      13.391   3.800  10.808  0.00  0.00     0.261 A 
ATOM      6  C   UNK d   1      12.819   2.559  10.316  0.00  0.00     0.048 A 
ATOM      7  O   UNK d   1      14.549   3.888  11.329  0.00  0.00    -0.267 OA
ATOM      8  C   UNK d   1      11.562   2.856   9.828  0.00  0.00     0.049 A 
ATOM      9  C   UNK d   1      13.301   1.266  10.274  0.00  0.00     0.019 A 
ATOM     10  C   UNK d   1      10.816   1.818   9.300  0.00  0.00     0.037 A 
ATOM     11  C   UNK d   1      11.299   4.294   9.994  0.00  0.00     0.261 A 
ATOM     12  C   UNK d   1      11.308   0.529   9.262  0.00  0.00     0.011 A 
ATOM     13 Br   UNK d   1      10.223  -0.853   8.520  0.00  0.00    -0.051 Br
ATOM     14  C   UNK d   1      12.562   0.225   9.749  0.00  0.00     0.020 A 
ATOM     15  O   UNK d   1      10.242   4.891   9.651  0.00  0.00    -0.267 OA
ENDBRANCH   3   4
ENDBRANCH   2   3
ENDBRANCH   1   2
BRANCH   1  16
ATOM     16  C   UNK d   1      10.226   6.332  12.774  0.00  0.00     0.219 C 
ATOM     17  O   UNK d   1      10.112   5.188  13.286  0.00  0.00    -0.273 OA
ATOM     18  N   UNK d   1       9.069   6.828  12.073  0.00  0.00    -0.349 N 
ATOM     19  C   UNK d   1       7.863   6.037  11.980  0.00  0.00     0.145 C 
ATOM     20  C   UNK d   1       9.054   8.129  11.432  0.00  0.00     0.145 C 
ATOM     21  C   UNK d   1       6.616   6.820  12.225  0.00  0.00     0.144 C 
ATOM     22  N   UNK d   1       6.837   8.221  12.497  0.00  0.00    -0.362 N 
ATOM     23  C   UNK d   1       7.946   8.986  11.993  0.00  0.00     0.144 C 
BRANCH  22  24
ATOM     24  C   UNK d   1       5.885   8.895  13.325  0.00  0.00     0.143 A 
ATOM     25  N   UNK d   1       5.012   8.209  14.112  0.00  0.00    -0.241 NA
ATOM     26  C   UNK d   1       4.111   8.798  14.897  0.00  0.00     0.138 A 
ATOM     27  C   UNK d   1       4.050  10.184  14.921  0.00  0.00     0.135 A 
ATOM     28  N   UNK d   1       4.905  10.898  14.150  0.00  0.00    -0.268 NA
ATOM     29  C   UNK d   1       5.799  10.268  13.371  0.00  0.00     0.166 A 
ENDBRANCH  22  24
ENDBRANCH   1  16
TORSDOF 5
ENDMDL
