MODEL 1
REMARK VINA RESULT:    -9.529      0.000      0.000
REMARK INTER + INTRA:         -13.045
REMARK INTER:                 -12.315
REMARK INTRA:                  -0.730
REMARK UNBOUND:                -0.730
REMARK  5 active torsions:
REMARK  status: ('A' for Active; 'I' for Inactive)
REMARK    1  A    between atoms: N_8  and  C_28 
REMARK    2  A    between atoms: N_12  and  N_13 
REMARK       I    between atoms: N_13  and  C_14 
REMARK    3  A    between atoms: C_14  and  C_16 
REMARK    4  A    between atoms: C_16  and  N_17 
REMARK    5  A    between atoms: C_20  and  C_22 
ROOT
ATOM      1  C   UNK d   1      12.367  -0.511   8.611  0.00  0.00     0.225 C 
ATOM      2  C   UNK d   1      11.566  -1.537   9.260  0.00  0.00    -0.097 C 
ATOM      3  C   UNK d   1      10.901  -2.393   9.782  0.00  0.00     0.014 C 
ENDROOT
BRANCH   1   4
ATOM      4  N   UNK d   1      12.198   0.763   9.280  0.00  0.00    -0.300 N 
ATOM      5  C   UNK d   1      13.174   1.618   9.865  0.00  0.00     0.051 A 
ATOM      6  C   UNK d   1      12.565   2.757  10.406  0.00  0.00     0.028 A 
ATOM      7  C   UNK d   1      14.551   1.494   9.970  0.00  0.00     0.032 A 
ATOM      8  C   UNK d   1      13.350   3.710  11.020  0.00  0.00     0.035 A 
ATOM      9  C   UNK d   1      11.130   2.670  10.178  0.00  0.00     0.157 A 
ATOM     10  C   UNK d   1      14.740   3.573  11.120  0.00  0.00     0.011 A 
ATOM     11 Br   UNK d   1      15.816   4.891  11.968  0.00  0.00    -0.051 Br
ATOM     12  C   UNK d   1      15.317   2.455  10.587  0.00  0.00     0.021 A 
ATOM     13  C   UNK d   1      10.938   1.390   9.462  0.00  0.00     0.280 A 
ATOM     14  N   UNK d   1      10.217   3.513  10.520  0.00  0.00    -0.166 NA
ATOM     15  O   UNK d   1       9.787   1.010   9.111  0.00  0.00    -0.265 OA
BRANCH  14  16
ATOM     16  N   UNK d   1      10.513   4.697  11.199  0.00  0.00    -0.245 N 
ATOM     17  C   UNK d   1      10.531   5.960  10.556  0.00  0.00     0.258 C 
ATOM     18  O   UNK d   1      10.273   6.025   9.333  0.00  0.00    -0.270 OA
ATOM     19  H   UNK d   1      10.736   4.640  12.213  0.00  0.00     0.192 HD
BRANCH  17  20
ATOM     20  C   UNK d   1      10.846   7.164  11.312  0.00  0.00     0.274 C 
BRANCH  20  21
ATOM     21  N   UNK d   1       9.768   7.586  12.185  0.00  0.00    -0.182 N 
ATOM     22  N   UNK d   1       9.852   7.893  13.468  0.00  0.00     0.025 NA
ATOM     23  N   UNK d   1       8.664   8.234  13.939  0.00  0.00    -0.136 NA
ATOM     24  C   UNK d   1       7.778   8.147  12.932  0.00  0.00     0.198 A 
ATOM     25  N   UNK d   1       8.490   7.747  11.871  0.00  0.00    -0.136 NA
BRANCH  24  26
ATOM     26  C   UNK d   1       6.352   8.439  13.031  0.00  0.00     0.015 A 
ATOM     27  C   UNK d   1       5.553   8.369  11.910  0.00  0.00     0.015 A 
ATOM     28  C   UNK d   1       4.187   8.648  12.000  0.00  0.00     0.001 A 
ATOM     29  C   UNK d   1       3.599   8.996  13.195  0.00  0.00     0.000 A 
ATOM     30  C   UNK d   1       4.399   9.067  14.322  0.00  0.00     0.001 A 
ATOM     31  C   UNK d   1       5.756   8.788  14.223  0.00  0.00     0.015 A 
ENDBRANCH  24  26
ENDBRANCH  20  21
ENDBRANCH  17  20
ENDBRANCH  14  16
ENDBRANCH   1   4
TORSDOF 5
ENDMDL
