/Users/jonathanwahrer/Desktop/Msc/3_Semester/Drug_Design_Praktikum/waehrer_HTS_screening/HTS_experiment/out/docking_results/vina_output/2jam/0483_docked.pdbqt
 OpenBabel03162217423D

 31 34  0  0  0  0  0  0  0  0999 V2000
   12.3670   -0.5110    8.6110 C   0  0  0  0  0  2  0  0  0  0  0  0
   11.5660   -1.5370    9.2600 C   0  0  0  0  0  0  0  0  0  0  0  0
   10.9010   -2.3930    9.7820 C   0  0  0  0  0  3  0  0  0  0  0  0
   12.1980    0.7630    9.2800 N   0  0  0  0  0  0  0  0  0  0  0  0
   13.1740    1.6180    9.8650 C   0  0  0  0  0  0  0  0  0  0  0  0
   12.5650    2.7570   10.4060 C   0  0  0  0  0  0  0  0  0  0  0  0
   14.5510    1.4940    9.9700 C   0  0  0  0  0  3  0  0  0  0  0  0
   13.3500    3.7100   11.0200 C   0  0  0  0  0  3  0  0  0  0  0  0
   11.1300    2.6700   10.1780 C   0  0  0  0  0  0  0  0  0  0  0  0
   14.7400    3.5730   11.1200 C   0  0  0  0  0  0  0  0  0  0  0  0
   15.8160    4.8910   11.9680 Br  0  0  0  0  0  0  0  0  0  0  0  0
   15.3170    2.4550   10.5870 C   0  0  0  0  0  3  0  0  0  0  0  0
   10.9380    1.3900    9.4620 C   0  0  0  0  0  0  0  0  0  0  0  0
   10.2170    3.5130   10.5200 N   0  0  0  0  0  0  0  0  0  0  0  0
    9.7870    1.0100    9.1110 O   0  0  0  0  0  0  0  0  0  0  0  0
   10.5130    4.6970   11.1990 N   0  0  0  0  0  0  0  0  0  0  0  0
   10.5310    5.9600   10.5560 C   0  0  0  0  0  0  0  0  0  0  0  0
   10.2730    6.0250    9.3330 O   0  0  0  0  0  0  0  0  0  0  0  0
   10.7360    4.6400   12.2130 H   0  0  0  0  0  0  0  0  0  0  0  0
   10.8460    7.1640   11.3120 C   0  0  0  0  0  2  0  0  0  0  0  0
    9.7680    7.5860   12.1850 N   0  0  0  0  0  0  0  0  0  0  0  0
    9.8520    7.8930   13.4680 N   0  0  0  0  0  2  0  0  0  0  0  0
    8.6640    8.2340   13.9390 N   0  0  0  0  0  0  0  0  0  0  0  0
    7.7780    8.1470   12.9320 C   0  0  0  0  0  0  0  0  0  0  0  0
    8.4900    7.7470   11.8710 N   0  0  0  0  0  2  0  0  0  0  0  0
    6.3520    8.4390   13.0310 C   0  0  0  0  0  0  0  0  0  0  0  0
    5.5530    8.3690   11.9100 C   0  0  0  0  0  3  0  0  0  0  0  0
    4.1870    8.6480   12.0000 C   0  0  0  0  0  3  0  0  0  0  0  0
    3.5990    8.9960   13.1950 C   0  0  0  0  0  3  0  0  0  0  0  0
    4.3990    9.0670   14.3220 C   0  0  0  0  0  3  0  0  0  0  0  0
    5.7560    8.7880   14.2230 C   0  0  0  0  0  3  0  0  0  0  0  0
  1  2  1  0  0  0  0
  1  4  1  0  0  0  0
  2  3  3  0  0  0  0
  4 13  1  0  0  0  0
  4  5  1  0  0  0  0
  5  7  2  0  0  0  0
  5  6  1  0  0  0  0
  6  8  2  0  0  0  0
  7 12  1  0  0  0  0
  8 10  1  0  0  0  0
  9  6  1  0  0  0  0
  9 14  2  0  0  0  0
 10 11  1  0  0  0  0
 12 10  2  0  0  0  0
 13  9  1  0  0  0  0
 14 16  1  0  0  0  0
 15 13  2  0  0  0  0
 16 19  1  0  0  0  0
 17 16  1  0  0  0  0
 17 20  1  0  0  0  0
 18 17  2  0  0  0  0
 20 21  1  0  0  0  0
 21 22  1  0  0  0  0
 22 23  1  0  0  0  0
 24 26  1  0  0  0  0
 24 23  2  0  0  0  0
 25 21  1  0  0  0  0
 25 24  1  0  0  0  0
 26 31  1  0  0  0  0
 27 28  1  0  0  0  0
 27 26  2  0  0  0  0
 28 29  2  0  0  0  0
 29 30  1  0  0  0  0
 31 30  2  0  0  0  0
M  END
>  <Pose>
1

>  <Score>
-9.529

$$$$
