MODEL 1
REMARK VINA RESULT:    -8.620      0.000      0.000
REMARK INTER + INTRA:         -13.284
REMARK INTER:                 -12.652
REMARK INTRA:                  -0.632
REMARK UNBOUND:                -0.632
REMARK  8 active torsions:
REMARK  status: ('A' for Active; 'I' for Inactive)
REMARK    1  A    between atoms: N_8  and  C_28 
REMARK    2  A    between atoms: C_11  and  N_12 
REMARK       I    between atoms: N_13  and  C_14 
REMARK    3  A    between atoms: C_14  and  C_16 
REMARK    4  A    between atoms: C_16  and  O_17 
REMARK    5  A    between atoms: O_17  and  N_18 
REMARK    6  A    between atoms: C_19  and  C_20 
REMARK    7  A    between atoms: C_23  and  O_26 
REMARK    8  A    between atoms: C_28  and  N_29 
ROOT
ATOM      1 Br   UNK d   1      12.625   0.392   8.296  0.00  0.00    -0.051 Br
ATOM      2  C   UNK d   1      13.631   1.590   9.391  0.00  0.00     0.011 A 
ATOM      3  C   UNK d   1      13.015   2.638  10.091  0.00  0.00     0.035 A 
ATOM      4  C   UNK d   1      13.832   3.426  10.850  0.00  0.00     0.028 A 
ATOM      5  C   UNK d   1      15.196   3.251  10.957  0.00  0.00     0.052 A 
ATOM      6  C   UNK d   1      15.798   2.225  10.265  0.00  0.00     0.032 A 
ATOM      7  C   UNK d   1      14.991   1.389   9.479  0.00  0.00     0.021 A 
ATOM      8  N   UNK d   1      15.790   4.217  11.815  0.00  0.00    -0.295 N 
ATOM      9  C   UNK d   1      14.706   5.069  12.270  0.00  0.00     0.281 A 
ATOM     10  O   UNK d   1      14.830   6.030  13.057  0.00  0.00    -0.265 OA
ATOM     11  C   UNK d   1      13.502   4.566  11.647  0.00  0.00     0.157 A 
ENDROOT
BRANCH  11  12
ATOM     12  N   UNK d   1      12.338   5.091  11.629  0.00  0.00    -0.166 NA
ATOM     13  N   UNK d   1      11.341   5.249  11.044  0.00  0.00    -0.244 N 
ATOM     14  C   UNK d   1      10.143   5.443  10.319  0.00  0.00     0.264 C 
ATOM     15  H   UNK d   1      12.002   5.507   9.851  0.00  0.00     0.192 HD
ATOM     16  O   UNK d   1       9.917   5.623   9.143  0.00  0.00    -0.269 OA
BRANCH  14  17
ATOM     17  C   UNK d   1       8.947   5.420  11.298  0.00  0.00     0.308 C 
BRANCH  17  18
ATOM     18  O   UNK d   1       8.479   6.786  11.305  0.00  0.00    -0.247 OA
BRANCH  18  19
ATOM     19  N   UNK d   1       7.414   7.038  12.216  0.00  0.00    -0.145 NA
ATOM     20  C   UNK d   1       6.602   8.006  12.040  0.00  0.00     0.157 C 
BRANCH  20  21
ATOM     21  C   UNK d   1       5.539   8.250  12.987  0.00  0.00    -0.016 A 
ATOM     22  C   UNK d   1       4.463   9.045  12.774  0.00  0.00     0.015 A 
ATOM     23  C   UNK d   1       3.572   9.209  13.866  0.00  0.00     0.037 A 
ATOM     24  C   UNK d   1       3.673   8.656  15.073  0.00  0.00     0.068 A 
ATOM     25  C   UNK d   1       4.762   7.868  15.234  0.00  0.00     0.037 A 
ATOM     26  C   UNK d   1       5.718   7.601  14.330  0.00  0.00     0.015 A 
BRANCH  24  27
ATOM     27  O   UNK d   1       2.711   8.901  16.059  0.00  0.00    -0.356 OA
ATOM     28  C   UNK d   1       3.097   9.108  17.413  0.00  0.00     0.210 C 
ENDBRANCH  24  27
ENDBRANCH  20  21
ENDBRANCH  18  19
ENDBRANCH  17  18
ENDBRANCH  14  17
ENDBRANCH  11  12
BRANCH   8  29
ATOM     29  C   UNK d   1      17.155   4.402  12.279  0.00  0.00     0.253 C 
BRANCH  29  30
ATOM     30  N   UNK d   1      18.025   4.663  11.241  0.00  0.00    -0.392 N 
ATOM     31  C   UNK d   1      17.739   5.874  10.584  0.00  0.00     0.145 C 
ATOM     32  C   UNK d   1      19.039   6.646  10.344  0.00  0.00     0.187 C 
ATOM     33  O   UNK d   1      19.639   6.678  11.632  0.00  0.00    -0.388 OA
ATOM     34  C   UNK d   1      20.198   5.423  11.907  0.00  0.00     0.187 C 
ATOM     35  C   UNK d   1      19.368   4.278  11.414  0.00  0.00     0.145 C 
ENDBRANCH  29  30
ENDBRANCH   8  29
TORSDOF 8
ENDMDL
