/Users/jonathanwahrer/Desktop/Msc/3_Semester/Drug_Design_Praktikum/waehrer_HTS_screening/HTS_experiment/out/docking_results/vina_output/2jam/0484_docked.pdbqt
 OpenBabel03162217423D

 35 38  0  0  1  0  0  0  0  0999 V2000
   12.6250    0.3920    8.2960 Br  0  0  0  0  0  0  0  0  0  0  0  0
   13.6310    1.5900    9.3910 C   0  0  0  0  0  0  0  0  0  0  0  0
   13.0150    2.6380   10.0910 C   0  0  0  0  0  3  0  0  0  0  0  0
   13.8320    3.4260   10.8500 C   0  0  0  0  0  0  0  0  0  0  0  0
   15.1960    3.2510   10.9570 C   0  0  0  0  0  0  0  0  0  0  0  0
   15.7980    2.2250   10.2650 C   0  0  0  0  0  3  0  0  0  0  0  0
   14.9910    1.3890    9.4790 C   0  0  0  0  0  3  0  0  0  0  0  0
   15.7900    4.2170   11.8150 N   0  0  0  0  0  0  0  0  0  0  0  0
   14.7060    5.0690   12.2700 C   0  0  0  0  0  0  0  0  0  0  0  0
   14.8300    6.0300   13.0570 O   0  0  0  0  0  0  0  0  0  0  0  0
   13.5020    4.5660   11.6470 C   0  0  1  0  0  3  0  0  0  0  0  0
   12.3380    5.0910   11.6290 N   0  0  0  0  0  2  0  0  0  0  0  0
   11.3410    5.2490   11.0440 N   0  0  0  0  0  0  0  0  0  0  0  0
   10.1430    5.4430   10.3190 C   0  0  0  0  0  0  0  0  0  0  0  0
   12.0020    5.5070    9.8510 H   0  0  0  0  0  0  0  0  0  0  0  0
    9.9170    5.6230    9.1430 O   0  0  0  0  0  0  0  0  0  0  0  0
    8.9470    5.4200   11.2980 C   0  0  0  0  0  2  0  0  0  0  0  0
    8.4790    6.7860   11.3050 O   0  0  0  0  0  0  0  0  0  0  0  0
    7.4140    7.0380   12.2160 N   0  0  0  0  0  0  0  0  0  0  0  0
    6.6020    8.0060   12.0400 C   0  0  0  0  0  3  0  0  0  0  0  0
    5.5390    8.2500   12.9870 C   0  0  0  0  0  0  0  0  0  0  0  0
    4.4630    9.0450   12.7740 C   0  0  0  0  0  3  0  0  0  0  0  0
    3.5720    9.2090   13.8660 C   0  0  0  0  0  3  0  0  0  0  0  0
    3.6730    8.6560   15.0730 C   0  0  0  0  0  0  0  0  0  0  0  0
    4.7620    7.8680   15.2340 C   0  0  0  0  0  3  0  0  0  0  0  0
    5.7180    7.6010   14.3300 C   0  0  0  0  0  3  0  0  0  0  0  0
    2.7110    8.9010   16.0590 O   0  0  0  0  0  0  0  0  0  0  0  0
    3.0970    9.1080   17.4130 C   0  0  0  0  0  1  0  0  0  0  0  0
   17.1550    4.4020   12.2790 C   0  0  0  0  0  2  0  0  0  0  0  0
   18.0250    4.6630   11.2410 N   0  0  0  0  0  0  0  0  0  0  0  0
   17.7390    5.8740   10.5840 C   0  0  0  0  0  2  0  0  0  0  0  0
   19.0390    6.6460   10.3440 C   0  0  0  0  0  2  0  0  0  0  0  0
   19.6390    6.6780   11.6320 O   0  0  0  0  0  0  0  0  0  0  0  0
   20.1980    5.4230   11.9070 C   0  0  0  0  0  2  0  0  0  0  0  0
   19.3680    4.2780   11.4140 C   0  0  0  0  0  2  0  0  0  0  0  0
  1  2  1  0  0  0  0
  2  7  2  0  0  0  0
  2  3  1  0  0  0  0
  3  4  2  0  0  0  0
  4  5  1  0  0  0  0
  4 11  1  0  0  0  0
  5  8  1  0  0  0  0
  6  5  2  0  0  0  0
  7  6  1  0  0  0  0
  8  9  1  0  0  0  0
  8 29  1  0  0  0  0
  9 10  2  0  0  0  0
 11 12  1  6  0  0  0
 11  9  1  0  0  0  0
 13 12  1  0  0  0  0
 14 13  1  0  0  0  0
 14 17  1  0  0  0  0
 15 13  1  0  0  0  0
 16 14  2  0  0  0  0
 17 18  1  0  0  0  0
 18 19  1  0  0  0  0
 20 19  2  0  0  0  0
 20 21  1  0  0  0  0
 21 26  1  0  0  0  0
 22 21  2  0  0  0  0
 22 23  1  0  0  0  0
 23 24  2  0  0  0  0
 24 25  1  0  0  0  0
 24 27  1  0  0  0  0
 26 25  2  0  0  0  0
 27 28  1  0  0  0  0
 30 35  1  0  0  0  0
 30 29  1  0  0  0  0
 31 30  1  0  0  0  0
 32 31  1  0  0  0  0
 32 33  1  0  0  0  0
 33 34  1  0  0  0  0
 35 34  1  0  0  0  0
M  END
>  <Pose>
1

>  <Score>
-8.620

$$$$
