MODEL 1
REMARK VINA RESULT:    -8.914      0.000      0.000
REMARK INTER + INTRA:         -13.598
REMARK INTER:                 -12.562
REMARK INTRA:                  -1.036
REMARK UNBOUND:                -1.036
REMARK  7 active torsions:
REMARK  status: ('A' for Active; 'I' for Inactive)
REMARK    1  A    between atoms: N_8  and  C_26 
REMARK    2  A    between atoms: N_12  and  N_13 
REMARK       I    between atoms: N_13  and  C_14 
REMARK    3  A    between atoms: C_14  and  C_16 
REMARK    4  A    between atoms: C_16  and  O_17 
REMARK    5  A    between atoms: O_17  and  C_18 
REMARK    6  A    between atoms: C_19  and  O_24 
REMARK    7  A    between atoms: C_26  and  N_27 
ROOT
ATOM      1 Br   UNK d   1      12.225  -0.395   7.585  0.00  0.00    -0.051 Br
ATOM      2  C   UNK d   1      13.327   0.761   8.654  0.00  0.00     0.011 A 
ATOM      3  C   UNK d   1      12.779   1.640   9.560  0.00  0.00     0.035 A 
ATOM      4  C   UNK d   1      13.533   2.497  10.354  0.00  0.00     0.028 A 
ATOM      5  C   UNK d   1      14.925   2.461  10.224  0.00  0.00     0.052 A 
ATOM      6  C   UNK d   1      15.475   1.579   9.316  0.00  0.00     0.032 A 
ATOM      7  C   UNK d   1      14.700   0.731   8.531  0.00  0.00     0.021 A 
ATOM      8  N   UNK d   1      15.525   3.407  11.120  0.00  0.00    -0.295 N 
ATOM      9  C   UNK d   1      14.460   4.039  11.818  0.00  0.00     0.281 A 
ATOM     10  O   UNK d   1      14.592   4.927  12.689  0.00  0.00    -0.265 OA
ATOM     11  C   UNK d   1      13.200   3.488  11.359  0.00  0.00     0.157 A 
ATOM     12  N   UNK d   1      12.019   3.808  11.756  0.00  0.00    -0.166 NA
ENDROOT
BRANCH  12  13
ATOM     13  N   UNK d   1      11.778   4.772  12.726  0.00  0.00    -0.244 N 
ATOM     14  C   UNK d   1      11.348   6.060  12.344  0.00  0.00     0.261 C 
ATOM     15  O   UNK d   1      11.172   6.370  11.115  0.00  0.00    -0.269 OA
ATOM     16  H   UNK d   1      11.914   4.539  13.720  0.00  0.00     0.192 HD
BRANCH  14  17
ATOM     17  C   UNK d   1      11.066   7.149  13.313  0.00  0.00     0.280 C 
BRANCH  17  18
ATOM     18  O   UNK d   1       9.669   7.206  13.594  0.00  0.00    -0.339 OA
BRANCH  18  19
ATOM     19  C   UNK d   1       8.924   8.293  13.171  0.00  0.00     0.102 A 
ATOM     20  C   UNK d   1       8.018   8.154  12.141  0.00  0.00     0.101 A 
ATOM     21  C   UNK d   1       7.273   9.251  11.721  0.00  0.00     0.039 A 
ATOM     22  C   UNK d   1       7.434  10.482  12.327  0.00  0.00     0.003 A 
ATOM     23  C   UNK d   1       8.334  10.605  13.344  0.00  0.00     0.003 A 
ATOM     24  C   UNK d   1       9.075   9.511  13.762  0.00  0.00     0.039 A 
BRANCH  20  25
ATOM     25  O   UNK d   1       7.834   6.945  11.518  0.00  0.00    -0.353 OA
ATOM     26  C   UNK d   1       6.808   6.077  11.929  0.00  0.00     0.210 C 
ENDBRANCH  20  25
ENDBRANCH  18  19
ENDBRANCH  17  18
ENDBRANCH  14  17
ENDBRANCH  12  13
BRANCH   8  27
ATOM     27  C   UNK d   1      16.954   3.634  11.253  0.00  0.00     0.253 C 
BRANCH  27  28
ATOM     28  N   UNK d   1      17.329   4.990  11.439  0.00  0.00    -0.393 N 
ATOM     29  C   UNK d   1      18.072   5.274  12.619  0.00  0.00     0.148 C 
ATOM     30  C   UNK d   1      18.360   6.771  12.768  0.00  0.00     0.291 C 
ATOM     31  N   UNK d   1      17.520   7.451  11.825  0.00  0.00     0.087 N 
ATOM     32  C   UNK d   1      17.864   7.174  10.465  0.00  0.00     0.291 C 
ATOM     33  C   UNK d   1      17.322   8.841  12.119  0.00  0.00     0.310 C 
ATOM     34  C   UNK d   1      17.787   5.672  10.263  0.00  0.00     0.148 C 
ENDBRANCH  27  28
ENDBRANCH   8  27
TORSDOF 7
ENDMDL
