MODEL 1
REMARK VINA RESULT:    -7.129      0.000      0.000
REMARK INTER + INTRA:          -7.337
REMARK INTER:                  -7.337
REMARK INTRA:                   0.000
REMARK UNBOUND:                 0.000
REMARK  1 active torsions:
REMARK  status: ('A' for Active; 'I' for Inactive)
REMARK    1  A    between atoms: C_15  and  N_19 
ROOT
ATOM      1 Br   UNK d   1       9.473   5.232  10.862  0.00  0.00    -0.051 Br
ATOM      2  C   UNK d   1       9.801   6.770  11.928  0.00  0.00     0.011 A 
ATOM      3  C   UNK d   1       8.933   7.206  12.900  0.00  0.00     0.030 A 
ATOM      4  C   UNK d   1       9.247   8.346  13.641  0.00  0.00    -0.002 A 
ATOM      5  C   UNK d   1      10.380   9.063  13.454  0.00  0.00     0.045 A 
ATOM      6  C   UNK d   1      11.262   8.618  12.466  0.00  0.00     0.031 A 
ATOM      7  C   UNK d   1      10.969   7.495  11.725  0.00  0.00     0.021 A 
ATOM      8  N   UNK d   1      10.462  10.171  14.330  0.00  0.00    -0.320 N 
ATOM      9  C   UNK d   1       9.304  10.164  15.131  0.00  0.00     0.247 A 
ATOM     10  O   UNK d   1       9.018  10.999  16.034  0.00  0.00    -0.271 OA
ATOM     11  C   UNK d   1       8.463   8.999  14.738  0.00  0.00     0.146 A 
ATOM     12  C   UNK d   1       7.154   9.460  14.210  0.00  0.00     0.071 A 
ATOM     13  C   UNK d   1       6.034   9.024  14.660  0.00  0.00     0.060 A 
ATOM     14  N   UNK d   1       5.944   8.040  15.728  0.00  0.00    -0.342 N 
ATOM     15  C   UNK d   1       7.183   7.593  16.239  0.00  0.00     0.118 A 
ATOM     16  C   UNK d   1       8.332   8.022  15.796  0.00  0.00     0.093 A 
ATOM     17  C   UNK d   1       9.528   7.470  16.422  0.00  0.00     0.101 C 
ATOM     18  N   UNK d   1      10.490   7.043  16.906  0.00  0.00    -0.191 NA
ATOM     19  C   UNK d   1       4.923   9.692  13.913  0.00  0.00     0.106 A 
ATOM     20  O   UNK d   1       5.542  10.533  13.012  0.00  0.00    -0.301 OA
ATOM     21  C   UNK d   1       6.897  10.458  13.121  0.00  0.00     0.294 A 
ATOM     22  O   UNK d   1       7.804  11.068  12.477  0.00  0.00    -0.259 OA
ATOM     23  C   UNK d   1       4.006  10.412  14.882  0.00  0.00     0.053 C 
ATOM     24  C   UNK d   1       4.117   8.673  13.128  0.00  0.00     0.053 C 
ATOM     25  C   UNK d   1      11.538  11.170  14.420  0.00  0.00     0.159 C 
ATOM     26  H   UNK d   1       5.015   7.723  16.052  0.00  0.00     0.167 HD
ENDROOT
BRANCH  15  27
ATOM     27  N   UNK d   1       7.155   6.608  17.308  0.00  0.00    -0.384 N 
ATOM     28  H   UNK d   1       7.913   5.895  17.310  0.00  0.00     0.157 HD
ATOM     29  H   UNK d   1       6.419   6.614  18.028  0.00  0.00     0.157 HD
ENDBRANCH  15  27
TORSDOF 1
ENDMDL
