MODEL 1
REMARK VINA RESULT:    -7.053      0.000      0.000
REMARK INTER + INTRA:          -7.972
REMARK INTER:                  -7.877
REMARK INTRA:                  -0.094
REMARK UNBOUND:                -0.094
REMARK  3 active torsions:
REMARK  status: ('A' for Active; 'I' for Inactive)
REMARK    1  A    between atoms: C_15  and  N_19 
REMARK    2  A    between atoms: C_23  and  C_25 
REMARK    3  A    between atoms: C_25  and  O_26 
ROOT
ATOM      1 Br   UNK d   1      12.441  12.666  14.007  0.00  0.00    -0.051 Br
ATOM      2  C   UNK d   1      11.771  11.017  14.679  0.00  0.00     0.011 A 
ATOM      3  C   UNK d   1      10.992  10.215  13.873  0.00  0.00     0.030 A 
ATOM      4  C   UNK d   1      10.487   8.998  14.343  0.00  0.00     0.000 A 
ATOM      5  C   UNK d   1      10.792   8.638  15.616  0.00  0.00     0.045 A 
ATOM      6  C   UNK d   1      11.589   9.461  16.440  0.00  0.00     0.031 A 
ATOM      7  C   UNK d   1      12.082  10.656  15.970  0.00  0.00     0.021 A 
ATOM      8  N   UNK d   1      10.189   7.382  15.897  0.00  0.00    -0.320 N 
ATOM      9  C   UNK d   1       9.481   6.932  14.768  0.00  0.00     0.249 A 
ATOM     10  O   UNK d   1       8.826   5.867  14.647  0.00  0.00    -0.271 OA
ATOM     11  C   UNK d   1       9.635   7.958  13.694  0.00  0.00     0.163 A 
ATOM     12  C   UNK d   1       8.333   8.508  13.303  0.00  0.00     0.119 A 
ATOM     13  C   UNK d   1       7.912   8.496  12.013  0.00  0.00     0.159 A 
ATOM     14  O   UNK d   1       8.722   7.949  11.013  0.00  0.00    -0.286 OA
ATOM     15  C   UNK d   1       9.957   7.417  11.329  0.00  0.00     0.161 A 
ATOM     16  C   UNK d   1      10.383   7.416  12.556  0.00  0.00     0.102 A 
ATOM     17  C   UNK d   1      11.709   6.830  12.800  0.00  0.00     0.101 C 
ATOM     18  N   UNK d   1      12.739   6.383  12.989  0.00  0.00    -0.191 NA
ATOM     19  C   UNK d   1       6.663   9.033  11.687  0.00  0.00     0.210 A 
ATOM     20  O   UNK d   1       6.288   9.015  10.496  0.00  0.00    -0.285 OA
ATOM     21  C   UNK d   1       5.878   9.567  12.681  0.00  0.00     0.092 A 
ATOM     22  C   UNK d   1       6.357   9.552  13.974  0.00  0.00     0.080 A 
ATOM     23  O   UNK d   1       7.517   9.044  14.215  0.00  0.00    -0.312 OA
ATOM     24  C   UNK d   1      10.320   6.699  17.198  0.00  0.00     0.159 C 
ENDROOT
BRANCH  15  25
ATOM     25  N   UNK d   1      10.734   6.873  10.249  0.00  0.00    -0.379 N 
ATOM     26  H   UNK d   1      11.701   7.173  10.144  0.00  0.00     0.158 HD
ATOM     27  H   UNK d   1      10.289   6.204   9.622  0.00  0.00     0.158 HD
ENDBRANCH  15  25
BRANCH  22  28
ATOM     28  C   UNK d   1       5.510  10.134  15.086  0.00  0.00     0.229 C 
BRANCH  28  29
ATOM     29  O   UNK d   1       4.714  11.155  14.565  0.00  0.00    -0.394 OA
ATOM     30  H   UNK d   1       4.622  11.881  15.253  0.00  0.00     0.209 HD
ENDBRANCH  28  29
ENDBRANCH  22  28
TORSDOF 3
ENDMDL
