MODEL 1
REMARK VINA RESULT:   -10.249      0.000      0.000
REMARK INTER + INTRA:         -13.105
REMARK INTER:                 -12.646
REMARK INTRA:                  -0.460
REMARK UNBOUND:                -0.460
REMARK  4 active torsions:
REMARK  status: ('A' for Active; 'I' for Inactive)
REMARK    1  A    between atoms: C_12  and  N_13 
REMARK    2  A    between atoms: N_13  and  N_14 
REMARK       I    between atoms: N_14  and  C_15 
REMARK    3  A    between atoms: C_15  and  C_17 
REMARK    4  A    between atoms: C_17  and  N_18 
ROOT
ATOM      1  N   UNK d   1      12.320   3.936  12.435  0.00  0.00    -0.269 N 
ATOM      2  C   UNK d   1      11.048   4.567  12.381  0.00  0.00     0.254 C 
ATOM      3  O   UNK d   1      10.204   4.078  11.613  0.00  0.00    -0.270 OA
ATOM      4  H   UNK d   1      13.031   4.357  13.070  0.00  0.00     0.190 HD
ENDROOT
BRANCH   1   5
ATOM      5  N   UNK d   1      12.652   2.816  11.695  0.00  0.00    -0.308 N 
ATOM      6  H   UNK d   1      11.982   2.000  11.651  0.00  0.00     0.186 HD
BRANCH   5   7
ATOM      7  C   UNK d   1      13.845   2.671  10.974  0.00  0.00     0.125 C 
ATOM      8  C   UNK d   1      14.003   1.914   9.910  0.00  0.00     0.061 A 
ATOM      9  C   UNK d   1      13.025   1.061   9.226  0.00  0.00     0.009 A 
ATOM     10  C   UNK d   1      15.248   1.750   9.143  0.00  0.00     0.258 A 
ATOM     11  C   UNK d   1      11.694   0.794   9.462  0.00  0.00     0.034 A 
ATOM     12  C   UNK d   1      13.603   0.434   8.147  0.00  0.00     0.046 A 
ATOM     13  C   UNK d   1      10.936  -0.064   8.666  0.00  0.00     0.011 A 
ATOM     14 Br   UNK d   1       9.089  -0.378   9.059  0.00  0.00    -0.051 Br
ATOM     15  C   UNK d   1      11.549  -0.670   7.599  0.00  0.00     0.021 A 
ATOM     16  C   UNK d   1      12.871  -0.435   7.325  0.00  0.00     0.032 A 
ATOM     17  N   UNK d   1      14.961   0.849   8.088  0.00  0.00    -0.322 N 
ATOM     18  H   UNK d   1      15.662   0.541   7.374  0.00  0.00     0.169 HD
ATOM     19  O   UNK d   1      16.333   2.320   9.413  0.00  0.00    -0.267 OA
ENDBRANCH   5   7
ENDBRANCH   1   5
BRANCH   2  20
ATOM     20  C   UNK d   1      10.698   5.756  13.190  0.00  0.00     0.236 C 
BRANCH  20  21
ATOM     21  N   UNK d   1       9.879   6.642  12.505  0.00  0.00    -0.316 N 
ATOM     22  C   UNK d   1       8.631   7.054  12.719  0.00  0.00     0.149 A 
ATOM     23  C   UNK d   1       8.257   7.909  11.691  0.00  0.00     0.170 A 
ATOM     24  N   UNK d   1       7.792   6.762  13.734  0.00  0.00    -0.287 N 
ATOM     25  N   UNK d   1       9.313   7.998  10.860  0.00  0.00    -0.234 NA
ATOM     26  C   UNK d   1       7.000   8.480  11.690  0.00  0.00     0.283 A 
ATOM     27  C   UNK d   1      10.277   7.248  11.342  0.00  0.00     0.212 A 
ATOM     28  O   UNK d   1       6.689   9.248  10.744  0.00  0.00    -0.265 OA
ATOM     29  N   UNK d   1       6.190   8.179  12.694  0.00  0.00    -0.269 N 
ATOM     30  C   UNK d   1       6.564   7.351  13.686  0.00  0.00     0.332 A 
ATOM     31  C   UNK d   1       4.838   8.758  12.740  0.00  0.00     0.164 C 
ATOM     32  O   UNK d   1       5.767   7.093  14.619  0.00  0.00    -0.246 OA
ATOM     33  C   UNK d   1       8.173   5.912  14.826  0.00  0.00     0.163 C 
ENDBRANCH  20  21
ENDBRANCH   2  20
TORSDOF 4
ENDMDL
