MODEL 1
REMARK VINA RESULT:    -9.928      0.000      0.000
REMARK INTER + INTRA:         -12.736
REMARK INTER:                 -12.250
REMARK INTRA:                  -0.487
REMARK UNBOUND:                -0.487
REMARK  4 active torsions:
REMARK  status: ('A' for Active; 'I' for Inactive)
REMARK    1  A    between atoms: N_12  and  N_13 
REMARK       I    between atoms: N_13  and  C_14 
REMARK    2  A    between atoms: C_14  and  C_16 
REMARK    3  A    between atoms: C_16  and  N_17 
REMARK       I    between atoms: N_17  and  C_18 
REMARK    4  A    between atoms: C_18  and  C_20 
ROOT
ATOM      1  N   UNK d   1      10.469   4.240  11.081  0.00  0.00    -0.245 N 
ATOM      2  C   UNK d   1      10.103   5.430  10.426  0.00  0.00     0.255 C 
ATOM      3  O   UNK d   1       9.957   5.398   9.152  0.00  0.00    -0.270 OA
ATOM      4  H   UNK d   1      10.606   4.253  12.129  0.00  0.00     0.192 HD
ENDROOT
BRANCH   2   5
ATOM      5  C   UNK d   1       9.851   6.740  11.031  0.00  0.00     0.227 C 
BRANCH   5   6
ATOM      6  N   UNK d   1       8.797   6.799  12.004  0.00  0.00    -0.348 N 
ATOM      7  C   UNK d   1       7.850   7.861  12.017  0.00  0.00     0.252 C 
ATOM      8  O   UNK d   1       8.007   8.762  11.103  0.00  0.00    -0.268 OA
ATOM      9  H   UNK d   1       8.692   6.087  12.743  0.00  0.00     0.163 HD
BRANCH   7  10
ATOM     10  C   UNK d   1       6.763   8.021  12.934  0.00  0.00     0.034 A 
ATOM     11  C   UNK d   1       5.840   9.056  12.915  0.00  0.00     0.056 A 
ATOM     12  C   UNK d   1       4.828   9.144  13.809  0.00  0.00     0.106 A 
ATOM     13  C   UNK d   1       4.664   8.192  14.796  0.00  0.00     0.105 A 
ATOM     14  O   UNK d   1       3.742  10.070  14.027  0.00  0.00    -0.323 OA
ATOM     15  C   UNK d   1       5.548   7.161  14.855  0.00  0.00     0.041 A 
ATOM     16  O   UNK d   1       3.538   8.535  15.562  0.00  0.00    -0.323 OA
ATOM     17  C   UNK d   1       6.602   7.052  13.935  0.00  0.00     0.020 A 
ATOM     18  C   UNK d   1       2.698   9.195  14.584  0.00  0.00     0.352 C 
ENDBRANCH   7  10
ENDBRANCH   5   6
ENDBRANCH   2   5
BRANCH   1  19
ATOM     19  N   UNK d   1      10.645   3.099  10.381  0.00  0.00    -0.166 NA
ATOM     20  C   UNK d   1      11.483   2.442   9.848  0.00  0.00     0.157 A 
ATOM     21  C   UNK d   1      11.417   1.173   9.113  0.00  0.00     0.028 A 
ATOM     22  C   UNK d   1      12.915   2.865   9.876  0.00  0.00     0.277 A 
ATOM     23  C   UNK d   1      10.340   0.370   8.805  0.00  0.00     0.035 A 
ATOM     24  C   UNK d   1      12.685   0.866   8.733  0.00  0.00     0.048 A 
ATOM     25  C   UNK d   1      10.494  -0.786   8.094  0.00  0.00     0.011 A 
ATOM     26 Br   UNK d   1       9.021  -1.901   7.657  0.00  0.00    -0.051 Br
ATOM     27  C   UNK d   1      11.783  -1.120   7.696  0.00  0.00     0.021 A 
ATOM     28  C   UNK d   1      12.851  -0.316   8.005  0.00  0.00     0.032 A 
ATOM     29  N   UNK d   1      13.612   1.839   9.164  0.00  0.00    -0.321 N 
ATOM     30  H   UNK d   1      14.648   1.850   9.005  0.00  0.00     0.169 HD
ATOM     31  O   UNK d   1      13.325   3.894  10.417  0.00  0.00    -0.266 OA
ENDBRANCH   1  19
TORSDOF 4
ENDMDL
