/Users/jonathanwahrer/Desktop/Msc/3_Semester/Drug_Design_Praktikum/waehrer_HTS_screening/HTS_experiment/out/docking_results/vina_output/2jam/0550_docked.pdbqt
 OpenBabel03162217443D

 30 35  0  0  1  0  0  0  0  0999 V2000
    3.3290    8.5090   16.9320 Br  0  0  0  0  0  0  0  0  0  0  0  0
    4.1060    8.6670   15.1980 C   0  0  0  0  0  0  0  0  0  0  0  0
    5.4810    8.6230   14.9980 C   0  0  0  0  0  3  0  0  0  0  0  0
    6.0330    8.7370   13.7500 C   0  0  0  0  0  0  0  0  0  0  0  0
    5.1610    8.8980   12.6830 C   0  0  0  0  0  0  0  0  0  0  0  0
    3.7960    8.9430   12.8740 C   0  0  0  0  0  3  0  0  0  0  0  0
    3.2540    8.8280   14.1330 C   0  0  0  0  0  3  0  0  0  0  0  0
    5.8950    8.9960   11.4590 N   0  0  0  0  0  0  0  0  0  0  0  0
    7.2720    8.8950   11.7490 C   0  0  0  0  0  0  0  0  0  0  0  0
    8.1710    8.9380   10.8960 O   0  0  0  0  0  0  0  0  0  0  0  0
    7.3910    8.7340   13.2140 C   0  0  1  0  0  0  0  0  0  0  0  0
    8.2560    9.7730   13.6850 N   0  0  2  0  0  0  0  0  0  0  0  0
    9.5930    9.3270   13.2960 C   0  0  2  0  0  3  0  0  0  0  0  0
    9.5750    7.8350   13.3670 C   0  0  1  0  0  3  0  0  0  0  0  0
    8.1460    7.4850   13.5980 C   0  0  2  0  0  3  0  0  0  0  0  0
    7.8870    6.3520   12.7160 C   0  0  0  0  0  0  0  0  0  0  0  0
    6.8510    5.6510   12.6940 O   0  0  0  0  0  0  0  0  0  0  0  0
    8.9940    6.1560   11.8720 N   0  0  0  0  0  0  0  0  0  0  0  0
    9.9630    7.1970   12.0690 C   0  0  0  0  0  0  0  0  0  0  0  0
   10.9290    7.5270   11.3370 O   0  0  0  0  0  0  0  0  0  0  0  0
   10.5250    9.8430   14.3820 C   0  0  0  0  0  2  0  0  0  0  0  0
    9.6530   10.6180   15.3470 C   0  0  0  0  0  2  0  0  0  0  0  0
    8.3080    9.9130   15.1260 C   0  0  0  0  0  2  0  0  0  0  0  0
    5.4530    9.1250   10.5010 H   0  0  0  0  0  0  0  0  0  0  0  0
    9.1630    5.0860   10.9400 C   0  0  0  0  0  2  0  0  0  0  0  0
   10.5410    4.5430   10.8390 C   0  0  2  0  0  3  0  0  0  0  0  0
   10.7810    3.8290    9.6710 O   0  0  0  0  0  0  0  0  0  0  0  0
   12.0110    3.2290    9.9000 C   0  0  0  0  0  2  0  0  0  0  0  0
   12.0790    2.8380   11.3430 C   0  0  0  0  0  2  0  0  0  0  0  0
   10.9840    3.6920   11.9800 C   0  0  0  0  0  2  0  0  0  0  0  0
  2  1  1  0  0  0  0
  3  2  1  0  0  0  0
  4  3  2  0  0  0  0
  5  6  2  0  0  0  0
  5  4  1  0  0  0  0
  6  7  1  0  0  0  0
  7  2  2  0  0  0  0
  8  9  1  0  0  0  0
  8  5  1  0  0  0  0
 10  9  2  0  0  0  0
 11  9  1  6  0  0  0
 11 15  1  0  0  0  0
 11 12  1  0  0  0  0
 11  4  1  0  0  0  0
 12 23  1  1  0  0  0
 13 14  1  0  0  0  0
 13 12  1  0  0  0  0
 13 21  1  1  0  0  0
 14 19  1  6  0  0  0
 14 15  1  0  0  0  0
 15 16  1  6  0  0  0
 17 16  2  0  0  0  0
 18 19  1  0  0  0  0
 18 16  1  0  0  0  0
 20 19  2  0  0  0  0
 21 22  1  0  0  0  0
 23 22  1  0  0  0  0
 24  8  1  0  0  0  0
 25 18  1  0  0  0  0
 26 25  1  1  0  0  0
 26 30  1  0  0  0  0
 27 28  1  0  0  0  0
 27 26  1  0  0  0  0
 28 29  1  0  0  0  0
 29 30  1  0  0  0  0
M  END
>  <Pose>
1

>  <Score>
-8.981

$$$$
