MODEL 1
REMARK VINA RESULT:    -8.981      0.000      0.000
REMARK INTER + INTRA:         -10.188
REMARK INTER:                 -10.031
REMARK INTRA:                  -0.156
REMARK UNBOUND:                -0.156
REMARK  2 active torsions:
REMARK  status: ('A' for Active; 'I' for Inactive)
REMARK    1  A    between atoms: N_18  and  C_21 
REMARK    2  A    between atoms: C_21  and  C_22 
ROOT
ATOM      1 Br   UNK d   1       3.329   8.509  16.932  0.00  0.00    -0.051 Br
ATOM      2  C   UNK d   1       4.106   8.667  15.198  0.00  0.00     0.011 A 
ATOM      3  C   UNK d   1       5.481   8.623  14.998  0.00  0.00     0.031 A 
ATOM      4  C   UNK d   1       6.033   8.737  13.750  0.00  0.00     0.019 A 
ATOM      5  C   UNK d   1       5.161   8.898  12.683  0.00  0.00     0.044 A 
ATOM      6  C   UNK d   1       3.796   8.943  12.874  0.00  0.00     0.031 A 
ATOM      7  C   UNK d   1       3.254   8.828  14.133  0.00  0.00     0.021 A 
ATOM      8  N   UNK d   1       5.895   8.996  11.459  0.00  0.00    -0.324 N 
ATOM      9  C   UNK d   1       7.272   8.895  11.749  0.00  0.00     0.267 A 
ATOM     10  O   UNK d   1       8.171   8.938  10.896  0.00  0.00    -0.270 OA
ATOM     11  C   UNK d   1       7.391   8.734  13.214  0.00  0.00     0.281 A 
ATOM     12  N   UNK d   1       8.256   9.773  13.685  0.00  0.00     0.118 N 
ATOM     13  C   UNK d   1       9.593   9.327  13.296  0.00  0.00     0.239 C 
ATOM     14  C   UNK d   1       9.575   7.835  13.367  0.00  0.00     0.128 C 
ATOM     15  C   UNK d   1       8.146   7.485  13.598  0.00  0.00     0.147 C 
ATOM     16  C   UNK d   1       7.887   6.352  12.716  0.00  0.00     0.235 C 
ATOM     17  O   UNK d   1       6.851   5.651  12.694  0.00  0.00    -0.272 OA
ATOM     18  N   UNK d   1       8.994   6.156  11.872  0.00  0.00    -0.285 N 
ATOM     19  C   UNK d   1       9.963   7.197  12.069  0.00  0.00     0.233 C 
ATOM     20  O   UNK d   1      10.929   7.527  11.337  0.00  0.00    -0.272 OA
ATOM     21  C   UNK d   1      10.525   9.843  14.382  0.00  0.00     0.038 C 
ATOM     22  C   UNK d   1       9.653  10.618  15.347  0.00  0.00     0.032 C 
ATOM     23  C   UNK d   1       8.308   9.913  15.126  0.00  0.00     0.275 C 
ATOM     24  H   UNK d   1       5.453   9.125  10.501  0.00  0.00     0.169 HD
ENDROOT
BRANCH  18  25
ATOM     25  C   UNK d   1       9.163   5.086  10.940  0.00  0.00     0.166 C 
BRANCH  25  26
ATOM     26  C   UNK d   1      10.541   4.543  10.839  0.00  0.00     0.140 C 
ATOM     27  O   UNK d   1      10.781   3.829   9.671  0.00  0.00    -0.384 OA
ATOM     28  C   UNK d   1      12.011   3.229   9.900  0.00  0.00     0.168 C 
ATOM     29  C   UNK d   1      12.079   2.838  11.343  0.00  0.00     0.029 C 
ATOM     30  C   UNK d   1      10.984   3.692  11.980  0.00  0.00     0.035 C 
ENDBRANCH  25  26
ENDBRANCH  18  25
TORSDOF 2
ENDMDL
