MODEL 1
REMARK VINA RESULT:    -7.219      0.000      0.000
REMARK INTER + INTRA:          -9.459
REMARK INTER:                  -8.696
REMARK INTRA:                  -0.763
REMARK UNBOUND:                -0.763
REMARK  4 active torsions:
REMARK  status: ('A' for Active; 'I' for Inactive)
REMARK    1  A    between atoms: C_19  and  N_26 
REMARK    2  A    between atoms: C_20  and  C_21 
REMARK    3  A    between atoms: C_21  and  O_23 
REMARK    4  A    between atoms: O_23  and  C_24 
ROOT
ATOM      1 Br   UNK d   1       8.271   5.979  11.860  0.00  0.00    -0.051 Br
ATOM      2  C   UNK d   1       8.304   7.552  12.939  0.00  0.00     0.011 A 
ATOM      3  C   UNK d   1       7.356   7.655  13.927  0.00  0.00     0.030 A 
ATOM      4  C   UNK d   1       7.340   8.789  14.745  0.00  0.00    -0.002 A 
ATOM      5  C   UNK d   1       8.262   9.764  14.544  0.00  0.00     0.043 A 
ATOM      6  C   UNK d   1       9.243   9.678  13.538  0.00  0.00     0.031 A 
ATOM      7  C   UNK d   1       9.234   8.552  12.749  0.00  0.00     0.021 A 
ATOM      8  N   UNK d   1       8.078  10.825  15.463  0.00  0.00    -0.325 N 
ATOM      9  C   UNK d   1       6.989  10.497  16.273  0.00  0.00     0.245 A 
ATOM     10  O   UNK d   1       6.490  11.204  17.232  0.00  0.00    -0.271 OA
ATOM     11  C   UNK d   1       6.472   9.161  15.851  0.00  0.00     0.141 A 
ATOM     12  C   UNK d   1       6.517   8.328  17.025  0.00  0.00     0.048 A 
ATOM     13  C   UNK d   1       5.391   7.889  17.616  0.00  0.00     0.176 A 
ATOM     14  N   UNK d   1       5.777   7.130  18.694  0.00  0.00    -0.256 N 
ATOM     15  N   UNK d   1       7.091   7.116  18.746  0.00  0.00    -0.177 NA
ATOM     16  C   UNK d   1       7.618   7.831  17.752  0.00  0.00     0.063 A 
ATOM     17  C   UNK d   1       9.056   8.077  17.442  0.00  0.00     0.073 C 
ATOM     18  O   UNK d   1       4.101   8.198  17.148  0.00  0.00    -0.275 OA
ATOM     19  C   UNK d   1       4.037   9.001  16.016  0.00  0.00     0.158 A 
ATOM     20  C   UNK d   1       5.089   9.454  15.405  0.00  0.00     0.095 A 
ATOM     21  H   UNK d   1       8.641  11.719  15.550  0.00  0.00     0.169 HD
ATOM     22  H   UNK d   1       5.131   6.647  19.359  0.00  0.00     0.191 HD
ENDROOT
BRANCH  20  23
ATOM     23  C   UNK d   1       4.909  10.309  14.196  0.00  0.00     0.295 C 
ATOM     24  O   UNK d   1       4.651  11.513  14.369  0.00  0.00    -0.259 OA
BRANCH  23  25
ATOM     25  O   UNK d   1       5.016   9.832  12.918  0.00  0.00    -0.318 OA
BRANCH  25  26
ATOM     26  C   UNK d   1       4.261   8.768  12.391  0.00  0.00     0.174 C 
ATOM     27  C   UNK d   1       4.965   8.300  11.114  0.00  0.00     0.034 C 
ENDBRANCH  25  26
ENDBRANCH  23  25
ENDBRANCH  20  23
BRANCH  19  28
ATOM     28  N   UNK d   1       2.746   9.362  15.475  0.00  0.00    -0.379 N 
ATOM     29  H   UNK d   1       2.685   9.574  14.477  0.00  0.00     0.158 HD
ATOM     30  H   UNK d   1       1.936   9.396  16.096  0.00  0.00     0.158 HD
ENDBRANCH  19  28
TORSDOF 4
ENDMDL
