MODEL 1
REMARK VINA RESULT:    -7.220      0.000      0.000
REMARK INTER + INTRA:          -7.431
REMARK INTER:                  -7.431
REMARK INTRA:                   0.000
REMARK UNBOUND:                 0.000
REMARK  1 active torsions:
REMARK  status: ('A' for Active; 'I' for Inactive)
REMARK    1  A    between atoms: C_15  and  N_19 
ROOT
ATOM      1 Br   UNK d   1      10.793   6.724  17.933  0.00  0.00    -0.051 Br
ATOM      2  C   UNK d   1       9.634   8.179  17.549  0.00  0.00     0.011 A 
ATOM      3  C   UNK d   1       8.486   8.027  16.764  0.00  0.00     0.030 A 
ATOM      4  C   UNK d   1       7.655   9.081  16.492  0.00  0.00    -0.002 A 
ATOM      5  C   UNK d   1       7.952  10.313  16.996  0.00  0.00     0.043 A 
ATOM      6  C   UNK d   1       9.090  10.517  17.788  0.00  0.00     0.031 A 
ATOM      7  C   UNK d   1       9.905   9.440  18.045  0.00  0.00     0.021 A 
ATOM      8  N   UNK d   1       6.979  11.267  16.605  0.00  0.00    -0.325 N 
ATOM      9  C   UNK d   1       6.027  10.597  15.817  0.00  0.00     0.246 A 
ATOM     10  O   UNK d   1       4.999  11.076  15.269  0.00  0.00    -0.271 OA
ATOM     11  C   UNK d   1       6.412   9.173  15.706  0.00  0.00     0.146 A 
ATOM     12  C   UNK d   1       6.665   8.835  14.267  0.00  0.00     0.071 A 
ATOM     13  C   UNK d   1       6.075   7.880  13.598  0.00  0.00     0.060 A 
ATOM     14  N   UNK d   1       5.114   7.087  14.270  0.00  0.00    -0.342 N 
ATOM     15  C   UNK d   1       4.808   7.333  15.633  0.00  0.00     0.118 A 
ATOM     16  C   UNK d   1       5.398   8.290  16.307  0.00  0.00     0.093 A 
ATOM     17  C   UNK d   1       5.024   8.478  17.712  0.00  0.00     0.101 C 
ATOM     18  N   UNK d   1       4.737   8.645  18.820  0.00  0.00    -0.191 NA
ATOM     19  C   UNK d   1       6.606   7.878  12.213  0.00  0.00     0.106 A 
ATOM     20  O   UNK d   1       7.553   8.911  12.133  0.00  0.00    -0.301 OA
ATOM     21  C   UNK d   1       7.615   9.518  13.372  0.00  0.00     0.294 A 
ATOM     22  O   UNK d   1       8.374  10.503  13.672  0.00  0.00    -0.259 OA
ATOM     23  C   UNK d   1       5.505   8.227  11.209  0.00  0.00     0.053 C 
ATOM     24  C   UNK d   1       7.218   6.529  11.863  0.00  0.00     0.053 C 
ATOM     25  H   UNK d   1       6.986  12.301  16.873  0.00  0.00     0.169 HD
ATOM     26  H   UNK d   1       4.607   6.304  13.782  0.00  0.00     0.167 HD
ENDROOT
BRANCH  15  27
ATOM     27  N   UNK d   1       3.817   6.506  16.302  0.00  0.00    -0.384 N 
ATOM     28  H   UNK d   1       2.918   6.871  16.657  0.00  0.00     0.157 HD
ATOM     29  H   UNK d   1       4.032   5.503  16.422  0.00  0.00     0.157 HD
ENDBRANCH  15  27
TORSDOF 1
ENDMDL
