MODEL 1
REMARK VINA RESULT:    -7.761      0.000      0.000
REMARK INTER + INTRA:          -8.679
REMARK INTER:                  -9.122
REMARK INTRA:                   0.442
REMARK UNBOUND:                 0.442
REMARK  3 active torsions:
REMARK  status: ('A' for Active; 'I' for Inactive)
REMARK    1  A    between atoms: C_13  and  C_25 
REMARK    2  A    between atoms: N_18  and  C_21 
REMARK    3  A    between atoms: C_25  and  C_26 
REMARK       I    between atoms: C_26  and  N_28 
ROOT
ATOM      1 Br   UNK d   1      11.977  11.148  14.298  0.00  0.00    -0.051 Br
ATOM      2  C   UNK d   1      10.323  10.509  15.033  0.00  0.00     0.011 A 
ATOM      3  C   UNK d   1       9.572   9.538  14.398  0.00  0.00     0.031 A 
ATOM      4  C   UNK d   1       8.382   9.073  14.918  0.00  0.00     0.019 A 
ATOM      5  C   UNK d   1       7.976   9.629  16.113  0.00  0.00     0.044 A 
ATOM      6  C   UNK d   1       8.729  10.607  16.756  0.00  0.00     0.031 A 
ATOM      7  C   UNK d   1       9.900  11.049  16.221  0.00  0.00     0.021 A 
ATOM      8  N   UNK d   1       6.725   9.036  16.498  0.00  0.00    -0.324 N 
ATOM      9  C   UNK d   1       6.342   8.087  15.518  0.00  0.00     0.267 A 
ATOM     10  O   UNK d   1       5.289   7.410  15.568  0.00  0.00    -0.270 OA
ATOM     11  C   UNK d   1       7.391   8.064  14.477  0.00  0.00     0.279 A 
ATOM     12  N   UNK d   1       6.841   8.361  13.181  0.00  0.00     0.114 N 
ATOM     13  C   UNK d   1       6.266   7.104  12.751  0.00  0.00     0.245 C 
ATOM     14  C   UNK d   1       7.300   6.086  13.151  0.00  0.00     0.128 C 
ATOM     15  C   UNK d   1       7.947   6.689  14.374  0.00  0.00     0.147 C 
ATOM     16  C   UNK d   1       9.394   6.604  14.132  0.00  0.00     0.235 C 
ATOM     17  O   UNK d   1      10.311   6.880  14.946  0.00  0.00    -0.272 OA
ATOM     18  N   UNK d   1       9.636   6.143  12.783  0.00  0.00    -0.279 N 
ATOM     19  C   UNK d   1       8.382   5.937  12.153  0.00  0.00     0.234 C 
ATOM     20  O   UNK d   1       8.242   5.671  10.935  0.00  0.00    -0.272 OA
ATOM     21  H   UNK d   1       6.217   9.297  17.371  0.00  0.00     0.169 HD
ATOM     22  H   UNK d   1       7.611   8.606  12.538  0.00  0.00     0.318 HD
ENDROOT
BRANCH  13  23
ATOM     23  C   UNK d   1       5.985   7.134  11.273  0.00  0.00     0.139 C 
BRANCH  23  24
ATOM     24  C   UNK d   1       4.819   7.980  10.973  0.00  0.00     0.217 C 
ATOM     25  O   UNK d   1       4.738   8.519   9.835  0.00  0.00    -0.274 OA
ATOM     26  N   UNK d   1       3.758   8.243  11.878  0.00  0.00    -0.370 N 
ATOM     27  H   UNK d   1       3.871   8.520  12.863  0.00  0.00     0.159 HD
ATOM     28  H   UNK d   1       2.778   8.143  11.503  0.00  0.00     0.159 HD
ENDBRANCH  23  24
ENDBRANCH  13  23
BRANCH  18  29
ATOM     29  C   UNK d   1      10.919   5.924  12.164  0.00  0.00     0.032 C 
ATOM     30  C   UNK d   1      11.996   6.786  12.777  0.00  0.00     0.038 C 
ATOM     31  C   UNK d   1      11.295   4.446  12.316  0.00  0.00     0.038 C 
ATOM     32  C   UNK d   1      10.869   6.252  10.688  0.00  0.00     0.038 C 
ENDBRANCH  18  29
TORSDOF 3
ENDMDL
