MODEL 1
REMARK VINA RESULT:    -7.179      0.000      0.000
REMARK INTER + INTRA:          -9.682
REMARK INTER:                  -9.067
REMARK INTRA:                  -0.614
REMARK UNBOUND:                -0.614
REMARK  5 active torsions:
REMARK  status: ('A' for Active; 'I' for Inactive)
REMARK    1  A    between atoms: C_13  and  C_25 
REMARK    2  A    between atoms: N_18  and  C_21 
REMARK    3  A    between atoms: C_21  and  C_22 
REMARK    4  A    between atoms: C_22  and  C_23 
REMARK    5  A    between atoms: C_25  and  O_26 
ROOT
ATOM      1 Br   UNK d   1      12.054   2.257  11.748  0.00  0.00    -0.051 Br
ATOM      2  C   UNK d   1      11.762   4.139  11.637  0.00  0.00     0.011 A 
ATOM      3  C   UNK d   1      10.890   4.765  12.492  0.00  0.00     0.031 A 
ATOM      4  C   UNK d   1      10.666   6.152  12.418  0.00  0.00     0.019 A 
ATOM      5  C   UNK d   1      11.311   6.925  11.493  0.00  0.00     0.044 A 
ATOM      6  C   UNK d   1      12.202   6.285  10.621  0.00  0.00     0.031 A 
ATOM      7  C   UNK d   1      12.406   4.928  10.709  0.00  0.00     0.021 A 
ATOM      8  N   UNK d   1      10.926   8.287  11.613  0.00  0.00    -0.324 N 
ATOM      9  C   UNK d   1       9.990   8.370  12.669  0.00  0.00     0.267 A 
ATOM     10  O   UNK d   1       9.458   9.475  13.019  0.00  0.00    -0.270 OA
ATOM     11  C   UNK d   1       9.789   7.038  13.215  0.00  0.00     0.279 A 
ATOM     12  N   UNK d   1      10.069   6.946  14.635  0.00  0.00     0.116 N 
ATOM     13  C   UNK d   1       8.816   7.251  15.303  0.00  0.00     0.264 C 
ATOM     14  C   UNK d   1       7.821   6.516  14.452  0.00  0.00     0.130 C 
ATOM     15  C   UNK d   1       8.336   6.645  13.058  0.00  0.00     0.147 C 
ATOM     16  C   UNK d   1       7.521   7.695  12.427  0.00  0.00     0.234 C 
ATOM     17  O   UNK d   1       7.751   8.349  11.357  0.00  0.00    -0.272 OA
ATOM     18  N   UNK d   1       6.352   7.921  13.205  0.00  0.00    -0.288 N 
ATOM     19  C   UNK d   1       6.506   7.190  14.404  0.00  0.00     0.233 C 
ATOM     20  O   UNK d   1       5.656   7.096  15.341  0.00  0.00    -0.272 OA
ATOM     21  H   UNK d   1      11.302   9.053  10.998  0.00  0.00     0.169 HD
ATOM     22  H   UNK d   1      10.847   7.561  14.933  0.00  0.00     0.318 HD
ENDROOT
BRANCH  13  23
ATOM     23  C   UNK d   1       8.875   6.753  16.713  0.00  0.00     0.148 C 
ATOM     24  C   UNK d   1       8.885   7.915  17.675  0.00  0.00     0.041 C 
BRANCH  23  25
ATOM     25  O   UNK d   1       7.705   6.024  16.958  0.00  0.00    -0.394 OA
ATOM     26  H   UNK d   1       6.901   6.559  16.733  0.00  0.00     0.210 HD
ENDBRANCH  23  25
ENDBRANCH  13  23
BRANCH  18  27
ATOM     27  C   UNK d   1       5.214   8.743  12.843  0.00  0.00     0.135 C 
BRANCH  27  28
ATOM     28  C   UNK d   1       5.245  10.084  13.502  0.00  0.00     0.020 C 
BRANCH  28  29
ATOM     29  C   UNK d   1       4.120  10.092  14.544  0.00  0.00    -0.003 C 
ATOM     30  C   UNK d   1       3.002   9.181  14.117  0.00  0.00     0.005 C 
ENDBRANCH  28  29
ENDBRANCH  27  28
ENDBRANCH  18  27
TORSDOF 5
ENDMDL
