MODEL 1
REMARK VINA RESULT:    -7.864      0.000      0.000
REMARK INTER + INTRA:         -10.039
REMARK INTER:                  -9.244
REMARK INTRA:                  -0.795
REMARK UNBOUND:                -0.795
REMARK  3 active torsions:
REMARK  status: ('A' for Active; 'I' for Inactive)
REMARK    1  A    between atoms: N_18  and  C_21 
REMARK    2  A    between atoms: C_21  and  C_22 
REMARK    3  A    between atoms: C_22  and  C_23 
ROOT
ATOM      1 Br   UNK d   1      17.119   4.154  11.711  0.00  0.00    -0.051 Br
ATOM      2  C   UNK d   1      15.814   5.543  11.594  0.00  0.00     0.011 A 
ATOM      3  C   UNK d   1      14.472   5.304  11.756  0.00  0.00     0.031 A 
ATOM      4  C   UNK d   1      13.484   6.301  11.676  0.00  0.00     0.019 A 
ATOM      5  C   UNK d   1      13.913   7.569  11.423  0.00  0.00     0.044 A 
ATOM      6  C   UNK d   1      15.285   7.834  11.253  0.00  0.00     0.031 A 
ATOM      7  C   UNK d   1      16.227   6.836  11.336  0.00  0.00     0.021 A 
ATOM      8  N   UNK d   1      12.817   8.473  11.379  0.00  0.00    -0.324 N 
ATOM      9  C   UNK d   1      11.648   7.724  11.619  0.00  0.00     0.267 A 
ATOM     10  O   UNK d   1      10.454   8.197  11.671  0.00  0.00    -0.270 OA
ATOM     11  C   UNK d   1      12.042   6.315  11.799  0.00  0.00     0.279 A 
ATOM     12  N   UNK d   1      11.645   6.022  13.188  0.00  0.00     0.113 N 
ATOM     13  C   UNK d   1      10.413   5.296  13.166  0.00  0.00     0.232 C 
ATOM     14  C   UNK d   1      10.434   4.572  11.870  0.00  0.00     0.127 C 
ATOM     15  C   UNK d   1      11.285   5.381  10.929  0.00  0.00     0.147 C 
ATOM     16  C   UNK d   1      12.022   4.382  10.189  0.00  0.00     0.234 C 
ATOM     17  O   UNK d   1      12.659   4.594   9.115  0.00  0.00    -0.272 OA
ATOM     18  N   UNK d   1      11.914   3.133  10.858  0.00  0.00    -0.288 N 
ATOM     19  C   UNK d   1      11.186   3.292  12.067  0.00  0.00     0.233 C 
ATOM     20  O   UNK d   1      11.216   2.503  13.032  0.00  0.00    -0.272 OA
ATOM     21  C   UNK d   1       9.176   6.142  13.355  0.00  0.00     0.043 C 
ATOM     22  H   UNK d   1      12.851   9.519  11.201  0.00  0.00     0.169 HD
ATOM     23  H   UNK d   1      12.398   5.500  13.688  0.00  0.00     0.318 HD
ENDROOT
BRANCH  18  24
ATOM     24  C   UNK d   1      12.489   1.903  10.331  0.00  0.00     0.135 C 
BRANCH  24  25
ATOM     25  C   UNK d   1      13.907   1.709  10.776  0.00  0.00     0.020 C 
BRANCH  25  26
ATOM     26  C   UNK d   1      14.906   1.876   9.662  0.00  0.00    -0.003 C 
ATOM     27  C   UNK d   1      14.196   1.444   8.375  0.00  0.00     0.005 C 
ENDBRANCH  25  26
ENDBRANCH  24  25
ENDBRANCH  18  24
TORSDOF 3
ENDMDL
