MODEL 1
REMARK VINA RESULT:    -7.347      0.000      0.000
REMARK INTER + INTRA:         -10.041
REMARK INTER:                  -9.494
REMARK INTRA:                  -0.547
REMARK UNBOUND:                -0.547
REMARK  5 active torsions:
REMARK  status: ('A' for Active; 'I' for Inactive)
REMARK    1  A    between atoms: C_13  and  C_25 
REMARK    2  A    between atoms: N_18  and  C_21 
REMARK    3  A    between atoms: C_21  and  C_22 
REMARK    4  A    between atoms: C_22  and  O_23 
REMARK    5  A    between atoms: C_25  and  C_26 
REMARK       I    between atoms: C_26  and  N_28 
ROOT
ATOM      1 Br   UNK d   1       3.926   8.902  17.983  0.00  0.00    -0.051 Br
ATOM      2  C   UNK d   1       5.491   9.371  16.999  0.00  0.00     0.011 A 
ATOM      3  C   UNK d   1       5.931   8.654  15.909  0.00  0.00     0.031 A 
ATOM      4  C   UNK d   1       7.076   9.002  15.194  0.00  0.00     0.019 A 
ATOM      5  C   UNK d   1       7.801  10.101  15.583  0.00  0.00     0.044 A 
ATOM      6  C   UNK d   1       7.382  10.842  16.676  0.00  0.00     0.031 A 
ATOM      7  C   UNK d   1       6.229  10.471  17.377  0.00  0.00     0.021 A 
ATOM      8  N   UNK d   1       8.924  10.281  14.716  0.00  0.00    -0.324 N 
ATOM      9  C   UNK d   1       8.903   9.251  13.742  0.00  0.00     0.267 A 
ATOM     10  O   UNK d   1       9.753   9.147  12.837  0.00  0.00    -0.270 OA
ATOM     11  C   UNK d   1       7.754   8.401  14.009  0.00  0.00     0.279 A 
ATOM     12  N   UNK d   1       6.886   8.465  12.833  0.00  0.00     0.114 N 
ATOM     13  C   UNK d   1       6.367   7.141  12.662  0.00  0.00     0.245 C 
ATOM     14  C   UNK d   1       7.503   6.261  13.041  0.00  0.00     0.128 C 
ATOM     15  C   UNK d   1       8.065   6.955  14.259  0.00  0.00     0.147 C 
ATOM     16  C   UNK d   1       9.477   6.601  14.267  0.00  0.00     0.235 C 
ATOM     17  O   UNK d   1      10.252   6.696  15.243  0.00  0.00    -0.272 OA
ATOM     18  N   UNK d   1       9.815   6.129  12.968  0.00  0.00    -0.286 N 
ATOM     19  C   UNK d   1       8.659   6.287  12.111  0.00  0.00     0.233 C 
ATOM     20  O   UNK d   1       8.750   6.407  10.879  0.00  0.00    -0.272 OA
ATOM     21  H   UNK d   1       9.634  11.060  14.812  0.00  0.00     0.169 HD
ATOM     22  H   UNK d   1       7.446   8.704  11.980  0.00  0.00     0.318 HD
ENDROOT
BRANCH  13  23
ATOM     23  C   UNK d   1       5.786   6.892  11.312  0.00  0.00     0.139 C 
BRANCH  23  24
ATOM     24  C   UNK d   1       4.829   7.952  10.978  0.00  0.00     0.217 C 
ATOM     25  O   UNK d   1       4.927   8.557   9.874  0.00  0.00    -0.274 OA
ATOM     26  N   UNK d   1       3.787   8.309  11.884  0.00  0.00    -0.370 N 
ATOM     27  H   UNK d   1       2.883   8.677  11.525  0.00  0.00     0.159 HD
ATOM     28  H   UNK d   1       3.938   8.198  12.908  0.00  0.00     0.159 HD
ENDBRANCH  23  24
ENDBRANCH  13  23
BRANCH  18  29
ATOM     29  C   UNK d   1      11.095   5.593  12.609  0.00  0.00     0.161 C 
BRANCH  29  30
ATOM     30  C   UNK d   1      11.139   4.113  12.419  0.00  0.00     0.187 C 
BRANCH  30  31
ATOM     31  O   UNK d   1      11.950   3.719  11.368  0.00  0.00    -0.394 OA
ATOM     32  C   UNK d   1      11.770   4.527  10.248  0.00  0.00     0.201 C 
ENDBRANCH  30  31
ENDBRANCH  29  30
ENDBRANCH  18  29
TORSDOF 5
ENDMDL
