MODEL 1
REMARK VINA RESULT:    -8.133      0.000      0.000
REMARK INTER + INTRA:          -8.133
REMARK INTER:                  -8.133
REMARK INTRA:                   0.000
REMARK UNBOUND:                 0.000
REMARK  0 active torsions:
REMARK  status: ('A' for Active; 'I' for Inactive)
ROOT
ATOM      1 Br   UNK d   1       5.889  10.122  18.538  0.00  0.00    -0.051 Br
ATOM      2  C   UNK d   1       5.803   9.511  16.735  0.00  0.00     0.012 A 
ATOM      3  C   UNK d   1       6.474   8.370  16.405  0.00  0.00     0.038 A 
ATOM      4  C   UNK d   1       6.430   7.903  15.102  0.00  0.00     0.062 A 
ATOM      5  C   UNK d   1       5.706   8.591  14.136  0.00  0.00     0.078 A 
ATOM      6  C   UNK d   1       5.022   9.747  14.454  0.00  0.00     0.034 A 
ATOM      7  C   UNK d   1       5.095  10.173  15.761  0.00  0.00     0.021 A 
ATOM      8  N   UNK d   1       5.588   8.211  12.780  0.00  0.00    -0.195 N 
ATOM      9  N   UNK d   1       4.560   8.630  12.032  0.00  0.00    -0.039 NA
ATOM     10  N   UNK d   1       4.742   8.112  10.848  0.00  0.00    -0.023 NA
ATOM     11  N   UNK d   1       5.847   7.384  10.827  0.00  0.00    -0.111 NA
ATOM     12  C   UNK d   1       6.400   7.444  12.073  0.00  0.00     0.182 A 
ATOM     13  C   UNK d   1       7.678   6.723  12.406  0.00  0.00     0.102 C 
ATOM     14  N   UNK d   1       7.587   6.090  13.719  0.00  0.00    -0.340 N 
ATOM     15  C   UNK d   1       7.214   6.670  14.963  0.00  0.00     0.255 C 
ATOM     16  O   UNK d   1       7.579   6.089  16.023  0.00  0.00    -0.268 OA
ATOM     17  C   UNK d   1       8.736   7.787  12.525  0.00  0.00     0.076 C 
ATOM     18  C   UNK d   1      10.088   7.174  12.359  0.00  0.00     0.056 C 
ATOM     19  O   UNK d   1      10.149   6.664  11.089  0.00  0.00    -0.381 OA
ATOM     20  C   UNK d   1       9.312   5.613  10.832  0.00  0.00     0.171 C 
ATOM     21  C   UNK d   1       7.948   5.696  11.369  0.00  0.00     0.066 C 
ATOM     22  C   UNK d   1      11.155   8.272  12.448  0.00  0.00     0.045 C 
ATOM     23  C   UNK d   1      10.428   6.169  13.427  0.00  0.00     0.045 C 
ATOM     24  H   UNK d   1       7.830   5.054  13.773  0.00  0.00     0.164 HD
ENDROOT
TORSDOF 0
ENDMDL
