MODEL 1
REMARK VINA RESULT:    -7.668      0.000      0.000
REMARK INTER + INTRA:          -7.668
REMARK INTER:                  -7.668
REMARK INTRA:                   0.000
REMARK UNBOUND:                 0.000
REMARK  0 active torsions:
REMARK  status: ('A' for Active; 'I' for Inactive)
ROOT
ATOM      1 Br   UNK d   1      11.296   6.344  12.398  0.00  0.00    -0.051 Br
ATOM      2  C   UNK d   1       9.692   7.267  12.912  0.00  0.00     0.012 A 
ATOM      3  C   UNK d   1       8.699   6.608  13.605  0.00  0.00     0.038 A 
ATOM      4  C   UNK d   1       7.550   7.276  13.972  0.00  0.00     0.061 A 
ATOM      5  C   UNK d   1       7.331   8.608  13.676  0.00  0.00     0.072 A 
ATOM      6  C   UNK d   1       8.344   9.258  12.975  0.00  0.00     0.034 A 
ATOM      7  C   UNK d   1       9.497   8.597  12.606  0.00  0.00     0.021 A 
ATOM      8  N   UNK d   1       6.227   9.431  13.973  0.00  0.00    -0.218 N 
ATOM      9  N   UNK d   1       6.024  10.612  13.412  0.00  0.00     0.032 NA
ATOM     10  N   UNK d   1       4.906  11.110  13.915  0.00  0.00    -0.052 NA
ATOM     11  N   UNK d   1       4.416  10.253  14.779  0.00  0.00    -0.116 NA
ATOM     12  C   UNK d   1       5.229   9.170  14.844  0.00  0.00     0.176 A 
ATOM     13  C   UNK d   1       4.916   8.054  15.738  0.00  0.00     0.100 C 
ATOM     14  N   UNK d   1       5.387   6.771  15.348  0.00  0.00    -0.340 N 
ATOM     15  C   UNK d   1       6.602   6.429  14.699  0.00  0.00     0.255 C 
ATOM     16  O   UNK d   1       6.976   5.226  14.717  0.00  0.00    -0.268 OA
ATOM     17  C   UNK d   1       5.455   8.300  17.156  0.00  0.00     0.069 C 
ATOM     18  C   UNK d   1       4.507   7.675  18.148  0.00  0.00     0.275 C 
ATOM     19  N   UNK d   1       3.367   8.555  18.274  0.00  0.00     0.084 N 
ATOM     20  C   UNK d   1       2.902   8.911  16.959  0.00  0.00     0.275 C 
ATOM     21  C   UNK d   1       3.400   7.981  15.881  0.00  0.00     0.069 C 
ATOM     22  C   UNK d   1       3.796   9.729  19.032  0.00  0.00     0.309 C 
ATOM     23  H   UNK d   1       4.753   5.977  15.570  0.00  0.00     0.164 HD
ENDROOT
TORSDOF 0
ENDMDL
