MODEL 1
REMARK VINA RESULT:    -7.494      0.000      0.000
REMARK INTER + INTRA:          -7.713
REMARK INTER:                  -7.713
REMARK INTRA:                   0.000
REMARK UNBOUND:                 0.000
REMARK  1 active torsions:
REMARK  status: ('A' for Active; 'I' for Inactive)
REMARK    1  A    between atoms: C_9  and  N_23 
ROOT
ATOM      1 Br   UNK d   1       9.232   9.931  17.964  0.00  0.00    -0.051 Br
ATOM      2  C   UNK d   1       8.866   8.778  16.500  0.00  0.00     0.011 A 
ATOM      3  C   UNK d   1       7.907   9.141  15.596  0.00  0.00     0.031 A 
ATOM      4  C   UNK d   1       7.637   8.290  14.519  0.00  0.00     0.005 A 
ATOM      5  C   UNK d   1       8.337   7.135  14.405  0.00  0.00     0.086 A 
ATOM      6  C   UNK d   1       9.325   6.764  15.340  0.00  0.00     0.039 A 
ATOM      7  C   UNK d   1       9.586   7.602  16.397  0.00  0.00     0.022 A 
ATOM      8  O   UNK d   1       8.108   6.260  13.358  0.00  0.00    -0.292 OA
ATOM      9  C   UNK d   1       7.149   6.587  12.424  0.00  0.00     0.160 A 
ATOM     10  C   UNK d   1       6.434   7.686  12.467  0.00  0.00     0.100 A 
ATOM     11  C   UNK d   1       6.604   8.666  13.531  0.00  0.00     0.145 A 
ATOM     12  C   UNK d   1       5.326   9.023  14.194  0.00  0.00     0.041 A 
ATOM     13  C   UNK d   1       5.077  10.349  13.971  0.00  0.00     0.160 A 
ATOM     14  N   UNK d   1       3.900  10.674  14.582  0.00  0.00    -0.156 NA
ATOM     15  N   UNK d   1       3.458   9.569  15.155  0.00  0.00    -0.280 N 
ATOM     16  C   UNK d   1       4.291   8.542  14.945  0.00  0.00     0.036 A 
ATOM     17  C   UNK d   1       4.070   7.158  15.465  0.00  0.00     0.070 C 
ATOM     18  N   UNK d   1       6.099  10.937  13.196  0.00  0.00    -0.308 N 
ATOM     19  C   UNK d   1       7.043   9.936  12.914  0.00  0.00     0.247 A 
ATOM     20  O   UNK d   1       8.105  10.060  12.246  0.00  0.00    -0.271 OA
ATOM     21  C   UNK d   1       5.447   7.959  11.450  0.00  0.00     0.101 C 
ATOM     22  N   UNK d   1       4.667   8.191  10.626  0.00  0.00    -0.191 NA
ATOM     23  H   UNK d   1       2.554   9.554  15.698  0.00  0.00     0.189 HD
ATOM     24  H   UNK d   1       6.128  11.967  12.891  0.00  0.00     0.170 HD
ENDROOT
BRANCH   9  25
ATOM     25  N   UNK d   1       6.923   5.669  11.342  0.00  0.00    -0.379 N 
ATOM     26  H   UNK d   1       6.193   4.930  11.439  0.00  0.00     0.158 HD
ATOM     27  H   UNK d   1       7.466   5.710  10.451  0.00  0.00     0.158 HD
ENDBRANCH   9  25
TORSDOF 1
ENDMDL
