MODEL 1
REMARK VINA RESULT:    -8.974      0.000      0.000
REMARK INTER + INTRA:         -10.956
REMARK INTER:                 -10.547
REMARK INTRA:                  -0.409
REMARK UNBOUND:                -0.409
REMARK  3 active torsions:
REMARK  status: ('A' for Active; 'I' for Inactive)
REMARK    1  A    between atoms: C_11  and  C_13 
REMARK    2  A    between atoms: C_23  and  C_24 
REMARK    3  A    between atoms: C_24  and  N_25 
ROOT
ATOM      1  C   UNK d   1      14.319   3.142  11.330  0.00  0.00    -0.001 A 
ATOM      2  C   UNK d   1      13.303   3.342  12.250  0.00  0.00     0.096 A 
ATOM      3  C   UNK d   1      12.062   2.772  12.052  0.00  0.00     0.289 A 
ATOM      4  O   UNK d   1      11.180   3.004  12.939  0.00  0.00    -0.260 OA
ATOM      5  O   UNK d   1      11.826   2.040  11.008  0.00  0.00    -0.274 OA
ATOM      6  C   UNK d   1      12.720   1.815  10.123  0.00  0.00     0.101 A 
ATOM      7  C   UNK d   1      14.014   2.358  10.245  0.00  0.00     0.010 A 
ATOM      8  C   UNK d   1      14.951   2.091   9.290  0.00  0.00     0.018 A 
ATOM      9  C   UNK d   1      14.575   1.280   8.213  0.00  0.00     0.041 A 
ATOM     10  C   UNK d   1      13.297   0.767   8.121  0.00  0.00     0.118 A 
ATOM     11  C   UNK d   1      12.328   1.014   9.067  0.00  0.00     0.039 A 
ATOM     12  O   UNK d   1      13.020  -0.034   6.992  0.00  0.00    -0.191 OA
ENDROOT
BRANCH   1  13
ATOM     13  C   UNK d   1      15.621   3.787  11.493  0.00  0.00     0.052 A 
ATOM     14  C   UNK d   1      15.745   5.158  11.418  0.00  0.00     0.299 A 
ATOM     15  O   UNK d   1      16.896   5.721  11.532  0.00  0.00    -0.274 OA
ATOM     16  O   UNK d   1      14.663   5.798  11.235  0.00  0.00    -0.259 OA
ATOM     17  C   UNK d   1      18.027   5.041  11.726  0.00  0.00     0.089 A 
ATOM     18  C   UNK d   1      17.971   3.665  11.812  0.00  0.00     0.000 A 
ATOM     19  C   UNK d   1      19.229   5.726  11.836  0.00  0.00     0.039 A 
ATOM     20  C   UNK d   1      19.158   2.986  12.014  0.00  0.00     0.033 A 
ATOM     21  C   UNK d   1      16.757   3.035  11.692  0.00  0.00     0.032 A 
ATOM     22  C   UNK d   1      20.385   3.613  12.131  0.00  0.00     0.011 A 
ATOM     23 Br   UNK d   1      21.977   2.627  12.423  0.00  0.00    -0.051 Br
ATOM     24  C   UNK d   1      20.387   5.012  12.035  0.00  0.00     0.022 A 
ENDBRANCH   1  13
BRANCH  11  25
ATOM     25  C   UNK d   1      10.992   0.527   8.850  0.00  0.00     0.278 C 
BRANCH  25  26
ATOM     26  N   UNK d   1      10.670  -0.824   8.635  0.00  0.00    -0.075 N 
ATOM     27  C   UNK d   1      11.213  -1.792   9.548  0.00  0.00     0.269 C 
ATOM     28  C   UNK d   1       9.219  -1.026   8.387  0.00  0.00     0.269 C 
ATOM     29  H   UNK d   1      11.102  -1.100   7.706  0.00  0.00     0.279 HD
ENDBRANCH  25  26
ENDBRANCH  11  25
TORSDOF 3
ENDMDL
