MODEL 1
REMARK VINA RESULT:    -7.405      0.000      0.000
REMARK INTER + INTRA:         -10.908
REMARK INTER:                  -9.570
REMARK INTRA:                  -1.338
REMARK UNBOUND:                -1.338
REMARK  5 active torsions:
REMARK  status: ('A' for Active; 'I' for Inactive)
REMARK    1  A    between atoms: C_7  and  N_17 
REMARK    2  A    between atoms: C_9  and  C_10 
REMARK       I    between atoms: N_20  and  C_23 
REMARK    3  A    between atoms: C_23  and  C_25 
REMARK    4  A    between atoms: C_25  and  C_26 
REMARK    5  A    between atoms: C_26  and  C_27 
ROOT
ATOM      1 Br   UNK d   1      16.693   7.734  16.854  0.00  0.00    -0.051 Br
ATOM      2  C   UNK d   1      15.265   7.645  15.591  0.00  0.00     0.011 A 
ATOM      3  C   UNK d   1      15.425   6.970  14.384  0.00  0.00     0.035 A 
ATOM      4  C   UNK d   1      14.387   6.905  13.465  0.00  0.00     0.024 A 
ATOM      5  C   UNK d   1      13.182   7.512  13.742  0.00  0.00     0.073 A 
ATOM      6  N   UNK d   1      12.165   7.446  12.847  0.00  0.00    -0.207 NA
ATOM      7  C   UNK d   1      12.293   6.796  11.676  0.00  0.00     0.327 A 
ATOM      8  N   UNK d   1      13.471   6.213  11.423  0.00  0.00    -0.206 NA
ATOM      9  C   UNK d   1      14.521   6.239  12.264  0.00  0.00     0.085 A 
ATOM     10  C   UNK d   1      13.047   8.180  14.953  0.00  0.00     0.034 A 
ATOM     11  C   UNK d   1      14.064   8.257  15.879  0.00  0.00     0.021 A 
ENDROOT
BRANCH   7  12
ATOM     12  N   UNK d   1      11.196   6.745  10.756  0.00  0.00    -0.004 N 
ATOM     13  C   UNK d   1       9.998   6.339  11.439  0.00  0.00     0.265 C 
ATOM     14  C   UNK d   1       9.939   4.886  11.768  0.00  0.00     0.154 C 
ATOM     15  N   UNK d   1      10.943   4.117  11.068  0.00  0.00    -0.349 N 
ATOM     16  C   UNK d   1      11.232   4.512   9.707  0.00  0.00     0.154 C 
ATOM     17  C   UNK d   1      11.571   3.042  11.742  0.00  0.00     0.220 C 
ATOM     18  C   UNK d   1      11.479   5.983   9.579  0.00  0.00     0.265 C 
ATOM     19  O   UNK d   1      11.268   2.760  12.922  0.00  0.00    -0.273 OA
ATOM     20  H   UNK d   1      11.037   7.761  10.480  0.00  0.00     0.290 HD
BRANCH  17  21
ATOM     21  C   UNK d   1      12.598   2.281  10.973  0.00  0.00     0.113 C 
BRANCH  21  22
ATOM     22  C   UNK d   1      11.991   1.119  10.246  0.00  0.00     0.122 C 
BRANCH  22  23
ATOM     23  C   UNK d   1      12.530   0.936   8.890  0.00  0.00     0.172 C 
ATOM     24  O   UNK d   1      11.914   0.278   8.026  0.00  0.00    -0.648 OA
ATOM     25  O   UNK d   1      13.744   1.504   8.562  0.00  0.00    -0.648 OA
ENDBRANCH  22  23
ENDBRANCH  21  22
ENDBRANCH  17  21
ENDBRANCH   7  12
BRANCH   9  26
ATOM     26  C   UNK d   1      15.759   5.571  11.894  0.00  0.00     0.015 A 
ATOM     27  C   UNK d   1      16.790   6.284  11.296  0.00  0.00     0.046 A 
ATOM     28  C   UNK d   1      17.982   5.688  10.944  0.00  0.00     0.025 A 
ATOM     29 Cl   UNK d   1      16.538   8.003  10.988  0.00  0.00    -0.083 Cl
ATOM     30  C   UNK d   1      18.201   4.346  11.174  0.00  0.00     0.002 A 
ATOM     31  C   UNK d   1      17.169   3.634  11.773  0.00  0.00     0.001 A 
ATOM     32  C   UNK d   1      15.980   4.237  12.121  0.00  0.00     0.015 A 
ENDBRANCH   9  26
TORSDOF 5
ENDMDL
