MODEL 1
REMARK VINA RESULT:    -9.851      0.000      0.000
REMARK INTER + INTRA:         -13.137
REMARK INTER:                 -13.306
REMARK INTRA:                   0.169
REMARK UNBOUND:                 0.169
REMARK  6 active torsions:
REMARK  status: ('A' for Active; 'I' for Inactive)
REMARK    1  A    between atoms: C_7  and  N_17 
REMARK    2  A    between atoms: C_9  and  C_10 
REMARK       I    between atoms: N_20  and  C_23 
REMARK    3  A    between atoms: C_23  and  C_25 
REMARK    4  A    between atoms: C_25  and  C_26 
REMARK    5  A    between atoms: C_26  and  C_27 
REMARK    6  A    between atoms: C_27  and  C_28 
ROOT
ATOM      1 Br   UNK d   1      18.332   3.016  11.485  0.00  0.00    -0.051 Br
ATOM      2  C   UNK d   1      16.613   3.806  11.765  0.00  0.00     0.011 A 
ATOM      3  C   UNK d   1      15.487   3.374  11.087  0.00  0.00     0.035 A 
ATOM      4  C   UNK d   1      14.236   3.922  11.267  0.00  0.00     0.024 A 
ATOM      5  C   UNK d   1      14.066   4.960  12.164  0.00  0.00     0.073 A 
ATOM      6  N   UNK d   1      12.844   5.520  12.350  0.00  0.00    -0.207 NA
ATOM      7  C   UNK d   1      11.753   5.103  11.685  0.00  0.00     0.327 A 
ATOM      8  N   UNK d   1      11.917   4.093  10.813  0.00  0.00    -0.206 NA
ATOM      9  C   UNK d   1      13.114   3.501  10.591  0.00  0.00     0.085 A 
ATOM     10  C   UNK d   1      15.181   5.397  12.844  0.00  0.00     0.034 A 
ATOM     11  C   UNK d   1      16.441   4.840  12.659  0.00  0.00     0.021 A 
ENDROOT
BRANCH   7  12
ATOM     12  N   UNK d   1      10.486   5.714  11.907  0.00  0.00    -0.004 N 
ATOM     13  C   UNK d   1      10.119   5.655  13.304  0.00  0.00     0.265 C 
ATOM     14  C   UNK d   1       9.050   6.670  13.558  0.00  0.00     0.154 C 
ATOM     15  N   UNK d   1       8.502   7.094  12.285  0.00  0.00    -0.349 N 
ATOM     16  C   UNK d   1       8.212   6.058  11.309  0.00  0.00     0.154 C 
ATOM     17  C   UNK d   1       8.281   8.462  12.059  0.00  0.00     0.219 C 
ATOM     18  C   UNK d   1       9.416   5.123  11.147  0.00  0.00     0.265 C 
ATOM     19  O   UNK d   1       7.809   8.805  10.947  0.00  0.00    -0.273 OA
ATOM     20  H   UNK d   1      10.571   6.710  11.614  0.00  0.00     0.290 HD
BRANCH  17  21
ATOM     21  C   UNK d   1       8.581   9.484  13.064  0.00  0.00     0.103 C 
BRANCH  21  22
ATOM     22  C   UNK d   1       7.391  10.382  13.250  0.00  0.00     0.020 C 
BRANCH  22  23
ATOM     23  C   UNK d   1       6.317   9.753  14.109  0.00  0.00     0.113 C 
BRANCH  23  24
ATOM     24  C   UNK d   1       4.969  10.290  13.837  0.00  0.00     0.172 C 
ATOM     25  O   UNK d   1       4.184   9.570  13.174  0.00  0.00    -0.648 OA
ATOM     26  O   UNK d   1       4.611  11.544  14.307  0.00  0.00    -0.648 OA
ENDBRANCH  23  24
ENDBRANCH  22  23
ENDBRANCH  21  22
ENDBRANCH  17  21
ENDBRANCH   7  12
BRANCH   9  27
ATOM     27  C   UNK d   1      13.235   2.412   9.633  0.00  0.00     0.015 A 
ATOM     28  C   UNK d   1      12.250   1.446   9.494  0.00  0.00     0.046 A 
ATOM     29  C   UNK d   1      12.362   0.396   8.601  0.00  0.00     0.025 A 
ATOM     30 Cl   UNK d   1      10.803   1.550  10.485  0.00  0.00    -0.083 Cl
ATOM     31  C   UNK d   1      13.524   0.332   7.822  0.00  0.00     0.002 A 
ATOM     32  C   UNK d   1      14.522   1.276   7.936  0.00  0.00     0.001 A 
ATOM     33  C   UNK d   1      14.369   2.290   8.827  0.00  0.00     0.015 A 
ENDBRANCH   9  27
TORSDOF 6
ENDMDL
