MODEL 1
REMARK VINA RESULT:    -9.133      0.000      0.000
REMARK INTER + INTRA:         -11.148
REMARK INTER:                 -10.734
REMARK INTRA:                  -0.414
REMARK UNBOUND:                -0.414
REMARK  3 active torsions:
REMARK  status: ('A' for Active; 'I' for Inactive)
REMARK    1  A    between atoms: C_7  and  C_9 
REMARK       I    between atoms: C_9  and  N_11 
REMARK       I    between atoms: N_14  and  C_17 
REMARK    2  A    between atoms: C_17  and  C_19 
REMARK    3  A    between atoms: C_19  and  N_20 
ROOT
ATOM      1  C   UNK d   1      12.395   3.525  11.175  0.00  0.00     0.270 C 
ATOM      2  O   UNK d   1      13.259   3.343  12.115  0.00  0.00    -0.266 OA
ATOM      3  N   UNK d   1      11.867   4.813  11.080  0.00  0.00    -0.344 N 
ATOM      4  C   UNK d   1      10.882   5.265  10.134  0.00  0.00     0.146 C 
ATOM      5  C   UNK d   1      10.492   6.731  10.361  0.00  0.00     0.145 C 
ATOM      6  N   UNK d   1      10.212   6.921  11.776  0.00  0.00    -0.348 N 
ATOM      7  C   UNK d   1      11.100   6.330  12.779  0.00  0.00     0.145 C 
ATOM      8  C   UNK d   1      12.344   5.864  12.018  0.00  0.00     0.146 C 
ATOM      9  C   UNK d   1       9.093   7.667  12.207  0.00  0.00     0.248 C 
ATOM     10  O   UNK d   1       8.353   8.153  11.319  0.00  0.00    -0.271 OA
ENDROOT
BRANCH   1  11
ATOM     11  C   UNK d   1      12.057   2.402  10.323  0.00  0.00     0.102 A 
ATOM     12  N   UNK d   1      12.779   1.685   9.457  0.00  0.00    -0.351 N 
ATOM     13  C   UNK d   1      12.018   0.713   8.864  0.00  0.00     0.043 A 
ATOM     14  H   UNK d   1      13.776   1.793   9.223  0.00  0.00     0.166 HD
ATOM     15  C   UNK d   1      10.747   0.797   9.363  0.00  0.00    -0.006 A 
ATOM     16  C   UNK d   1      12.308  -0.256   7.922  0.00  0.00     0.031 A 
ATOM     17  C   UNK d   1       9.767  -0.093   8.915  0.00  0.00     0.032 A 
ATOM     18  C   UNK d   1      10.762   1.829  10.258  0.00  0.00     0.049 A 
ATOM     19  C   UNK d   1      10.045  -1.056   7.981  0.00  0.00     0.011 A 
ATOM     20 Br   UNK d   1       8.707  -2.282   7.358  0.00  0.00    -0.051 Br
ATOM     21  C   UNK d   1      11.327  -1.134   7.483  0.00  0.00     0.021 A 
ENDBRANCH   1  11
BRANCH   9  22
ATOM     22  C   UNK d   1       8.851   7.833  13.631  0.00  0.00     0.374 C 
BRANCH  22  23
ATOM     23  N   UNK d   1       7.460   7.969  14.004  0.00  0.00     0.101 N 
ATOM     24  C   UNK d   1       7.382   8.414  15.397  0.00  0.00     0.299 C 
ATOM     25  C   UNK d   1       7.171   7.262  16.317  0.00  0.00     0.198 C 
ATOM     26  O   UNK d   1       7.850   6.135  15.861  0.00  0.00    -0.388 OA
ATOM     27  C   UNK d   1       7.264   5.627  14.699  0.00  0.00     0.198 C 
ATOM     28  C   UNK d   1       6.707   6.738  13.838  0.00  0.00     0.299 C 
ENDBRANCH  22  23
ENDBRANCH   9  22
TORSDOF 3
ENDMDL
