/Users/jonathanwahrer/Desktop/Msc/3_Semester/Drug_Design_Praktikum/waehrer_HTS_screening/HTS_experiment/out/docking_results/vina_output/2jam/0617_docked.pdbqt
 OpenBabel03162217463D

 25 28  0  0  0  0  0  0  0  0999 V2000
   10.2070   -1.2690    8.7470 Br  0  0  0  0  0  0  0  0  0  0  0  0
   11.1310    0.3340    9.1880 C   0  0  0  0  0  0  0  0  0  0  0  0
   10.4540    1.4650    9.5950 C   0  0  0  0  0  3  0  0  0  0  0  0
   11.1090    2.6360    9.9190 C   0  0  0  0  0  0  0  0  0  0  0  0
   12.4880    2.6560    9.8260 C   0  0  0  0  0  0  0  0  0  0  0  0
   12.8550    3.8970   10.1930 N   0  0  0  0  0  0  0  0  0  0  0  0
   11.7730    4.6510   10.5100 C   0  0  0  0  0  0  0  0  0  0  0  0
   10.6530    3.8650   10.3420 C   0  0  0  0  0  0  0  0  0  0  0  0
    9.4460    4.4060   10.5990 N   0  0  0  0  0  0  0  0  0  0  0  0
    9.3060    5.6800   11.0130 C   0  0  0  0  0  3  0  0  0  0  0  0
   10.3770    6.4660   11.1860 N   0  0  0  0  0  0  0  0  0  0  0  0
   11.5880    5.9480   10.9340 C   0  0  0  0  0  0  0  0  0  0  0  0
   12.6040    6.6710   11.0900 O   0  0  0  0  0  0  0  0  0  0  0  0
   13.1540    1.5160    9.4170 C   0  0  0  0  0  3  0  0  0  0  0  0
   12.5070    0.3410    9.0900 C   0  0  0  0  0  3  0  0  0  0  0  0
   13.8270    4.2560   10.2360 H   0  0  0  0  0  0  0  0  0  0  0  0
   10.2320    7.8610   11.6360 C   0  0  0  0  0  2  0  0  0  0  0  0
    9.6910    7.9070   13.0130 C   0  0  0  0  0  2  0  0  0  0  0  0
    8.3800    8.4230   13.1690 N   0  0  0  0  0  0  0  0  0  0  0  0
    7.5490    7.7160   14.0810 C   0  0  0  0  0  2  0  0  0  0  0  0
    6.6450    6.7170   13.4170 C   0  0  0  0  0  2  0  0  0  0  0  0
    6.1460    7.1820   12.1400 N   0  0  0  0  0  0  0  0  0  0  0  0
    6.3040    8.6200   12.0050 C   0  0  0  0  0  2  0  0  0  0  0  0
    6.5870    6.6810   11.3350 H   0  0  0  0  0  0  0  0  0  0  0  0
    7.7890    8.8850   11.9650 C   0  0  0  0  0  2  0  0  0  0  0  0
  1  2  1  0  0  0  0
  2  3  1  0  0  0  0
  3  4  2  0  0  0  0
  4  8  1  0  0  0  0
  5  4  1  0  0  0  0
  5  6  1  0  0  0  0
  6 16  1  0  0  0  0
  6  7  1  0  0  0  0
  7 12  1  0  0  0  0
  8  7  2  0  0  0  0
  8  9  1  0  0  0  0
  9 10  2  0  0  0  0
 10 11  1  0  0  0  0
 11 17  1  0  0  0  0
 12 13  2  0  0  0  0
 12 11  1  0  0  0  0
 14  5  2  0  0  0  0
 15  2  2  0  0  0  0
 15 14  1  0  0  0  0
 17 18  1  0  0  0  0
 18 19  1  0  0  0  0
 19 20  1  0  0  0  0
 21 20  1  0  0  0  0
 22 21  1  0  0  0  0
 23 22  1  0  0  0  0
 24 22  1  0  0  0  0
 25 23  1  0  0  0  0
 25 19  1  0  0  0  0
M  END
>  <Pose>
1

>  <Score>
-7.782

$$$$
