MODEL 1
REMARK VINA RESULT:    -8.204      0.000      0.000
REMARK INTER + INTRA:          -8.936
REMARK INTER:                  -8.683
REMARK INTRA:                  -0.253
REMARK UNBOUND:                -0.253
REMARK  1 active torsions:
REMARK  status: ('A' for Active; 'I' for Inactive)
REMARK    1  A    between atoms: C_10  and  C_15 
REMARK       I    between atoms: C_15  and  N_17 
ROOT
ATOM      1 Br   UNK d   1       9.436  -1.674   7.962  0.00  0.00    -0.051 Br
ATOM      2  C   UNK d   1      10.849  -0.452   8.333  0.00  0.00     0.012 A 
ATOM      3  C   UNK d   1      12.063  -0.624   7.702  0.00  0.00     0.028 A 
ATOM      4  C   UNK d   1      13.122   0.258   7.955  0.00  0.00    -0.027 A 
ATOM      5  C   UNK d   1      12.914   1.274   8.830  0.00  0.00     0.055 A 
ATOM      6  C   UNK d   1      11.721   1.487   9.484  0.00  0.00     0.044 A 
ATOM      7  C   UNK d   1      10.700   0.611   9.221  0.00  0.00     0.037 A 
ATOM      8  C   UNK d   1      11.650   2.552  10.341  0.00  0.00     0.201 A 
ATOM      9  O   UNK d   1      10.579   2.756  10.937  0.00  0.00    -0.286 OA
ATOM     10  C   UNK d   1      12.720   3.405  10.566  0.00  0.00     0.098 A 
ATOM     11  C   UNK d   1      13.885   3.137   9.881  0.00  0.00     0.112 A 
ATOM     12  N   UNK d   1      13.967   2.072   9.020  0.00  0.00    -0.354 N 
ATOM     13  C   UNK d   1      15.041   1.572   8.191  0.00  0.00     0.133 A 
ATOM     14  C   UNK d   1      14.509   0.364   7.470  0.00  0.00     0.061 A 
ENDROOT
BRANCH  10  15
ATOM     15  C   UNK d   1      12.628   4.537  11.483  0.00  0.00     0.259 C 
ATOM     16  O   UNK d   1      13.142   4.444  12.621  0.00  0.00    -0.267 OA
ATOM     17  N   UNK d   1      11.958   5.744  11.094  0.00  0.00    -0.344 N 
ATOM     18  C   UNK d   1      11.852   6.880  11.983  0.00  0.00     0.152 C 
ATOM     19  C   UNK d   1      11.355   5.874   9.782  0.00  0.00     0.152 C 
ATOM     20  C   UNK d   1      10.357   7.219  12.062  0.00  0.00     0.187 C 
ATOM     21  O   UNK d   1       9.860   7.378  10.791  0.00  0.00    -0.388 OA
ATOM     22  C   UNK d   1       9.886   6.230  10.026  0.00  0.00     0.187 C 
ENDBRANCH  10  15
TORSDOF 1
ENDMDL
