/Users/jonathanwahrer/Desktop/Msc/3_Semester/Drug_Design_Praktikum/waehrer_HTS_screening/HTS_experiment/out/docking_results/vina_output/2jam/0625_docked.pdbqt
 OpenBabel03162217473D

 31 34  0  0  0  0  0  0  0  0999 V2000
   10.0440   -1.1420    8.4150 Br  0  0  0  0  0  0  0  0  0  0  0  0
   11.4790   -0.0530    8.9690 C   0  0  0  0  0  0  0  0  0  0  0  0
   11.3530    0.8140   10.0420 C   0  0  0  0  0  3  0  0  0  0  0  0
   12.3710    1.6250   10.4520 C   0  0  0  0  0  0  0  0  0  0  0  0
   12.4470    2.4870   11.5100 N   0  0  0  0  0  0  0  0  0  0  0  0
   13.6940    2.9880   11.5260 C   0  0  0  0  0  0  0  0  0  0  0  0
   14.4240    2.4530   10.4300 C   0  0  0  0  0  0  0  0  0  0  0  0
   13.5530    1.6010    9.8000 C   0  0  0  0  0  0  0  0  0  0  0  0
   13.7060    0.7340    8.7150 C   0  0  0  0  0  3  0  0  0  0  0  0
   12.6810   -0.0980    8.2890 C   0  0  0  0  0  0  0  0  0  0  0  0
   11.2300    2.9480   12.2070 C   0  0  0  0  0  2  0  0  0  0  0  0
   10.9410    4.3520   11.6280 C   0  0  0  0  0  0  0  0  0  0  0  0
   10.7800    5.3430   12.5520 C   0  0  0  0  0  3  0  0  0  0  0  0
   10.5260    6.6490   12.1000 C   0  0  0  0  0  3  0  0  0  0  0  0
   10.4410    6.9690   10.7780 C   0  0  0  0  0  3  0  0  0  0  0  0
   10.6170    5.9220    9.8730 C   0  0  0  0  0  3  0  0  0  0  0  0
   10.8650    4.6150   10.3090 C   0  0  0  0  0  3  0  0  0  0  0  0
   14.3300    3.8760   12.4990 C   0  0  0  0  0  2  0  0  0  0  0  0
   14.1940    5.2910   12.3370 N   0  0  0  0  0  4  0  0  0  0  0  0
   14.1870    6.0560   11.2180 C   0  0  0  0  0  2  0  0  0  0  0  0
   14.8390    7.4140   11.5740 C   0  0  0  0  0  2  0  0  0  0  0  0
   14.5500    7.4630   13.0720 C   0  0  0  0  0  2  0  0  0  0  0  0
   14.8840    6.0180   13.4160 C   0  0  0  0  0  2  0  0  0  0  0  0
   13.1100    5.4070   12.7870 H   0  0  0  0  0  0  0  0  0  0  0  0
   15.7500    2.8560    9.9430 C   0  0  0  0  0  0  0  0  0  0  0  0
   16.1090    2.4170    8.8170 O   0  0  0  0  0  0  0  0  0  0  0  0
   16.6170    3.6700   10.5920 O   0  0  0  0  0  0  0  0  0  0  0  0
   17.7440    3.4050   11.3470 C   0  0  0  0  0  2  0  0  0  0  0  0
   18.0500    4.4450   12.4170 C   0  0  0  0  0  1  0  0  0  0  0  0
   12.8070   -0.9870    7.2070 O   0  0  0  0  0  0  0  0  0  0  0  0
   12.5100   -0.6790    6.2690 H   0  0  0  0  0  0  0  0  0  0  0  0
  1  2  1  0  0  0  0
  2  3  1  0  0  0  0
  3  4  2  0  0  0  0
  4  5  1  0  0  0  0
  5  6  1  0  0  0  0
  5 11  1  0  0  0  0
  6 18  1  0  0  0  0
  7  6  2  0  0  0  0
  8  7  1  0  0  0  0
  8  4  1  0  0  0  0
  9  8  2  0  0  0  0
 10  9  1  0  0  0  0
 10  2  2  0  0  0  0
 12 11  1  0  0  0  0
 12 13  1  0  0  0  0
 14 13  2  0  0  0  0
 15 14  1  0  0  0  0
 16 17  1  0  0  0  0
 16 15  2  0  0  0  0
 17 12  2  0  0  0  0
 19 18  1  0  0  0  0
 19 24  1  0  0  0  0
 19 23  1  0  0  0  0
 20 21  1  0  0  0  0
 20 19  1  0  0  0  0
 21 22  1  0  0  0  0
 22 23  1  0  0  0  0
 25  7  1  0  0  0  0
 25 27  1  0  0  0  0
 26 25  2  0  0  0  0
 27 28  1  0  0  0  0
 28 29  1  0  0  0  0
 30 10  1  0  0  0  0
 31 30  1  0  0  0  0
M  END
>  <Pose>
1

>  <Score>
-7.417

$$$$
