/Users/jonathanwahrer/Desktop/Msc/3_Semester/Drug_Design_Praktikum/waehrer_HTS_screening/HTS_experiment/out/docking_results/vina_output/2jam/0626_docked.pdbqt
 OpenBabel03162217473D

 32 35  0  0  0  0  0  0  0  0999 V2000
   11.5500    3.1630   11.0050 N   0  0  0  0  0  0  0  0  0  0  0  0
   11.2710    4.4910   10.6550 C   0  0  0  0  0  0  0  0  0  0  0  0
   10.8110    4.7610    9.5170 O   0  0  0  0  0  0  0  0  0  0  0  0
   11.9190    3.0320   11.9960 H   0  0  0  0  0  0  0  0  0  0  0  0
   11.4800    5.6340   11.5500 C   0  0  0  0  0  2  0  0  0  0  0  0
   10.4140    6.5350   11.7390 N   0  0  0  0  0  0  0  0  0  0  0  0
    9.2300    6.0560   12.3550 C   0  0  0  0  0  2  0  0  0  0  0  0
    8.0290    6.9620   12.0810 C   0  0  0  0  0  2  0  0  0  0  0  0
    8.3730    8.2650   12.4640 N   0  0  0  0  0  0  0  0  0  0  0  0
    9.7010    8.5290   12.8580 C   0  0  0  0  0  2  0  0  0  0  0  0
   10.7830    7.8740   12.0530 C   0  0  0  0  0  2  0  0  0  0  0  0
    7.5580    9.2920   11.9960 C   0  0  0  0  0  2  0  0  0  0  0  0
    6.4050    9.6970   12.8010 C   0  0  0  0  0  0  0  0  0  0  0  0
    6.4280   10.9210   13.2140 O   0  0  0  0  0  0  0  0  0  0  0  0
    5.3030    8.9330   13.1680 N   0  0  0  0  0  0  0  0  0  0  0  0
    5.2220    7.9430   12.8590 H   0  0  0  0  0  0  0  0  0  0  0  0
    4.2050    9.4490   13.9800 C   0  0  0  0  0  3  0  0  0  0  0  0
    2.8090    9.0980   13.6740 C   0  0  0  0  0  2  0  0  0  0  0  0
    3.4810    8.4720   14.8820 C   0  0  0  0  0  2  0  0  0  0  0  0
   11.3820    2.0090   10.2090 C   0  0  0  0  0  0  0  0  0  0  0  0
   12.5040    1.3380    9.7500 C   0  0  0  0  0  0  0  0  0  0  0  0
   14.2200    2.0580   10.2170 Br  0  0  0  0  0  0  0  0  0  0  0  0
   12.4490    0.2000    8.9790 C   0  0  0  0  0  3  0  0  0  0  0  0
   11.2390   -0.3390    8.6160 C   0  0  0  0  0  0  0  0  0  0  0  0
   10.8300   -1.4020    7.8990 N   0  0  0  0  0  0  0  0  0  0  0  0
   10.1200    0.3070    9.0580 C   0  0  0  0  0  0  0  0  0  0  0  0
    9.4850   -1.4580    7.8660 C   0  0  0  0  0  0  0  0  0  0  0  0
    9.0720   -0.3990    8.5840 N   0  0  0  0  0  0  0  0  0  0  0  0
    8.0610   -0.1420    8.7610 H   0  0  0  0  0  0  0  0  0  0  0  0
   10.1700    1.4670    9.8440 C   0  0  0  0  0  3  0  0  0  0  0  0
    8.6970   -2.4260    7.2150 O   0  0  0  0  0  0  0  0  0  0  0  0
    8.3110   -3.1580    7.8260 H   0  0  0  0  0  0  0  0  0  0  0  0
  1  4  1  0  0  0  0
  2  1  1  0  0  0  0
  2  5  1  0  0  0  0
  3  2  2  0  0  0  0
  5  6  1  0  0  0  0
  6 11  1  0  0  0  0
  6  7  1  0  0  0  0
  8  7  1  0  0  0  0
  8  9  1  0  0  0  0
  9 10  1  0  0  0  0
 11 10  1  0  0  0  0
 12  9  1  0  0  0  0
 12 13  1  0  0  0  0
 13 15  1  0  0  0  0
 13 14  2  0  0  0  0
 15 17  1  0  0  0  0
 16 15  1  0  0  0  0
 17 19  1  0  0  0  0
 18 17  1  0  0  0  0
 18 19  1  0  0  0  0
 20  1  1  0  0  0  0
 21 20  2  0  0  0  0
 21 22  1  0  0  0  0
 23 21  1  0  0  0  0
 24 23  2  0  0  0  0
 24 26  1  0  0  0  0
 25 24  1  0  0  0  0
 26 30  2  0  0  0  0
 27 25  2  0  0  0  0
 27 28  1  0  0  0  0
 28 29  1  0  0  0  0
 28 26  1  0  0  0  0
 30 20  1  0  0  0  0
 31 32  1  0  0  0  0
 31 27  1  0  0  0  0
M  END
>  <Pose>
1

>  <Score>
-8.734

$$$$
