MODEL 1
REMARK VINA RESULT:    -8.734      0.000      0.000
REMARK INTER + INTRA:         -12.641
REMARK INTER:                 -12.053
REMARK INTRA:                  -0.588
REMARK UNBOUND:                -0.588
REMARK  7 active torsions:
REMARK  status: ('A' for Active; 'I' for Inactive)
REMARK    1  A    between atoms: C_6  and  O_28 
REMARK    2  A    between atoms: C_10  and  N_11 
REMARK       I    between atoms: N_11  and  C_12 
REMARK    3  A    between atoms: C_12  and  C_14 
REMARK    4  A    between atoms: C_14  and  N_15 
REMARK    5  A    between atoms: N_18  and  C_21 
REMARK    6  A    between atoms: C_21  and  C_22 
REMARK       I    between atoms: C_22  and  N_24 
REMARK    7  A    between atoms: N_24  and  C_25 
ROOT
ATOM      1  N   UNK d   1      11.550   3.163  11.005  0.00  0.00    -0.324 N 
ATOM      2  C   UNK d   1      11.271   4.491  10.655  0.00  0.00     0.239 C 
ATOM      3  O   UNK d   1      10.811   4.761   9.517  0.00  0.00    -0.271 OA
ATOM      4  H   UNK d   1      11.919   3.032  11.996  0.00  0.00     0.169 HD
ENDROOT
BRANCH   2   5
ATOM      5  C   UNK d   1      11.480   5.634  11.550  0.00  0.00     0.220 C 
BRANCH   5   6
ATOM      6  N   UNK d   1      10.414   6.535  11.739  0.00  0.00    -0.401 N 
ATOM      7  C   UNK d   1       9.230   6.056  12.355  0.00  0.00     0.136 C 
ATOM      8  C   UNK d   1       8.029   6.962  12.081  0.00  0.00     0.136 C 
ATOM      9  N   UNK d   1       8.373   8.265  12.464  0.00  0.00    -0.401 N 
ATOM     10  C   UNK d   1       9.701   8.529  12.858  0.00  0.00     0.136 C 
ATOM     11  C   UNK d   1      10.783   7.874  12.053  0.00  0.00     0.136 C 
BRANCH   9  12
ATOM     12  C   UNK d   1       7.558   9.292  11.996  0.00  0.00     0.219 C 
BRANCH  12  13
ATOM     13  C   UNK d   1       6.405   9.697  12.801  0.00  0.00     0.235 C 
ATOM     14  O   UNK d   1       6.428  10.921  13.214  0.00  0.00    -0.272 OA
ATOM     15  N   UNK d   1       5.303   8.933  13.168  0.00  0.00    -0.355 N 
ATOM     16  H   UNK d   1       5.222   7.943  12.859  0.00  0.00     0.162 HD
BRANCH  15  17
ATOM     17  C   UNK d   1       4.205   9.449  13.980  0.00  0.00     0.084 A 
ATOM     18  C   UNK d   1       2.809   9.098  13.674  0.00  0.00     0.027 A 
ATOM     19  C   UNK d   1       3.481   8.472  14.882  0.00  0.00     0.027 A 
ENDBRANCH  15  17
ENDBRANCH  12  13
ENDBRANCH   9  12
ENDBRANCH   5   6
ENDBRANCH   2   5
BRANCH   1  20
ATOM     20  C   UNK d   1      11.382   2.009  10.209  0.00  0.00     0.054 A 
ATOM     21  C   UNK d   1      12.504   1.338   9.750  0.00  0.00     0.040 A 
ATOM     22 Br   UNK d   1      14.220   2.058  10.217  0.00  0.00    -0.049 Br
ATOM     23  C   UNK d   1      12.449   0.200   8.979  0.00  0.00     0.055 A 
ATOM     24  C   UNK d   1      11.239  -0.339   8.616  0.00  0.00     0.089 A 
ATOM     25  N   UNK d   1      10.830  -1.402   7.899  0.00  0.00    -0.207 NA
ATOM     26  C   UNK d   1      10.120   0.307   9.058  0.00  0.00     0.066 A 
ATOM     27  C   UNK d   1       9.485  -1.458   7.866  0.00  0.00     0.244 A 
ATOM     28  N   UNK d   1       9.072  -0.399   8.584  0.00  0.00    -0.319 N 
ATOM     29  H   UNK d   1       8.061  -0.142   8.761  0.00  0.00     0.169 HD
ATOM     30  C   UNK d   1      10.170   1.467   9.844  0.00  0.00     0.063 A 
BRANCH  27  31
ATOM     31  O   UNK d   1       8.697  -2.426   7.215  0.00  0.00    -0.331 OA
ATOM     32  H   UNK d   1       8.311  -3.158   7.826  0.00  0.00     0.221 HD
ENDBRANCH  27  31
ENDBRANCH   1  20
TORSDOF 7
ENDMDL
