MODEL 1
REMARK VINA RESULT:    -8.539      0.000      0.000
REMARK INTER + INTRA:         -12.044
REMARK INTER:                 -11.035
REMARK INTRA:                  -1.010
REMARK UNBOUND:                -1.010
REMARK  5 active torsions:
REMARK  status: ('A' for Active; 'I' for Inactive)
REMARK    1  A    between atoms: C_7  and  N_11 
REMARK    2  A    between atoms: C_13  and  C_17 
REMARK       I    between atoms: C_17  and  N_19 
REMARK    3  A    between atoms: N_19  and  C_20 
REMARK    4  A    between atoms: C_20  and  C_21 
REMARK    5  A    between atoms: C_21  and  C_22 
ROOT
ATOM      1  N   UNK d   1      11.759   5.180  11.644  0.00  0.00    -0.301 N 
ATOM      2  C   UNK d   1      10.546   5.156  12.492  0.00  0.00     0.148 C 
ATOM      3  C   UNK d   1       9.622   6.140  11.793  0.00  0.00     0.105 C 
ATOM      4  C   UNK d   1      10.587   7.158  11.224  0.00  0.00     0.119 C 
ATOM      5  C   UNK d   1      11.933   6.530  11.221  0.00  0.00     0.226 C 
ATOM      6  O   UNK d   1      13.011   7.060  10.916  0.00  0.00    -0.273 OA
ENDROOT
BRANCH   3   7
ATOM      7  C   UNK d   1       8.734   6.660  12.844  0.00  0.00     0.223 C 
ATOM      8  O   UNK d   1       8.150   5.890  13.641  0.00  0.00    -0.273 OA
ATOM      9  N   UNK d   1       8.557   8.068  12.935  0.00  0.00    -0.360 N 
ATOM     10  H   UNK d   1       9.054   8.669  12.249  0.00  0.00     0.162 HD
BRANCH   9  11
ATOM     11  C   UNK d   1       7.709   8.663  13.944  0.00  0.00     0.128 C 
BRANCH  11  12
ATOM     12  C   UNK d   1       6.788   9.724  13.380  0.00  0.00     0.080 C 
BRANCH  12  13
ATOM     13  C   UNK d   1       5.786   9.124  12.478  0.00  0.00     0.052 A 
ATOM     14  N   UNK d   1       6.051   8.736  11.220  0.00  0.00    -0.247 NA
ATOM     15  C   UNK d   1       4.953   8.228  10.657  0.00  0.00     0.207 A 
ATOM     16  N   UNK d   1       3.953   8.291  11.576  0.00  0.00    -0.359 N 
ATOM     17  C   UNK d   1       4.471   8.837  12.680  0.00  0.00     0.116 A 
ATOM     18  H   UNK d   1       2.984   7.953  11.374  0.00  0.00     0.166 HD
ENDBRANCH  12  13
ENDBRANCH  11  12
ENDBRANCH   9  11
ENDBRANCH   3   7
BRANCH   1  19
ATOM     19  C   UNK d   1      12.490   4.010  11.371  0.00  0.00     0.139 A 
ATOM     20  N   UNK d   1      13.747   3.674  11.691  0.00  0.00    -0.261 N 
ATOM     21  N   UNK d   1      14.048   2.459  11.240  0.00  0.00    -0.172 NA
ATOM     22  H   UNK d   1      14.425   4.257  12.220  0.00  0.00     0.191 HD
ATOM     23  C   UNK d   1      12.987   1.940  10.597  0.00  0.00     0.092 A 
ATOM     24  C   UNK d   1      12.777   0.739   9.960  0.00  0.00     0.053 A 
ATOM     25  C   UNK d   1      12.005   2.890  10.666  0.00  0.00     0.040 A 
ATOM     26  C   UNK d   1      11.524   0.526   9.389  0.00  0.00     0.013 A 
ATOM     27 Br   UNK d   1      11.124  -1.111   8.479  0.00  0.00    -0.051 Br
ATOM     28  C   UNK d   1      10.539   1.500   9.469  0.00  0.00     0.020 A 
ATOM     29  C   UNK d   1      10.773   2.691  10.109  0.00  0.00     0.019 A 
ENDBRANCH   1  19
TORSDOF 5
ENDMDL
