MODEL 1
REMARK VINA RESULT:    -8.830      0.000      0.000
REMARK INTER + INTRA:         -11.633
REMARK INTER:                 -10.895
REMARK INTRA:                  -0.739
REMARK UNBOUND:                -0.739
REMARK  4 active torsions:
REMARK  status: ('A' for Active; 'I' for Inactive)
REMARK    1  A    between atoms: N_4  and  C_31 
REMARK    2  A    between atoms: C_6  and  C_7 
REMARK       I    between atoms: C_7  and  N_9 
REMARK       I    between atoms: N_12  and  C_15 
REMARK    3  A    between atoms: C_15  and  C_17 
REMARK    4  A    between atoms: C_20  and  C_22 
REMARK       I    between atoms: C_22  and  N_24 
ROOT
ATOM      1  C   UNK d   1      11.972   3.470  11.404  0.00  0.00     0.275 C 
ATOM      2  O   UNK d   1      12.430   3.224  12.578  0.00  0.00    -0.266 OA
ATOM      3  N   UNK d   1      11.851   4.782  11.032  0.00  0.00    -0.344 N 
ATOM      4  C   UNK d   1      11.349   5.254   9.779  0.00  0.00     0.146 C 
ATOM      5  C   UNK d   1      10.003   5.862   9.999  0.00  0.00     0.145 C 
ATOM      6  N   UNK d   1       9.863   6.375  11.355  0.00  0.00    -0.355 N 
ATOM      7  C   UNK d   1      10.972   6.715  12.183  0.00  0.00     0.145 C 
ATOM      8  C   UNK d   1      12.228   5.884  11.941  0.00  0.00     0.146 C 
ATOM      9  C   UNK d   1       8.501   6.448  11.803  0.00  0.00     0.205 C 
ATOM     10  O   UNK d   1       7.595   5.974  10.998  0.00  0.00    -0.170 OA
ENDROOT
BRANCH   9  11
ATOM     11  C   UNK d   1       8.080   6.992  13.047  0.00  0.00     0.108 A 
ATOM     12  N   UNK d   1       7.811   8.342  13.232  0.00  0.00    -0.269 N 
ATOM     13  N   UNK d   1       7.510   8.563  14.469  0.00  0.00    -0.167 NA
ATOM     14  C   UNK d   1       7.853   9.354  12.203  0.00  0.00     0.180 C 
ATOM     15  C   UNK d   1       7.550   7.443  15.185  0.00  0.00     0.147 A 
ATOM     16  C   UNK d   1       7.918   6.438  14.268  0.00  0.00     0.075 A 
BRANCH  15  17
ATOM     17  C   UNK d   1       7.265   7.233  16.593  0.00  0.00     0.274 C 
ATOM     18  O   UNK d   1       7.966   6.337  17.187  0.00  0.00    -0.266 OA
ATOM     19  N   UNK d   1       6.309   7.912  17.332  0.00  0.00    -0.343 N 
ATOM     20  C   UNK d   1       6.176   7.582  18.755  0.00  0.00     0.152 C 
ATOM     21  C   UNK d   1       5.422   8.901  16.807  0.00  0.00     0.152 C 
ATOM     22  C   UNK d   1       4.712   7.261  18.968  0.00  0.00     0.187 C 
ATOM     23  O   UNK d   1       4.030   8.473  18.754  0.00  0.00    -0.388 OA
ATOM     24  C   UNK d   1       4.034   8.782  17.423  0.00  0.00     0.187 C 
ENDBRANCH  15  17
ENDBRANCH   9  11
BRANCH   1  25
ATOM     25  C   UNK d   1      11.636   2.313  10.614  0.00  0.00     0.163 A 
ATOM     26  C   UNK d   1      12.514   1.419   9.993  0.00  0.00     0.064 A 
ATOM     27 Br   UNK d   1      14.431   1.557  10.071  0.00  0.00    -0.047 Br
ATOM     28  C   UNK d   1      11.781   0.463   9.343  0.00  0.00     0.134 A 
ATOM     29  N   UNK d   1      10.491   0.747   9.550  0.00  0.00    -0.279 N 
ATOM     30  N   UNK d   1      10.404   1.822  10.287  0.00  0.00    -0.166 NA
BRANCH  29  31
ATOM     31  C   UNK d   1       9.424  -0.072   8.989  0.00  0.00     0.146 C 
ATOM     32  C   UNK d   1       9.882  -1.456   8.613  0.00  0.00     0.028 C 
ENDBRANCH  29  31
ENDBRANCH   1  25
TORSDOF 4
ENDMDL
