MODEL 1
REMARK VINA RESULT:    -8.420      0.000      0.000
REMARK INTER + INTRA:         -10.315
REMARK INTER:                  -9.897
REMARK INTRA:                  -0.418
REMARK UNBOUND:                -0.418
REMARK  3 active torsions:
REMARK  status: ('A' for Active; 'I' for Inactive)
REMARK    1  A    between atoms: N_4  and  C_7 
REMARK    2  A    between atoms: C_7  and  N_8 
REMARK    3  A    between atoms: C_10  and  C_13 
ROOT
ATOM      1  C   UNK d   1      11.160   3.835  10.698  0.00  0.00     0.202 A 
ATOM      2  N   UNK d   1      10.469   2.773  10.254  0.00  0.00    -0.142 NA
ATOM      3  N   UNK d   1      11.271   1.957   9.570  0.00  0.00    -0.206 N 
ATOM      4  C   UNK d   1      12.517   2.511   9.573  0.00  0.00     0.170 A 
ATOM      5  N   UNK d   1      12.421   3.660  10.270  0.00  0.00    -0.205 NA
ATOM      6  C   UNK d   1      13.532   1.845   8.922  0.00  0.00     0.078 A 
ATOM      7  C   UNK d   1      13.336   0.641   8.268  0.00  0.00     0.160 A 
ATOM      8  N   UNK d   1      14.499   0.236   7.731  0.00  0.00    -0.261 N 
ATOM      9  N   UNK d   1      15.407   1.150   8.032  0.00  0.00    -0.184 NA
ATOM     10  C   UNK d   1      14.858   2.147   8.757  0.00  0.00     0.158 A 
ATOM     11  N   UNK d   1      12.093   0.134   8.291  0.00  0.00    -0.222 NA
ATOM     12  C   UNK d   1      11.106   0.786   8.928  0.00  0.00     0.239 A 
ATOM     13  H   UNK d   1      14.682  -0.629   7.178  0.00  0.00     0.191 HD
ENDROOT
BRANCH   1  14
ATOM     14  C   UNK d   1      10.628   4.946  11.486  0.00  0.00     0.128 A 
ATOM     15  N   UNK d   1      10.218   6.150  11.053  0.00  0.00    -0.167 NA
ATOM     16  N   UNK d   1       9.799   6.900  12.057  0.00  0.00    -0.261 N 
ATOM     17  C   UNK d   1       9.919   6.206  13.201  0.00  0.00     0.117 A 
ATOM     18  C   UNK d   1      10.444   4.966  12.852  0.00  0.00     0.056 A 
BRANCH  16  19
ATOM     19  C   UNK d   1       9.286   8.267  11.937  0.00  0.00     0.300 C 
BRANCH  19  20
ATOM     20  N   UNK d   1       7.847   8.308  12.091  0.00  0.00    -0.260 N 
ATOM     21  C   UNK d   1       7.167   8.997  13.022  0.00  0.00     0.135 A 
ATOM     22  C   UNK d   1       5.819   8.771  12.829  0.00  0.00     0.047 A 
ATOM     23 Br   UNK d   1       4.396   9.487  13.848  0.00  0.00    -0.048 Br
ATOM     24  C   UNK d   1       5.718   7.923  11.749  0.00  0.00     0.159 A 
ATOM     25  N   UNK d   1       6.978   7.667  11.330  0.00  0.00    -0.182 NA
ENDBRANCH  19  20
ENDBRANCH  16  19
ENDBRANCH   1  14
TORSDOF 3
ENDMDL
