MODEL 1
REMARK VINA RESULT:    -8.338      0.000      0.000
REMARK INTER + INTRA:          -9.817
REMARK INTER:                  -9.312
REMARK INTRA:                  -0.504
REMARK UNBOUND:                -0.504
REMARK  2 active torsions:
REMARK  status: ('A' for Active; 'I' for Inactive)
REMARK    1  A    between atoms: N_4  and  C_7 
REMARK    2  A    between atoms: C_10  and  C_13 
REMARK       I    between atoms: C_13  and  N_15 
ROOT
ATOM      1  C   UNK d   1       9.451   8.175  12.505  0.00  0.00     0.253 C 
ATOM      2  O   UNK d   1      10.368   8.845  13.128  0.00  0.00    -0.267 OA
ATOM      3  N   UNK d   1       8.208   8.780  12.435  0.00  0.00    -0.348 N 
ATOM      4  C   UNK d   1       6.987   8.375  11.793  0.00  0.00     0.129 C 
ATOM      5  C   UNK d   1       6.092   7.786  12.867  0.00  0.00     0.061 C 
ATOM      6  C   UNK d   1       6.238   8.563  14.159  0.00  0.00     0.118 C 
ATOM      7  N   UNK d   1       4.922   8.655  14.753  0.00  0.00    -0.324 N 
ATOM      8  C   UNK d   1       4.701   7.473  15.508  0.00  0.00     0.323 C 
ATOM      9  O   UNK d   1       3.590   6.983  15.893  0.00  0.00    -0.247 OA
ATOM     10  N   UNK d   1       5.995   6.908  15.773  0.00  0.00    -0.277 N 
ATOM     11  C   UNK d   1       6.975   7.773  15.162  0.00  0.00     0.254 C 
ATOM     12  O   UNK d   1       8.186   7.794  15.473  0.00  0.00    -0.270 OA
ATOM     13  C   UNK d   1       6.768   9.948  13.967  0.00  0.00     0.061 C 
ATOM     14  C   UNK d   1       8.033  10.062  13.186  0.00  0.00     0.129 C 
ATOM     15  H   UNK d   1       4.230   9.425  14.670  0.00  0.00     0.165 HD
ATOM     16  H   UNK d   1       6.238   6.040  16.299  0.00  0.00     0.173 HD
ENDROOT
BRANCH   1  17
ATOM     17  C   UNK d   1       9.895   6.901  11.986  0.00  0.00     0.032 A 
ATOM     18  C   UNK d   1      10.137   6.765  10.604  0.00  0.00     0.019 A 
ATOM     19  C   UNK d   1      10.595   5.603  10.043  0.00  0.00     0.032 A 
ATOM     20  C   UNK d   1      10.853   4.484  10.797  0.00  0.00     0.058 A 
ATOM     21  C   UNK d   1      10.628   4.589  12.143  0.00  0.00     0.032 A 
ATOM     22  C   UNK d   1      10.159   5.775  12.730  0.00  0.00     0.019 A 
BRANCH  20  23
ATOM     23  N   UNK d   1      11.328   3.293  10.188  0.00  0.00    -0.244 N 
ATOM     24  C   UNK d   1      10.636   2.191   9.847  0.00  0.00     0.139 A 
ATOM     25  C   UNK d   1      11.492   1.271   9.281  0.00  0.00     0.047 A 
ATOM     26 Br   UNK d   1      11.048  -0.479   8.611  0.00  0.00    -0.048 Br
ATOM     27  C   UNK d   1      12.733   1.867   9.297  0.00  0.00     0.159 A 
ATOM     28  N   UNK d   1      12.580   3.070   9.848  0.00  0.00    -0.179 NA
ENDBRANCH  20  23
ENDBRANCH   1  17
TORSDOF 2
ENDMDL
