MODEL 1
REMARK VINA RESULT:    -8.455      0.000      0.000
REMARK INTER + INTRA:         -11.487
REMARK INTER:                 -10.432
REMARK INTRA:                  -1.055
REMARK UNBOUND:                -1.055
REMARK  4 active torsions:
REMARK  status: ('A' for Active; 'I' for Inactive)
REMARK    1  A    between atoms: C_5  and  N_8 
REMARK    2  A    between atoms: N_8  and  C_9 
REMARK    3  A    between atoms: C_10  and  N_22 
REMARK    4  A    between atoms: N_13  and  C_16 
ROOT
ATOM      1  C   UNK d   1      12.855   4.122  11.736  0.00  0.00     0.136 A 
ATOM      2  C   UNK d   1      11.659   4.423  11.324  0.00  0.00     0.140 A 
ATOM      3  C   UNK d   1      11.282   3.397  10.350  0.00  0.00     0.285 A 
ATOM      4  O   UNK d   1      10.169   3.377   9.738  0.00  0.00    -0.265 OA
ATOM      5  N   UNK d   1      12.331   2.432  10.186  0.00  0.00    -0.241 N 
ATOM      6  C   UNK d   1      13.349   2.890  11.075  0.00  0.00     0.284 A 
ATOM      7  O   UNK d   1      14.467   2.342  11.264  0.00  0.00    -0.265 OA
ENDROOT
BRANCH   1   8
ATOM      8  N   UNK d   1      13.668   4.797  12.678  0.00  0.00    -0.335 N 
ATOM      9  H   UNK d   1      13.552   4.636  13.678  0.00  0.00     0.168 HD
BRANCH   8  10
ATOM     10  C   UNK d   1      14.642   5.700  12.192  0.00  0.00     0.127 A 
ATOM     11  N   UNK d   1      15.948   5.338  12.072  0.00  0.00    -0.242 NA
ATOM     12  C   UNK d   1      16.908   6.158  11.633  0.00  0.00     0.138 A 
ATOM     13  C   UNK d   1      16.622   7.448  11.269  0.00  0.00     0.028 A 
ATOM     14 Br   UNK d   1      17.973   8.650  10.648  0.00  0.00    -0.050 Br
ATOM     15  C   UNK d   1      15.320   7.882  11.364  0.00  0.00     0.024 A 
ATOM     16  C   UNK d   1      14.359   7.018  11.815  0.00  0.00     0.052 A 
ENDBRANCH   8  10
ENDBRANCH   1   8
BRANCH   2  17
ATOM     17  N   UNK d   1      10.829   5.518  11.717  0.00  0.00    -0.326 N 
ATOM     18  C   UNK d   1      10.108   5.440  12.850  0.00  0.00     0.097 A 
ATOM     19  C   UNK d   1       9.275   6.495  13.262  0.00  0.00     0.018 A 
ATOM     20  C   UNK d   1       9.187   7.641  12.494  0.00  0.00     0.003 A 
ATOM     21  C   UNK d   1       9.935   7.697  11.338  0.00  0.00     0.018 A 
ATOM     22  C   UNK d   1      10.736   6.647  10.973  0.00  0.00     0.097 A 
ENDBRANCH   2  17
BRANCH   5  23
ATOM     23  C   UNK d   1      12.342   1.302   9.329  0.00  0.00     0.046 A 
ATOM     24  C   UNK d   1      13.282   1.105   8.350  0.00  0.00     0.030 A 
ATOM     25  C   UNK d   1      13.271  -0.040   7.527  0.00  0.00     0.002 A 
ATOM     26  C   UNK d   1      12.303  -1.005   7.687  0.00  0.00     0.000 A 
ATOM     27  C   UNK d   1      11.361  -0.813   8.665  0.00  0.00     0.002 A 
ATOM     28  C   UNK d   1      11.387   0.326   9.471  0.00  0.00     0.030 A 
ENDBRANCH   5  23
TORSDOF 4
ENDMDL
