MODEL 1
REMARK VINA RESULT:    -8.419      0.000      0.000
REMARK INTER + INTRA:         -10.344
REMARK INTER:                  -9.895
REMARK INTRA:                  -0.449
REMARK UNBOUND:                -0.449
REMARK  3 active torsions:
REMARK  status: ('A' for Active; 'I' for Inactive)
REMARK    1  A    between atoms: C_5  and  N_8 
REMARK    2  A    between atoms: C_10  and  C_12 
REMARK    3  A    between atoms: C_12  and  N_13 
ROOT
ATOM      1  C   UNK d   1      13.138   3.569  10.340  0.00  0.00     0.160 C 
ENDROOT
BRANCH   1   2
ATOM      2  C   UNK d   1      11.765   4.122  10.562  0.00  0.00     0.043 C 
ATOM      3  C   UNK d   1      11.561   4.878  11.859  0.00  0.00     0.149 C 
ATOM      4  N   UNK d   1      10.642   5.688  11.112  0.00  0.00    -0.213 N 
ATOM      5  C   UNK d   1      11.534   5.520  10.000  0.00  0.00     0.149 C 
BRANCH   4   6
ATOM      6  C   UNK d   1       9.431   6.339  11.368  0.00  0.00     0.724 A 
ATOM      7  N   UNK d   1       8.245   5.705  11.494  0.00  0.00    -0.074 NA
ATOM      8  C   UNK d   1       7.086   6.302  11.738  0.00  0.00     0.157 A 
ATOM      9  C   UNK d   1       7.045   7.671  11.881  0.00  0.00     0.047 A 
ATOM     10 Br   UNK d   1       5.388   8.561  12.232  0.00  0.00    -0.048 Br
ATOM     11  C   UNK d   1       8.236   8.354  11.759  0.00  0.00     0.157 A 
ATOM     12  N   UNK d   1       9.383   7.697  11.512  0.00  0.00    -0.074 NA
ENDBRANCH   4   6
ENDBRANCH   1   2
BRANCH   1  13
ATOM     13  N   UNK d   1      13.013   2.383   9.534  0.00  0.00    -0.257 N 
ATOM     14  N   UNK d   1      11.810   1.678   9.498  0.00  0.00    -0.296 N 
ATOM     15  C   UNK d   1      11.639   0.503   8.717  0.00  0.00     0.051 A 
ATOM     16  H   UNK d   1      11.013   2.060  10.086  0.00  0.00     0.187 HD
ATOM     17  C   UNK d   1      10.479  -0.126   8.719  0.00  0.00    -0.051 A 
ATOM     18  C   UNK d   1      12.734  -0.010   7.918  0.00  0.00     0.036 A 
ATOM     19  C   UNK d   1       9.073  -0.360   9.102  0.00  0.00     0.041 A 
ATOM     20  C   UNK d   1       9.690  -1.302   8.181  0.00  0.00     0.041 A 
ATOM     21  C   UNK d   1      13.886   0.642   7.937  0.00  0.00     0.078 A 
ATOM     22  C   UNK d   1      14.073   1.866   8.744  0.00  0.00     0.262 A 
ATOM     23  O   UNK d   1      15.180   2.468   8.745  0.00  0.00    -0.267 OA
ENDBRANCH   1  13
TORSDOF 3
ENDMDL
