MODEL 1
REMARK VINA RESULT:    -5.285      0.000      0.000
REMARK INTER + INTRA:          -5.630
REMARK INTER:                  -5.594
REMARK INTRA:                  -0.036
REMARK UNBOUND:                -0.036
REMARK  2 active torsions:
REMARK  status: ('A' for Active; 'I' for Inactive)
REMARK    1  A    between atoms: C_6  and  C_8 
REMARK    2  A    between atoms: C_21  and  N_22 
ROOT
ATOM      1 Br   UNK d   1      13.496   2.150  10.991  0.00  0.00    -0.050 Br
ATOM      2  C   UNK d   1      12.831   1.084   9.580  0.00  0.00     0.029 A 
ATOM      3  C   UNK d   1      13.652   0.770   8.509  0.00  0.00     0.135 A 
ATOM      4  N   UNK d   1      13.134   0.010   7.533  0.00  0.00    -0.271 NA
ATOM      5  C   UNK d   1      11.877  -0.460   7.535  0.00  0.00     0.134 A 
ATOM      6  C   UNK d   1      11.071  -0.144   8.600  0.00  0.00     0.059 A 
ATOM      7  C   UNK d   1      11.529   0.636   9.649  0.00  0.00     0.040 A 
ENDROOT
BRANCH   6   8
ATOM      8  C   UNK d   1       9.702  -0.635   8.638  0.00  0.00     0.210 C 
ATOM      9  O   UNK d   1       8.842  -0.080   9.378  0.00  0.00    -0.644 OA
ATOM     10  O   UNK d   1       9.303  -1.717   7.875  0.00  0.00    -0.644 OA
ENDBRANCH   6   8
TORSDOF 2
ENDMDL
