MODEL 1
REMARK VINA RESULT:    -5.260      0.000      0.000
REMARK INTER + INTRA:          -5.603
REMARK INTER:                  -5.567
REMARK INTRA:                  -0.036
REMARK UNBOUND:                -0.036
REMARK  2 active torsions:
REMARK  status: ('A' for Active; 'I' for Inactive)
REMARK    1  A    between atoms: C_6  and  C_8 
REMARK    2  A    between atoms: C_20  and  N_21 
ROOT
ATOM      1 Br   UNK d   1      13.385   2.320  10.994  0.00  0.00    -0.050 Br
ATOM      2  C   UNK d   1      12.759   1.213   9.575  0.00  0.00     0.029 A 
ATOM      3  C   UNK d   1      13.551   0.887   8.496  0.00  0.00     0.135 A 
ATOM      4  N   UNK d   1      13.116   0.107   7.491  0.00  0.00    -0.271 NA
ATOM      5  C   UNK d   1      11.864  -0.371   7.543  0.00  0.00     0.134 A 
ATOM      6  C   UNK d   1      11.009  -0.092   8.586  0.00  0.00     0.059 A 
ATOM      7  C   UNK d   1      11.478   0.706   9.596  0.00  0.00     0.040 A 
ENDROOT
BRANCH   6   8
ATOM      8  C   UNK d   1       9.651  -0.619   8.627  0.00  0.00     0.210 C 
ATOM      9  O   UNK d   1       8.802  -0.088   9.384  0.00  0.00    -0.644 OA
ATOM     10  O   UNK d   1       9.341  -1.702   7.818  0.00  0.00    -0.644 OA
ENDBRANCH   6   8
TORSDOF 2
ENDMDL
