/Users/jonathanwahrer/Desktop/Msc/3_Semester/Drug_Design_Praktikum/waehrer_HTS_screening/HTS_experiment/out/docking_results/vina_output/2jam/0684_docked.pdbqt
 OpenBabel03162217493D

 10 10  0  0  0  0  0  0  0  0999 V2000
   13.3850    2.3200   10.9940 Br  0  0  0  0  0  0  0  0  0  0  0  0
   12.7590    1.2130    9.5750 C   0  0  0  0  0  0  0  0  0  0  0  0
   13.5510    0.8870    8.4960 C   0  0  0  0  0  3  0  0  0  0  0  0
   13.1160    0.1070    7.4910 N   0  0  0  0  0  0  0  0  0  0  0  0
   11.8640   -0.3710    7.5430 C   0  0  0  0  0  3  0  0  0  0  0  0
   11.0090   -0.0920    8.5860 C   0  0  0  0  0  0  0  0  0  0  0  0
   11.4780    0.7060    9.5960 C   0  0  0  0  0  3  0  0  0  0  0  0
    9.6510   -0.6190    8.6270 C   0  0  0  0  0  0  0  0  0  0  0  0
    8.8020   -0.0880    9.3840 O   0  0  0  0  0  1  0  0  0  0  0  0
    9.3410   -1.7020    7.8180 O   0  0  0  0  0  0  0  0  0  0  0  0
  2  7  1  0  0  0  0
  2  1  1  0  0  0  0
  3  2  2  0  0  0  0
  4  5  2  0  0  0  0
  4  3  1  0  0  0  0
  5  6  1  0  0  0  0
  6  8  1  0  0  0  0
  6  7  2  0  0  0  0
  8  9  1  0  0  0  0
 10  8  2  0  0  0  0
M  END
>  <Pose>
1

>  <Score>
-5.260

$$$$
