MODEL 1
REMARK VINA RESULT:    -7.280      0.000      0.000
REMARK INTER + INTRA:         -10.106
REMARK INTER:                  -8.982
REMARK INTRA:                  -1.124
REMARK UNBOUND:                -1.124
REMARK  4 active torsions:
REMARK  status: ('A' for Active; 'I' for Inactive)
REMARK    1  A    between atoms: C_11  and  C_14 
REMARK    2  A    between atoms: C_11  and  C_21 
REMARK    3  A    between atoms: C_14  and  N_15 
REMARK    4  A    between atoms: C_21  and  N_22 
ROOT
ATOM      1 Br   UNK d   1       8.316   6.732  16.638  0.00  0.00    -0.048 Br
ATOM      2  C   UNK d   1       7.963   7.223  14.837  0.00  0.00     0.046 A 
ATOM      3  C   UNK d   1       8.848   6.846  13.844  0.00  0.00     0.100 A 
ATOM      4  C   UNK d   1       8.648   7.177  12.495  0.00  0.00     0.047 A 
ATOM      5  C   UNK d   1       7.535   7.900  12.144  0.00  0.00     0.037 A 
ATOM      6  C   UNK d   1       6.647   8.280  13.131  0.00  0.00     0.013 A 
ATOM      7  C   UNK d   1       6.843   7.955  14.456  0.00  0.00     0.041 A 
ATOM      8 Br   UNK d   1       5.094   9.282  12.679  0.00  0.00    -0.051 Br
ATOM      9  C   UNK d   1       9.617   6.769  11.486  0.00  0.00     0.176 C 
ATOM     10  O   UNK d   1       9.623   7.449  10.423  0.00  0.00    -0.291 OA
ATOM     11  C   UNK d   1      10.528   5.647  11.682  0.00  0.00     0.095 C 
ATOM     12  C   UNK d   1      10.383   5.143  13.143  0.00  0.00     0.197 C 
ATOM     13  O   UNK d   1      10.007   6.118  14.045  0.00  0.00    -0.347 OA
ENDROOT
BRANCH  11  14
ATOM     14  C   UNK d   1      10.320   4.450  10.874  0.00  0.00     0.256 C 
BRANCH  14  15
ATOM     15  N   UNK d   1      11.204   3.392  10.710  0.00  0.00    -0.070 N 
ATOM     16  C   UNK d   1      12.327   3.503   9.832  0.00  0.00     0.235 C 
ATOM     17  C   UNK d   1      13.375   2.482  10.345  0.00  0.00     0.028 C 
ATOM     18  C   UNK d   1      12.828   1.126   9.953  0.00  0.00     0.003 C 
ATOM     19  C   UNK d   1      11.351   1.187   9.631  0.00  0.00     0.028 C 
ATOM     20  C   UNK d   1      10.599   2.073  10.601  0.00  0.00     0.235 C 
ATOM     21  H   UNK d   1      11.694   3.325  11.677  0.00  0.00     0.279 HD
ENDBRANCH  14  15
ENDBRANCH  11  14
BRANCH  11  22
ATOM     22  C   UNK d   1      11.947   6.160  11.489  0.00  0.00     0.256 C 
BRANCH  22  23
ATOM     23  N   UNK d   1      12.655   6.338  12.732  0.00  0.00    -0.070 N 
ATOM     24  C   UNK d   1      12.941   7.758  12.883  0.00  0.00     0.235 C 
ATOM     25  C   UNK d   1      13.652   8.244  11.664  0.00  0.00     0.028 C 
ATOM     26  C   UNK d   1      14.866   7.476  11.291  0.00  0.00     0.003 C 
ATOM     27  C   UNK d   1      14.806   6.012  11.557  0.00  0.00     0.028 C 
ATOM     28  C   UNK d   1      13.960   5.703  12.772  0.00  0.00     0.235 C 
ATOM     29  H   UNK d   1      12.121   5.961  13.535  0.00  0.00     0.279 HD
ENDBRANCH  22  23
ENDBRANCH  11  22
TORSDOF 4
ENDMDL
