MODEL 1
REMARK VINA RESULT:    -9.951      0.000      0.000
REMARK INTER + INTRA:         -12.816
REMARK INTER:                 -12.277
REMARK INTRA:                  -0.539
REMARK UNBOUND:                -0.539
REMARK  4 active torsions:
REMARK  status: ('A' for Active; 'I' for Inactive)
REMARK    1  A    between atoms: N_10  and  N_11 
REMARK       I    between atoms: N_11  and  C_12 
REMARK    2  A    between atoms: C_12  and  C_14 
REMARK    3  A    between atoms: C_14  and  N_15 
REMARK       I    between atoms: N_15  and  C_16 
REMARK    4  A    between atoms: C_16  and  C_18 
ROOT
ATOM      1  N   UNK d   1      10.122   5.792  11.958  0.00  0.00    -0.245 N 
ATOM      2  C   UNK d   1       8.964   6.598  11.885  0.00  0.00     0.255 C 
ATOM      3  O   UNK d   1       7.949   6.195  11.279  0.00  0.00    -0.270 OA
ATOM      4  H   UNK d   1      11.003   6.063  12.445  0.00  0.00     0.192 HD
ENDROOT
BRANCH   2   5
ATOM      5  C   UNK d   1       8.891   7.953  12.517  0.00  0.00     0.227 C 
BRANCH   5   6
ATOM      6  N   UNK d   1       7.540   8.329  12.829  0.00  0.00    -0.350 N 
ATOM      7  C   UNK d   1       7.104   9.681  12.871  0.00  0.00     0.249 C 
ATOM      8  O   UNK d   1       7.936  10.580  12.623  0.00  0.00    -0.271 OA
ATOM      9  H   UNK d   1       6.811   7.608  13.041  0.00  0.00     0.163 HD
BRANCH   7  10
ATOM     10  C   UNK d   1       5.704  10.086  13.197  0.00  0.00     0.244 C 
ATOM     11  O   UNK d   1       5.582  10.524  14.518  0.00  0.00    -0.331 OA
ATOM     12  C   UNK d   1       4.914   9.834  15.527  0.00  0.00     0.103 A 
ATOM     13  C   UNK d   1       4.023   8.870  15.136  0.00  0.00     0.102 A 
ATOM     14  C   UNK d   1       5.111  10.081  16.853  0.00  0.00     0.040 A 
ATOM     15  C   UNK d   1       3.339   8.164  16.125  0.00  0.00     0.039 A 
ATOM     16  O   UNK d   1       3.828   8.626  13.805  0.00  0.00    -0.345 OA
ATOM     17  C   UNK d   1       3.527   8.402  17.468  0.00  0.00     0.003 A 
ATOM     18  C   UNK d   1       4.434   9.382  17.824  0.00  0.00     0.003 A 
ATOM     19  C   UNK d   1       4.704   9.058  12.800  0.00  0.00     0.218 C 
ENDBRANCH   7  10
ENDBRANCH   5   6
ENDBRANCH   2   5
BRANCH   1  20
ATOM     20  N   UNK d   1      10.092   4.542  11.332  0.00  0.00    -0.166 NA
ATOM     21  C   UNK d   1      11.138   3.983  10.849  0.00  0.00     0.157 A 
ATOM     22  C   UNK d   1      11.292   2.703  10.173  0.00  0.00     0.029 A 
ATOM     23  C   UNK d   1      12.480   4.573  10.890  0.00  0.00     0.277 A 
ATOM     24  C   UNK d   1      12.611   2.487   9.811  0.00  0.00     0.065 A 
ATOM     25  C   UNK d   1      10.394   1.712   9.842  0.00  0.00     0.035 A 
ATOM     26  C   UNK d   1      13.015   1.344   9.152  0.00  0.00     0.040 A 
ATOM     27  N   UNK d   1      13.326   3.636  10.253  0.00  0.00    -0.320 N 
ATOM     28 Br   UNK d   1      14.841   1.062   8.656  0.00  0.00    -0.049 Br
ATOM     29  C   UNK d   1      12.082   0.357   8.831  0.00  0.00     0.040 A 
ATOM     30  C   UNK d   1      10.759   0.558   9.187  0.00  0.00     0.013 A 
ATOM     31 Br   UNK d   1       9.461  -0.778   8.756  0.00  0.00    -0.051 Br
ATOM     32  H   UNK d   1      14.344   3.766  10.124  0.00  0.00     0.169 HD
ATOM     33  O   UNK d   1      12.740   5.693  11.406  0.00  0.00    -0.266 OA
ENDBRANCH   1  20
TORSDOF 4
ENDMDL
