/Users/jonathanwahrer/Desktop/Msc/3_Semester/Drug_Design_Praktikum/waehrer_HTS_screening/HTS_experiment/out/docking_results/vina_output/2jam/0693_docked.pdbqt
 OpenBabel03162217493D

 33 36  0  0  0  0  0  0  0  0999 V2000
   10.1220    5.7920   11.9580 N   0  0  0  0  0  0  0  0  0  0  0  0
    8.9640    6.5980   11.8850 C   0  0  0  0  0  0  0  0  0  0  0  0
    7.9490    6.1950   11.2790 O   0  0  0  0  0  0  0  0  0  0  0  0
   11.0030    6.0630   12.4450 H   0  0  0  0  0  0  0  0  0  0  0  0
    8.8910    7.9530   12.5170 C   0  0  0  0  0  2  0  0  0  0  0  0
    7.5400    8.3290   12.8290 N   0  0  0  0  0  0  0  0  0  0  0  0
    7.1040    9.6810   12.8710 C   0  0  0  0  0  0  0  0  0  0  0  0
    7.9360   10.5800   12.6230 O   0  0  0  0  0  0  0  0  0  0  0  0
    6.8110    7.6080   13.0410 H   0  0  0  0  0  0  0  0  0  0  0  0
    5.7040   10.0860   13.1970 C   0  0  0  0  0  0  0  0  0  0  0  0
    5.5820   10.5240   14.5180 O   0  0  0  0  0  0  0  0  0  0  0  0
    4.9140    9.8340   15.5270 C   0  0  0  0  0  0  0  0  0  0  0  0
    4.0230    8.8700   15.1360 C   0  0  0  0  0  0  0  0  0  0  0  0
    5.1110   10.0810   16.8530 C   0  0  0  0  0  3  0  0  0  0  0  0
    3.3390    8.1640   16.1250 C   0  0  0  0  0  3  0  0  0  0  0  0
    3.8280    8.6260   13.8050 O   0  0  0  0  0  0  0  0  0  0  0  0
    3.5270    8.4020   17.4680 C   0  0  0  0  0  3  0  0  0  0  0  0
    4.4340    9.3820   17.8240 C   0  0  0  0  0  3  0  0  0  0  0  0
    4.7040    9.0580   12.8000 C   0  0  0  0  0  3  0  0  0  0  0  0
   10.0920    4.5420   11.3320 N   0  0  0  0  0  0  0  0  0  0  0  0
   11.1380    3.9830   10.8490 C   0  0  0  0  0  0  0  0  0  0  0  0
   11.2920    2.7030   10.1730 C   0  0  0  0  0  0  0  0  0  0  0  0
   12.4800    4.5730   10.8900 C   0  0  0  0  0  0  0  0  0  0  0  0
   12.6110    2.4870    9.8110 C   0  0  0  0  0  0  0  0  0  0  0  0
   10.3940    1.7120    9.8420 C   0  0  0  0  0  3  0  0  0  0  0  0
   13.0150    1.3440    9.1520 C   0  0  0  0  0  0  0  0  0  0  0  0
   13.3260    3.6360   10.2530 N   0  0  0  0  0  0  0  0  0  0  0  0
   14.8410    1.0620    8.6560 Br  0  0  0  0  0  0  0  0  0  0  0  0
   12.0820    0.3570    8.8310 C   0  0  0  0  0  3  0  0  0  0  0  0
   10.7590    0.5580    9.1870 C   0  0  0  0  0  0  0  0  0  0  0  0
    9.4610   -0.7780    8.7560 Br  0  0  0  0  0  0  0  0  0  0  0  0
   14.3440    3.7660   10.1240 H   0  0  0  0  0  0  0  0  0  0  0  0
   12.7400    5.6930   11.4060 O   0  0  0  0  0  0  0  0  0  0  0  0
  1  4  1  0  0  0  0
  2  1  1  0  0  0  0
  2  5  1  0  0  0  0
  3  2  2  0  0  0  0
  5  6  1  0  0  0  0
  6  7  1  0  0  0  0
  6  9  1  0  0  0  0
  7 10  1  0  0  0  0
  8  7  2  0  0  0  0
 10 11  1  0  0  0  0
 11 12  1  0  0  0  0
 12 14  1  0  0  0  0
 13 12  2  0  0  0  0
 13 15  1  0  0  0  0
 14 18  2  0  0  0  0
 15 17  2  0  0  0  0
 16 13  1  0  0  0  0
 17 18  1  0  0  0  0
 19 10  2  0  0  0  0
 19 16  1  0  0  0  0
 20  1  1  0  0  0  0
 21 23  1  0  0  0  0
 21 20  2  0  0  0  0
 22 21  1  0  0  0  0
 23 33  2  0  0  0  0
 24 22  2  0  0  0  0
 24 27  1  0  0  0  0
 25 22  1  0  0  0  0
 26 24  1  0  0  0  0
 27 23  1  0  0  0  0
 28 26  1  0  0  0  0
 29 26  2  0  0  0  0
 29 30  1  0  0  0  0
 30 25  2  0  0  0  0
 31 30  1  0  0  0  0
 32 27  1  0  0  0  0
M  END
>  <Pose>
1

>  <Score>
-9.951

$$$$
