/Users/jonathanwahrer/Desktop/Msc/3_Semester/Drug_Design_Praktikum/waehrer_HTS_screening/HTS_experiment/out/docking_results/vina_output/2jam/0699_docked.pdbqt
 OpenBabel03162217503D

 32 35  0  0  1  0  0  0  0  0999 V2000
   11.4920    6.1740   11.7870 C   0  0  2  0  0  3  0  0  0  0  0  0
   12.2350    5.4130   10.7190 C   0  0  0  0  0  2  0  0  0  0  0  0
   12.6150    4.1210   11.1540 O   0  0  0  0  0  0  0  0  0  0  0  0
   12.0620    3.0270   10.4920 C   0  0  0  0  0  0  0  0  0  0  0  0
   12.8320    2.1710    9.7300 C   0  0  0  0  0  0  0  0  0  0  0  0
   14.6970    2.5240    9.6020 Br  0  0  0  0  0  0  0  0  0  0  0  0
   12.3030    1.0810    9.0660 C   0  0  0  0  0  0  0  0  0  0  0  0
   10.9550    0.8010    9.1410 C   0  0  0  0  0  0  0  0  0  0  0  0
   13.0800    0.2270    8.3040 C   0  0  0  0  0  3  0  0  0  0  0  0
   10.1770    1.6510    9.9000 C   0  0  0  0  0  3  0  0  0  0  0  0
   10.4250   -0.2920    8.4750 C   0  0  0  0  0  3  0  0  0  0  0  0
   10.7130    2.7380   10.5610 C   0  0  0  0  0  3  0  0  0  0  0  0
   11.2020   -1.1430    7.7160 C   0  0  0  0  0  3  0  0  0  0  0  0
   12.5520   -0.8630    7.6400 C   0  0  0  0  0  3  0  0  0  0  0  0
   11.5220    5.5560   13.0100 O   0  0  0  0  0  0  0  0  0  0  0  0
   12.4130    5.3660   13.3550 H   0  0  0  0  0  0  0  0  0  0  0  0
   10.1050    6.4920   11.3460 C   0  0  0  0  0  2  0  0  0  0  0  0
    9.2490    6.9760   12.4060 N   0  0  0  0  0  4  0  0  0  0  0  0
    7.9020    6.5320   12.0950 C   0  0  0  0  0  2  0  0  0  0  0  0
    6.8550    7.1910   13.0050 C   0  0  0  0  0  2  0  0  0  0  0  0
    6.9590    8.6000   12.8740 N   0  0  0  0  0  0  0  0  0  0  0  0
    8.0440    9.0620   11.9840 C   0  0  0  0  0  2  0  0  0  0  0  0
    6.1310    9.5350   13.5070 C   0  0  0  0  0  0  0  0  0  0  0  0
    9.3200    8.4300   12.4320 C   0  0  0  0  0  2  0  0  0  0  0  0
    6.4420   10.7880   13.2160 O   0  0  0  0  0  0  0  0  0  0  0  0
    9.4950    6.6050   13.3480 H   0  0  0  0  0  0  0  0  0  0  0  0
    5.0270    9.3910   14.3990 C   0  0  0  0  0  0  0  0  0  0  0  0
    3.7260    9.1470   14.0600 C   0  0  0  0  0  3  0  0  0  0  0  0
    2.6960    9.0190   14.9820 C   0  0  0  0  0  3  0  0  0  0  0  0
    2.9520    9.1350   16.3110 C   0  0  0  0  0  3  0  0  0  0  0  0
    4.2570    9.3820   16.6860 C   0  0  0  0  0  3  0  0  0  0  0  0
    5.2750    9.5100   15.7750 C   0  0  0  0  0  3  0  0  0  0  0  0
  1  2  1  6  0  0  0
  1 15  1  0  0  0  0
  2  3  1  0  0  0  0
  4 12  1  0  0  0  0
  4  3  1  0  0  0  0
  5  4  2  0  0  0  0
  6  5  1  0  0  0  0
  7  8  1  0  0  0  0
  7  5  1  0  0  0  0
  8 10  1  0  0  0  0
  9  7  2  0  0  0  0
 10 12  2  0  0  0  0
 11  8  2  0  0  0  0
 13 11  1  0  0  0  0
 14 13  2  0  0  0  0
 14  9  1  0  0  0  0
 15 16  1  0  0  0  0
 17  1  1  0  0  0  0
 17 18  1  0  0  0  0
 18 24  1  0  0  0  0
 18 26  1  0  0  0  0
 19 18  1  0  0  0  0
 19 20  1  0  0  0  0
 21 20  1  0  0  0  0
 21 23  1  0  0  0  0
 22 24  1  0  0  0  0
 22 21  1  0  0  0  0
 23 27  1  0  0  0  0
 25 23  2  0  0  0  0
 27 32  1  0  0  0  0
 28 27  2  0  0  0  0
 28 29  1  0  0  0  0
 29 30  2  0  0  0  0
 30 31  1  0  0  0  0
 32 31  2  0  0  0  0
M  END
>  <Pose>
1

>  <Score>
-9.317

$$$$
