MODEL 1
REMARK VINA RESULT:    -9.317      0.000      0.000
REMARK INTER + INTRA:         -13.639
REMARK INTER:                 -12.857
REMARK INTRA:                  -0.783
REMARK UNBOUND:                -0.783
REMARK  7 active torsions:
REMARK  status: ('A' for Active; 'I' for Inactive)
REMARK    1  A    between atoms: C_7  and  O_8 
REMARK    2  A    between atoms: O_8  and  C_9 
REMARK    3  A    between atoms: C_9  and  C_10 
REMARK    4  A    between atoms: C_10  and  O_11 
REMARK    5  A    between atoms: C_10  and  C_12 
REMARK    6  A    between atoms: C_12  and  N_13 
REMARK       I    between atoms: N_16  and  C_19 
REMARK    7  A    between atoms: C_19  and  C_21 
ROOT
ATOM      1  C   UNK d   1      11.492   6.174  11.787  0.00  0.00     0.168 C 
ENDROOT
BRANCH   1   2
ATOM      2  C   UNK d   1      12.235   5.413  10.719  0.00  0.00     0.209 C 
BRANCH   2   3
ATOM      3  O   UNK d   1      12.615   4.121  11.154  0.00  0.00    -0.347 OA
BRANCH   3   4
ATOM      4  C   UNK d   1      12.062   3.027  10.492  0.00  0.00     0.087 A 
ATOM      5  C   UNK d   1      12.832   2.171   9.730  0.00  0.00     0.055 A 
ATOM      6 Br   UNK d   1      14.697   2.524   9.602  0.00  0.00    -0.047 Br
ATOM      7  C   UNK d   1      12.303   1.081   9.066  0.00  0.00    -0.006 A 
ATOM      8  C   UNK d   1      10.955   0.801   9.141  0.00  0.00    -0.024 A 
ATOM      9  C   UNK d   1      13.080   0.227   8.304  0.00  0.00     0.014 A 
ATOM     10  C   UNK d   1      10.177   1.651   9.900  0.00  0.00     0.015 A 
ATOM     11  C   UNK d   1      10.425  -0.292   8.475  0.00  0.00     0.012 A 
ATOM     12  C   UNK d   1      10.713   2.738  10.561  0.00  0.00     0.039 A 
ATOM     13  C   UNK d   1      11.202  -1.143   7.716  0.00  0.00     0.001 A 
ATOM     14  C   UNK d   1      12.552  -0.863   7.640  0.00  0.00     0.001 A 
ENDBRANCH   3   4
ENDBRANCH   2   3
ENDBRANCH   1   2
BRANCH   1  15
ATOM     15  O   UNK d   1      11.522   5.556  13.010  0.00  0.00    -0.392 OA
ATOM     16  H   UNK d   1      12.413   5.366  13.355  0.00  0.00     0.210 HD
ENDBRANCH   1  15
BRANCH   1  17
ATOM     17  C   UNK d   1      10.105   6.492  11.346  0.00  0.00     0.268 C 
BRANCH  17  18
ATOM     18  N   UNK d   1       9.249   6.976  12.406  0.00  0.00    -0.066 N 
ATOM     19  C   UNK d   1       7.902   6.532  12.095  0.00  0.00     0.254 C 
ATOM     20  C   UNK d   1       6.855   7.191  13.005  0.00  0.00     0.152 C 
ATOM     21  N   UNK d   1       6.959   8.600  12.874  0.00  0.00    -0.356 N 
ATOM     22  C   UNK d   1       8.044   9.062  11.984  0.00  0.00     0.152 C 
ATOM     23  C   UNK d   1       6.131   9.535  13.507  0.00  0.00     0.187 C 
ATOM     24  C   UNK d   1       9.320   8.430  12.432  0.00  0.00     0.254 C 
ATOM     25  O   UNK d   1       6.442  10.788  13.216  0.00  0.00    -0.171 OA
ATOM     26  H   UNK d   1       9.495   6.605  13.348  0.00  0.00     0.280 HD
BRANCH  23  27
ATOM     27  C   UNK d   1       5.027   9.391  14.399  0.00  0.00     0.018 A 
ATOM     28  C   UNK d   1       3.726   9.147  14.060  0.00  0.00     0.016 A 
ATOM     29  C   UNK d   1       2.696   9.019  14.982  0.00  0.00     0.001 A 
ATOM     30  C   UNK d   1       2.952   9.135  16.311  0.00  0.00     0.000 A 
ATOM     31  C   UNK d   1       4.257   9.382  16.686  0.00  0.00     0.001 A 
ATOM     32  C   UNK d   1       5.275   9.510  15.775  0.00  0.00     0.016 A 
ENDBRANCH  23  27
ENDBRANCH  17  18
ENDBRANCH   1  17
TORSDOF 7
ENDMDL
