MODEL 1
REMARK VINA RESULT:    -8.328      0.000      0.000
REMARK INTER + INTRA:         -10.496
REMARK INTER:                  -9.789
REMARK INTRA:                  -0.707
REMARK UNBOUND:                -0.707
REMARK  3 active torsions:
REMARK  status: ('A' for Active; 'I' for Inactive)
REMARK    1  A    between atoms: N_3  and  C_15 
REMARK    2  A    between atoms: C_15  and  C_16 
REMARK    3  A    between atoms: C_16  and  N_17 
ROOT
ATOM      1  C   UNK d   1      12.763   3.304  11.324  0.00  0.00     0.152 C 
ENDROOT
BRANCH   1   2
ATOM      2  N   UNK d   1      13.082   2.312  10.355  0.00  0.00    -0.316 N 
ATOM      3  C   UNK d   1      14.331   2.110   9.895  0.00  0.00     0.180 A 
ATOM      4 Br   UNK d   1      15.929   3.058  10.413  0.00  0.00    -0.008 Br
ATOM      5  N   UNK d   1      14.254   1.112   8.996  0.00  0.00    -0.203 NA
ATOM      6  C   UNK d   1      12.989   0.688   8.884  0.00  0.00     0.169 A 
ATOM      7  C   UNK d   1      12.240   1.456   9.754  0.00  0.00     0.152 A 
ATOM      8  N   UNK d   1      12.364  -0.256   8.150  0.00  0.00    -0.286 N 
ATOM      9  C   UNK d   1      10.887   1.192   9.802  0.00  0.00     0.282 A 
ATOM     10  N   UNK d   1      10.274   0.249   9.066  0.00  0.00    -0.269 N 
ATOM     11  O   UNK d   1      10.192   1.877  10.580  0.00  0.00    -0.265 OA
ATOM     12  C   UNK d   1      11.034  -0.481   8.229  0.00  0.00     0.332 A 
ATOM     13  C   UNK d   1       8.849  -0.011   9.132  0.00  0.00     0.164 C 
ATOM     14  O   UNK d   1      10.486  -1.378   7.522  0.00  0.00    -0.246 OA
ATOM     15  C   UNK d   1      13.157  -1.057   7.241  0.00  0.00     0.163 C 
ENDBRANCH   1   2
BRANCH   1  16
ATOM     16  C   UNK d   1      12.425   4.661  10.824  0.00  0.00     0.152 C 
BRANCH  16  17
ATOM     17  N   UNK d   1      12.137   5.666  11.791  0.00  0.00    -0.316 N 
ATOM     18  C   UNK d   1      10.897   6.097  12.135  0.00  0.00     0.152 A 
ATOM     19  C   UNK d   1      11.005   7.076  13.091  0.00  0.00     0.169 A 
ATOM     20  C   UNK d   1       9.611   5.761  11.733  0.00  0.00     0.282 A 
ATOM     21  N   UNK d   1      12.324   7.215  13.305  0.00  0.00    -0.203 NA
ATOM     22  N   UNK d   1       9.930   7.705  13.637  0.00  0.00    -0.286 N 
ATOM     23  C   UNK d   1      13.007   6.367  12.523  0.00  0.00     0.180 A 
ATOM     24 Br   UNK d   1      14.920   6.152  12.423  0.00  0.00    -0.008 Br
ATOM     25  C   UNK d   1       8.717   7.324  13.196  0.00  0.00     0.332 A 
ATOM     26  C   UNK d   1      10.082   8.740  14.651  0.00  0.00     0.163 C 
ATOM     27  O   UNK d   1       7.712   7.900  13.695  0.00  0.00    -0.246 OA
ATOM     28  N   UNK d   1       8.552   6.371  12.262  0.00  0.00    -0.269 N 
ATOM     29  C   UNK d   1       7.224   5.997  11.822  0.00  0.00     0.164 C 
ATOM     30  O   UNK d   1       9.525   4.861  10.855  0.00  0.00    -0.265 OA
ENDBRANCH  16  17
ENDBRANCH   1  16
TORSDOF 3
ENDMDL
