MODEL 1
REMARK VINA RESULT:    -8.276      0.000      0.000
REMARK INTER + INTRA:         -10.879
REMARK INTER:                 -10.211
REMARK INTRA:                  -0.667
REMARK UNBOUND:                -0.667
REMARK  4 active torsions:
REMARK  status: ('A' for Active; 'I' for Inactive)
REMARK    1  A    between atoms: N_3  and  C_14 
REMARK    2  A    between atoms: C_14  and  C_15 
REMARK    3  A    between atoms: C_15  and  C_16 
REMARK    4  A    between atoms: C_16  and  N_17 
ROOT
ATOM      1  C   UNK d   1       9.738   7.875  12.742  0.00  0.00     0.041 C 
ENDROOT
BRANCH   1   2
ATOM      2  C   UNK d   1      10.559   7.656  11.504  0.00  0.00     0.133 C 
BRANCH   2   3
ATOM      3  N   UNK d   1      11.415   6.490  11.567  0.00  0.00    -0.318 N 
ATOM      4  C   UNK d   1      12.576   6.411  12.286  0.00  0.00     0.180 A 
ATOM      5 Br   UNK d   1      13.232   7.848  13.349  0.00  0.00    -0.008 Br
ATOM      6  N   UNK d   1      13.143   5.206  12.123  0.00  0.00    -0.203 NA
ATOM      7  C   UNK d   1      12.371   4.469  11.295  0.00  0.00     0.169 A 
ATOM      8  C   UNK d   1      11.305   5.290  10.963  0.00  0.00     0.152 A 
ATOM      9  N   UNK d   1      12.532   3.216  10.837  0.00  0.00    -0.286 N 
ATOM     10  C   UNK d   1      10.365   4.788  10.116  0.00  0.00     0.280 A 
ATOM     11  N   UNK d   1      10.530   3.518   9.654  0.00  0.00    -0.273 N 
ATOM     12  O   UNK d   1       9.384   5.484   9.781  0.00  0.00    -0.265 OA
ATOM     13  C   UNK d   1      11.582   2.754  10.003  0.00  0.00     0.330 A 
ATOM     14  H   UNK d   1       9.786   3.175   9.009  0.00  0.00     0.173 HD
ATOM     15  O   UNK d   1      11.688   1.569   9.542  0.00  0.00    -0.246 OA
ATOM     16  C   UNK d   1      13.648   2.365  11.190  0.00  0.00     0.163 C 
ENDBRANCH   2   3
ENDBRANCH   1   2
BRANCH   1  17
ATOM     17  C   UNK d   1       8.641   6.871  12.950  0.00  0.00     0.133 C 
BRANCH  17  18
ATOM     18  N   UNK d   1       7.610   7.431  13.814  0.00  0.00    -0.318 N 
ATOM     19  C   UNK d   1       6.390   7.902  13.469  0.00  0.00     0.152 A 
ATOM     20  C   UNK d   1       5.717   8.343  14.585  0.00  0.00     0.169 A 
ATOM     21  C   UNK d   1       5.756   8.002  12.259  0.00  0.00     0.280 A 
ATOM     22  N   UNK d   1       6.553   8.133  15.619  0.00  0.00    -0.203 NA
ATOM     23  N   UNK d   1       4.477   8.866  14.550  0.00  0.00    -0.286 N 
ATOM     24  C   UNK d   1       7.692   7.583  15.145  0.00  0.00     0.180 A 
ATOM     25 Br   UNK d   1       9.225   7.073  16.165  0.00  0.00    -0.008 Br
ATOM     26  C   UNK d   1       3.889   8.947  13.331  0.00  0.00     0.330 A 
ATOM     27  C   UNK d   1       3.801   9.323  15.762  0.00  0.00     0.163 C 
ATOM     28  O   UNK d   1       2.720   9.438  13.294  0.00  0.00    -0.246 OA
ATOM     29  N   UNK d   1       4.514   8.525  12.212  0.00  0.00    -0.273 N 
ATOM     30  H   UNK d   1       4.013   8.611  11.305  0.00  0.00     0.173 HD
ATOM     31  O   UNK d   1       6.365   7.601  11.237  0.00  0.00    -0.265 OA
ENDBRANCH  17  18
ENDBRANCH   1  17
TORSDOF 4
ENDMDL
