MODEL 1
REMARK VINA RESULT:    -8.250      0.000      0.000
REMARK INTER + INTRA:         -10.687
REMARK INTER:                 -10.180
REMARK INTRA:                  -0.507
REMARK UNBOUND:                -0.507
REMARK  4 active torsions:
REMARK  status: ('A' for Active; 'I' for Inactive)
REMARK    1  A    between atoms: N_3  and  C_14 
REMARK    2  A    between atoms: C_14  and  C_15 
REMARK    3  A    between atoms: C_15  and  C_16 
REMARK    4  A    between atoms: C_16  and  N_17 
ROOT
ATOM      1  C   UNK d   1       9.864   7.734  12.623  0.00  0.00     0.041 C 
ENDROOT
BRANCH   1   2
ATOM      2  C   UNK d   1       8.644   6.870  12.757  0.00  0.00     0.133 C 
BRANCH   2   3
ATOM      3  N   UNK d   1       7.630   7.418  13.634  0.00  0.00    -0.318 N 
ATOM      4  C   UNK d   1       7.751   7.536  14.991  0.00  0.00     0.180 A 
ATOM      5 Br   UNK d   1       9.315   7.002  15.938  0.00  0.00    -0.008 Br
ATOM      6  N   UNK d   1       6.635   8.065  15.513  0.00  0.00    -0.203 NA
ATOM      7  C   UNK d   1       5.758   8.306  14.515  0.00  0.00     0.169 A 
ATOM      8  C   UNK d   1       6.399   7.895  13.358  0.00  0.00     0.152 A 
ATOM      9  N   UNK d   1       4.516   8.820  14.549  0.00  0.00    -0.286 N 
ATOM     10  C   UNK d   1       5.722   8.020  12.184  0.00  0.00     0.280 A 
ATOM     11  N   UNK d   1       4.464   8.541  12.222  0.00  0.00    -0.273 N 
ATOM     12  O   UNK d   1       6.250   7.662  11.111  0.00  0.00    -0.265 OA
ATOM     13  C   UNK d   1       3.878   8.929  13.370  0.00  0.00     0.330 A 
ATOM     14  H   UNK d   1       3.983   8.619  11.301  0.00  0.00     0.173 HD
ATOM     15  O   UNK d   1       2.696   9.412  13.349  0.00  0.00    -0.246 OA
ATOM     16  C   UNK d   1       3.854   9.248  15.763  0.00  0.00     0.163 C 
ENDBRANCH   2   3
ENDBRANCH   1   2
BRANCH   1  17
ATOM     17  C   UNK d   1      10.627   7.545  11.344  0.00  0.00     0.133 C 
BRANCH  17  18
ATOM     18  N   UNK d   1      11.509   6.391  11.455  0.00  0.00    -0.318 N 
ATOM     19  C   UNK d   1      11.391   5.183  10.858  0.00  0.00     0.152 A 
ATOM     20  C   UNK d   1      12.436   4.367  11.223  0.00  0.00     0.169 A 
ATOM     21  C   UNK d   1      10.451   4.675  10.000  0.00  0.00     0.280 A 
ATOM     22  N   UNK d   1      13.195   5.102  12.056  0.00  0.00    -0.203 NA
ATOM     23  N   UNK d   1      12.583   3.103  10.785  0.00  0.00    -0.286 N 
ATOM     24  C   UNK d   1      12.630   6.321  12.191  0.00  0.00     0.180 A 
ATOM     25 Br   UNK d   1      13.278   7.771  13.252  0.00  0.00    -0.008 Br
ATOM     26  C   UNK d   1      11.630   2.641   9.938  0.00  0.00     0.330 A 
ATOM     27  C   UNK d   1      13.711   2.272  11.200  0.00  0.00     0.163 C 
ATOM     28  O   UNK d   1      11.767   1.451   9.521  0.00  0.00    -0.246 OA
ATOM     29  N   UNK d   1      10.589   3.409   9.555  0.00  0.00    -0.273 N 
ATOM     30  H   UNK d   1       9.890   3.002   8.902  0.00  0.00     0.173 HD
ATOM     31  O   UNK d   1       9.495   5.415   9.663  0.00  0.00    -0.265 OA
ENDBRANCH  17  18
ENDBRANCH   1  17
TORSDOF 4
ENDMDL
