MODEL 1
REMARK VINA RESULT:    -8.557      0.000      0.000
REMARK INTER + INTRA:         -11.028
REMARK INTER:                 -10.057
REMARK INTRA:                  -0.971
REMARK UNBOUND:                -0.971
REMARK  3 active torsions:
REMARK  status: ('A' for Active; 'I' for Inactive)
REMARK    1  A    between atoms: N_3  and  C_14 
REMARK    2  A    between atoms: C_14  and  C_15 
REMARK    3  A    between atoms: C_15  and  N_16 
ROOT
ATOM      1  C   UNK d   1      13.877   3.079  11.416  0.00  0.00     0.152 C 
ENDROOT
BRANCH   1   2
ATOM      2  N   UNK d   1      13.502   2.126  10.428  0.00  0.00    -0.316 N 
ATOM      3  C   UNK d   1      14.349   1.528   9.558  0.00  0.00     0.180 A 
ATOM      4 Br   UNK d   1      16.228   1.867   9.537  0.00  0.00    -0.008 Br
ATOM      5  N   UNK d   1      13.656   0.699   8.762  0.00  0.00    -0.203 NA
ATOM      6  C   UNK d   1      12.344   0.736   9.090  0.00  0.00     0.169 A 
ATOM      7  C   UNK d   1      12.270   1.642  10.144  0.00  0.00     0.152 A 
ATOM      8  N   UNK d   1      11.242   0.125   8.620  0.00  0.00    -0.286 N 
ATOM      9  C   UNK d   1      11.015   1.865  10.657  0.00  0.00     0.280 A 
ATOM     10  N   UNK d   1       9.905   1.245  10.179  0.00  0.00    -0.273 N 
ATOM     11  O   UNK d   1      10.931   2.691  11.614  0.00  0.00    -0.265 OA
ATOM     12  C   UNK d   1      10.037   0.377   9.160  0.00  0.00     0.330 A 
ATOM     13  H   UNK d   1       8.980   1.456  10.613  0.00  0.00     0.173 HD
ATOM     14  O   UNK d   1       8.990  -0.197   8.722  0.00  0.00    -0.246 OA
ATOM     15  C   UNK d   1      11.312  -0.818   7.527  0.00  0.00     0.163 C 
ENDBRANCH   1   2
BRANCH   1  16
ATOM     16  C   UNK d   1      14.078   4.481  10.963  0.00  0.00     0.152 C 
BRANCH  16  17
ATOM     17  N   UNK d   1      13.388   5.516  11.648  0.00  0.00    -0.316 N 
ATOM     18  C   UNK d   1      12.219   6.087  11.314  0.00  0.00     0.152 A 
ATOM     19  C   UNK d   1      11.911   7.058  12.244  0.00  0.00     0.169 A 
ATOM     20  C   UNK d   1      11.305   5.906  10.287  0.00  0.00     0.280 A 
ATOM     21  N   UNK d   1      12.933   7.029  13.123  0.00  0.00    -0.203 NA
ATOM     22  N   UNK d   1      10.787   7.765  12.129  0.00  0.00    -0.286 N 
ATOM     23  C   UNK d   1      13.835   6.113  12.792  0.00  0.00     0.180 A 
ATOM     24 Br   UNK d   1      15.467   5.683  13.722  0.00  0.00    -0.008 Br
ATOM     25  C   UNK d   1       9.947   7.544  11.115  0.00  0.00     0.330 A 
ATOM     26  C   UNK d   1      10.453   8.786  13.095  0.00  0.00     0.163 C 
ATOM     27  O   UNK d   1       8.865   8.205  10.978  0.00  0.00    -0.246 OA
ATOM     28  N   UNK d   1      10.176   6.616  10.169  0.00  0.00    -0.273 N 
ATOM     29  H   UNK d   1       9.492   6.466   9.383  0.00  0.00     0.173 HD
ATOM     30  O   UNK d   1      11.525   5.039   9.413  0.00  0.00    -0.265 OA
ENDBRANCH  16  17
ENDBRANCH   1  16
TORSDOF 3
ENDMDL
