/Users/jonathanwahrer/Desktop/Msc/3_Semester/Drug_Design_Praktikum/waehrer_HTS_screening/HTS_experiment/out/docking_results/vina_output/2jam/0709_docked.pdbqt
 OpenBabel03162217513D

 30 33  0  0  0  0  0  0  0  0999 V2000
   13.8770    3.0790   11.4160 C   0  0  0  0  0  2  0  0  0  0  0  0
   13.5020    2.1260   10.4280 N   0  0  0  0  0  0  0  0  0  0  0  0
   14.3490    1.5280    9.5580 C   0  0  0  0  0  0  0  0  0  0  0  0
   16.2280    1.8670    9.5370 Br  0  0  0  0  0  0  0  0  0  0  0  0
   13.6560    0.6990    8.7620 N   0  0  0  0  0  0  0  0  0  0  0  0
   12.3440    0.7360    9.0900 C   0  0  0  0  0  0  0  0  0  0  0  0
   12.2700    1.6420   10.1440 C   0  0  0  0  0  0  0  0  0  0  0  0
   11.2420    0.1250    8.6200 N   0  0  0  0  0  0  0  0  0  0  0  0
   11.0150    1.8650   10.6570 C   0  0  0  0  0  0  0  0  0  0  0  0
    9.9050    1.2450   10.1790 N   0  0  0  0  0  0  0  0  0  0  0  0
   10.9310    2.6910   11.6140 O   0  0  0  0  0  0  0  0  0  0  0  0
   10.0370    0.3770    9.1600 C   0  0  0  0  0  0  0  0  0  0  0  0
    8.9800    1.4560   10.6130 H   0  0  0  0  0  0  0  0  0  0  0  0
    8.9900   -0.1970    8.7220 O   0  0  0  0  0  0  0  0  0  0  0  0
   11.3120   -0.8180    7.5270 C   0  0  0  0  0  1  0  0  0  0  0  0
   14.0780    4.4810   10.9630 C   0  0  0  0  0  2  0  0  0  0  0  0
   13.3880    5.5160   11.6480 N   0  0  0  0  0  0  0  0  0  0  0  0
   12.2190    6.0870   11.3140 C   0  0  0  0  0  0  0  0  0  0  0  0
   11.9110    7.0580   12.2440 C   0  0  0  0  0  0  0  0  0  0  0  0
   11.3050    5.9060   10.2870 C   0  0  0  0  0  0  0  0  0  0  0  0
   12.9330    7.0290   13.1230 N   0  0  0  0  0  0  0  0  0  0  0  0
   10.7870    7.7650   12.1290 N   0  0  0  0  0  0  0  0  0  0  0  0
   13.8350    6.1130   12.7920 C   0  0  0  0  0  0  0  0  0  0  0  0
   15.4670    5.6830   13.7220 Br  0  0  0  0  0  0  0  0  0  0  0  0
    9.9470    7.5440   11.1150 C   0  0  0  0  0  0  0  0  0  0  0  0
   10.4530    8.7860   13.0950 C   0  0  0  0  0  1  0  0  0  0  0  0
    8.8650    8.2050   10.9780 O   0  0  0  0  0  0  0  0  0  0  0  0
   10.1760    6.6160   10.1690 N   0  0  0  0  0  0  0  0  0  0  0  0
    9.4920    6.4660    9.3830 H   0  0  0  0  0  0  0  0  0  0  0  0
   11.5250    5.0390    9.4130 O   0  0  0  0  0  0  0  0  0  0  0  0
  2  1  1  0  0  0  0
  3  2  1  0  0  0  0
  4  3  1  0  0  0  0
  5  6  1  0  0  0  0
  5  3  2  0  0  0  0
  6  7  2  0  0  0  0
  7  2  1  0  0  0  0
  7  9  1  0  0  0  0
  8  6  1  0  0  0  0
  8 12  1  0  0  0  0
  9 11  2  0  0  0  0
 10 13  1  0  0  0  0
 10  9  1  0  0  0  0
 12 10  1  0  0  0  0
 14 12  2  0  0  0  0
 15  8  1  0  0  0  0
 16  1  1  0  0  0  0
 16 17  1  0  0  0  0
 17 23  1  0  0  0  0
 18 17  1  0  0  0  0
 18 19  2  0  0  0  0
 19 21  1  0  0  0  0
 20 18  1  0  0  0  0
 22 19  1  0  0  0  0
 22 26  1  0  0  0  0
 23 21  2  0  0  0  0
 23 24  1  0  0  0  0
 25 22  1  0  0  0  0
 27 25  2  0  0  0  0
 28 20  1  0  0  0  0
 28 25  1  0  0  0  0
 29 28  1  0  0  0  0
 30 20  2  0  0  0  0
M  END
>  <Pose>
1

>  <Score>
-8.557

$$$$
