MODEL 1
REMARK VINA RESULT:    -6.742      0.000      0.000
REMARK INTER + INTRA:          -7.680
REMARK INTER:                  -7.531
REMARK INTRA:                  -0.150
REMARK UNBOUND:                -0.150
REMARK  2 active torsions:
REMARK  status: ('A' for Active; 'I' for Inactive)
REMARK    1  A    between atoms: C_9  and  N_11 
REMARK    2  A    between atoms: C_12  and  C_17 
ROOT
ATOM      1  N   UNK d   1       4.950   8.691  14.746  0.00  0.00    -0.348 N 
ATOM      2  C   UNK d   1       5.486   9.915  15.252  0.00  0.00     0.189 C 
ATOM      3  C   UNK d   1       5.545   9.966  16.730  0.00  0.00     0.201 C 
ATOM      4  O   UNK d   1       4.913   8.965  17.418  0.00  0.00    -0.387 OA
ATOM      5  C   UNK d   1       3.730   8.553  16.815  0.00  0.00     0.187 C 
ATOM      6  C   UNK d   1       3.957   7.954  15.465  0.00  0.00     0.151 C 
ENDROOT
BRANCH   1   7
ATOM      7  C   UNK d   1       5.361   8.145  13.483  0.00  0.00     0.145 A 
ATOM      8  N   UNK d   1       4.705   8.545  12.350  0.00  0.00    -0.223 NA
ATOM      9  C   UNK d   1       5.083   8.107  11.136  0.00  0.00     0.237 A 
ATOM     10  N   UNK d   1       6.120   7.261  11.003  0.00  0.00    -0.222 NA
ATOM     11  C   UNK d   1       6.807   6.826  12.065  0.00  0.00     0.164 A 
ATOM     12  N   UNK d   1       7.849   5.982  12.172  0.00  0.00    -0.255 N 
ATOM     13  C   UNK d   1       6.410   7.284  13.328  0.00  0.00     0.095 A 
ATOM     14  N   UNK d   1       8.117   5.893  13.454  0.00  0.00    -0.163 NA
ATOM     15  C   UNK d   1       8.549   5.297  11.101  0.00  0.00     0.182 C 
ATOM     16  C   UNK d   1       7.279   6.657  14.189  0.00  0.00     0.141 A 
ATOM     17 Br   UNK d   1       7.241   6.833  16.084  0.00  0.00    -0.026 Br
ENDBRANCH   1   7
BRANCH   2  18
ATOM     18  C   UNK d   1       6.766  10.265  14.595  0.00  0.00     0.198 A 
ATOM     19  N   UNK d   1       7.985  10.079  15.104  0.00  0.00    -0.207 NA
ATOM     20  C   UNK d   1       8.865  10.541  14.170  0.00  0.00     0.152 A 
ATOM     21  N   UNK d   1       8.128  10.988  13.138  0.00  0.00    -0.112 NA
ATOM     22  C   UNK d   1      10.343  10.556  14.261  0.00  0.00     0.096 C 
ATOM     23  O   UNK d   1       6.869  10.811  13.418  0.00  0.00    -0.194 OA
ENDBRANCH   2  18
TORSDOF 2
ENDMDL
