/Users/jonathanwahrer/Desktop/Msc/3_Semester/Drug_Design_Praktikum/waehrer_HTS_screening/HTS_experiment/out/docking_results/vina_output/2jam/0727_docked.pdbqt
 OpenBabel03162217513D

 21 24  0  0  0  0  0  0  0  0999 V2000
   15.0680    4.6570   12.8590 Br  0  0  0  0  0  0  0  0  0  0  0  0
   13.6500    5.8340   12.3830 C   0  0  0  0  0  0  0  0  0  0  0  0
   13.4670    7.1010   12.8590 N   0  0  0  0  0  0  0  0  0  0  0  0
   12.4010    7.6130   12.2910 N   0  0  0  0  0  0  0  0  0  0  0  0
   11.8600    6.7210   11.4450 C   0  0  0  0  0  0  0  0  0  0  0  0
   10.7960    6.7440   10.6270 N   0  0  0  0  0  0  0  0  0  0  0  0
   10.4750    5.7030    9.8620 C   0  0  0  0  0  3  0  0  0  0  0  0
   11.2200    4.6020    9.9000 N   0  0  0  0  0  0  0  0  0  0  0  0
   12.3290    4.4730   10.7020 C   0  0  0  0  0  0  0  0  0  0  0  0
   12.6460    5.5570   11.4810 C   0  0  0  0  0  0  0  0  0  0  0  0
   11.8190    8.9480   12.4940 C   0  0  0  0  0  1  0  0  0  0  0  0
   13.0550    3.2830   10.7360 N   0  0  0  0  0  0  0  0  0  0  0  0
   12.5200    2.0950   11.3650 C   0  0  0  0  0  2  0  0  0  0  0  0
   12.1560    1.1070   10.2360 C   0  0  0  0  0  2  0  0  0  0  0  0
   13.1700    1.1960    9.1640 C   0  0  0  0  0  0  0  0  0  0  0  0
   13.2730    0.4000    8.0750 N   0  0  0  0  0  0  0  0  0  0  0  0
   14.1900    2.0960    9.0760 C   0  0  0  0  0  0  0  0  0  0  0  0
   14.3290    0.8200    7.3580 C   0  0  0  0  0  3  0  0  0  0  0  0
   12.4330   -0.7080    7.6980 C   0  0  0  0  0  1  0  0  0  0  0  0
   14.9070    1.8600    7.9550 N   0  0  0  0  0  0  0  0  0  0  0  0
   14.3540    3.1220   10.1350 C   0  0  0  0  0  2  0  0  0  0  0  0
  2  3  2  0  0  0  0
  2  1  1  0  0  0  0
  4 11  1  0  0  0  0
  4  3  1  0  0  0  0
  5 10  1  0  0  0  0
  5  4  1  0  0  0  0
  6  5  2  0  0  0  0
  7  8  2  0  0  0  0
  7  6  1  0  0  0  0
  8  9  1  0  0  0  0
  9 12  1  0  0  0  0
  9 10  2  0  0  0  0
 10  2  1  0  0  0  0
 12 13  1  0  0  0  0
 14 13  1  0  0  0  0
 15 14  1  0  0  0  0
 16 15  1  0  0  0  0
 17 15  2  0  0  0  0
 17 21  1  0  0  0  0
 18 20  2  0  0  0  0
 18 16  1  0  0  0  0
 19 16  1  0  0  0  0
 20 17  1  0  0  0  0
 21 12  1  0  0  0  0
M  END
>  <Pose>
1

>  <Score>
-6.893

$$$$
