MODEL 1
REMARK VINA RESULT:    -6.893      0.000      0.000
REMARK INTER + INTRA:          -7.340
REMARK INTER:                  -7.296
REMARK INTRA:                  -0.044
REMARK UNBOUND:                -0.044
REMARK  1 active torsions:
REMARK  status: ('A' for Active; 'I' for Inactive)
REMARK    1  A    between atoms: C_9  and  N_11 
ROOT
ATOM      1 Br   UNK d   1      15.068   4.657  12.859  0.00  0.00    -0.026 Br
ATOM      2  C   UNK d   1      13.650   5.834  12.383  0.00  0.00     0.141 A 
ATOM      3  N   UNK d   1      13.467   7.101  12.859  0.00  0.00    -0.163 NA
ATOM      4  N   UNK d   1      12.401   7.613  12.291  0.00  0.00    -0.255 N 
ATOM      5  C   UNK d   1      11.860   6.721  11.445  0.00  0.00     0.164 A 
ATOM      6  N   UNK d   1      10.796   6.744  10.627  0.00  0.00    -0.222 NA
ATOM      7  C   UNK d   1      10.475   5.703   9.862  0.00  0.00     0.237 A 
ATOM      8  N   UNK d   1      11.220   4.602   9.900  0.00  0.00    -0.223 NA
ATOM      9  C   UNK d   1      12.329   4.473  10.702  0.00  0.00     0.144 A 
ATOM     10  C   UNK d   1      12.646   5.557  11.481  0.00  0.00     0.095 A 
ATOM     11  C   UNK d   1      11.819   8.948  12.494  0.00  0.00     0.182 C 
ENDROOT
BRANCH   9  12
ATOM     12  N   UNK d   1      13.055   3.283  10.736  0.00  0.00    -0.359 N 
ATOM     13  C   UNK d   1      12.520   2.095  11.365  0.00  0.00     0.131 C 
ATOM     14  C   UNK d   1      12.156   1.107  10.236  0.00  0.00     0.079 C 
ATOM     15  C   UNK d   1      13.170   1.196   9.164  0.00  0.00     0.040 A 
ATOM     16  N   UNK d   1      13.273   0.400   8.075  0.00  0.00    -0.347 N 
ATOM     17  C   UNK d   1      14.190   2.096   9.076  0.00  0.00     0.076 A 
ATOM     18  C   UNK d   1      14.329   0.820   7.358  0.00  0.00     0.209 A 
ATOM     19  C   UNK d   1      12.433  -0.708   7.698  0.00  0.00     0.157 C 
ATOM     20  N   UNK d   1      14.907   1.860   7.955  0.00  0.00    -0.245 NA
ATOM     21  C   UNK d   1      14.354   3.122  10.135  0.00  0.00     0.185 C 
ENDBRANCH   9  12
TORSDOF 1
ENDMDL
