MODEL 1
REMARK VINA RESULT:    -7.880      0.000      0.000
REMARK INTER + INTRA:          -9.808
REMARK INTER:                  -9.262
REMARK INTRA:                  -0.547
REMARK UNBOUND:                -0.547
REMARK  3 active torsions:
REMARK  status: ('A' for Active; 'I' for Inactive)
REMARK    1  A    between atoms: C_9  and  N_11 
REMARK    2  A    between atoms: N_14  and  C_17 
REMARK    3  A    between atoms: C_17  and  C_19 
REMARK       I    between atoms: C_19  and  N_21 
ROOT
ATOM      1  N   UNK d   1       8.675   7.207  12.994  0.00  0.00    -0.362 N 
ATOM      2  C   UNK d   1       9.775   8.064  12.653  0.00  0.00     0.154 C 
ATOM      3  C   UNK d   1      10.505   7.340  11.518  0.00  0.00     0.293 C 
ATOM      4  N   UNK d   1      10.168   5.912  11.508  0.00  0.00     0.103 N 
ATOM      5  C   UNK d   1      10.179   5.397  12.880  0.00  0.00     0.293 C 
ATOM      6  C   UNK d   1       9.013   5.973  13.661  0.00  0.00     0.154 C 
ENDROOT
BRANCH   1   7
ATOM      7  C   UNK d   1       7.355   7.539  12.669  0.00  0.00     0.144 A 
ATOM      8  N   UNK d   1       6.856   7.308  11.431  0.00  0.00    -0.223 NA
ATOM      9  C   UNK d   1       5.619   7.642  11.082  0.00  0.00     0.237 A 
ATOM     10  N   UNK d   1       4.825   8.231  11.980  0.00  0.00    -0.222 NA
ATOM     11  C   UNK d   1       5.229   8.501  13.233  0.00  0.00     0.164 A 
ATOM     12  N   UNK d   1       4.623   9.066  14.295  0.00  0.00    -0.255 N 
ATOM     13  C   UNK d   1       6.525   8.152  13.601  0.00  0.00     0.095 A 
ATOM     14  N   UNK d   1       5.483   9.073  15.278  0.00  0.00    -0.163 NA
ATOM     15  C   UNK d   1       3.251   9.551  14.256  0.00  0.00     0.182 C 
ATOM     16  C   UNK d   1       6.659   8.529  14.917  0.00  0.00     0.141 A 
ATOM     17 Br   UNK d   1       8.216   8.280  15.971  0.00  0.00    -0.026 Br
ENDBRANCH   1   7
BRANCH   4  18
ATOM     18  C   UNK d   1      11.226   5.246  10.763  0.00  0.00     0.296 C 
ATOM     19  C   UNK d   1      11.616   6.194   9.596  0.00  0.00     0.052 C 
BRANCH  18  20
ATOM     20  C   UNK d   1      10.756   3.972  10.192  0.00  0.00     0.186 C 
ATOM     21  O   UNK d   1       9.707   4.102   9.432  0.00  0.00    -0.175 OA
ATOM     22  N   UNK d   1      11.282   2.682  10.368  0.00  0.00    -0.361 N 
ATOM     23  C   UNK d   1      12.393   2.273  11.172  0.00  0.00     0.124 C 
ATOM     24  C   UNK d   1      10.606   1.581   9.643  0.00  0.00     0.124 C 
ATOM     25  C   UNK d   1      13.342   1.314  10.484  0.00  0.00     0.020 C 
ATOM     26  C   UNK d   1      12.683   0.352   9.557  0.00  0.00     0.003 C 
ATOM     27  C   UNK d   1      11.629   1.012   8.694  0.00  0.00     0.020 C 
ENDBRANCH  18  20
ENDBRANCH   4  18
TORSDOF 3
ENDMDL
