/Users/jonathanwahrer/Desktop/Msc/3_Semester/Drug_Design_Praktikum/waehrer_HTS_screening/HTS_experiment/out/docking_results/vina_output/2jam/0737_docked.pdbqt
 OpenBabel03162217513D

 21 24  0  0  1  0  0  0  0  0999 V2000
   11.2190    2.0870    9.8100 C   0  0  2  0  0  3  0  0  0  0  0  0
   10.2400    1.2240    9.6610 C   0  0  0  0  0  3  0  0  0  0  0  0
   10.4150   -0.0200    8.8960 C   0  0  0  0  0  0  0  0  0  0  0  0
    9.4390   -0.8960    8.7370 C   0  0  0  0  0  1  0  0  0  0  0  0
   11.7060   -0.2130    8.3390 N   0  0  0  0  0  0  0  0  0  0  0  0
   12.7630    0.7400    8.5130 C   0  0  0  0  0  0  0  0  0  0  0  0
   12.4920    1.8580    9.2400 N   0  0  0  0  0  0  0  0  0  0  0  0
   13.6270    2.5660    9.2480 N   0  0  0  0  0  0  0  0  0  0  0  0
   14.5920    1.9400    8.5590 C   0  0  0  0  0  3  0  0  0  0  0  0
   14.0420    0.8020    8.1050 N   0  0  0  0  0  0  0  0  0  0  0  0
   11.8940   -1.0760    7.7850 H   0  0  0  0  0  0  0  0  0  0  0  0
   10.9960    3.2620   10.5540 N   0  0  2  0  0  0  0  0  0  0  0  0
   10.2270    4.3150    9.9380 C   0  0  0  0  0  2  0  0  0  0  0  0
    9.5850    5.1680   10.9820 C   0  0  0  0  0  0  0  0  0  0  0  0
   10.1610    5.3360   12.1710 N   0  0  0  0  0  0  0  0  0  0  0  0
    8.4300    5.8840   10.9930 N   0  0  0  0  0  0  0  0  0  0  0  0
    9.4010    6.1370   12.9270 C   0  0  0  0  0  0  0  0  0  0  0  0
   11.4230    4.7040   12.4990 C   0  0  0  0  0  2  0  0  0  0  0  0
    9.7200    6.7280   14.7220 Br  0  0  0  0  0  0  0  0  0  0  0  0
    8.2930    6.4910   12.1850 C   0  0  0  0  0  3  0  0  0  0  0  0
   11.5520    3.3420   11.8840 C   0  0  0  0  0  2  0  0  0  0  0  0
  1  2  1  1  0  0  0
  1 12  1  0  0  0  0
  3  2  2  0  0  0  0
  4  3  1  0  0  0  0
  5  6  1  0  0  0  0
  5  3  1  0  0  0  0
  6  7  1  0  0  0  0
  7  8  1  0  0  0  0
  7  1  1  0  0  0  0
  9  8  2  0  0  0  0
 10  6  2  0  0  0  0
 10  9  1  0  0  0  0
 11  5  1  0  0  0  0
 12 13  1  6  0  0  0
 12 21  1  0  0  0  0
 13 14  1  0  0  0  0
 14 16  2  0  0  0  0
 14 15  1  0  0  0  0
 15 18  1  0  0  0  0
 15 17  1  0  0  0  0
 16 20  1  0  0  0  0
 17 19  1  0  0  0  0
 20 17  2  0  0  0  0
 21 18  1  0  0  0  0
M  END
>  <Pose>
1

>  <Score>
-7.729

$$$$
