MODEL 1
REMARK VINA RESULT:    -7.729      0.000      0.000
REMARK INTER + INTRA:          -8.459
REMARK INTER:                  -8.180
REMARK INTRA:                  -0.279
REMARK UNBOUND:                -0.279
REMARK  1 active torsions:
REMARK  status: ('A' for Active; 'I' for Inactive)
REMARK    1  A    between atoms: N_8  and  C_11 
ROOT
ATOM      1  C   UNK d   1      11.219   2.087   9.810  0.00  0.00     0.148 A 
ATOM      2  C   UNK d   1      10.240   1.224   9.661  0.00  0.00     0.080 A 
ATOM      3  C   UNK d   1      10.415  -0.020   8.896  0.00  0.00     0.043 A 
ATOM      4  C   UNK d   1       9.439  -0.896   8.737  0.00  0.00     0.043 C 
ATOM      5  N   UNK d   1      11.706  -0.213   8.339  0.00  0.00    -0.189 N 
ATOM      6  C   UNK d   1      12.763   0.740   8.513  0.00  0.00     0.730 A 
ATOM      7  N   UNK d   1      12.492   1.858   9.240  0.00  0.00    -0.044 N 
ATOM      8  N   UNK d   1      13.627   2.566   9.248  0.00  0.00    -0.143 NA
ATOM      9  C   UNK d   1      14.592   1.940   8.559  0.00  0.00     0.275 A 
ATOM     10  N   UNK d   1      14.042   0.802   8.105  0.00  0.00    -0.054 NA
ATOM     11  H   UNK d   1      11.894  -1.076   7.785  0.00  0.00     0.184 HD
ENDROOT
BRANCH   1  12
ATOM     12  N   UNK d   1      10.996   3.262  10.554  0.00  0.00    -0.357 N 
ATOM     13  C   UNK d   1      10.227   4.315   9.938  0.00  0.00     0.203 C 
ATOM     14  C   UNK d   1       9.585   5.168  10.982  0.00  0.00     0.124 A 
ATOM     15  N   UNK d   1      10.161   5.336  12.171  0.00  0.00    -0.325 N 
ATOM     16  N   UNK d   1       8.430   5.884  10.993  0.00  0.00    -0.243 NA
ATOM     17  C   UNK d   1       9.401   6.137  12.927  0.00  0.00     0.101 A 
ATOM     18  C   UNK d   1      11.423   4.704  12.499  0.00  0.00     0.151 C 
ATOM     19 Br   UNK d   1       9.720   6.728  14.722  0.00  0.00    -0.029 Br
ATOM     20  C   UNK d   1       8.293   6.491  12.185  0.00  0.00     0.156 A 
ATOM     21  C   UNK d   1      11.552   3.342  11.884  0.00  0.00     0.145 C 
ENDBRANCH   1  12
TORSDOF 1
ENDMDL
