MODEL 1
REMARK VINA RESULT:    -8.490      0.000      0.000
REMARK INTER + INTRA:         -10.536
REMARK INTER:                  -9.979
REMARK INTRA:                  -0.557
REMARK UNBOUND:                -0.557
REMARK  3 active torsions:
REMARK  status: ('A' for Active; 'I' for Inactive)
REMARK    1  A    between atoms: C_4  and  C_7 
REMARK       I    between atoms: C_7  and  N_9 
REMARK    2  A    between atoms: N_9  and  C_10 
REMARK    3  A    between atoms: C_10  and  C_12 
REMARK       I    between atoms: C_12  and  N_14 
ROOT
ATOM      1  C   UNK d   1      10.110   6.099  11.307  0.00  0.00     0.242 C 
ATOM      2  O   UNK d   1       9.824   6.337  10.082  0.00  0.00    -0.271 OA
ATOM      3  N   UNK d   1       9.042   6.037  12.208  0.00  0.00    -0.350 N 
ATOM      4  C   UNK d   1       9.219   5.771  13.621  0.00  0.00     0.129 C 
ATOM      5  C   UNK d   1       8.725   6.964  14.380  0.00  0.00     0.068 C 
ATOM      6  C   UNK d   1       7.339   7.355  13.977  0.00  0.00     0.206 C 
ATOM      7  N   UNK d   1       6.499   7.356  15.161  0.00  0.00     0.099 N 
ATOM      8  C   UNK d   1       6.974   8.404  16.045  0.00  0.00     0.277 C 
ATOM      9  C   UNK d   1       6.369   9.711  15.519  0.00  0.00     0.089 C 
ATOM     10  C   UNK d   1       6.819   9.823  14.111  0.00  0.00     0.039 A 
ATOM     11  N   UNK d   1       6.878  10.907  13.314  0.00  0.00    -0.352 N 
ATOM     12  C   UNK d   1       7.355  10.503  12.126  0.00  0.00     0.207 A 
ATOM     13  N   UNK d   1       7.586   9.179  12.196  0.00  0.00    -0.244 NA
ATOM     14  C   UNK d   1       7.264   8.724  13.418  0.00  0.00     0.097 A 
ATOM     15  C   UNK d   1       6.783   6.334  12.985  0.00  0.00     0.068 C 
ATOM     16  C   UNK d   1       7.666   6.228  11.785  0.00  0.00     0.129 C 
ATOM     17  H   UNK d   1       6.600   6.452  15.702  0.00  0.00     0.317 HD
ATOM     18  H   UNK d   1       6.616  11.903  13.525  0.00  0.00     0.166 HD
ENDROOT
BRANCH   1  19
ATOM     19  C   UNK d   1      11.541   5.920  11.609  0.00  0.00     0.173 C 
ATOM     20  C   UNK d   1      12.386   7.129  11.430  0.00  0.00     0.042 C 
BRANCH  19  21
ATOM     21  N   UNK d   1      12.126   4.825  10.863  0.00  0.00    -0.342 N 
ATOM     22  C   UNK d   1      12.133   3.494  11.319  0.00  0.00     0.276 C 
ATOM     23  O   UNK d   1      11.616   3.218  12.421  0.00  0.00    -0.265 OA
ATOM     24  H   UNK d   1      12.559   5.044   9.943  0.00  0.00     0.163 HD
BRANCH  22  25
ATOM     25  C   UNK d   1      12.737   2.439  10.521  0.00  0.00     0.144 A 
ATOM     26  O   UNK d   1      12.075   1.647   9.676  0.00  0.00    -0.298 OA
ATOM     27  C   UNK d   1      12.892   0.798   9.108  0.00  0.00     0.122 A 
ATOM     28 Br   UNK d   1      12.398  -0.541   7.816  0.00  0.00    -0.023 Br
ATOM     29  C   UNK d   1      14.176   1.014   9.583  0.00  0.00     0.048 A 
ATOM     30  C   UNK d   1      14.058   2.052  10.472  0.00  0.00     0.046 A 
ENDBRANCH  22  25
ENDBRANCH  19  21
ENDBRANCH   1  19
TORSDOF 3
ENDMDL
