MODEL 1
REMARK VINA RESULT:    -7.875      0.000      0.000
REMARK INTER + INTRA:          -9.914
REMARK INTER:                  -9.256
REMARK INTRA:                  -0.658
REMARK UNBOUND:                -0.658
REMARK  3 active torsions:
REMARK  status: ('A' for Active; 'I' for Inactive)
REMARK    1  A    between atoms: C_4  and  C_7 
REMARK       I    between atoms: C_7  and  N_9 
REMARK    2  A    between atoms: N_12  and  C_15 
REMARK    3  A    between atoms: C_17  and  N_22 
ROOT
ATOM      1  C   UNK d   1      13.986   2.651   9.843  0.00  0.00     0.277 C 
ATOM      2  O   UNK d   1      13.958   2.541   8.609  0.00  0.00    -0.265 OA
ATOM      3  N   UNK d   1      12.801   2.458  10.594  0.00  0.00    -0.343 N 
ATOM      4  C   UNK d   1      11.563   2.132   9.916  0.00  0.00     0.146 C 
ATOM      5  C   UNK d   1      10.492   3.168  10.155  0.00  0.00     0.144 C 
ATOM      6  N   UNK d   1      10.763   3.749  11.480  0.00  0.00    -0.362 N 
ATOM      7  C   UNK d   1      11.273   2.855  12.463  0.00  0.00     0.144 C 
ATOM      8  C   UNK d   1      12.725   2.566  12.039  0.00  0.00     0.146 C 
ENDROOT
BRANCH   6   9
ATOM      9  C   UNK d   1      10.489   5.129  11.641  0.00  0.00     0.146 A 
ATOM     10  N   UNK d   1       9.216   5.591  11.777  0.00  0.00    -0.045 NA
ATOM     11  C   UNK d   1       8.942   6.896  11.927  0.00  0.00     0.726 A 
ATOM     12  N   UNK d   1       9.945   7.801  11.948  0.00  0.00    -0.068 NA
ATOM     13  C   UNK d   1      11.233   7.437  11.822  0.00  0.00     0.053 A 
ATOM     14  C   UNK d   1      11.482   6.065  11.665  0.00  0.00     0.078 A 
ATOM     15  C   UNK d   1      12.353   8.416  11.842  0.00  0.00     0.071 C 
BRANCH  11  16
ATOM     16  N   UNK d   1       7.599   7.327  12.066  0.00  0.00    -0.210 N 
ATOM     17  C   UNK d   1       7.231   8.605  12.627  0.00  0.00     0.167 C 
ATOM     18  C   UNK d   1       6.316   9.334  11.690  0.00  0.00     0.188 C 
ATOM     19  O   UNK d   1       5.858   8.537  10.643  0.00  0.00    -0.388 OA
ATOM     20  C   UNK d   1       5.394   7.314  11.121  0.00  0.00     0.188 C 
ATOM     21  C   UNK d   1       6.529   6.457  11.627  0.00  0.00     0.167 C 
ENDBRANCH  11  16
ENDBRANCH   6   9
BRANCH   1  22
ATOM     22  C   UNK d   1      15.266   2.981  10.495  0.00  0.00     0.144 A 
ATOM     23  O   UNK d   1      15.521   3.945  11.327  0.00  0.00    -0.298 OA
ATOM     24  C   UNK d   1      16.749   3.944  11.704  0.00  0.00     0.122 A 
ATOM     25 Br   UNK d   1      17.624   5.162  12.925  0.00  0.00    -0.023 Br
ATOM     26  C   UNK d   1      17.389   2.900  11.084  0.00  0.00     0.048 A 
ATOM     27  C   UNK d   1      16.438   2.284  10.311  0.00  0.00     0.046 A 
ENDBRANCH   1  22
TORSDOF 3
ENDMDL
