MODEL 1
REMARK VINA RESULT:    -8.254      0.000      0.000
REMARK INTER + INTRA:         -10.370
REMARK INTER:                  -9.702
REMARK INTRA:                  -0.669
REMARK UNBOUND:                -0.669
REMARK  3 active torsions:
REMARK  status: ('A' for Active; 'I' for Inactive)
REMARK    1  A    between atoms: C_4  and  C_7 
REMARK       I    between atoms: C_7  and  N_9 
REMARK    2  A    between atoms: N_12  and  C_15 
REMARK    3  A    between atoms: C_19  and  N_21 
ROOT
ATOM      1  C   UNK d   1      11.764   4.649  10.025  0.00  0.00     0.277 C 
ATOM      2  O   UNK d   1      12.420   5.196   9.125  0.00  0.00    -0.265 OA
ATOM      3  N   UNK d   1      11.211   5.408  11.090  0.00  0.00    -0.343 N 
ATOM      4  C   UNK d   1      10.441   4.755  12.146  0.00  0.00     0.146 C 
ATOM      5  C   UNK d   1       9.907   5.801  13.123  0.00  0.00     0.144 C 
ATOM      6  N   UNK d   1       9.263   6.835  12.337  0.00  0.00    -0.363 N 
ATOM      7  C   UNK d   1      10.033   7.518  11.334  0.00  0.00     0.144 C 
ATOM      8  C   UNK d   1      11.374   6.844  11.188  0.00  0.00     0.146 C 
ENDROOT
BRANCH   6   9
ATOM      9  C   UNK d   1       7.888   7.182  12.543  0.00  0.00     0.131 A 
ATOM     10  N   UNK d   1       7.085   7.510  11.521  0.00  0.00    -0.216 NA
ATOM     11  C   UNK d   1       5.805   7.831  11.744  0.00  0.00     0.126 A 
ATOM     12  N   UNK d   1       5.282   7.839  12.986  0.00  0.00    -0.216 NA
ATOM     13  C   UNK d   1       4.924   8.192  10.606  0.00  0.00     0.093 C 
ATOM     14  C   UNK d   1       6.033   7.520  14.055  0.00  0.00     0.131 A 
ATOM     15  C   UNK d   1       7.349   7.192  13.804  0.00  0.00     0.100 A 
BRANCH  14  16
ATOM     16  N   UNK d   1       5.529   7.514  15.378  0.00  0.00    -0.362 N 
ATOM     17  C   UNK d   1       4.104   7.609  15.620  0.00  0.00     0.154 C 
ATOM     18  C   UNK d   1       3.871   7.264  17.076  0.00  0.00     0.291 C 
ATOM     19  N   UNK d   1       4.561   8.223  17.894  0.00  0.00     0.087 N 
ATOM     20  C   UNK d   1       5.916   8.477  17.516  0.00  0.00     0.291 C 
ATOM     21  C   UNK d   1       3.753   9.405  18.058  0.00  0.00     0.310 C 
ATOM     22  C   UNK d   1       6.385   7.415  16.545  0.00  0.00     0.154 C 
ENDBRANCH  14  16
ENDBRANCH   6   9
BRANCH   1  23
ATOM     23  C   UNK d   1      11.554   3.183   9.992  0.00  0.00     0.144 A 
ATOM     24  O   UNK d   1      10.500   2.553   9.536  0.00  0.00    -0.298 OA
ATOM     25  C   UNK d   1      10.613   1.254   9.643  0.00  0.00     0.122 A 
ATOM     26 Br   UNK d   1       9.308  -0.032   9.100  0.00  0.00    -0.023 Br
ATOM     27  C   UNK d   1      11.838   0.992  10.217  0.00  0.00     0.048 A 
ATOM     28  C   UNK d   1      12.422   2.214  10.432  0.00  0.00     0.046 A 
ENDBRANCH   1  23
TORSDOF 3
ENDMDL
