/Users/jonathanwahrer/Desktop/Msc/3_Semester/Drug_Design_Praktikum/waehrer_HTS_screening/HTS_experiment/out/docking_results/vina_output/2jam/0767_docked.pdbqt
 OpenBabel03162217523D

 32 35  0  0  0  0  0  0  0  0999 V2000
   12.9800    6.5170   11.7230 C   0  0  0  0  0  2  0  0  0  0  0  0
   11.5940    6.6450   12.0240 N   0  0  0  0  0  0  0  0  0  0  0  0
   10.5870    6.3540   11.0630 C   0  0  0  0  0  0  0  0  0  0  0  0
   10.9560    5.9690    9.9010 O   0  0  0  0  0  0  0  0  0  0  0  0
   11.3020    6.9570   12.9690 H   0  0  0  0  0  0  0  0  0  0  0  0
    9.1670    6.4830   11.3670 C   0  0  0  0  0  0  0  0  0  0  0  0
    8.2540    5.6520   10.9340 O   0  0  0  0  0  0  0  0  0  0  0  0
    7.0770    6.0130   11.3610 N   0  0  0  0  0  0  0  0  0  0  0  0
    7.1910    7.1300   12.1130 C   0  0  0  0  0  0  0  0  0  0  0  0
    8.5090    7.3940   12.0950 N   0  0  0  0  0  0  0  0  0  0  0  0
    6.1260    7.8680   12.7820 C   0  0  0  0  0  0  0  0  0  0  0  0
    5.8830    7.9390   14.0660 O   0  0  0  0  0  0  0  0  0  0  0  0
    4.8540    8.6840   14.3340 C   0  0  0  0  0  0  0  0  0  0  0  0
    4.0950    9.1050   16.0210 Br  0  0  0  0  0  0  0  0  0  0  0  0
    4.3380    9.1750   13.1330 C   0  0  0  0  0  3  0  0  0  0  0  0
    5.1650    8.6410   12.1570 C   0  0  0  0  0  3  0  0  0  0  0  0
   13.5470    5.1700   12.1140 C   0  0  0  0  0  2  0  0  0  0  0  0
   13.4160    4.2050   11.0310 N   0  0  0  0  0  0  0  0  0  0  0  0
   12.5740    3.0940   11.2060 C   0  0  0  0  0  0  0  0  0  0  0  0
   11.9800    3.0300   12.3410 O   0  0  0  0  0  0  0  0  0  0  0  0
   13.9240    4.3210   10.1360 H   0  0  0  0  0  0  0  0  0  0  0  0
   12.3030    2.0310   10.2720 C   0  0  0  0  0  0  0  0  0  0  0  0
   11.0040    1.5310   10.1890 C   0  0  0  0  0  3  0  0  0  0  0  0
   10.7170    0.5260    9.3010 C   0  0  0  0  0  0  0  0  0  0  0  0
   11.6930    0.0140    8.5040 C   0  0  0  0  0  0  0  0  0  0  0  0
    9.4250    0.0010    9.1910 C   0  0  0  0  0  3  0  0  0  0  0  0
   11.3940   -1.0100    7.6010 C   0  0  0  0  0  3  0  0  0  0  0  0
   12.8960    0.5010    8.6040 O   0  0  0  0  0  0  0  0  0  0  0  0
   10.1270   -1.5270    7.4890 C   0  0  0  0  0  3  0  0  0  0  0  0
    9.1470   -1.0080    8.2960 C   0  0  0  0  0  3  0  0  0  0  0  0
   13.2420    1.4730    9.4410 C   0  0  0  0  0  0  0  0  0  0  0  0
   14.4370    1.8500    9.4390 O   0  0  0  0  0  0  0  0  0  0  0  0
  1  2  1  0  0  0  0
  1 17  1  0  0  0  0
  2  5  1  0  0  0  0
  3  6  1  0  0  0  0
  3  2  1  0  0  0  0
  4  3  2  0  0  0  0
  6 10  2  0  0  0  0
  7  8  1  0  0  0  0
  7  6  1  0  0  0  0
  8  9  2  0  0  0  0
  9 11  1  0  0  0  0
 10  9  1  0  0  0  0
 11 12  1  0  0  0  0
 12 13  1  0  0  0  0
 13 14  1  0  0  0  0
 15 13  2  0  0  0  0
 16 11  2  0  0  0  0
 16 15  1  0  0  0  0
 18 19  1  0  0  0  0
 18 17  1  0  0  0  0
 19 20  2  0  0  0  0
 21 18  1  0  0  0  0
 22 19  1  0  0  0  0
 23 22  2  0  0  0  0
 24 23  1  0  0  0  0
 25 28  1  0  0  0  0
 25 24  2  0  0  0  0
 26 24  1  0  0  0  0
 27 25  1  0  0  0  0
 28 31  1  0  0  0  0
 29 27  2  0  0  0  0
 29 30  1  0  0  0  0
 30 26  2  0  0  0  0
 31 22  1  0  0  0  0
 32 31  2  0  0  0  0
M  END
>  <Pose>
1

>  <Score>
-9.707

$$$$
