MODEL 1
REMARK VINA RESULT:    -9.363      0.000      0.000
REMARK INTER + INTRA:         -11.438
REMARK INTER:                 -11.005
REMARK INTRA:                  -0.434
REMARK UNBOUND:                -0.434
REMARK  3 active torsions:
REMARK  status: ('A' for Active; 'I' for Inactive)
REMARK    1  A    between atoms: C_4  and  C_9 
REMARK       I    between atoms: C_9  and  N_11 
REMARK    2  A    between atoms: N_14  and  C_17 
REMARK    3  A    between atoms: C_17  and  C_18 
ROOT
ATOM      1  C   UNK d   1      10.010   6.267  12.503  0.00  0.00     0.189 C 
ATOM      2  O   UNK d   1      10.453   6.423  13.736  0.00  0.00    -0.171 OA
ATOM      3  N   UNK d   1      10.779   5.449  11.690  0.00  0.00    -0.355 N 
ATOM      4  C   UNK d   1      12.005   4.828  12.253  0.00  0.00     0.155 C 
ATOM      5  C   UNK d   1      11.915   3.331  12.078  0.00  0.00     0.292 C 
ATOM      6  N   UNK d   1      11.753   3.022  10.712  0.00  0.00     0.095 N 
ATOM      7  C   UNK d   1      11.695   4.187   9.898  0.00  0.00     0.292 C 
ATOM      8  C   UNK d   1      10.537   5.114  10.339  0.00  0.00     0.155 C 
ENDROOT
BRANCH   1   9
ATOM      9  C   UNK d   1       8.783   7.005  12.266  0.00  0.00     0.042 A 
ATOM     10  C   UNK d   1       8.673   8.361  12.416  0.00  0.00     0.043 A 
ATOM     11  C   UNK d   1       7.447   8.983  12.163  0.00  0.00     0.087 A 
ATOM     12 Br   UNK d   1       7.227  10.845  12.350  0.00  0.00    -0.045 Br
ATOM     13  C   UNK d   1       6.382   8.211  11.769  0.00  0.00     0.305 A 
ATOM     14  O   UNK d   1       6.521   6.939  11.637  0.00  0.00    -0.286 OA
ATOM     15  O   UNK d   1       5.258   8.722  11.528  0.00  0.00    -0.258 OA
ATOM     16  C   UNK d   1       7.636   6.318  11.860  0.00  0.00     0.162 A 
ENDBRANCH   1   9
BRANCH   6  17
ATOM     17  C   UNK d   1      12.629   2.027  10.181  0.00  0.00     0.311 C 
BRANCH  17  18
ATOM     18  C   UNK d   1      11.992   1.008   9.326  0.00  0.00    -0.027 A 
ATOM     19  C   UNK d   1      10.677   0.677   9.364  0.00  0.00     0.048 A 
ATOM     20  C   UNK d   1      10.176  -0.290   8.529  0.00  0.00     0.105 A 
ATOM     21  C   UNK d   1      11.012  -0.926   7.651  0.00  0.00     0.105 A 
ATOM     22  O   UNK d   1       8.899  -0.841   8.334  0.00  0.00    -0.323 OA
ATOM     23  C   UNK d   1      12.350  -0.607   7.595  0.00  0.00     0.040 A 
ATOM     24  O   UNK d   1      10.294  -1.855   6.917  0.00  0.00    -0.323 OA
ATOM     25  C   UNK d   1      12.818   0.353   8.431  0.00  0.00     0.012 A 
ATOM     26  C   UNK d   1       9.069  -2.045   7.612  0.00  0.00     0.352 C 
ENDBRANCH  17  18
ENDBRANCH   6  17
TORSDOF 3
ENDMDL
