/Users/jonathanwahrer/Desktop/Msc/3_Semester/Drug_Design_Praktikum/waehrer_HTS_screening/HTS_experiment/out/docking_results/vina_output/2jam/0776_docked.pdbqt
 OpenBabel03162217533D

 38 41  0  0  1  0  0  0  0  0999 V2000
    8.0940    7.6750   14.6250 C   0  0  2  0  0  3  0  0  0  0  0  0
    9.1620    8.7380   14.3340 C   0  0  1  0  0  0  0  0  0  0  0  0
    9.6480    8.5720   12.9350 C   0  0  0  0  0  2  0  0  0  0  0  0
   10.3080    7.2170   12.8110 C   0  0  1  0  0  0  0  0  0  0  0  0
    9.9310    6.3470   13.8160 O   0  0  0  0  0  0  0  0  0  0  0  0
    8.5700    6.3670   14.0880 C   0  0  0  0  0  2  0  0  0  0  0  0
   10.0470    6.7110   11.4390 C   0  0  0  0  0  2  0  0  0  0  0  0
   10.7440    5.3500   11.2850 C   0  0  0  0  0  2  0  0  0  0  0  0
   12.1510    5.5780   11.3260 N   0  0  0  0  0  0  0  0  0  0  0  0
   12.5450    6.9730   11.7160 C   0  0  0  0  0  2  0  0  0  0  0  0
   11.8030    7.4260   12.9310 C   0  0  0  0  0  2  0  0  0  0  0  0
   13.1410    4.6540   11.0530 C   0  0  0  0  0  0  0  0  0  0  0  0
   14.3730    5.1090   11.1380 O   0  0  0  0  0  0  0  0  0  0  0  0
    8.6610   10.1100   14.6490 C   0  0  0  0  0  1  0  0  0  0  0  0
   10.2300    8.4650   15.1920 O   0  0  0  0  0  0  0  0  0  0  0  0
   10.8960    9.1970   15.2240 H   0  0  0  0  0  0  0  0  0  0  0  0
    6.7910    8.0820   14.2070 N   0  0  0  0  0  0  0  0  0  0  0  0
    6.3570    8.0460   12.9350 C   0  0  0  0  0  3  0  0  0  0  0  0
    5.0970    8.4450   12.5640 C   0  0  0  0  0  0  0  0  0  0  0  0
    4.6190    8.3390   10.7260 Br  0  0  0  0  0  0  0  0  0  0  0  0
    4.2240    8.9040   13.5190 C   0  0  0  0  0  0  0  0  0  0  0  0
    4.6570    8.9390   14.7900 N   0  0  0  0  0  0  0  0  0  0  0  0
    3.0730    9.2670   13.1710 O   0  0  0  0  0  0  0  0  0  0  0  0
    5.8800    8.5480   15.1140 C   0  0  0  0  0  0  0  0  0  0  0  0
    3.9840    9.2900   15.5030 H   0  0  0  0  0  0  0  0  0  0  0  0
    6.2130    8.6120   16.3330 O   0  0  0  0  0  0  0  0  0  0  0  0
   13.0600    3.2830   10.6920 C   0  0  0  0  0  0  0  0  0  0  0  0
   11.9550    2.8070    9.9640 C   0  0  0  0  0  3  0  0  0  0  0  0
   11.7710    1.5280    9.5470 C   0  0  0  0  0  0  0  0  0  0  0  0
   12.7870    0.6070    9.8780 C   0  0  0  0  0  3  0  0  0  0  0  0
   13.8610    1.0410   10.5780 C   0  0  0  0  0  3  0  0  0  0  0  0
   14.0200    2.3730   10.9970 C   0  0  0  0  0  3  0  0  0  0  0  0
   10.6820    1.1040    8.8460 O   0  0  0  0  0  0  0  0  0  0  0  0
    9.6480    0.2780    9.1720 C   0  0  0  0  0  2  0  0  0  0  0  0
    9.8610   -1.1280    8.7260 C   0  0  0  0  0  2  0  0  0  0  0  0
   10.4490   -1.1320    7.3860 N   0  0  0  0  0  0  0  0  0  0  0  0
    9.8030   -0.7580    6.6760 H   0  0  0  0  0  0  0  0  0  0  0  0
   10.8920   -2.0250    7.1480 H   0  0  0  0  0  0  0  0  0  0  0  0
  1  6  1  6  0  0  0
  2  1  1  0  0  0  0
  2 14  1  1  0  0  0
  2 15  1  0  0  0  0
  3  2  1  0  0  0  0
  4  7  1  6  0  0  0
  4 11  1  0  0  0  0
  4  3  1  0  0  0  0
  4  5  1  0  0  0  0
  5  6  1  0  0  0  0
  8  9  1  0  0  0  0
  8  7  1  0  0  0  0
  9 10  1  0  0  0  0
 10 11  1  0  0  0  0
 12 13  2  0  0  0  0
 12  9  1  0  0  0  0
 15 16  1  0  0  0  0
 17  1  1  0  0  0  0
 17 24  1  0  0  0  0
 18 17  1  0  0  0  0
 19 18  2  0  0  0  0
 19 21  1  0  0  0  0
 20 19  1  0  0  0  0
 21 22  1  0  0  0  0
 22 24  1  0  0  0  0
 22 25  1  0  0  0  0
 23 21  2  0  0  0  0
 24 26  2  0  0  0  0
 27 32  1  0  0  0  0
 27 12  1  0  0  0  0
 28 27  2  0  0  0  0
 29 30  2  0  0  0  0
 29 28  1  0  0  0  0
 30 31  1  0  0  0  0
 31 32  2  0  0  0  0
 33 34  1  0  0  0  0
 33 29  1  0  0  0  0
 35 34  1  0  0  0  0
 36 35  1  0  0  0  0
 37 36  1  0  0  0  0
 38 36  1  0  0  0  0
M  END
>  <Pose>
1

>  <Score>
-9.166

$$$$
