MODEL 1
REMARK VINA RESULT:    -9.166      0.000      0.000
REMARK INTER + INTRA:         -12.371
REMARK INTER:                 -12.381
REMARK INTRA:                   0.010
REMARK UNBOUND:                 0.010
REMARK  7 active torsions:
REMARK  status: ('A' for Active; 'I' for Inactive)
REMARK    1  A    between atoms: N_4  and  C_10 
REMARK    2  A    between atoms: C_11  and  O_33 
REMARK       I    between atoms: N_18  and  C_21 
REMARK    3  A    between atoms: C_21  and  C_23 
REMARK    4  A    between atoms: C_25  and  O_29 
REMARK    5  A    between atoms: O_29  and  C_30 
REMARK    6  A    between atoms: C_30  and  C_31 
REMARK    7  A    between atoms: C_31  and  N_32 
ROOT
ATOM      1  C   UNK d   1       8.094   7.675  14.625  0.00  0.00     0.152 C 
ATOM      2  C   UNK d   1       9.162   8.738  14.334  0.00  0.00     0.080 C 
ATOM      3  C   UNK d   1       9.648   8.572  12.935  0.00  0.00     0.077 C 
ATOM      4  C   UNK d   1      10.308   7.217  12.811  0.00  0.00     0.067 C 
ATOM      5  O   UNK d   1       9.931   6.347  13.816  0.00  0.00    -0.378 OA
ATOM      6  C   UNK d   1       8.570   6.367  14.088  0.00  0.00     0.197 C 
ATOM      7  C   UNK d   1      10.047   6.711  11.439  0.00  0.00     0.058 C 
ATOM      8  C   UNK d   1      10.744   5.350  11.285  0.00  0.00     0.128 C 
ATOM      9  N   UNK d   1      12.151   5.578  11.326  0.00  0.00    -0.359 N 
ATOM     10  C   UNK d   1      12.545   6.973  11.716  0.00  0.00     0.128 C 
ATOM     11  C   UNK d   1      11.803   7.426  12.931  0.00  0.00     0.058 C 
ATOM     12  C   UNK d   1      13.141   4.654  11.053  0.00  0.00     0.187 C 
ATOM     13  O   UNK d   1      14.373   5.109  11.138  0.00  0.00    -0.171 OA
ATOM     14  C   UNK d   1       8.661  10.110  14.649  0.00  0.00     0.048 C 
ENDROOT
BRANCH   2  15
ATOM     15  O   UNK d   1      10.230   8.465  15.192  0.00  0.00    -0.388 OA
ATOM     16  H   UNK d   1      10.896   9.197  15.224  0.00  0.00     0.210 HD
ENDBRANCH   2  15
BRANCH   1  17
ATOM     17  N   UNK d   1       6.791   8.082  14.207  0.00  0.00    -0.298 N 
ATOM     18  C   UNK d   1       6.357   8.046  12.935  0.00  0.00     0.121 A 
ATOM     19  C   UNK d   1       5.097   8.445  12.564  0.00  0.00     0.094 A 
ATOM     20 Br   UNK d   1       4.619   8.339  10.726  0.00  0.00    -0.044 Br
ATOM     21  C   UNK d   1       4.224   8.904  13.519  0.00  0.00     0.268 A 
ATOM     22  N   UNK d   1       4.657   8.939  14.790  0.00  0.00    -0.274 N 
ATOM     23  O   UNK d   1       3.073   9.267  13.171  0.00  0.00    -0.267 OA
ATOM     24  C   UNK d   1       5.880   8.548  15.114  0.00  0.00     0.329 A 
ATOM     25  H   UNK d   1       3.984   9.290  15.503  0.00  0.00     0.173 HD
ATOM     26  O   UNK d   1       6.213   8.612  16.333  0.00  0.00    -0.246 OA
ENDBRANCH   1  17
BRANCH  12  27
ATOM     27  C   UNK d   1      13.060   3.283  10.692  0.00  0.00     0.020 A 
ATOM     28  C   UNK d   1      11.955   2.807   9.964  0.00  0.00     0.052 A 
ATOM     29  C   UNK d   1      11.771   1.528   9.547  0.00  0.00     0.069 A 
ATOM     30  C   UNK d   1      12.787   0.607   9.878  0.00  0.00     0.037 A 
ATOM     31  C   UNK d   1      13.861   1.041  10.578  0.00  0.00     0.004 A 
ATOM     32  C   UNK d   1      14.020   2.373  10.997  0.00  0.00     0.016 A 
BRANCH  29  33
ATOM     33  O   UNK d   1      10.682   1.104   8.846  0.00  0.00    -0.349 OA
BRANCH  33  34
ATOM     34  C   UNK d   1       9.648   0.278   9.172  0.00  0.00     0.205 C 
BRANCH  34  35
ATOM     35  C   UNK d   1       9.861  -1.128   8.726  0.00  0.00     0.293 C 
BRANCH  35  36
ATOM     36  N   UNK d   1      10.449  -1.132   7.386  0.00  0.00     0.080 N 
ATOM     37  H   UNK d   1       9.803  -0.758   6.676  0.00  0.00     0.312 HD
ATOM     38  H   UNK d   1      10.892  -2.025   7.148  0.00  0.00     0.312 HD
ENDBRANCH  35  36
ENDBRANCH  34  35
ENDBRANCH  33  34
ENDBRANCH  29  33
ENDBRANCH  12  27
TORSDOF 7
ENDMDL
