/Users/jonathanwahrer/Desktop/Msc/3_Semester/Drug_Design_Praktikum/waehrer_HTS_screening/HTS_experiment/out/docking_results/vina_output/2jam/0783_docked.pdbqt
 OpenBabel03162217533D

 39 42  0  0  1  0  0  0  0  0999 V2000
   10.6900    2.8960   10.6890 C   0  0  1  0  0  3  0  0  0  0  0  0
   11.6670    3.3580   11.6940 C   0  0  2  0  0  0  0  0  0  0  0  0
   11.4920    4.8240   12.1080 C   0  0  0  0  0  2  0  0  0  0  0  0
   11.4990    5.7220   10.8960 C   0  0  2  0  0  0  0  0  0  0  0  0
   11.1720    5.0320    9.7440 O   0  0  0  0  0  0  0  0  0  0  0  0
   10.2160    4.0740    9.8830 C   0  0  0  0  0  2  0  0  0  0  0  0
   12.8790    6.3480   10.8020 C   0  0  0  0  0  2  0  0  0  0  0  0
   12.8850    7.7100   11.4440 C   0  0  0  0  0  2  0  0  0  0  0  0
   12.0870    7.6590   12.6420 N   0  0  0  0  0  0  0  0  0  0  0  0
   10.6560    7.4850   12.4430 C   0  0  0  0  0  2  0  0  0  0  0  0
   10.4640    6.8010   11.1090 C   0  0  0  0  0  2  0  0  0  0  0  0
   12.6700    7.7910   13.9050 C   0  0  0  0  0  0  0  0  0  0  0  0
   11.8560    7.7250   14.8970 O   0  0  0  0  0  0  0  0  0  0  0  0
   13.1020    3.0930   11.3730 C   0  0  0  0  0  1  0  0  0  0  0  0
   11.4030    2.6410   12.8900 O   0  0  0  0  0  0  0  0  0  0  0  0
   10.4610    2.7270   13.1650 H   0  0  0  0  0  0  0  0  0  0  0  0
   11.1650    1.8280    9.8310 N   0  0  0  0  0  0  0  0  0  0  0  0
   12.4090    1.8650    9.3630 C   0  0  0  0  0  3  0  0  0  0  0  0
   12.8860    0.8710    8.5410 C   0  0  0  0  0  0  0  0  0  0  0  0
   14.6870    0.9450    7.8770 Br  0  0  0  0  0  0  0  0  0  0  0  0
   12.0470   -0.1730    8.2090 C   0  0  0  0  0  0  0  0  0  0  0  0
   10.8000   -0.1550    8.7130 N   0  0  0  0  0  0  0  0  0  0  0  0
   12.4400   -1.1120    7.4560 O   0  0  0  0  0  0  0  0  0  0  0  0
   10.3520    0.8250    9.5130 C   0  0  0  0  0  0  0  0  0  0  0  0
   10.1490   -0.9580    8.4590 H   0  0  0  0  0  0  0  0  0  0  0  0
    9.1530    0.7540    9.9410 O   0  0  0  0  0  0  0  0  0  0  0  0
   14.0690    7.9980   14.2620 C   0  0  1  0  0  3  0  0  0  0  0  0
   14.2180    8.9470   15.3660 N   0  0  0  0  0  0  0  0  0  0  0  0
   15.2200    9.0600   15.6320 H   0  0  0  0  0  0  0  0  0  0  0  0
   13.7340    8.5520   16.2100 H   0  0  0  0  0  0  0  0  0  0  0  0
   14.8200    6.7540   14.6820 C   0  0  0  0  0  2  0  0  0  0  0  0
   15.5940    6.3080   13.4650 C   0  0  0  0  0  0  0  0  0  0  0  0
   15.6570    4.9790   13.1360 C   0  0  0  0  0  3  0  0  0  0  0  0
   16.3820    4.6110   12.0060 C   0  0  0  0  0  3  0  0  0  0  0  0
   17.0270    5.5410   11.2230 C   0  0  0  0  0  0  0  0  0  0  0  0
   16.9400    6.8700   11.5870 C   0  0  0  0  0  3  0  0  0  0  0  0
   16.2300    7.2660   12.7020 C   0  0  0  0  0  3  0  0  0  0  0  0
   17.7310    5.1180   10.1120 O   0  0  0  0  0  0  0  0  0  0  0  0
   18.7430    4.9930   10.0920 H   0  0  0  0  0  0  0  0  0  0  0  0
  1 17  1  6  0  0  0
  1  2  1  0  0  0  0
  2 14  1  6  0  0  0
  2  3  1  0  0  0  0
  2 15  1  0  0  0  0
  4  7  1  6  0  0  0
  4 11  1  0  0  0  0
  4  3  1  0  0  0  0
  5  6  1  0  0  0  0
  5  4  1  0  0  0  0
  6  1  1  0  0  0  0
  7  8  1  0  0  0  0
  8  9  1  0  0  0  0
  9 12  1  0  0  0  0
 10  9  1  0  0  0  0
 11 10  1  0  0  0  0
 12 27  1  0  0  0  0
 12 13  2  0  0  0  0
 15 16  1  0  0  0  0
 18 17  1  0  0  0  0
 19 18  2  0  0  0  0
 20 19  1  0  0  0  0
 21 19  1  0  0  0  0
 21 22  1  0  0  0  0
 22 24  1  0  0  0  0
 23 21  2  0  0  0  0
 24 17  1  0  0  0  0
 24 26  2  0  0  0  0
 25 22  1  0  0  0  0
 27 31  1  1  0  0  0
 27 28  1  0  0  0  0
 28 29  1  0  0  0  0
 28 30  1  0  0  0  0
 32 31  1  0  0  0  0
 33 32  1  0  0  0  0
 34 33  2  0  0  0  0
 35 36  2  0  0  0  0
 35 34  1  0  0  0  0
 36 37  1  0  0  0  0
 37 32  2  0  0  0  0
 38 35  1  0  0  0  0
 39 38  1  0  0  0  0
M  END
>  <Pose>
1

>  <Score>
-8.781

$$$$
