MODEL 1
REMARK VINA RESULT:    -8.781      0.000      0.000
REMARK INTER + INTRA:         -12.106
REMARK INTER:                 -11.604
REMARK INTRA:                  -0.502
REMARK UNBOUND:                -0.502
REMARK  7 active torsions:
REMARK  status: ('A' for Active; 'I' for Inactive)
REMARK    1  A    between atoms: N_4  and  C_10 
REMARK    2  A    between atoms: C_11  and  O_33 
REMARK       I    between atoms: N_18  and  C_21 
REMARK    3  A    between atoms: C_21  and  C_23 
REMARK    4  A    between atoms: C_23  and  N_24 
REMARK    5  A    between atoms: C_23  and  C_25 
REMARK    6  A    between atoms: C_25  and  C_26 
REMARK    7  A    between atoms: C_29  and  O_32 
ROOT
ATOM      1  C   UNK d   1      10.690   2.896  10.689  0.00  0.00     0.152 C 
ATOM      2  C   UNK d   1      11.667   3.358  11.694  0.00  0.00     0.080 C 
ATOM      3  C   UNK d   1      11.492   4.824  12.108  0.00  0.00     0.077 C 
ATOM      4  C   UNK d   1      11.499   5.722  10.896  0.00  0.00     0.067 C 
ATOM      5  O   UNK d   1      11.172   5.032   9.744  0.00  0.00    -0.378 OA
ATOM      6  C   UNK d   1      10.216   4.074   9.883  0.00  0.00     0.197 C 
ATOM      7  C   UNK d   1      12.879   6.348  10.802  0.00  0.00     0.058 C 
ATOM      8  C   UNK d   1      12.885   7.710  11.444  0.00  0.00     0.129 C 
ATOM      9  N   UNK d   1      12.087   7.659  12.642  0.00  0.00    -0.350 N 
ATOM     10  C   UNK d   1      10.656   7.485  12.443  0.00  0.00     0.129 C 
ATOM     11  C   UNK d   1      10.464   6.801  11.109  0.00  0.00     0.058 C 
ATOM     12  C   UNK d   1      12.670   7.791  13.905  0.00  0.00     0.253 C 
ATOM     13  O   UNK d   1      11.856   7.725  14.897  0.00  0.00    -0.271 OA
ATOM     14  C   UNK d   1      13.102   3.093  11.373  0.00  0.00     0.048 C 
ENDROOT
BRANCH   2  15
ATOM     15  O   UNK d   1      11.403   2.641  12.890  0.00  0.00    -0.388 OA
ATOM     16  H   UNK d   1      10.461   2.727  13.165  0.00  0.00     0.210 HD
ENDBRANCH   2  15
BRANCH   1  17
ATOM     17  N   UNK d   1      11.165   1.828   9.831  0.00  0.00    -0.298 N 
ATOM     18  C   UNK d   1      12.409   1.865   9.363  0.00  0.00     0.121 A 
ATOM     19  C   UNK d   1      12.886   0.871   8.541  0.00  0.00     0.094 A 
ATOM     20 Br   UNK d   1      14.687   0.945   7.877  0.00  0.00    -0.044 Br
ATOM     21  C   UNK d   1      12.047  -0.173   8.209  0.00  0.00     0.268 A 
ATOM     22  N   UNK d   1      10.800  -0.155   8.713  0.00  0.00    -0.274 N 
ATOM     23  O   UNK d   1      12.440  -1.112   7.456  0.00  0.00    -0.267 OA
ATOM     24  C   UNK d   1      10.352   0.825   9.513  0.00  0.00     0.329 A 
ATOM     25  H   UNK d   1      10.149  -0.958   8.459  0.00  0.00     0.173 HD
ATOM     26  O   UNK d   1       9.153   0.754   9.941  0.00  0.00    -0.246 OA
ENDBRANCH   1  17
BRANCH  12  27
ATOM     27  C   UNK d   1      14.069   7.998  14.262  0.00  0.00     0.313 C 
BRANCH  27  28
ATOM     28  N   UNK d   1      14.218   8.947  15.366  0.00  0.00     0.092 N 
ATOM     29  H   UNK d   1      15.220   9.060  15.632  0.00  0.00     0.313 HD
ATOM     30  H   UNK d   1      13.734   8.552  16.210  0.00  0.00     0.313 HD
ENDBRANCH  27  28
BRANCH  27  31
ATOM     31  C   UNK d   1      14.820   6.754  14.682  0.00  0.00     0.083 C 
BRANCH  31  32
ATOM     32  C   UNK d   1      15.594   6.308  13.465  0.00  0.00    -0.056 A 
ATOM     33  C   UNK d   1      15.657   4.979  13.136  0.00  0.00     0.010 A 
ATOM     34  C   UNK d   1      16.382   4.611  12.006  0.00  0.00     0.037 A 
ATOM     35  C   UNK d   1      17.027   5.541  11.223  0.00  0.00     0.065 A 
ATOM     36  C   UNK d   1      16.940   6.870  11.587  0.00  0.00     0.037 A 
ATOM     37  C   UNK d   1      16.230   7.266  12.702  0.00  0.00     0.010 A 
BRANCH  35  38
ATOM     38  O   UNK d   1      17.731   5.118  10.112  0.00  0.00    -0.361 OA
ATOM     39  H   UNK d   1      18.743   4.993  10.092  0.00  0.00     0.217 HD
ENDBRANCH  35  38
ENDBRANCH  31  32
ENDBRANCH  27  31
ENDBRANCH  12  27
TORSDOF 7
ENDMDL
