MODEL 1
REMARK VINA RESULT:    -8.273      0.000      0.000
REMARK INTER + INTRA:         -12.098
REMARK INTER:                 -10.934
REMARK INTRA:                  -1.164
REMARK UNBOUND:                -1.164
REMARK  6 active torsions:
REMARK  status: ('A' for Active; 'I' for Inactive)
REMARK    1  A    between atoms: N_4  and  C_10 
REMARK    2  A    between atoms: C_11  and  O_34 
REMARK       I    between atoms: N_18  and  C_21 
REMARK    3  A    between atoms: C_21  and  C_23 
REMARK    4  A    between atoms: C_23  and  N_24 
REMARK    5  A    between atoms: C_23  and  C_28 
REMARK       I    between atoms: N_24  and  C_25 
REMARK    6  A    between atoms: C_28  and  C_29 
ROOT
ATOM      1  C   UNK d   1       5.318   9.580  16.096  0.00  0.00     0.152 C 
ATOM      2  C   UNK d   1       5.140   8.129  15.617  0.00  0.00     0.080 C 
ATOM      3  C   UNK d   1       5.759   8.126  14.213  0.00  0.00     0.077 C 
ATOM      4  C   UNK d   1       5.173   9.226  13.372  0.00  0.00     0.067 C 
ATOM      5  O   UNK d   1       4.120   9.797  14.045  0.00  0.00    -0.378 OA
ATOM      6  C   UNK d   1       4.458  10.420  15.244  0.00  0.00     0.197 C 
ATOM      7  C   UNK d   1       4.591   8.552  12.137  0.00  0.00     0.058 C 
ATOM      8  C   UNK d   1       5.673   8.362  11.104  0.00  0.00     0.129 C 
ATOM      9  N   UNK d   1       6.999   8.377  11.743  0.00  0.00    -0.350 N 
ATOM     10  C   UNK d   1       7.402   9.638  12.290  0.00  0.00     0.129 C 
ATOM     11  C   UNK d   1       6.149  10.250  12.912  0.00  0.00     0.058 C 
ATOM     12  C   UNK d   1       7.793   7.235  11.844  0.00  0.00     0.243 C 
ATOM     13  O   UNK d   1       7.368   6.091  11.420  0.00  0.00    -0.271 OA
ATOM     14  C   UNK d   1       3.697   7.735  15.596  0.00  0.00     0.048 C 
ENDROOT
BRANCH   2  15
ATOM     15  O   UNK d   1       5.831   7.234  16.405  0.00  0.00    -0.388 OA
ATOM     16  H   UNK d   1       6.595   7.700  16.832  0.00  0.00     0.210 HD
ENDBRANCH   2  15
BRANCH   1  17
ATOM     17  N   UNK d   1       5.256   9.705  17.495  0.00  0.00    -0.298 N 
ATOM     18  C   UNK d   1       4.213   9.376  18.261  0.00  0.00     0.121 A 
ATOM     19  C   UNK d   1       4.232   9.530  19.647  0.00  0.00     0.094 A 
ATOM     20 Br   UNK d   1       2.697   9.032  20.638  0.00  0.00    -0.044 Br
ATOM     21  C   UNK d   1       5.354  10.039  20.262  0.00  0.00     0.268 A 
ATOM     22  N   UNK d   1       6.397  10.367  19.478  0.00  0.00    -0.274 N 
ATOM     23  O   UNK d   1       5.398  10.192  21.526  0.00  0.00    -0.267 OA
ATOM     24  C   UNK d   1       6.350  10.206  18.145  0.00  0.00     0.329 A 
ATOM     25  H   UNK d   1       7.279  10.760  19.901  0.00  0.00     0.173 HD
ATOM     26  O   UNK d   1       7.361  10.533  17.467  0.00  0.00    -0.246 OA
ENDBRANCH   1  17
BRANCH  12  27
ATOM     27  C   UNK d   1       9.129   7.240  12.421  0.00  0.00     0.182 C 
BRANCH  27  28
ATOM     28  N   UNK d   1       9.091   6.884  13.819  0.00  0.00    -0.348 N 
ATOM     29  C   UNK d   1       9.397   7.669  14.924  0.00  0.00     0.214 C 
ATOM     30  O   UNK d   1       9.785   8.855  14.888  0.00  0.00    -0.274 OA
ATOM     31  C   UNK d   1       9.275   7.108  16.329  0.00  0.00     0.117 C 
ATOM     32  H   UNK d   1       8.787   5.880  14.008  0.00  0.00     0.163 HD
ENDBRANCH  27  28
BRANCH  27  33
ATOM     33  C   UNK d   1      10.079   6.248  11.679  0.00  0.00     0.095 C 
BRANCH  33  34
ATOM     34  C   UNK d   1      11.411   6.857  11.515  0.00  0.00     0.053 A 
ATOM     35  N   UNK d   1      12.538   6.323  11.071  0.00  0.00    -0.247 NA
ATOM     36  C   UNK d   1      13.554   7.230  11.073  0.00  0.00     0.207 A 
ATOM     37  N   UNK d   1      13.029   8.379  11.541  0.00  0.00    -0.359 N 
ATOM     38  C   UNK d   1      11.724   8.172  11.816  0.00  0.00     0.116 A 
ATOM     39  H   UNK d   1      13.586   9.260  11.655  0.00  0.00     0.166 HD
ENDBRANCH  33  34
ENDBRANCH  27  33
ENDBRANCH  12  27
TORSDOF 6
ENDMDL
