MODEL 1
REMARK VINA RESULT:    -8.350      0.000      0.000
REMARK INTER + INTRA:          -9.967
REMARK INTER:                  -9.814
REMARK INTRA:                  -0.153
REMARK UNBOUND:                -0.153
REMARK  3 active torsions:
REMARK  status: ('A' for Active; 'I' for Inactive)
REMARK    1  A    between atoms: C_7  and  C_9 
REMARK    2  A    between atoms: C_9  and  N_10 
REMARK       I    between atoms: N_10  and  C_11 
REMARK    3  A    between atoms: C_11  and  C_13 
ROOT
ATOM      1  N   UNK d   1      10.261   5.922  12.514  0.00  0.00    -0.355 N 
ATOM      2  C   UNK d   1       9.824   7.146  13.045  0.00  0.00     0.223 C 
ATOM      3  O   UNK d   1      10.245   8.220  12.568  0.00  0.00    -0.273 OA
ATOM      4  H   UNK d   1       9.904   5.036  12.918  0.00  0.00     0.162 HD
ENDROOT
BRANCH   1   5
ATOM      5  C   UNK d   1      11.199   5.915  11.414  0.00  0.00     0.183 C 
BRANCH   5   6
ATOM      6  C   UNK d   1      11.347   4.552  10.843  0.00  0.00     0.070 A 
ATOM      7  N   UNK d   1      12.489   3.911  10.531  0.00  0.00    -0.232 NA
ATOM      8  C   UNK d   1      12.199   2.695  10.036  0.00  0.00     0.134 A 
ATOM      9  N   UNK d   1      10.861   2.547  10.028  0.00  0.00    -0.314 N 
ATOM     10  C   UNK d   1      13.026   1.673   9.579  0.00  0.00     0.052 A 
ATOM     11  C   UNK d   1      10.336   1.378   9.562  0.00  0.00     0.117 A 
ATOM     12  C   UNK d   1      10.328   3.680  10.520  0.00  0.00     0.127 A 
ATOM     13  C   UNK d   1      11.127   0.348   9.103  0.00  0.00     0.027 A 
ATOM     14 Br   UNK d   1      10.385  -1.292   8.452  0.00  0.00    -0.050 Br
ATOM     15  C   UNK d   1      12.498   0.496   9.110  0.00  0.00     0.024 A 
ENDBRANCH   5   6
ENDBRANCH   1   5
BRANCH   2  16
ATOM     16  C   UNK d   1       8.866   7.177  14.166  0.00  0.00     0.096 C 
ATOM     17  C   UNK d   1       8.055   8.447  14.133  0.00  0.00     0.145 C 
ATOM     18  N   UNK d   1       7.339   8.460  12.872  0.00  0.00    -0.320 N 
ATOM     19  C   UNK d   1       6.865   7.314  12.356  0.00  0.00     0.130 A 
ATOM     20  C   UNK d   1       7.013   9.439  12.028  0.00  0.00     0.126 A 
ATOM     21  N   UNK d   1       6.255   7.632  11.195  0.00  0.00    -0.135 NA
ATOM     22  C   UNK d   1       7.010   5.990  12.980  0.00  0.00     0.081 C 
ATOM     23  N   UNK d   1       6.343   8.913  10.995  0.00  0.00    -0.135 NA
ATOM     24  C   UNK d   1       7.981   5.959  14.106  0.00  0.00     0.023 C 
ATOM     25  C   UNK d   1       7.307  10.902  12.138  0.00  0.00     0.093 C 
ENDBRANCH   2  16
TORSDOF 3
ENDMDL
