/Users/jonathanwahrer/Desktop/Msc/3_Semester/Drug_Design_Praktikum/waehrer_HTS_screening/HTS_experiment/out/docking_results/vina_output/2jam/0789_docked.pdbqt
 OpenBabel03162217543D

 21 24  0  0  1  0  0  0  0  0999 V2000
    6.6940    8.2000   11.8000 C   0  0  0  0  0  0  0  0  0  0  0  0
    6.4280    8.9300   10.8070 O   0  0  0  0  0  0  0  0  0  0  0  0
    5.8030    8.2230   12.9030 N   0  0  0  0  0  0  0  0  0  0  0  0
    4.6490    9.0450   12.8680 C   0  0  0  0  0  2  0  0  0  0  0  0
    4.1760    9.4750   14.2070 C   0  0  2  0  0  3  0  0  0  0  0  0
    4.9260    8.9820   15.3260 N   0  0  2  0  0  0  0  0  0  0  0  0
    5.1850    7.5590   15.2080 C   0  0  0  0  0  2  0  0  0  0  0  0
    6.1250    7.3900   14.0290 C   0  0  0  0  0  2  0  0  0  0  0  0
    4.1260    9.3460   16.4560 C   0  0  0  0  0  2  0  0  0  0  0  0
    2.6960    9.1580   16.0130 C   0  0  0  0  0  2  0  0  0  0  0  0
    2.7710    8.9840   14.5120 C   0  0  0  0  0  2  0  0  0  0  0  0
    7.9010    7.3630   11.7710 C   0  0  0  0  0  0  0  0  0  0  0  0
    8.0610    6.0930   11.3730 N   0  0  0  0  0  0  0  0  0  0  0  0
    9.3160    5.6920   11.5040 N   0  0  0  0  0  0  0  0  0  0  0  0
    9.9620    4.5250   11.2440 C   0  0  0  0  0  3  0  0  0  0  0  0
   10.0530    6.7000   12.0040 C   0  0  0  0  0  0  0  0  0  0  0  0
   11.3100    4.3660   11.4760 C   0  0  0  0  0  0  0  0  0  0  0  0
   12.2050    2.7070   11.1020 Br  0  0  0  0  0  0  0  0  0  0  0  0
   12.0440    5.4120   11.9900 C   0  0  0  0  0  3  0  0  0  0  0  0
   11.3840    6.5530   12.2380 N   0  0  0  0  0  0  0  0  0  0  0  0
    9.1780    7.7530   12.1770 C   0  0  0  0  0  3  0  0  0  0  0  0
  1  3  1  0  0  0  0
  2  1  2  0  0  0  0
  3  8  1  0  0  0  0
  4  3  1  0  0  0  0
  5  4  1  6  0  0  0
  5 11  1  0  0  0  0
  5  6  1  0  0  0  0
  6  7  1  6  0  0  0
  6  9  1  0  0  0  0
  8  7  1  0  0  0  0
 10  9  1  0  0  0  0
 11 10  1  0  0  0  0
 12  1  1  0  0  0  0
 12 21  1  0  0  0  0
 13 14  1  0  0  0  0
 13 12  2  0  0  0  0
 14 16  1  0  0  0  0
 15 17  2  0  0  0  0
 15 14  1  0  0  0  0
 16 21  2  0  0  0  0
 16 20  1  0  0  0  0
 17 19  1  0  0  0  0
 18 17  1  0  0  0  0
 19 20  2  0  0  0  0
M  END
>  <Pose>
1

>  <Score>
-7.214

$$$$
