MODEL 1
REMARK VINA RESULT:    -7.214      0.000      0.000
REMARK INTER + INTRA:          -7.855
REMARK INTER:                  -7.636
REMARK INTRA:                  -0.219
REMARK UNBOUND:                -0.219
REMARK  1 active torsions:
REMARK  status: ('A' for Active; 'I' for Inactive)
REMARK    1  A    between atoms: C_6  and  C_11 
REMARK       I    between atoms: C_11  and  N_13 
ROOT
ATOM      1  C   UNK d   1       6.694   8.200  11.800  0.00  0.00     0.274 C 
ATOM      2  O   UNK d   1       6.428   8.930  10.807  0.00  0.00    -0.266 OA
ATOM      3  N   UNK d   1       5.803   8.223  12.903  0.00  0.00    -0.343 N 
ATOM      4  C   UNK d   1       4.649   9.045  12.868  0.00  0.00     0.161 C 
ATOM      5  C   UNK d   1       4.176   9.475  14.207  0.00  0.00     0.241 C 
ATOM      6  N   UNK d   1       4.926   8.982  15.326  0.00  0.00     0.096 N 
ATOM      7  C   UNK d   1       5.185   7.559  15.208  0.00  0.00     0.292 C 
ATOM      8  C   UNK d   1       6.125   7.390  14.029  0.00  0.00     0.156 C 
ATOM      9  C   UNK d   1       4.126   9.346  16.456  0.00  0.00     0.273 C 
ATOM     10  C   UNK d   1       2.696   9.158  16.013  0.00  0.00     0.032 C 
ATOM     11  C   UNK d   1       2.771   8.984  14.512  0.00  0.00     0.039 C 
ENDROOT
BRANCH   1  12
ATOM     12  C   UNK d   1       7.901   7.363  11.771  0.00  0.00     0.148 A 
ATOM     13  N   UNK d   1       8.061   6.093  11.373  0.00  0.00    -0.161 NA
ATOM     14  N   UNK d   1       9.316   5.692  11.504  0.00  0.00    -0.225 N 
ATOM     15  C   UNK d   1       9.962   4.525  11.244  0.00  0.00     0.141 A 
ATOM     16  C   UNK d   1      10.053   6.700  12.004  0.00  0.00     0.152 A 
ATOM     17  C   UNK d   1      11.310   4.366  11.476  0.00  0.00     0.046 A 
ATOM     18 Br   UNK d   1      12.205   2.707  11.102  0.00  0.00    -0.048 Br
ATOM     19  C   UNK d   1      12.044   5.412  11.990  0.00  0.00     0.139 A 
ATOM     20  N   UNK d   1      11.384   6.553  12.238  0.00  0.00    -0.240 NA
ATOM     21  C   UNK d   1       9.178   7.753  12.177  0.00  0.00     0.091 A 
ENDBRANCH   1  12
TORSDOF 1
ENDMDL
