/Users/jonathanwahrer/Desktop/Msc/3_Semester/Drug_Design_Praktikum/waehrer_HTS_screening/HTS_experiment/out/docking_results/vina_output/2jam/0790_docked.pdbqt
 OpenBabel03162217543D

 25 28  0  0  0  0  0  0  0  0999 V2000
   12.2930    5.5770   11.0910 C   0  0  0  0  0  0  0  0  0  0  0  0
   12.9100    6.6050   10.6900 O   0  0  0  0  0  0  0  0  0  0  0  0
   12.9970    4.4670   11.6270 N   0  0  0  0  0  0  0  0  0  0  0  0
   12.2010    3.3120   12.0700 C   0  0  0  0  0  2  0  0  0  0  0  0
   13.1650    2.1320   11.9470 C   0  0  0  0  0  2  0  0  0  0  0  0
   13.9230    2.3680   10.7540 N   0  0  0  0  0  0  0  0  0  0  0  0
   15.0790    3.2810   10.9900 C   0  0  0  0  0  2  0  0  0  0  0  0
   14.4480    4.4570   11.7400 C   0  0  0  0  0  2  0  0  0  0  0  0
   13.6830    1.9030    9.4720 C   0  0  0  0  0  0  0  0  0  0  0  0
   14.5490    2.2240    8.5560 O   0  0  0  0  0  0  0  0  0  0  0  0
   10.8550    5.5680   10.9880 C   0  0  0  0  0  0  0  0  0  0  0  0
   10.0630    5.2490    9.9100 C   0  0  0  0  0  3  0  0  0  0  0  0
    8.7710    5.3750   10.2550 N   0  0  0  0  0  0  0  0  0  0  0  0
    8.7190    5.7670   11.5290 N   0  0  0  0  0  0  0  0  0  0  0  0
    7.6940    6.0290   12.3310 C   0  0  0  0  0  3  0  0  0  0  0  0
    9.9680    5.8950   12.0080 C   0  0  0  0  0  0  0  0  0  0  0  0
    7.8920    6.4220   13.6170 C   0  0  0  0  0  0  0  0  0  0  0  0
    6.4160    6.7960   14.7610 Br  0  0  0  0  0  0  0  0  0  0  0  0
    9.1650    6.5500   14.1000 C   0  0  0  0  0  3  0  0  0  0  0  0
   10.1800    6.2810   13.2760 N   0  0  0  0  0  0  0  0  0  0  0  0
   12.5890    1.0910    8.9660 C   0  0  0  0  0  0  0  0  0  0  0  0
   11.3100    1.2150    9.3510 O   0  0  0  0  0  0  0  0  0  0  0  0
   10.5410    0.3720    8.7510 C   0  0  0  0  0  3  0  0  0  0  0  0
   11.2870   -0.3980    7.8950 C   0  0  0  0  0  3  0  0  0  0  0  0
   12.5820    0.0720    8.0450 C   0  0  0  0  0  3  0  0  0  0  0  0
  1  3  1  0  0  0  0
  2  1  2  0  0  0  0
  3  8  1  0  0  0  0
  3  4  1  0  0  0  0
  5  4  1  0  0  0  0
  6  7  1  0  0  0  0
  6  5  1  0  0  0  0
  7  8  1  0  0  0  0
  9  6  1  0  0  0  0
 10  9  2  0  0  0  0
 11  1  1  0  0  0  0
 11 16  2  0  0  0  0
 12 13  2  0  0  0  0
 12 11  1  0  0  0  0
 13 14  1  0  0  0  0
 14 16  1  0  0  0  0
 14 15  1  0  0  0  0
 15 17  2  0  0  0  0
 16 20  1  0  0  0  0
 17 19  1  0  0  0  0
 17 18  1  0  0  0  0
 20 19  2  0  0  0  0
 21 22  1  0  0  0  0
 21  9  1  0  0  0  0
 23 22  1  0  0  0  0
 24 25  1  0  0  0  0
 24 23  2  0  0  0  0
 25 21  2  0  0  0  0
M  END
>  <Pose>
1

>  <Score>
-8.068

$$$$
