MODEL 1
REMARK VINA RESULT:    -8.068      0.000      0.000
REMARK INTER + INTRA:          -9.519
REMARK INTER:                  -9.012
REMARK INTRA:                  -0.508
REMARK UNBOUND:                -0.508
REMARK  2 active torsions:
REMARK  status: ('A' for Active; 'I' for Inactive)
REMARK    1  A    between atoms: C_7  and  C_11 
REMARK       I    between atoms: C_11  and  N_13 
REMARK       I    between atoms: N_16  and  C_19 
REMARK    2  A    between atoms: C_19  and  C_21 
ROOT
ATOM      1  C   UNK d   1      12.293   5.577  11.091  0.00  0.00     0.259 C 
ATOM      2  O   UNK d   1      12.910   6.605  10.690  0.00  0.00    -0.267 OA
ATOM      3  N   UNK d   1      12.997   4.467  11.627  0.00  0.00    -0.345 N 
ATOM      4  C   UNK d   1      12.201   3.312  12.070  0.00  0.00     0.146 C 
ATOM      5  C   UNK d   1      13.165   2.132  11.947  0.00  0.00     0.145 C 
ATOM      6  N   UNK d   1      13.923   2.368  10.754  0.00  0.00    -0.354 N 
ATOM      7  C   UNK d   1      15.079   3.281  10.990  0.00  0.00     0.145 C 
ATOM      8  C   UNK d   1      14.448   4.457  11.740  0.00  0.00     0.146 C 
ATOM      9  C   UNK d   1      13.683   1.903   9.472  0.00  0.00     0.211 C 
ATOM     10  O   UNK d   1      14.549   2.224   8.556  0.00  0.00    -0.169 OA
ENDROOT
BRANCH   1  11
ATOM     11  C   UNK d   1      10.855   5.568  10.988  0.00  0.00     0.099 A 
ATOM     12  C   UNK d   1      10.063   5.249   9.910  0.00  0.00     0.160 A 
ATOM     13  N   UNK d   1       8.771   5.375  10.255  0.00  0.00    -0.178 NA
ATOM     14  N   UNK d   1       8.719   5.767  11.529  0.00  0.00    -0.225 N 
ATOM     15  C   UNK d   1       7.694   6.029  12.331  0.00  0.00     0.141 A 
ATOM     16  C   UNK d   1       9.968   5.895  12.008  0.00  0.00     0.167 A 
ATOM     17  C   UNK d   1       7.892   6.422  13.617  0.00  0.00     0.046 A 
ATOM     18 Br   UNK d   1       6.416   6.796  14.761  0.00  0.00    -0.048 Br
ATOM     19  C   UNK d   1       9.165   6.550  14.100  0.00  0.00     0.139 A 
ATOM     20  N   UNK d   1      10.180   6.281  13.276  0.00  0.00    -0.239 NA
ENDBRANCH   1  11
BRANCH   9  21
ATOM     21  C   UNK d   1      12.589   1.091   8.966  0.00  0.00     0.128 A 
ATOM     22  O   UNK d   1      11.310   1.215   9.351  0.00  0.00    -0.318 OA
ATOM     23  C   UNK d   1      10.541   0.372   8.751  0.00  0.00     0.142 A 
ATOM     24  C   UNK d   1      11.287  -0.398   7.895  0.00  0.00     0.027 A 
ATOM     25  C   UNK d   1      12.582   0.072   8.045  0.00  0.00     0.043 A 
ENDBRANCH   9  21
TORSDOF 2
ENDMDL
