MODEL 1
REMARK VINA RESULT:    -9.480      0.000      0.000
REMARK INTER + INTRA:         -12.779
REMARK INTER:                 -12.251
REMARK INTRA:                  -0.528
REMARK UNBOUND:                -0.528
REMARK  5 active torsions:
REMARK  status: ('A' for Active; 'I' for Inactive)
REMARK    1  A    between atoms: C_7  and  C_11 
REMARK    2  A    between atoms: C_11  and  O_12 
REMARK    3  A    between atoms: O_12  and  C_13 
REMARK    4  A    between atoms: C_13  and  C_15 
REMARK    5  A    between atoms: C_15  and  N_16 
ROOT
ATOM      1  O   UNK d   1      10.770   5.554  11.238  0.00  0.00    -0.314 OA
ENDROOT
BRANCH   1   2
ATOM      2  C   UNK d   1       9.962   6.676  11.000  0.00  0.00     0.238 C 
BRANCH   2   3
ATOM      3  C   UNK d   1       8.846   6.824  11.970  0.00  0.00     0.066 A 
ATOM      4  N   UNK d   1       7.856   7.729  11.784  0.00  0.00    -0.233 NA
ATOM      5  C   UNK d   1       6.834   7.879  12.644  0.00  0.00     0.137 A 
ATOM      6  N   UNK d   1       6.720   7.139  13.761  0.00  0.00    -0.272 N 
ATOM      7  C   UNK d   1       5.828   8.823  12.418  0.00  0.00     0.052 A 
ATOM      8  C   UNK d   1       5.686   7.304  14.614  0.00  0.00     0.121 A 
ATOM      9  C   UNK d   1       7.685   6.224  13.990  0.00  0.00     0.255 A 
ATOM     10  C   UNK d   1       4.681   8.226  14.418  0.00  0.00     0.027 A 
ATOM     11 Br   UNK d   1       3.236   8.419  15.664  0.00  0.00    -0.050 Br
ATOM     12  C   UNK d   1       4.770   9.001  13.282  0.00  0.00     0.024 A 
ATOM     13  C   UNK d   1       8.750   6.054  13.110  0.00  0.00     0.104 A 
ATOM     14  O   UNK d   1       7.588   5.536  15.018  0.00  0.00    -0.268 OA
ENDBRANCH   2   3
ENDBRANCH   1   2
BRANCH   1  15
ATOM     15  C   UNK d   1      11.635   4.982  10.328  0.00  0.00     0.277 C 
ATOM     16  O   UNK d   1      11.682   5.422   9.162  0.00  0.00    -0.263 OA
BRANCH  15  17
ATOM     17  C   UNK d   1      12.489   3.856  10.770  0.00  0.00     0.246 C 
BRANCH  17  18
ATOM     18  N   UNK d   1      12.209   2.669  10.014  0.00  0.00    -0.271 N 
ATOM     19  C   UNK d   1      10.990   1.958  10.000  0.00  0.00     0.262 A 
ATOM     20  O   UNK d   1       9.922   2.194  10.621  0.00  0.00    -0.267 OA
ATOM     21  C   UNK d   1      11.140   0.803   9.089  0.00  0.00     0.048 A 
ATOM     22  C   UNK d   1      12.411   0.838   8.582  0.00  0.00     0.048 A 
ATOM     23  C   UNK d   1      10.255  -0.196   8.723  0.00  0.00     0.018 A 
ATOM     24  C   UNK d   1      12.857  -0.105   7.701  0.00  0.00     0.018 A 
ATOM     25  C   UNK d   1      13.098   2.000   9.150  0.00  0.00     0.262 A 
ATOM     26  C   UNK d   1      11.997  -1.108   7.323  0.00  0.00     0.001 A 
ATOM     27  C   UNK d   1      10.714  -1.143   7.834  0.00  0.00     0.001 A 
ATOM     28  O   UNK d   1      14.296   2.322   8.884  0.00  0.00    -0.267 OA
ENDBRANCH  17  18
ENDBRANCH  15  17
ENDBRANCH   1  15
TORSDOF 5
ENDMDL
