/Users/jonathanwahrer/Desktop/Msc/3_Semester/Drug_Design_Praktikum/waehrer_HTS_screening/HTS_experiment/out/docking_results/vina_output/2jam/0797_docked.pdbqt
 OpenBabel03162217543D

 28 31  0  0  0  0  0  0  0  0999 V2000
   10.7700    5.5540   11.2380 O   0  0  0  0  0  0  0  0  0  0  0  0
    9.9620    6.6760   11.0000 C   0  0  0  0  0  2  0  0  0  0  0  0
    8.8460    6.8240   11.9700 C   0  0  0  0  0  0  0  0  0  0  0  0
    7.8560    7.7290   11.7840 N   0  0  0  0  0  0  0  0  0  0  0  0
    6.8340    7.8790   12.6440 C   0  0  0  0  0  0  0  0  0  0  0  0
    6.7200    7.1390   13.7610 N   0  0  0  0  0  0  0  0  0  0  0  0
    5.8280    8.8230   12.4180 C   0  0  0  0  0  3  0  0  0  0  0  0
    5.6860    7.3040   14.6140 C   0  0  0  0  0  3  0  0  0  0  0  0
    7.6850    6.2240   13.9900 C   0  0  0  0  0  0  0  0  0  0  0  0
    4.6810    8.2260   14.4180 C   0  0  0  0  0  0  0  0  0  0  0  0
    3.2360    8.4190   15.6640 Br  0  0  0  0  0  0  0  0  0  0  0  0
    4.7700    9.0010   13.2820 C   0  0  0  0  0  3  0  0  0  0  0  0
    8.7500    6.0540   13.1100 C   0  0  0  0  0  3  0  0  0  0  0  0
    7.5880    5.5360   15.0180 O   0  0  0  0  0  0  0  0  0  0  0  0
   11.6350    4.9820   10.3280 C   0  0  0  0  0  0  0  0  0  0  0  0
   11.6820    5.4220    9.1620 O   0  0  0  0  0  0  0  0  0  0  0  0
   12.4890    3.8560   10.7700 C   0  0  0  0  0  2  0  0  0  0  0  0
   12.2090    2.6690   10.0140 N   0  0  0  0  0  0  0  0  0  0  0  0
   10.9900    1.9580   10.0000 C   0  0  0  0  0  0  0  0  0  0  0  0
    9.9220    2.1940   10.6210 O   0  0  0  0  0  0  0  0  0  0  0  0
   11.1400    0.8030    9.0890 C   0  0  0  0  0  0  0  0  0  0  0  0
   12.4110    0.8380    8.5820 C   0  0  0  0  0  0  0  0  0  0  0  0
   10.2550   -0.1960    8.7230 C   0  0  0  0  0  3  0  0  0  0  0  0
   12.8570   -0.1050    7.7010 C   0  0  0  0  0  3  0  0  0  0  0  0
   13.0980    2.0000    9.1500 C   0  0  0  0  0  0  0  0  0  0  0  0
   11.9970   -1.1080    7.3230 C   0  0  0  0  0  3  0  0  0  0  0  0
   10.7140   -1.1430    7.8340 C   0  0  0  0  0  3  0  0  0  0  0  0
   14.2960    2.3220    8.8840 O   0  0  0  0  0  0  0  0  0  0  0  0
  2  1  1  0  0  0  0
  2  3  1  0  0  0  0
  3 13  2  0  0  0  0
  4  3  1  0  0  0  0
  4  5  2  0  0  0  0
  5  6  1  0  0  0  0
  6  9  1  0  0  0  0
  6  8  1  0  0  0  0
  7  5  1  0  0  0  0
  7 12  2  0  0  0  0
  9 14  2  0  0  0  0
 10  8  2  0  0  0  0
 10 11  1  0  0  0  0
 12 10  1  0  0  0  0
 13  9  1  0  0  0  0
 15 17  1  0  0  0  0
 15  1  1  0  0  0  0
 16 15  2  0  0  0  0
 18 17  1  0  0  0  0
 19 18  1  0  0  0  0
 19 20  2  0  0  0  0
 21 19  1  0  0  0  0
 22 21  2  0  0  0  0
 22 25  1  0  0  0  0
 23 21  1  0  0  0  0
 24 22  1  0  0  0  0
 25 18  1  0  0  0  0
 26 24  2  0  0  0  0
 26 27  1  0  0  0  0
 27 23  2  0  0  0  0
 28 25  2  0  0  0  0
M  END
>  <Pose>
1

>  <Score>
-9.480

$$$$
