MODEL 1
REMARK VINA RESULT:    -9.047      0.000      0.000
REMARK INTER + INTRA:         -12.266
REMARK INTER:                 -11.691
REMARK INTRA:                  -0.575
REMARK UNBOUND:                -0.575
REMARK  5 active torsions:
REMARK  status: ('A' for Active; 'I' for Inactive)
REMARK    1  A    between atoms: C_7  and  C_11 
REMARK    2  A    between atoms: C_11  and  O_12 
REMARK    3  A    between atoms: O_12  and  C_13 
REMARK    4  A    between atoms: C_13  and  C_15 
REMARK    5  A    between atoms: C_15  and  N_16 
ROOT
ATOM      1  C   UNK d   1       8.424   7.557  11.854  0.00  0.00     0.277 C 
ATOM      2  O   UNK d   1       8.292   8.628  11.207  0.00  0.00    -0.263 OA
ENDROOT
BRANCH   1   3
ATOM      3  O   UNK d   1       9.678   7.220  12.304  0.00  0.00    -0.314 OA
BRANCH   3   4
ATOM      4  C   UNK d   1       9.948   6.020  13.004  0.00  0.00     0.238 C 
BRANCH   4   5
ATOM      5  C   UNK d   1      10.759   5.133  12.133  0.00  0.00     0.066 A 
ATOM      6  N   UNK d   1      12.075   4.952  12.340  0.00  0.00    -0.233 NA
ATOM      7  C   UNK d   1      12.824   4.145  11.551  0.00  0.00     0.137 A 
ATOM      8  N   UNK d   1      12.270   3.484  10.514  0.00  0.00    -0.272 N 
ATOM      9  C   UNK d   1      14.173   3.994  11.806  0.00  0.00     0.052 A 
ATOM     10  C   UNK d   1      12.995   2.678   9.720  0.00  0.00     0.121 A 
ATOM     11  C   UNK d   1      10.950   3.633  10.266  0.00  0.00     0.255 A 
ATOM     12  C   UNK d   1      14.341   2.524   9.969  0.00  0.00     0.027 A 
ATOM     13 Br   UNK d   1      15.368   1.378   8.837  0.00  0.00    -0.050 Br
ATOM     14  C   UNK d   1      14.960   3.181  11.022  0.00  0.00     0.024 A 
ATOM     15  C   UNK d   1      10.176   4.466  11.081  0.00  0.00     0.104 A 
ATOM     16  O   UNK d   1      10.433   3.027   9.314  0.00  0.00    -0.268 OA
ENDBRANCH   4   5
ENDBRANCH   3   4
ENDBRANCH   1   3
BRANCH   1  17
ATOM     17  C   UNK d   1       7.202   6.742  12.078  0.00  0.00     0.247 C 
BRANCH  17  18
ATOM     18  N   UNK d   1       6.058   7.543  12.398  0.00  0.00    -0.259 N 
ATOM     19  C   UNK d   1       5.096   8.056  11.478  0.00  0.00     0.326 C 
ATOM     20  O   UNK d   1       5.118   7.871  10.227  0.00  0.00    -0.247 OA
ATOM     21  N   UNK d   1       4.130   8.795  12.216  0.00  0.00    -0.324 N 
ATOM     22  C   UNK d   1       4.563   8.889  13.587  0.00  0.00     0.116 C 
ATOM     23  H   UNK d   1       3.266   9.188  11.803  0.00  0.00     0.165 HD
ATOM     24  C   UNK d   1       5.016  10.274  13.965  0.00  0.00     0.041 C 
ATOM     25  C   UNK d   1       3.489   8.604  14.580  0.00  0.00     0.041 C 
ATOM     26  C   UNK d   1       5.689   7.965  13.713  0.00  0.00     0.256 C 
ATOM     27  C   UNK d   1       4.941  10.264  15.460  0.00  0.00     0.003 C 
ATOM     28  C   UNK d   1       4.114   9.082  15.873  0.00  0.00     0.003 C 
ATOM     29  O   UNK d   1       6.267   7.577  14.755  0.00  0.00    -0.270 OA
ENDBRANCH  17  18
ENDBRANCH   1  17
TORSDOF 5
ENDMDL
