MODEL 1
REMARK VINA RESULT:    -8.569      0.000      0.000
REMARK INTER + INTRA:         -12.752
REMARK INTER:                 -11.575
REMARK INTRA:                  -1.178
REMARK UNBOUND:                -1.178
REMARK  6 active torsions:
REMARK  status: ('A' for Active; 'I' for Inactive)
REMARK    1  A    between atoms: C_16  and  N_17 
REMARK    2  A    between atoms: N_17  and  C_18 
REMARK    3  A    between atoms: C_19  and  C_24 
REMARK    4  A    between atoms: C_24  and  O_26 
REMARK    5  A    between atoms: O_26  and  C_27 
REMARK    6  A    between atoms: C_27  and  C_28 
ROOT
ATOM      1 Br   UNK d   1      13.820   6.355  12.240  0.00  0.00    -0.046 Br
ATOM      2  C   UNK d   1      12.672   5.011  11.543  0.00  0.00     0.072 A 
ATOM      3  C   UNK d   1      13.092   4.030  10.715  0.00  0.00     0.141 A 
ATOM      4  N   UNK d   1      12.309   3.033  10.291  0.00  0.00    -0.118 N 
ATOM      5  C   UNK d   1      11.044   3.001  10.707  0.00  0.00     0.716 A 
ATOM      6  N   UNK d   1      10.225   1.998  10.281  0.00  0.00    -0.063 NA
ATOM      7  C   UNK d   1      10.624   1.036   9.462  0.00  0.00     0.091 A 
ATOM      8  C   UNK d   1      11.927   1.046   9.019  0.00  0.00     0.062 A 
ATOM      9  C   UNK d   1      12.401   0.075   8.159  0.00  0.00     0.019 A 
ATOM     10  C   UNK d   1      11.593  -0.964   7.693  0.00  0.00     0.001 A 
ATOM     11  C   UNK d   1      10.291  -0.964   8.143  0.00  0.00     0.002 A 
ATOM     12  C   UNK d   1       9.812   0.007   9.005  0.00  0.00     0.033 A 
ATOM     13  C   UNK d   1      12.746   2.076   9.465  0.00  0.00     0.278 A 
ATOM     14  O   UNK d   1      13.933   2.097   9.069  0.00  0.00    -0.266 OA
ATOM     15  N   UNK d   1      10.598   3.974  11.536  0.00  0.00    -0.173 N 
ATOM     16  C   UNK d   1      11.310   4.993  11.996  0.00  0.00     0.140 A 
ATOM     17  H   UNK d   1       9.568   3.833  11.794  0.00  0.00     0.186 HD
ENDROOT
BRANCH  16  18
ATOM     18  N   UNK d   1      10.906   6.056  12.740  0.00  0.00    -0.340 N 
ATOM     19  H   UNK d   1      11.529   6.939  11.903  0.00  0.00     0.167 HD
BRANCH  18  20
ATOM     20  C   UNK d   1      10.508   7.104  13.473  0.00  0.00     0.050 A 
ATOM     21  C   UNK d   1       9.647   8.053  12.907  0.00  0.00     0.066 A 
ATOM     22  C   UNK d   1       9.415   9.236  13.529  0.00  0.00     0.020 A 
ATOM     23  C   UNK d   1      10.018   9.522  14.730  0.00  0.00     0.001 A 
ATOM     24  C   UNK d   1      10.869   8.629  15.341  0.00  0.00     0.002 A 
ATOM     25  C   UNK d   1      11.090   7.438  14.690  0.00  0.00     0.030 A 
BRANCH  21  26
ATOM     26  C   UNK d   1       8.850   7.759  11.710  0.00  0.00     0.295 C 
ATOM     27  O   UNK d   1       9.421   7.845  10.594  0.00  0.00    -0.259 OA
BRANCH  26  28
ATOM     28  O   UNK d   1       7.532   7.403  11.703  0.00  0.00    -0.317 OA
BRANCH  28  29
ATOM     29  C   UNK d   1       7.053   6.220  12.312  0.00  0.00     0.178 C 
BRANCH  29  30
ATOM     30  C   UNK d   1       6.540   6.521  13.723  0.00  0.00     0.022 C 
ATOM     31  C   UNK d   1       7.304   5.667  14.707  0.00  0.00     0.007 C 
ENDBRANCH  29  30
ENDBRANCH  28  29
ENDBRANCH  26  28
ENDBRANCH  21  26
ENDBRANCH  18  20
ENDBRANCH  16  18
TORSDOF 6
ENDMDL
