MODEL 1
REMARK VINA RESULT:    -7.201      0.000      0.000
REMARK INTER + INTRA:          -8.520
REMARK INTER:                  -9.096
REMARK INTRA:                   0.576
REMARK UNBOUND:                 0.576
REMARK  5 active torsions:
REMARK  status: ('A' for Active; 'I' for Inactive)
REMARK    1  A    between atoms: C_5  and  C_8 
REMARK    2  A    between atoms: C_8  and  O_27 
REMARK    3  A    between atoms: N_9  and  C_18 
REMARK    4  A    between atoms: C_21  and  O_24 
REMARK    5  A    between atoms: O_24  and  C_25 
ROOT
ATOM      1  C   UNK d   1      17.907   5.600  10.837  0.00  0.00     0.283 C 
ATOM      2  N   UNK d   1      17.753   4.157  11.003  0.00  0.00     0.042 N 
ATOM      3  C   UNK d   1      18.664   3.696  11.922  0.00  0.00     0.210 C 
ATOM      4  C   UNK d   1      19.093   2.478  12.141  0.00  0.00     0.030 C 
ATOM      5  C   UNK d   1      20.060   1.870  13.100  0.00  0.00     0.031 C 
ATOM      6  C   UNK d   1      20.838   2.867  13.901  0.00  0.00     0.005 C 
ATOM      7  C   UNK d   1      19.929   3.787  14.680  0.00  0.00     0.020 C 
ATOM      8  C   UNK d   1      19.715   5.076  13.911  0.00  0.00     0.124 C 
ATOM      9  N   UNK d   1      19.218   4.852  12.592  0.00  0.00    -0.356 N 
ATOM     10  C   UNK d   1      19.232   5.933  11.596  0.00  0.00     0.200 C 
ATOM     11  H   UNK d   1      18.247   3.830  10.030  0.00  0.00     0.299 HD
ENDROOT
BRANCH   2  12
ATOM     12  C   UNK d   1      16.486   3.661  10.839  0.00  0.00     0.146 A 
ATOM     13  C   UNK d   1      15.479   3.737  11.753  0.00  0.00     0.041 A 
ATOM     14  C   UNK d   1      14.256   3.060  11.602  0.00  0.00     0.039 A 
ATOM     15  C   UNK d   1      14.020   2.278  10.502  0.00  0.00     0.068 A 
ATOM     16  C   UNK d   1      15.040   2.198   9.566  0.00  0.00     0.039 A 
ATOM     17  C   UNK d   1      16.238   2.862   9.719  0.00  0.00     0.041 A 
BRANCH  15  18
ATOM     18  O   UNK d   1      12.826   1.594  10.341  0.00  0.00    -0.352 OA
BRANCH  18  19
ATOM     19  C   UNK d   1      12.513   0.751   9.261  0.00  0.00     0.171 C 
ATOM     20  C   UNK d   1      10.983   0.831   9.104  0.00  0.00     0.034 C 
ENDBRANCH  18  19
ENDBRANCH  15  18
ENDBRANCH   2  12
BRANCH   1  21
ATOM     21  C   UNK d   1      16.888   6.335  11.639  0.00  0.00     0.007 A 
ATOM     22  C   UNK d   1      16.867   6.310  13.014  0.00  0.00     0.013 A 
ATOM     23  C   UNK d   1      15.910   7.012  13.715  0.00  0.00     0.020 A 
ATOM     24  C   UNK d   1      14.955   7.753  13.044  0.00  0.00     0.011 A 
ATOM     25 Br   UNK d   1      13.646   8.698  14.033  0.00  0.00    -0.051 Br
ATOM     26  C   UNK d   1      14.964   7.787  11.673  0.00  0.00     0.020 A 
ATOM     27  C   UNK d   1      15.946   7.067  10.980  0.00  0.00     0.013 A 
ENDBRANCH   1  21
BRANCH   1  28
ATOM     28  O   UNK d   1      18.070   5.980   9.561  0.00  0.00    -0.359 OA
ATOM     29  H   UNK d   1      17.577   6.731   9.200  0.00  0.00     0.213 HD
ENDBRANCH   1  28
TORSDOF 5
ENDMDL
