MODEL 1
REMARK VINA RESULT:    -7.365      0.000      0.000
REMARK INTER + INTRA:          -9.572
REMARK INTER:                  -8.872
REMARK INTRA:                  -0.700
REMARK UNBOUND:                -0.700
REMARK  4 active torsions:
REMARK  status: ('A' for Active; 'I' for Inactive)
REMARK    1  A    between atoms: C_5  and  C_8 
REMARK    2  A    between atoms: C_8  and  O_26 
REMARK    3  A    between atoms: N_16  and  C_18 
REMARK    4  A    between atoms: C_19  and  O_24 
ROOT
ATOM      1  C   UNK d   1      13.226   3.532  11.952  0.00  0.00     0.189 C 
ATOM      2  N   UNK d   1      12.478   4.137  10.858  0.00  0.00    -0.324 N 
ATOM      3  C   UNK d   1      12.802   5.453  10.318  0.00  0.00     0.128 C 
ATOM      4  C   UNK d   1      11.743   6.000   9.434  0.00  0.00     0.020 C 
ATOM      5  C   UNK d   1      10.365   5.985  10.042  0.00  0.00     0.005 C 
ATOM      6  C   UNK d   1       9.692   4.728   9.523  0.00  0.00     0.031 C 
ATOM      7  C   UNK d   1      10.283   3.489   9.934  0.00  0.00     0.030 C 
ATOM      8  C   UNK d   1      11.480   3.231  10.509  0.00  0.00     0.208 C 
ATOM      9  N   UNK d   1      11.862   1.911  10.817  0.00  0.00     0.011 N 
ATOM     10  C   UNK d   1      13.024   2.091  11.638  0.00  0.00     0.316 C 
ATOM     11  H   UNK d   1      11.150   1.369  11.359  0.00  0.00     0.295 HD
ENDROOT
BRANCH   1  12
ATOM     12  C   UNK d   1      14.639   3.959  11.913  0.00  0.00    -0.001 A 
ATOM     13  C   UNK d   1      15.484   3.365  10.971  0.00  0.00     0.013 A 
ATOM     14  C   UNK d   1      16.822   3.761  10.982  0.00  0.00     0.020 A 
ATOM     15  C   UNK d   1      17.272   4.693  11.888  0.00  0.00     0.011 A 
ATOM     16 Br   UNK d   1      19.116   5.208  11.868  0.00  0.00    -0.051 Br
ATOM     17  C   UNK d   1      16.405   5.261  12.806  0.00  0.00     0.020 A 
ATOM     18  C   UNK d   1      15.073   4.882  12.811  0.00  0.00     0.013 A 
ENDBRANCH   1  12
BRANCH   1  19
ATOM     19  O   UNK d   1      12.642   3.941  13.123  0.00  0.00    -0.365 OA
ATOM     20  H   UNK d   1      12.884   3.400  13.904  0.00  0.00     0.213 HD
ENDBRANCH   1  19
BRANCH   9  21
ATOM     21  C   UNK d   1      12.167   1.285   9.570  0.00  0.00     0.175 A 
ATOM     22  C   UNK d   1      11.278   0.400   8.985  0.00  0.00     0.103 A 
ATOM     23  C   UNK d   1      11.702  -0.213   7.813  0.00  0.00     0.039 A 
ATOM     24  C   UNK d   1      12.931   0.010   7.220  0.00  0.00     0.003 A 
ATOM     25  C   UNK d   1      13.803   0.921   7.853  0.00  0.00     0.002 A 
ATOM     26  C   UNK d   1      13.379   1.510   8.989  0.00  0.00     0.041 A 
BRANCH  22  27
ATOM     27  O   UNK d   1      10.064   0.174   9.557  0.00  0.00    -0.354 OA
ATOM     28  C   UNK d   1       9.026  -0.462   8.858  0.00  0.00     0.210 C 
ENDBRANCH  22  27
ENDBRANCH   9  21
TORSDOF 4
ENDMDL
