MODEL 1
REMARK VINA RESULT:    -8.030      0.000      0.000
REMARK INTER + INTRA:         -10.056
REMARK INTER:                  -9.673
REMARK INTRA:                  -0.383
REMARK UNBOUND:                -0.383
REMARK  4 active torsions:
REMARK  status: ('A' for Active; 'I' for Inactive)
REMARK    1  A    between atoms: C_5  and  C_8 
REMARK    2  A    between atoms: C_8  and  O_26 
REMARK    3  A    between atoms: N_16  and  C_18 
REMARK    4  A    between atoms: C_21  and  O_24 
ROOT
ATOM      1  C   UNK d   1      11.785   2.443   9.939  0.00  0.00     0.189 C 
ATOM      2  N   UNK d   1      13.162   2.707   9.671  0.00  0.00    -0.324 N 
ATOM      3  C   UNK d   1      13.786   2.928   8.403  0.00  0.00     0.128 C 
ATOM      4  C   UNK d   1      15.053   2.213   8.133  0.00  0.00     0.020 C 
ATOM      5  C   UNK d   1      15.600   1.361   9.220  0.00  0.00     0.005 C 
ATOM      6  C   UNK d   1      16.184   2.188  10.365  0.00  0.00     0.031 C 
ATOM      7  C   UNK d   1      15.046   2.506  11.284  0.00  0.00     0.030 C 
ATOM      8  C   UNK d   1      13.776   2.723  10.989  0.00  0.00     0.208 C 
ATOM      9  N   UNK d   1      12.770   3.002  11.955  0.00  0.00     0.009 N 
ATOM     10  C   UNK d   1      11.696   2.200  11.449  0.00  0.00     0.316 C 
ATOM     11  H   UNK d   1      13.119   2.667  12.887  0.00  0.00     0.295 HD
ENDROOT
BRANCH   1  12
ATOM     12  C   UNK d   1      11.186   1.254   9.336  0.00  0.00    -0.001 A 
ATOM     13  C   UNK d   1      11.759   0.368   8.485  0.00  0.00     0.013 A 
ATOM     14  C   UNK d   1      11.070  -0.730   7.985  0.00  0.00     0.020 A 
ATOM     15  C   UNK d   1       9.760  -0.952   8.349  0.00  0.00     0.011 A 
ATOM     16 Br   UNK d   1       8.789  -2.459   7.679  0.00  0.00    -0.051 Br
ATOM     17  C   UNK d   1       9.176  -0.056   9.212  0.00  0.00     0.020 A 
ATOM     18  C   UNK d   1       9.845   1.031   9.713  0.00  0.00     0.013 A 
ENDBRANCH   1  12
BRANCH   1  19
ATOM     19  O   UNK d   1      10.953   3.519   9.575  0.00  0.00    -0.365 OA
ATOM     20  H   UNK d   1      10.407   3.703  10.381  0.00  0.00     0.213 HD
ENDBRANCH   1  19
BRANCH   9  21
ATOM     21  C   UNK d   1      12.496   4.379  11.949  0.00  0.00     0.142 A 
ATOM     22  C   UNK d   1      11.290   4.876  12.477  0.00  0.00     0.040 A 
ATOM     23  C   UNK d   1      10.991   6.212  12.483  0.00  0.00     0.039 A 
ATOM     24  C   UNK d   1      11.873   7.136  11.966  0.00  0.00     0.068 A 
ATOM     25  C   UNK d   1      13.055   6.677  11.445  0.00  0.00     0.039 A 
ATOM     26  C   UNK d   1      13.355   5.330  11.439  0.00  0.00     0.040 A 
BRANCH  24  27
ATOM     27  O   UNK d   1      11.557   8.508  11.976  0.00  0.00    -0.356 OA
ATOM     28  C   UNK d   1      11.715   9.255  13.154  0.00  0.00     0.210 C 
ENDBRANCH  24  27
ENDBRANCH   9  21
TORSDOF 4
ENDMDL
