/Users/jonathanwahrer/Desktop/Msc/3_Semester/Drug_Design_Praktikum/waehrer_HTS_screening/HTS_experiment/out/docking_results/vina_output/2jam/0834_docked.pdbqt
 OpenBabel03162217563D

 28 31  0  0  1  0  0  0  0  0999 V2000
   11.7850    2.4430    9.9390 C   0  0  2  0  0  0  0  0  0  0  0  0
   13.1620    2.7070    9.6710 N   0  0  0  0  0  0  0  0  0  0  0  0
   13.7860    2.9280    8.4030 C   0  0  0  0  0  3  0  0  0  0  0  0
   15.0530    2.2130    8.1330 C   0  0  0  0  0  3  0  0  0  0  0  0
   15.6000    1.3610    9.2200 C   0  0  0  0  0  2  0  0  0  0  0  0
   16.1840    2.1880   10.3650 C   0  0  0  0  0  2  0  0  0  0  0  0
   15.0460    2.5060   11.2840 C   0  0  0  0  0  3  0  0  0  0  0  0
   13.7760    2.7230   10.9890 C   0  0  0  0  0  0  0  0  0  0  0  0
   12.7700    3.0020   11.9550 N   0  0  0  0  0  4  0  0  0  0  0  0
   11.6960    2.2000   11.4490 C   0  0  0  0  0  2  0  0  0  0  0  0
   13.1190    2.6670   12.8870 H   0  0  0  0  0  0  0  0  0  0  0  0
   11.1860    1.2540    9.3360 C   0  0  0  0  0  0  0  0  0  0  0  0
   11.7590    0.3680    8.4850 C   0  0  0  0  0  3  0  0  0  0  0  0
   11.0700   -0.7300    7.9850 C   0  0  0  0  0  3  0  0  0  0  0  0
    9.7600   -0.9520    8.3490 C   0  0  0  0  0  0  0  0  0  0  0  0
    8.7890   -2.4590    7.6790 Br  0  0  0  0  0  0  0  0  0  0  0  0
    9.1760   -0.0560    9.2120 C   0  0  0  0  0  3  0  0  0  0  0  0
    9.8450    1.0310    9.7130 C   0  0  0  0  0  3  0  0  0  0  0  0
   10.9530    3.5190    9.5750 O   0  0  0  0  0  0  0  0  0  0  0  0
   10.4070    3.7030   10.3810 H   0  0  0  0  0  0  0  0  0  0  0  0
   12.4960    4.3790   11.9490 C   0  0  0  0  0  0  0  0  0  0  0  0
   11.2900    4.8760   12.4770 C   0  0  0  0  0  3  0  0  0  0  0  0
   10.9910    6.2120   12.4830 C   0  0  0  0  0  3  0  0  0  0  0  0
   11.8730    7.1360   11.9660 C   0  0  0  0  0  0  0  0  0  0  0  0
   13.0550    6.6770   11.4450 C   0  0  0  0  0  3  0  0  0  0  0  0
   13.3550    5.3300   11.4390 C   0  0  0  0  0  3  0  0  0  0  0  0
   11.5570    8.5080   11.9760 O   0  0  0  0  0  0  0  0  0  0  0  0
   11.7150    9.2550   13.1540 C   0  0  0  0  0  1  0  0  0  0  0  0
  1 19  1  6  0  0  0
  1 10  1  0  0  0  0
  2  1  1  0  0  0  0
  2  8  1  0  0  0  0
  3  2  1  0  0  0  0
  4  3  2  0  0  0  0
  4  5  1  0  0  0  0
  5  6  1  0  0  0  0
  6  7  1  0  0  0  0
  8  7  2  0  0  0  0
  8  9  1  0  0  0  0
  9 11  1  0  0  0  0
 10  9  1  0  0  0  0
 12 18  1  0  0  0  0
 12  1  1  0  0  0  0
 13 12  2  0  0  0  0
 14 15  2  0  0  0  0
 14 13  1  0  0  0  0
 15 17  1  0  0  0  0
 16 15  1  0  0  0  0
 17 18  2  0  0  0  0
 19 20  1  0  0  0  0
 21  9  1  0  0  0  0
 21 22  1  0  0  0  0
 22 23  2  0  0  0  0
 24 27  1  0  0  0  0
 24 23  1  0  0  0  0
 25 24  2  0  0  0  0
 26 25  1  0  0  0  0
 26 21  2  0  0  0  0
 27 28  1  0  0  0  0
M  END
>  <Pose>
1

>  <Score>
-8.030

$$$$
