/Users/jonathanwahrer/Desktop/Msc/3_Semester/Drug_Design_Praktikum/waehrer_HTS_screening/HTS_experiment/out/docking_results/vina_output/2jam/0835_docked.pdbqt
 OpenBabel03162217563D

 27 30  0  0  1  0  0  0  0  0999 V2000
   12.5200    3.1530   10.5030 C   0  0  2  0  0  0  0  0  0  0  0  0
   13.9530    2.9930   10.6330 N   0  0  0  0  0  0  0  0  0  0  0  0
   15.0180    2.2860    9.9530 C   0  0  0  0  0  2  0  0  0  0  0  0
   16.3160    3.0670    9.9550 C   0  0  0  0  0  2  0  0  0  0  0  0
   16.6960    3.3400   11.3710 C   0  0  0  0  0  2  0  0  0  0  0  0
   15.5790    3.9390   12.1310 C   0  0  0  0  0  3  0  0  0  0  0  0
   14.3010    3.7700   11.7760 C   0  0  0  0  0  0  0  0  0  0  0  0
   13.1510    4.2640   12.4260 N   0  0  0  0  0  4  0  0  0  0  0  0
   12.0950    3.3600   11.9280 C   0  0  0  0  0  2  0  0  0  0  0  0
   13.1710    4.0290   13.4720 H   0  0  0  0  0  0  0  0  0  0  0  0
   11.8560    1.9800    9.8830 C   0  0  0  0  0  0  0  0  0  0  0  0
   10.5010    1.7890   10.0530 C   0  0  0  0  0  3  0  0  0  0  0  0
    9.8180    0.7120    9.4890 C   0  0  0  0  0  3  0  0  0  0  0  0
   10.5230   -0.1970    8.7320 C   0  0  0  0  0  0  0  0  0  0  0  0
    9.5960   -1.6890    7.9550 Br  0  0  0  0  0  0  0  0  0  0  0  0
   11.8780   -0.0190    8.5540 C   0  0  0  0  0  3  0  0  0  0  0  0
   12.5410    1.0540    9.1200 C   0  0  0  0  0  3  0  0  0  0  0  0
   12.1690    4.2870    9.7790 O   0  0  0  0  0  0  0  0  0  0  0  0
   12.5240    5.0620   10.2780 H   0  0  0  0  0  0  0  0  0  0  0  0
   12.8190    5.5960   12.2040 C   0  0  0  0  0  0  0  0  0  0  0  0
   11.5910    6.1340   12.5010 C   0  0  0  0  0  0  0  0  0  0  0  0
   11.3180    7.4770   12.2330 C   0  0  0  0  0  3  0  0  0  0  0  0
   12.2690    8.2890   11.6700 C   0  0  0  0  0  3  0  0  0  0  0  0
   13.5050    7.7590   11.3710 C   0  0  0  0  0  3  0  0  0  0  0  0
   13.7670    6.4390   11.6370 C   0  0  0  0  0  3  0  0  0  0  0  0
   10.5770    5.3900   13.0700 O   0  0  0  0  0  0  0  0  0  0  0  0
    9.4600    5.9990   13.6270 C   0  0  0  0  0  1  0  0  0  0  0  0
  1 18  1  6  0  0  0
  1  2  1  0  0  0  0
  1  9  1  0  0  0  0
  2  7  1  0  0  0  0
  3  4  1  0  0  0  0
  3  2  1  0  0  0  0
  4  5  1  0  0  0  0
  5  6  1  0  0  0  0
  7  6  2  0  0  0  0
  7  8  1  0  0  0  0
  8 10  1  0  0  0  0
  9  8  1  0  0  0  0
 11 12  1  0  0  0  0
 11  1  1  0  0  0  0
 13 12  2  0  0  0  0
 14 13  1  0  0  0  0
 15 14  1  0  0  0  0
 16 14  2  0  0  0  0
 16 17  1  0  0  0  0
 17 11  2  0  0  0  0
 18 19  1  0  0  0  0
 20  8  1  0  0  0  0
 20 21  1  0  0  0  0
 21 26  1  0  0  0  0
 22 21  2  0  0  0  0
 23 22  1  0  0  0  0
 24 25  1  0  0  0  0
 24 23  2  0  0  0  0
 25 20  2  0  0  0  0
 26 27  1  0  0  0  0
M  END
>  <Pose>
1

>  <Score>
-8.701

$$$$
