MODEL 1
REMARK VINA RESULT:    -8.701      0.000      0.000
REMARK INTER + INTRA:          -9.784
REMARK INTER:                 -10.482
REMARK INTRA:                   0.698
REMARK UNBOUND:                 0.698
REMARK  4 active torsions:
REMARK  status: ('A' for Active; 'I' for Inactive)
REMARK    1  A    between atoms: C_5  and  C_8 
REMARK    2  A    between atoms: C_8  and  O_25 
REMARK    3  A    between atoms: N_15  and  C_17 
REMARK    4  A    between atoms: C_18  and  O_23 
ROOT
ATOM      1  C   UNK d   1      12.520   3.153  10.503  0.00  0.00     0.189 C 
ATOM      2  N   UNK d   1      13.953   2.993  10.633  0.00  0.00    -0.324 N 
ATOM      3  C   UNK d   1      15.018   2.286   9.953  0.00  0.00     0.128 C 
ATOM      4  C   UNK d   1      16.316   3.067   9.955  0.00  0.00     0.024 C 
ATOM      5  C   UNK d   1      16.696   3.340  11.371  0.00  0.00     0.032 C 
ATOM      6  C   UNK d   1      15.579   3.939  12.131  0.00  0.00     0.030 C 
ATOM      7  C   UNK d   1      14.301   3.770  11.776  0.00  0.00     0.208 C 
ATOM      8  N   UNK d   1      13.151   4.264  12.426  0.00  0.00     0.011 N 
ATOM      9  C   UNK d   1      12.095   3.360  11.928  0.00  0.00     0.316 C 
ATOM     10  H   UNK d   1      13.171   4.029  13.472  0.00  0.00     0.295 HD
ENDROOT
BRANCH   1  11
ATOM     11  C   UNK d   1      11.856   1.980   9.883  0.00  0.00    -0.001 A 
ATOM     12  C   UNK d   1      10.501   1.789  10.053  0.00  0.00     0.013 A 
ATOM     13  C   UNK d   1       9.818   0.712   9.489  0.00  0.00     0.020 A 
ATOM     14  C   UNK d   1      10.523  -0.197   8.732  0.00  0.00     0.011 A 
ATOM     15 Br   UNK d   1       9.596  -1.689   7.955  0.00  0.00    -0.051 Br
ATOM     16  C   UNK d   1      11.878  -0.019   8.554  0.00  0.00     0.020 A 
ATOM     17  C   UNK d   1      12.541   1.054   9.120  0.00  0.00     0.013 A 
ENDBRANCH   1  11
BRANCH   1  18
ATOM     18  O   UNK d   1      12.169   4.287   9.779  0.00  0.00    -0.365 OA
ATOM     19  H   UNK d   1      12.524   5.062  10.278  0.00  0.00     0.213 HD
ENDBRANCH   1  18
BRANCH   8  20
ATOM     20  C   UNK d   1      12.819   5.596  12.204  0.00  0.00     0.175 A 
ATOM     21  C   UNK d   1      11.591   6.134  12.501  0.00  0.00     0.103 A 
ATOM     22  C   UNK d   1      11.318   7.477  12.233  0.00  0.00     0.039 A 
ATOM     23  C   UNK d   1      12.269   8.289  11.670  0.00  0.00     0.003 A 
ATOM     24  C   UNK d   1      13.505   7.759  11.371  0.00  0.00     0.002 A 
ATOM     25  C   UNK d   1      13.767   6.439  11.637  0.00  0.00     0.041 A 
BRANCH  21  26
ATOM     26  O   UNK d   1      10.577   5.390  13.070  0.00  0.00    -0.354 OA
ATOM     27  C   UNK d   1       9.460   5.999  13.627  0.00  0.00     0.210 C 
ENDBRANCH  21  26
ENDBRANCH   8  20
TORSDOF 4
ENDMDL
