/Users/jonathanwahrer/Desktop/Msc/3_Semester/Drug_Design_Praktikum/waehrer_HTS_screening/HTS_experiment/out/docking_results/vina_output/2jam/0836_docked.pdbqt
 OpenBabel03162217563D

 27 30  0  0  1  0  0  0  0  0999 V2000
   12.3520    3.4620   11.8020 C   0  0  2  0  0  0  0  0  0  0  0  0
   12.1780    4.8230   11.3590 N   0  0  0  0  0  0  0  0  0  0  0  0
   11.4900    5.4820   10.2580 C   0  0  0  0  0  2  0  0  0  0  0  0
   11.0080    6.8490   10.5520 C   0  0  0  0  0  2  0  0  0  0  0  0
   11.1910    7.3170   11.9750 C   0  0  0  0  0  2  0  0  0  0  0  0
   12.4200    6.8240   12.5900 C   0  0  0  0  0  3  0  0  0  0  0  0
   12.8880    5.6270   12.2900 C   0  0  0  0  0  0  0  0  0  0  0  0
   14.0330    4.8960   12.7170 N   0  0  0  0  0  4  0  0  0  0  0  0
   13.6660    3.5240   12.5460 C   0  0  0  0  0  2  0  0  0  0  0  0
   14.1680    5.1180   13.7400 H   0  0  0  0  0  0  0  0  0  0  0  0
   12.3430    2.4630   10.7350 C   0  0  0  0  0  0  0  0  0  0  0  0
   11.1670    1.8420   10.3720 C   0  0  0  0  0  3  0  0  0  0  0  0
   11.1000    0.8920    9.3740 C   0  0  0  0  0  3  0  0  0  0  0  0
   12.2310    0.5120    8.6770 C   0  0  0  0  0  0  0  0  0  0  0  0
   12.1640   -0.8020    7.2950 Br  0  0  0  0  0  0  0  0  0  0  0  0
   13.4160    1.1230    9.0270 C   0  0  0  0  0  3  0  0  0  0  0  0
   13.4750    2.0750   10.0290 C   0  0  0  0  0  3  0  0  0  0  0  0
   11.2880    3.1760   12.6820 O   0  0  0  0  0  0  0  0  0  0  0  0
   10.9360    2.2960   12.4020 H   0  0  0  0  0  0  0  0  0  0  0  0
   15.1380    5.3170   11.9890 C   0  0  0  0  0  0  0  0  0  0  0  0
   16.0240    4.4050   11.4660 C   0  0  0  0  0  3  0  0  0  0  0  0
   17.1420    4.8330   10.7310 C   0  0  0  0  0  3  0  0  0  0  0  0
   17.3890    6.1590   10.5090 C   0  0  0  0  0  0  0  0  0  0  0  0
   16.4790    7.0900   11.0450 C   0  0  0  0  0  3  0  0  0  0  0  0
   15.3920    6.6370   11.7630 C   0  0  0  0  0  3  0  0  0  0  0  0
   18.4750    6.6540    9.7900 O   0  0  0  0  0  0  0  0  0  0  0  0
   19.8190    6.4150   10.0550 C   0  0  0  0  0  1  0  0  0  0  0  0
  1  9  1  0  0  0  0
  1 18  1  1  0  0  0
  2  1  1  0  0  0  0
  2  7  1  0  0  0  0
  3  4  1  0  0  0  0
  3  2  1  0  0  0  0
  4  5  1  0  0  0  0
  5  6  1  0  0  0  0
  7  6  2  0  0  0  0
  7  8  1  0  0  0  0
  8 10  1  0  0  0  0
  9  8  1  0  0  0  0
 11  1  1  0  0  0  0
 12 11  1  0  0  0  0
 13 12  2  0  0  0  0
 14 16  2  0  0  0  0
 14 13  1  0  0  0  0
 15 14  1  0  0  0  0
 16 17  1  0  0  0  0
 17 11  2  0  0  0  0
 19 18  1  0  0  0  0
 20  8  1  0  0  0  0
 21 20  2  0  0  0  0
 22 21  1  0  0  0  0
 23 22  2  0  0  0  0
 23 24  1  0  0  0  0
 24 25  2  0  0  0  0
 25 20  1  0  0  0  0
 26 27  1  0  0  0  0
 26 23  1  0  0  0  0
M  END
>  <Pose>
1

>  <Score>
-7.293

$$$$
