MODEL 1
REMARK VINA RESULT:    -8.482      0.000      0.000
REMARK INTER + INTRA:         -10.500
REMARK INTER:                 -10.713
REMARK INTRA:                   0.213
REMARK UNBOUND:                 0.213
REMARK  5 active torsions:
REMARK  status: ('A' for Active; 'I' for Inactive)
REMARK    1  A    between atoms: C_5  and  N_8 
REMARK    2  A    between atoms: C_9  and  O_18 
REMARK    3  A    between atoms: C_9  and  C_19 
REMARK    4  A    between atoms: C_22  and  O_25 
REMARK    5  A    between atoms: O_25  and  C_26 
ROOT
ATOM      1  N   UNK d   1      12.814   2.521   9.880  0.00  0.00     0.042 N 
ATOM      2  C   UNK d   1      13.582   2.200  11.046  0.00  0.00     0.283 C 
ATOM      3  C   UNK d   1      12.510   2.374  12.121  0.00  0.00     0.200 C 
ATOM      4  N   UNK d   1      11.771   3.559  11.659  0.00  0.00    -0.356 N 
ATOM      5  C   UNK d   1      10.954   4.304  12.550  0.00  0.00     0.124 C 
ATOM      6  C   UNK d   1      10.310   5.519  11.954  0.00  0.00     0.020 C 
ATOM      7  C   UNK d   1      11.351   6.334  11.236  0.00  0.00     0.005 C 
ATOM      8  C   UNK d   1      11.181   5.980   9.752  0.00  0.00     0.031 C 
ATOM      9  C   UNK d   1      11.888   4.711   9.488  0.00  0.00     0.030 C 
ATOM     10  C   UNK d   1      12.114   3.687  10.280  0.00  0.00     0.210 C 
ATOM     11  H   UNK d   1      13.512   2.708   9.094  0.00  0.00     0.299 HD
ENDROOT
BRANCH   2  12
ATOM     12  O   UNK d   1      14.238   1.011  11.062  0.00  0.00    -0.359 OA
ATOM     13  H   UNK d   1      13.782   0.320  11.577  0.00  0.00     0.213 HD
ENDBRANCH   2  12
BRANCH   2  14
ATOM     14  C   UNK d   1      14.602   3.246  11.345  0.00  0.00     0.007 A 
ATOM     15  C   UNK d   1      14.474   4.219  12.291  0.00  0.00     0.015 A 
ATOM     16  C   UNK d   1      15.483   5.176  12.530  0.00  0.00     0.037 A 
ATOM     17  C   UNK d   1      16.651   5.163  11.806  0.00  0.00     0.068 A 
ATOM     18  C   UNK d   1      16.791   4.187  10.849  0.00  0.00     0.037 A 
ATOM     19  C   UNK d   1      15.804   3.256  10.618  0.00  0.00     0.015 A 
BRANCH  17  20
ATOM     20  O   UNK d   1      17.663   6.108  12.038  0.00  0.00    -0.352 OA
BRANCH  20  21
ATOM     21  C   UNK d   1      18.432   6.640  10.985  0.00  0.00     0.171 C 
ATOM     22  C   UNK d   1      17.711   7.715  10.234  0.00  0.00     0.034 C 
ENDBRANCH  20  21
ENDBRANCH  17  20
ENDBRANCH   2  14
BRANCH   1  23
ATOM     23  C   UNK d   1      11.959   1.560   9.384  0.00  0.00     0.146 A 
ATOM     24  C   UNK d   1      12.439   0.625   8.469  0.00  0.00     0.039 A 
ATOM     25  C   UNK d   1      11.639  -0.383   7.951  0.00  0.00     0.021 A 
ATOM     26  C   UNK d   1      10.320  -0.497   8.328  0.00  0.00     0.011 A 
ATOM     27 Br   UNK d   1       9.203  -1.895   7.640  0.00  0.00    -0.051 Br
ATOM     28  C   UNK d   1       9.821   0.402   9.219  0.00  0.00     0.021 A 
ATOM     29  C   UNK d   1      10.648   1.403   9.723  0.00  0.00     0.039 A 
ENDBRANCH   1  23
TORSDOF 5
ENDMDL
