/Users/jonathanwahrer/Desktop/Msc/3_Semester/Drug_Design_Praktikum/waehrer_HTS_screening/HTS_experiment/out/docking_results/vina_output/2jam/0861_docked.pdbqt
 OpenBabel03162217573D

 32 35  0  0  1  0  0  0  0  0999 V2000
   15.6470    6.9770   12.0770 Br  0  0  0  0  0  0  0  0  0  0  0  0
   14.1500    5.7900   11.9320 C   0  0  0  0  0  0  0  0  0  0  0  0
   12.8790    6.2590   12.1640 C   0  0  0  0  0  0  0  0  0  0  0  0
   11.7550    5.4230   12.0680 C   0  0  0  0  0  0  0  0  0  0  0  0
   11.9950    4.1090   11.7300 C   0  0  0  0  0  3  0  0  0  0  0  0
   13.2580    3.6120   11.4920 C   0  0  0  0  0  0  0  0  0  0  0  0
   14.3440    4.4520   11.5920 C   0  0  0  0  0  0  0  0  0  0  0  0
   15.7440    4.0120   11.3550 C   0  0  0  0  0  1  0  0  0  0  0  0
   13.5600    1.7870   11.0240 Br  0  0  0  0  0  0  0  0  0  0  0  0
   10.4340    5.9590   12.3240 C   0  0  0  0  0  0  0  0  0  0  0  0
    9.4330    5.2590   12.1420 O   0  0  0  0  0  0  0  0  0  0  0  0
   10.2960    7.3450   12.8040 C   0  0  1  0  0  0  0  0  0  0  0  0
   11.4160    8.1480   12.1800 C   0  0  0  0  0  2  0  0  0  0  0  0
   12.6780    7.5940   12.5040 O   0  0  0  0  0  0  0  0  0  0  0  0
    8.9550    7.9510   12.5160 C   0  0  0  0  0  2  0  0  0  0  0  0
    7.9560    7.7380   13.4910 N   0  0  0  0  0  4  0  0  0  0  0  0
    7.3720    8.9900   13.8740 C   0  0  0  0  0  2  0  0  0  0  0  0
    6.5070    9.6270   12.8470 C   0  0  2  0  0  3  0  0  0  0  0  0
    6.1760    8.8130   11.6560 C   0  0  0  0  0  2  0  0  0  0  0  0
    7.2210   10.8920   12.3600 C   0  0  0  0  0  1  0  0  0  0  0  0
    6.2700    7.3450   11.8070 C   0  0  0  0  0  2  0  0  0  0  0  0
    6.8730    6.8790   13.0990 C   0  0  0  0  0  2  0  0  0  0  0  0
    8.3810    7.3170   14.3560 H   0  0  0  0  0  0  0  0  0  0  0  0
   10.5310    7.2950   14.2990 C   0  0  0  0  0  2  0  0  0  0  0  0
   11.2870    8.3760   14.8340 N   0  0  0  0  0  4  0  0  0  0  0  0
   12.2940    7.8770   15.7670 C   0  0  0  0  0  2  0  0  0  0  0  0
   11.8840    8.0430   17.2010 C   0  0  1  0  0  3  0  0  0  0  0  0
   10.4220    7.6880   17.3540 C   0  0  0  0  0  2  0  0  0  0  0  0
   12.6670    7.0030   18.0140 C   0  0  0  0  0  1  0  0  0  0  0  0
    9.6230    8.7180   16.6180 C   0  0  0  0  0  2  0  0  0  0  0  0
   10.5000    9.3460   15.5640 C   0  0  0  0  0  2  0  0  0  0  0  0
   11.7960    8.8630   14.0910 H   0  0  0  0  0  0  0  0  0  0  0  0
  2  1  1  0  0  0  0
  2  3  1  0  0  0  0
  3 14  1  0  0  0  0
  4  3  2  0  0  0  0
  4 10  1  0  0  0  0
  5  4  1  0  0  0  0
  6  7  1  0  0  0  0
  6  5  2  0  0  0  0
  7  2  2  0  0  0  0
  8  7  1  0  0  0  0
  9  6  1  0  0  0  0
 10 12  1  0  0  0  0
 11 10  2  0  0  0  0
 12 15  1  6  0  0  0
 12 24  1  0  0  0  0
 13 14  1  0  0  0  0
 13 12  1  0  0  0  0
 15 16  1  0  0  0  0
 16 17  1  0  0  0  0
 16 23  1  0  0  0  0
 18 20  1  6  0  0  0
 18 17  1  0  0  0  0
 19 21  1  0  0  0  0
 19 18  1  0  0  0  0
 21 22  1  0  0  0  0
 22 16  1  0  0  0  0
 24 25  1  0  0  0  0
 25 31  1  0  0  0  0
 25 26  1  0  0  0  0
 26 27  1  0  0  0  0
 27 28  1  0  0  0  0
 27 29  1  1  0  0  0
 30 28  1  0  0  0  0
 31 30  1  0  0  0  0
 32 25  1  0  0  0  0
M  END
>  <Pose>
1

>  <Score>
-7.179

$$$$
