/Users/jonathanwahrer/Desktop/Msc/3_Semester/Drug_Design_Praktikum/waehrer_HTS_screening/HTS_experiment/out/docking_results/vina_output/2jam/0862_docked.pdbqt
 OpenBabel03162217573D

 30 33  0  0  0  0  0  0  0  0999 V2000
    4.9390    8.2220   10.6380 Br  0  0  0  0  0  0  0  0  0  0  0  0
    5.6040    8.0540   12.3960 C   0  0  0  0  0  0  0  0  0  0  0  0
    6.7550    7.3270   12.5810 C   0  0  0  0  0  0  0  0  0  0  0  0
    7.3460    7.1340   13.8410 C   0  0  0  0  0  0  0  0  0  0  0  0
    6.7320    7.7060   14.9620 C   0  0  0  0  0  3  0  0  0  0  0  0
    5.5790    8.4310   14.7620 C   0  0  0  0  0  0  0  0  0  0  0  0
    5.0140    8.6100   13.5120 C   0  0  0  0  0  0  0  0  0  0  0  0
    3.7530    9.4060   13.3260 C   0  0  0  0  0  1  0  0  0  0  0  0
    4.7460    9.2120   16.2880 Br  0  0  0  0  0  0  0  0  0  0  0  0
    8.5590    6.3500   13.9770 C   0  0  0  0  0  0  0  0  0  0  0  0
    8.6930    5.7120   15.0510 O   0  0  0  0  0  0  0  0  0  0  0  0
    9.5100    6.3760   12.8500 C   0  0  0  0  0  0  0  0  0  0  0  0
    8.5460    5.8910   11.6760 C   0  0  0  0  0  2  0  0  0  0  0  0
    7.4440    6.7170   11.5490 O   0  0  0  0  0  0  0  0  0  0  0  0
   10.5970    5.4180   12.8780 C   0  0  0  0  0  2  0  0  0  0  0  0
   10.8990    4.4170   11.9680 N   0  0  0  0  0  4  0  0  0  0  0  0
   11.1570    3.0840   12.3480 C   0  0  0  0  0  2  0  0  0  0  0  0
   12.0790    2.3410   11.3900 C   0  0  0  0  0  2  0  0  0  0  0  0
   13.4580    2.9190   11.3840 C   0  0  0  0  0  2  0  0  0  0  0  0
   13.3490    4.3980   11.5910 C   0  0  0  0  0  2  0  0  0  0  0  0
   12.0160    4.8690   11.1090 C   0  0  0  0  0  2  0  0  0  0  0  0
   10.1160    4.3400   11.1930 H   0  0  0  0  0  0  0  0  0  0  0  0
    9.8960    7.7740   12.5460 C   0  0  0  0  0  2  0  0  0  0  0  0
   10.4500    8.6010   13.5340 N   0  0  0  0  0  4  0  0  0  0  0  0
   11.8030    8.9830   13.1080 C   0  0  0  0  0  2  0  0  0  0  0  0
   12.5920    9.6290   14.2280 C   0  0  0  0  0  2  0  0  0  0  0  0
   11.8660   10.9470   14.5380 C   0  0  0  0  0  2  0  0  0  0  0  0
   10.4870   10.5170   14.9820 C   0  0  0  0  0  2  0  0  0  0  0  0
    9.7900    9.8740   13.7710 C   0  0  0  0  0  2  0  0  0  0  0  0
   10.5990    8.2060   14.4850 H   0  0  0  0  0  0  0  0  0  0  0  0
  1  2  1  0  0  0  0
  2  3  2  0  0  0  0
  2  7  1  0  0  0  0
  3  4  1  0  0  0  0
  4 10  1  0  0  0  0
  4  5  2  0  0  0  0
  6  5  1  0  0  0  0
  6  9  1  0  0  0  0
  7  6  2  0  0  0  0
  8  7  1  0  0  0  0
 10 11  2  0  0  0  0
 12 15  1  0  0  0  0
 12 10  1  0  0  0  0
 13 12  1  0  0  0  0
 14 13  1  0  0  0  0
 14  3  1  0  0  0  0
 16 17  1  0  0  0  0
 16 15  1  0  0  0  0
 18 17  1  0  0  0  0
 19 18  1  0  0  0  0
 19 20  1  0  0  0  0
 21 20  1  0  0  0  0
 21 16  1  0  0  0  0
 22 16  1  0  0  0  0
 23 12  1  0  0  0  0
 23 24  1  0  0  0  0
 24 29  1  0  0  0  0
 24 30  1  0  0  0  0
 25 24  1  0  0  0  0
 25 26  1  0  0  0  0
 26 27  1  0  0  0  0
 27 28  1  0  0  0  0
 29 28  1  0  0  0  0
M  END
>  <Pose>
1

>  <Score>
-7.535

$$$$
