MODEL 1
REMARK VINA RESULT:    -7.535      0.000      0.000
REMARK INTER + INTRA:         -10.334
REMARK INTER:                  -9.297
REMARK INTRA:                  -1.037
REMARK UNBOUND:                -1.037
REMARK  4 active torsions:
REMARK  status: ('A' for Active; 'I' for Inactive)
REMARK    1  A    between atoms: C_12  and  C_15 
REMARK    2  A    between atoms: C_12  and  C_22 
REMARK    3  A    between atoms: C_15  and  N_16 
REMARK    4  A    between atoms: C_22  and  N_23 
ROOT
ATOM      1 Br   UNK d   1       4.939   8.222  10.638  0.00  0.00    -0.048 Br
ATOM      2  C   UNK d   1       5.604   8.054  12.396  0.00  0.00     0.052 A 
ATOM      3  C   UNK d   1       6.755   7.327  12.581  0.00  0.00     0.100 A 
ATOM      4  C   UNK d   1       7.346   7.134  13.841  0.00  0.00     0.047 A 
ATOM      5  C   UNK d   1       6.732   7.706  14.962  0.00  0.00     0.038 A 
ATOM      6  C   UNK d   1       5.579   8.431  14.762  0.00  0.00     0.019 A 
ATOM      7  C   UNK d   1       5.014   8.610  13.512  0.00  0.00    -0.024 A 
ATOM      8  C   UNK d   1       3.753   9.406  13.326  0.00  0.00     0.051 C 
ATOM      9 Br   UNK d   1       4.746   9.212  16.288  0.00  0.00    -0.051 Br
ATOM     10  C   UNK d   1       8.559   6.350  13.977  0.00  0.00     0.176 C 
ATOM     11  O   UNK d   1       8.693   5.712  15.051  0.00  0.00    -0.291 OA
ATOM     12  C   UNK d   1       9.510   6.376  12.850  0.00  0.00     0.095 C 
ATOM     13  C   UNK d   1       8.546   5.891  11.676  0.00  0.00     0.197 C 
ATOM     14  O   UNK d   1       7.444   6.717  11.549  0.00  0.00    -0.347 OA
ENDROOT
BRANCH  12  15
ATOM     15  C   UNK d   1      10.597   5.418  12.878  0.00  0.00     0.256 C 
BRANCH  15  16
ATOM     16  N   UNK d   1      10.899   4.417  11.968  0.00  0.00    -0.070 N 
ATOM     17  C   UNK d   1      11.157   3.084  12.348  0.00  0.00     0.235 C 
ATOM     18  C   UNK d   1      12.079   2.341  11.390  0.00  0.00     0.028 C 
ATOM     19  C   UNK d   1      13.458   2.919  11.384  0.00  0.00     0.003 C 
ATOM     20  C   UNK d   1      13.349   4.398  11.591  0.00  0.00     0.028 C 
ATOM     21  C   UNK d   1      12.016   4.869  11.109  0.00  0.00     0.235 C 
ATOM     22  H   UNK d   1      10.116   4.340  11.193  0.00  0.00     0.279 HD
ENDBRANCH  15  16
ENDBRANCH  12  15
BRANCH  12  23
ATOM     23  C   UNK d   1       9.896   7.774  12.546  0.00  0.00     0.256 C 
BRANCH  23  24
ATOM     24  N   UNK d   1      10.450   8.601  13.534  0.00  0.00    -0.070 N 
ATOM     25  C   UNK d   1      11.803   8.983  13.108  0.00  0.00     0.235 C 
ATOM     26  C   UNK d   1      12.592   9.629  14.228  0.00  0.00     0.028 C 
ATOM     27  C   UNK d   1      11.866  10.947  14.538  0.00  0.00     0.003 C 
ATOM     28  C   UNK d   1      10.487  10.517  14.982  0.00  0.00     0.028 C 
ATOM     29  C   UNK d   1       9.790   9.874  13.771  0.00  0.00     0.235 C 
ATOM     30  H   UNK d   1      10.599   8.206  14.485  0.00  0.00     0.279 HD
ENDBRANCH  23  24
ENDBRANCH  12  23
TORSDOF 4
ENDMDL
