/Users/jonathanwahrer/Desktop/Msc/3_Semester/Drug_Design_Praktikum/waehrer_HTS_screening/HTS_experiment/out/docking_results/vina_output/2jam/0865_docked.pdbqt
 OpenBabel03162217583D

 30 33  0  0  0  0  0  0  0  0999 V2000
   10.8900    4.2000    9.8610 C   0  0  0  0  0  0  0  0  0  0  0  0
   10.5940    2.9380    9.4820 N   0  0  0  0  0  4  0  0  0  0  0  0
   11.4600    1.9040    9.6300 C   0  0  0  0  0  0  0  0  0  0  0  0
   12.6420    2.1920   10.1770 N   0  0  0  0  0  0  0  0  0  0  0  0
   13.0050    3.4230   10.5780 C   0  0  0  0  0  0  0  0  0  0  0  0
   12.1030    4.4050   10.4050 N   0  0  0  0  0  2  0  0  0  0  0  0
    9.9400    5.2300    9.6770 N   0  0  0  0  0  0  0  0  0  0  0  0
    9.9610    5.7880    8.8070 H   0  0  0  0  0  0  0  0  0  0  0  0
    8.9860    5.4980   10.6490 N   0  0  0  0  0  0  0  0  0  0  0  0
    9.1680    6.3150   11.6240 C   0  0  0  0  0  3  0  0  0  0  0  0
    8.1190    6.5460   12.6080 C   0  0  0  0  0  0  0  0  0  0  0  0
    7.1030    7.4640   12.4010 C   0  0  0  0  0  3  0  0  0  0  0  0
    6.1120    7.6790   13.3360 C   0  0  0  0  0  0  0  0  0  0  0  0
    6.0970    6.9800   14.5250 C   0  0  0  0  0  0  0  0  0  0  0  0
    4.7220    8.9520   13.0240 Br  0  0  0  0  0  0  0  0  0  0  0  0
    5.1280    7.1760   15.4610 F   0  0  0  0  0  0  0  0  0  0  0  0
    7.1000    6.0640   14.7430 C   0  0  0  0  0  3  0  0  0  0  0  0
    8.0960    5.8520   13.7990 C   0  0  0  0  0  3  0  0  0  0  0  0
   11.0960    0.5930    9.2130 N   0  0  0  0  0  0  0  0  0  0  0  0
   12.0400   -0.4160    8.7940 C   0  0  0  0  0  2  0  0  0  0  0  0
   11.5370   -0.8420    7.4160 C   0  0  0  0  0  2  0  0  0  0  0  0
   10.3610   -1.4810    7.5570 O   0  0  0  0  0  0  0  0  0  0  0  0
    9.4030   -0.9710    8.3400 C   0  0  0  0  0  2  0  0  0  0  0  0
    9.7060    0.2000    9.1890 C   0  0  0  0  0  2  0  0  0  0  0  0
   14.2840    3.6540   11.1530 N   0  0  0  0  0  0  0  0  0  0  0  0
   15.4410    2.9930   10.5810 C   0  0  0  0  0  2  0  0  0  0  0  0
   16.6730    3.3540   11.3780 C   0  0  0  0  0  2  0  0  0  0  0  0
   16.8250    4.6920   11.6090 O   0  0  0  0  0  0  0  0  0  0  0  0
   15.6970    5.3930   11.9390 C   0  0  0  0  0  2  0  0  0  0  0  0
   14.5090    4.5100   12.2800 C   0  0  0  0  0  2  0  0  0  0  0  0
  1  6  1  0  0  0  0
  2  3  2  0  0  0  0
  2  1  2  0  0  0  0
  3  4  1  0  0  0  0
  4  5  2  0  0  0  0
  5 25  1  0  0  0  0
  6  5  1  0  0  0  0
  7  1  1  0  0  0  0
  7  9  1  0  0  0  0
  8  7  1  0  0  0  0
  9 10  2  0  0  0  0
 10 11  1  0  0  0  0
 11 18  1  0  0  0  0
 12 11  2  0  0  0  0
 12 13  1  0  0  0  0
 13 14  2  0  0  0  0
 14 17  1  0  0  0  0
 14 16  1  0  0  0  0
 15 13  1  0  0  0  0
 18 17  2  0  0  0  0
 19  3  1  0  0  0  0
 20 19  1  0  0  0  0
 21 22  1  0  0  0  0
 21 20  1  0  0  0  0
 22 23  1  0  0  0  0
 23 24  1  0  0  0  0
 24 19  1  0  0  0  0
 25 30  1  0  0  0  0
 26 25  1  0  0  0  0
 26 27  1  0  0  0  0
 27 28  1  0  0  0  0
 28 29  1  0  0  0  0
 29 30  1  0  0  0  0
M  END
>  <Pose>
1

>  <Score>
-8.843

$$$$
