MODEL 1
REMARK VINA RESULT:    -9.295      0.000      0.000
REMARK INTER + INTRA:         -12.556
REMARK INTER:                 -11.469
REMARK INTRA:                  -1.087
REMARK UNBOUND:                -1.087
REMARK  4 active torsions:
REMARK  status: ('A' for Active; 'I' for Inactive)
REMARK    1  A    between atoms: C_3  and  N_9 
REMARK       I    between atoms: N_9  and  C_10 
REMARK    2  A    between atoms: C_10  and  C_12 
REMARK    3  A    between atoms: C_12  and  N_13 
REMARK    4  A    between atoms: N_20  and  C_23 
ROOT
ATOM      1  N   UNK d   1      11.887   6.340  11.534  0.00  0.00    -0.261 N 
ATOM      2  N   UNK d   1      11.689   7.622  11.285  0.00  0.00    -0.239 N 
ATOM      3  N   UNK d   1      12.888   8.178  11.272  0.00  0.00    -0.279 N 
ATOM      4  C   UNK d   1      13.851   7.263  11.511  0.00  0.00     0.152 A 
ATOM      5  C   UNK d   1      13.202   6.099  11.676  0.00  0.00     0.155 A 
ATOM      6  C   UNK d   1      14.195   5.179  11.919  0.00  0.00     0.286 A 
ATOM      7  O   UNK d   1      13.999   3.953  12.131  0.00  0.00    -0.265 OA
ATOM      8  N   UNK d   1      15.418   5.748  11.907  0.00  0.00    -0.241 N 
ATOM      9  C   UNK d   1      15.210   7.050  11.652  0.00  0.00     0.286 A 
ATOM     10  O   UNK d   1      16.112   7.924  11.559  0.00  0.00    -0.265 OA
ATOM     11  H   UNK d   1      10.765   8.117  11.125  0.00  0.00     0.208 HD
ATOM     12  H   UNK d   1      13.033   9.206  11.094  0.00  0.00     0.189 HD
ENDROOT
BRANCH   1  13
ATOM     13  C   UNK d   1      10.815   5.373  11.626  0.00  0.00     0.254 C 
BRANCH  13  14
ATOM     14  C   UNK d   1      10.991   4.335  10.536  0.00  0.00     0.242 C 
ATOM     15  N   UNK d   1      11.520   3.089  10.861  0.00  0.00    -0.323 N 
ATOM     16  H   UNK d   1      11.772   2.944  11.898  0.00  0.00     0.169 HD
ATOM     17  O   UNK d   1      10.648   4.665   9.397  0.00  0.00    -0.271 OA
BRANCH  15  18
ATOM     18  C   UNK d   1      11.737   2.041   9.953  0.00  0.00     0.073 A 
ATOM     19  C   UNK d   1      10.654   1.212   9.617  0.00  0.00     0.145 A 
ATOM     20  F   UNK d   1       9.451   1.481  10.197  0.00  0.00    -0.204 F 
ATOM     21  C   UNK d   1      10.823   0.178   8.734  0.00  0.00     0.086 A 
ATOM     22  C   UNK d   1      12.053  -0.070   8.161  0.00  0.00     0.119 A 
ATOM     23  C   UNK d   1      13.139   0.718   8.464  0.00  0.00     0.044 A 
ATOM     24  F   UNK d   1      12.178  -1.102   7.294  0.00  0.00    -0.206 F 
ATOM     25  C   UNK d   1      12.939   1.778   9.375  0.00  0.00     0.036 A 
ENDBRANCH  15  18
ENDBRANCH  13  14
ENDBRANCH   1  13
BRANCH   8  26
ATOM     26  C   UNK d   1      16.664   5.062  12.126  0.00  0.00     0.046 A 
ATOM     27  C   UNK d   1      17.064   4.041  11.286  0.00  0.00     0.031 A 
ATOM     28  C   UNK d   1      18.249   3.356  11.458  0.00  0.00     0.021 A 
ATOM     29  C   UNK d   1      19.045   3.731  12.523  0.00  0.00     0.011 A 
ATOM     30  C   UNK d   1      18.695   4.747  13.397  0.00  0.00     0.021 A 
ATOM     31 Br   UNK d   1      20.690   2.764  12.743  0.00  0.00    -0.051 Br
ATOM     32  C   UNK d   1      17.496   5.392  13.169  0.00  0.00     0.031 A 
ENDBRANCH   8  26
TORSDOF 4
ENDMDL
