/Users/jonathanwahrer/Desktop/Msc/3_Semester/Drug_Design_Praktikum/waehrer_HTS_screening/HTS_experiment/out/docking_results/vina_output/2jam/0873_docked.pdbqt
 OpenBabel03162217583D

 32 35  0  0  1  0  0  0  0  0999 V2000
   11.6150    5.5980   12.8280 C   0  0  2  0  0  3  0  0  0  0  0  0
   12.8460    6.2920   12.4820 N   0  0  0  0  0  0  0  0  0  0  0  0
   12.7320    6.3780   11.0450 C   0  0  0  0  0  0  0  0  0  0  0  0
   13.1710    7.2710   10.2750 O   0  0  0  0  0  0  0  0  0  0  0  0
   11.9750    5.1910   10.5560 C   0  0  0  0  0  0  0  0  0  0  0  0
   11.6340    4.8320    9.4310 O   0  0  0  0  0  0  0  0  0  0  0  0
   11.6900    4.4630   11.8280 C   0  0  0  0  0  0  0  0  0  0  0  0
   11.5440    3.1700   11.9820 C   0  0  0  0  0  0  0  0  0  0  0  0
   11.2670    2.6570   13.2650 O   0  0  0  0  0  1  0  0  0  0  0  0
   13.9290    6.7960   13.2100 C   0  0  0  0  0  2  0  0  0  0  0  0
   15.0700    5.9160   13.5750 C   0  0  0  0  0  2  0  0  0  0  0  0
   15.8110    5.4150   12.4530 N   0  0  0  0  0  4  0  0  0  0  0  0
   15.4110    4.0470   12.1990 C   0  0  0  0  0  2  0  0  0  0  0  0
   16.0820    3.5140   10.9460 C   0  0  0  0  0  2  0  0  0  0  0  0
   17.4530    3.5720   11.1100 O   0  0  0  0  0  0  0  0  0  0  0  0
   17.8560    4.8740   11.3950 C   0  0  0  0  0  2  0  0  0  0  0  0
   17.2590    5.3270   12.7340 C   0  0  0  0  0  2  0  0  0  0  0  0
   15.7720    6.0240   11.6090 H   0  0  0  0  0  0  0  0  0  0  0  0
   10.3840    6.3590   12.5620 C   0  0  0  0  0  0  0  0  0  0  0  0
   10.2570    7.7050   12.8380 C   0  0  0  0  0  0  0  0  0  0  0  0
   11.2550    8.4140   13.3420 F   0  0  0  0  0  0  0  0  0  0  0  0
    9.0600    8.3860   12.5980 C   0  0  0  0  0  3  0  0  0  0  0  0
    7.9790    7.7490   12.0830 C   0  0  0  0  0  3  0  0  0  0  0  0
    8.0660    6.4170   11.7960 C   0  0  0  0  0  3  0  0  0  0  0  0
    9.2620    5.7610   12.0440 C   0  0  0  0  0  3  0  0  0  0  0  0
   11.6640    2.2440   10.8650 C   0  0  0  0  0  0  0  0  0  0  0  0
   10.5220    1.8360   10.2110 C   0  0  0  0  0  3  0  0  0  0  0  0
   10.5610    0.9360    9.1590 C   0  0  0  0  0  3  0  0  0  0  0  0
   11.7690    0.4230    8.7390 C   0  0  0  0  0  0  0  0  0  0  0  0
   12.9100    0.8130    9.3720 C   0  0  0  0  0  3  0  0  0  0  0  0
   11.8530   -0.8310    7.2770 Br  0  0  0  0  0  0  0  0  0  0  0  0
   12.8580    1.7270   10.4390 C   0  0  0  0  0  3  0  0  0  0  0  0
  1 19  1  6  0  0  0
  2  1  1  0  0  0  0
  2 10  1  0  0  0  0
  3  2  1  0  0  0  0
  4  3  2  0  0  0  0
  5  3  1  0  0  0  0
  5  7  1  0  0  0  0
  6  5  2  0  0  0  0
  7  8  2  0  0  0  0
  7  1  1  0  0  0  0
  8  9  1  0  0  0  0
 10 11  1  0  0  0  0
 12 17  1  0  0  0  0
 12 11  1  0  0  0  0
 13 12  1  0  0  0  0
 14 15  1  0  0  0  0
 14 13  1  0  0  0  0
 15 16  1  0  0  0  0
 16 17  1  0  0  0  0
 18 12  1  0  0  0  0
 19 20  1  0  0  0  0
 20 21  1  0  0  0  0
 22 20  2  0  0  0  0
 23 22  1  0  0  0  0
 24 25  1  0  0  0  0
 24 23  2  0  0  0  0
 25 19  2  0  0  0  0
 26  8  1  0  0  0  0
 27 26  2  0  0  0  0
 28 27  1  0  0  0  0
 29 28  2  0  0  0  0
 29 30  1  0  0  0  0
 30 32  2  0  0  0  0
 31 29  1  0  0  0  0
 32 26  1  0  0  0  0
M  END
>  <Pose>
1

>  <Score>
-8.182

$$$$
