/Users/jonathanwahrer/Desktop/Msc/3_Semester/Drug_Design_Praktikum/waehrer_HTS_screening/HTS_experiment/out/docking_results/vina_output/2jam/0886_docked.pdbqt
 OpenBabel03162217593D

 31 34  0  0  0  0  0  0  0  0999 V2000
   11.9820    2.4350   10.2360 N   0  0  0  0  0  0  0  0  0  0  0  0
   11.5700    3.7140   10.2050 C   0  0  0  0  0  0  0  0  0  0  0  0
   10.6690    4.0970    9.4100 O   0  0  0  0  0  0  0  0  0  0  0  0
   12.2410    4.5010   11.1220 C   0  0  0  0  0  0  0  0  0  0  0  0
   13.0870    3.6720   11.7270 C   0  0  0  0  0  0  0  0  0  0  0  0
   13.7630    4.3950   12.6250 N   0  0  0  0  0  0  0  0  0  0  0  0
   13.3340    5.6420   12.5650 N   0  0  0  0  0  0  0  0  0  0  0  0
   12.3850    5.7460   11.6390 N   0  0  0  0  0  0  0  0  0  0  0  0
   12.9400    2.4080   11.1970 C   0  0  0  0  0  0  0  0  0  0  0  0
   13.5530    1.3440   11.4950 O   0  0  0  0  0  0  0  0  0  0  0  0
   14.5090    3.9960   13.2580 H   0  0  0  0  0  0  0  0  0  0  0  0
   13.6690    6.4290   13.1380 H   0  0  0  0  0  0  0  0  0  0  0  0
   11.6360    6.8990   11.2340 C   0  0  0  0  0  2  0  0  0  0  0  0
   10.4300    7.1810   12.0200 C   0  0  0  0  0  0  0  0  0  0  0  0
   10.4090    6.7880   13.1960 O   0  0  0  0  0  0  0  0  0  0  0  0
    9.3530    7.8680   11.4520 N   0  0  0  0  0  0  0  0  0  0  0  0
    9.4420    8.1830   10.4190 H   0  0  0  0  0  0  0  0  0  0  0  0
    8.1170    8.2320   12.0370 C   0  0  0  0  0  0  0  0  0  0  0  0
    7.8420    9.5230   12.4170 C   0  0  0  0  0  3  0  0  0  0  0  0
    6.6330    9.9200   12.9980 C   0  0  0  0  0  3  0  0  0  0  0  0
    5.6930    8.9390   13.1850 C   0  0  0  0  0  0  0  0  0  0  0  0
    5.9430    7.6410   12.8140 C   0  0  0  0  0  3  0  0  0  0  0  0
    4.0020    9.4140   13.9800 Br  0  0  0  0  0  0  0  0  0  0  0  0
    7.1360    7.2780   12.2460 C   0  0  0  0  0  3  0  0  0  0  0  0
   11.5360    1.3370    9.4420 C   0  0  0  0  0  0  0  0  0  0  0  0
   12.3100    0.7000    8.4980 C   0  0  0  0  0  3  0  0  0  0  0  0
   11.8190   -0.3680    7.7430 C   0  0  0  0  0  3  0  0  0  0  0  0
   10.5390   -0.8100    7.9260 C   0  0  0  0  0  0  0  0  0  0  0  0
   10.0680   -1.8540    7.1820 F   0  0  0  0  0  0  0  0  0  0  0  0
    9.7480   -0.1880    8.8650 C   0  0  0  0  0  3  0  0  0  0  0  0
   10.2430    0.8640    9.6030 C   0  0  0  0  0  3  0  0  0  0  0  0
  1  9  1  0  0  0  0
  2  1  1  0  0  0  0
  2  4  1  0  0  0  0
  3  2  2  0  0  0  0
  4  8  1  0  0  0  0
  4  5  2  0  0  0  0
  5  6  1  0  0  0  0
  6 11  1  0  0  0  0
  7  6  1  0  0  0  0
  7 12  1  0  0  0  0
  8  7  1  0  0  0  0
  9 10  2  0  0  0  0
  9  5  1  0  0  0  0
 13  8  1  0  0  0  0
 13 14  1  0  0  0  0
 14 15  2  0  0  0  0
 16 14  1  0  0  0  0
 16 18  1  0  0  0  0
 17 16  1  0  0  0  0
 18 24  2  0  0  0  0
 18 19  1  0  0  0  0
 19 20  2  0  0  0  0
 20 21  1  0  0  0  0
 21 23  1  0  0  0  0
 22 21  2  0  0  0  0
 24 22  1  0  0  0  0
 25 31  1  0  0  0  0
 25  1  1  0  0  0  0
 26 25  2  0  0  0  0
 27 28  2  0  0  0  0
 27 26  1  0  0  0  0
 28 30  1  0  0  0  0
 29 28  1  0  0  0  0
 30 31  2  0  0  0  0
M  END
>  <Pose>
1

>  <Score>
-9.287

$$$$
