MODEL 1
REMARK VINA RESULT:    -7.229      0.000      0.000
REMARK INTER + INTRA:          -7.956
REMARK INTER:                  -7.651
REMARK INTRA:                  -0.304
REMARK UNBOUND:                -0.304
REMARK  1 active torsions:
REMARK  status: ('A' for Active; 'I' for Inactive)
REMARK    1  A    between atoms: C_4  and  C_9 
ROOT
ATOM      1  C   UNK d   1       4.680   9.675  14.483  0.00  0.00     0.222 C 
ATOM      2  N   UNK d   1       4.804   8.343  13.934  0.00  0.00    -0.358 N 
ATOM      3  C   UNK d   1       6.097   7.845  13.575  0.00  0.00     0.088 A 
ATOM      4  S   UNK d   1       6.757   6.243  13.432  0.00  0.00    -0.074 SA
ATOM      5  C   UNK d   1       8.341   6.636  12.959  0.00  0.00     0.018 A 
ATOM      6  C   UNK d   1       8.319   7.987  12.926  0.00  0.00    -0.023 A 
ATOM      7  C   UNK d   1       7.173   8.614  13.240  0.00  0.00     0.073 A 
ATOM      8  C   UNK d   1       6.838  10.066  13.292  0.00  0.00     0.256 C 
ATOM      9  O   UNK d   1       7.693  10.939  13.014  0.00  0.00    -0.267 OA
ATOM     10  N   UNK d   1       5.544  10.501  13.656  0.00  0.00    -0.331 N 
ATOM     11  C   UNK d   1       9.640   8.630  12.521  0.00  0.00     0.068 C 
ATOM     12  C   UNK d   1      10.434   7.623  11.753  0.00  0.00     0.239 C 
ATOM     13  N   UNK d   1      10.694   6.524  12.696  0.00  0.00    -0.070 N 
ATOM     14  C   UNK d   1       9.479   5.738  12.654  0.00  0.00     0.281 C 
ATOM     15  C   UNK d   1      11.858   5.764  12.307  0.00  0.00     0.270 C 
ATOM     16  H   UNK d   1       3.988   7.711  13.778  0.00  0.00     0.162 HD
ATOM     17  H   UNK d   1       5.178  11.434  13.335  0.00  0.00     0.165 HD
ATOM     18  H   UNK d   1      10.777   6.919  13.656  0.00  0.00     0.279 HD
ENDROOT
BRANCH   1  19
ATOM     19  C   UNK d   1       5.199   9.609  15.874  0.00  0.00     0.023 A 
ATOM     20  C   UNK d   1       4.691   8.782  16.847  0.00  0.00     0.134 A 
ATOM     21  C   UNK d   1       5.207   8.766  18.143  0.00  0.00     0.044 A 
ATOM     22  O   UNK d   1       3.644   7.941  16.539  0.00  0.00    -0.190 OA
ATOM     23  I   UNK d   1       4.383   7.476  19.586  0.00  0.00    -0.042 I 
ATOM     24  C   UNK d   1       6.241   9.575  18.498  0.00  0.00     0.040 A 
ATOM     25  C   UNK d   1       6.765  10.411  17.540  0.00  0.00     0.013 A 
ATOM     26  C   UNK d   1       6.264  10.433  16.264  0.00  0.00     0.033 A 
ATOM     27 Br   UNK d   1       8.213  11.545  18.031  0.00  0.00    -0.051 Br
ENDBRANCH   1  19
TORSDOF 1
ENDMDL
