MODEL 1
REMARK VINA RESULT:    -7.794      0.000      0.000
REMARK INTER + INTRA:          -9.192
REMARK INTER:                  -8.706
REMARK INTRA:                  -0.487
REMARK UNBOUND:                -0.487
REMARK  2 active torsions:
REMARK  status: ('A' for Active; 'I' for Inactive)
REMARK    1  A    between atoms: C_4  and  O_23 
REMARK    2  A    between atoms: C_6  and  C_8 
ROOT
ATOM      1  C   UNK d   1      12.163   6.551  12.214  0.00  0.00     0.219 C 
ATOM      2  N   UNK d   1      11.553   6.351  13.528  0.00  0.00    -0.358 N 
ATOM      3  C   UNK d   1      10.302   6.997  13.875  0.00  0.00     0.088 A 
ATOM      4  S   UNK d   1       9.487   7.235  15.370  0.00  0.00    -0.074 SA
ATOM      5  C   UNK d   1       8.127   8.075  14.801  0.00  0.00     0.018 A 
ATOM      6  C   UNK d   1       8.340   8.151  13.451  0.00  0.00    -0.023 A 
ATOM      7  C   UNK d   1       9.473   7.589  12.977  0.00  0.00     0.073 A 
ATOM      8  C   UNK d   1       9.933   7.538  11.560  0.00  0.00     0.256 C 
ATOM      9  O   UNK d   1       9.252   8.053  10.622  0.00  0.00    -0.267 OA
ATOM     10  N   UNK d   1      11.153   6.902  11.254  0.00  0.00    -0.332 N 
ATOM     11  C   UNK d   1       7.209   8.885  12.740  0.00  0.00     0.068 C 
ATOM     12  C   UNK d   1       5.890   8.299  13.170  0.00  0.00     0.239 C 
ATOM     13  N   UNK d   1       5.783   8.074  14.572  0.00  0.00    -0.070 N 
ATOM     14  C   UNK d   1       6.861   8.705  15.326  0.00  0.00     0.281 C 
ATOM     15  C   UNK d   1       5.949   6.628  14.793  0.00  0.00     0.270 C 
ATOM     16  H   UNK d   1      11.989   5.746  14.248  0.00  0.00     0.162 HD
ATOM     17  H   UNK d   1      11.358   6.658  10.250  0.00  0.00     0.165 HD
ATOM     18  H   UNK d   1       4.854   8.360  14.980  0.00  0.00     0.279 HD
ENDROOT
BRANCH   1  19
ATOM     19  C   UNK d   1      12.712   5.225  11.816  0.00  0.00    -0.012 A 
ATOM     20  C   UNK d   1      11.817   4.187  11.591  0.00  0.00     0.050 A 
ATOM     21  C   UNK d   1      12.202   2.934  11.222  0.00  0.00     0.106 A 
ATOM     22  C   UNK d   1      13.567   2.697  11.069  0.00  0.00     0.157 A 
ATOM     23  C   UNK d   1      14.479   3.711  11.285  0.00  0.00     0.046 A 
ATOM     24  O   UNK d   1      13.998   1.438  10.696  0.00  0.00    -0.188 OA
ATOM     25  I   UNK d   1      16.540   3.332  11.046  0.00  0.00    -0.041 I 
ATOM     26  C   UNK d   1      14.047   4.974  11.659  0.00  0.00     0.032 A 
BRANCH  21  27
ATOM     27  O   UNK d   1      11.332   1.877  10.991  0.00  0.00    -0.353 OA
ATOM     28  C   UNK d   1      10.592   1.863   9.784  0.00  0.00     0.210 C 
ENDBRANCH  21  27
ENDBRANCH   1  19
TORSDOF 2
ENDMDL
