MODEL 1
REMARK VINA RESULT:    -7.961      0.000      0.000
REMARK INTER + INTRA:         -11.636
REMARK INTER:                 -10.753
REMARK INTRA:                  -0.883
REMARK UNBOUND:                -0.883
REMARK  6 active torsions:
REMARK  status: ('A' for Active; 'I' for Inactive)
REMARK    1  A    between atoms: C_3  and  N_8 
REMARK    2  A    between atoms: N_8  and  C_9 
REMARK    3  A    between atoms: C_20  and  C_21 
REMARK    4  A    between atoms: C_21  and  C_22 
REMARK    5  A    between atoms: C_22  and  O_24 
REMARK    6  A    between atoms: O_24  and  C_25 
ROOT
ATOM      1  C   UNK d   1      11.933   2.890  10.524  0.00  0.00     0.179 A 
ATOM      2  N   UNK d   1      10.787   3.454  10.161  0.00  0.00    -0.202 NA
ATOM      3  C   UNK d   1      10.480   4.756  10.281  0.00  0.00     0.230 A 
ATOM      4  N   UNK d   1       9.450   5.568  10.015  0.00  0.00    -0.081 NA
ATOM      5  O   UNK d   1       9.733   6.791  10.361  0.00  0.00    -0.103 OA
ATOM      6  N   UNK d   1      10.936   6.834  10.860  0.00  0.00    -0.082 NA
ATOM      7  C   UNK d   1      11.452   5.596  10.836  0.00  0.00     0.217 A 
ATOM      8  N   UNK d   1      12.611   5.089  11.215  0.00  0.00    -0.256 N 
ATOM      9  C   UNK d   1      12.869   3.786  11.076  0.00  0.00     0.206 A 
ATOM     10  N   UNK d   1      14.094   3.593  11.539  0.00  0.00    -0.126 NA
ATOM     11  N   UNK d   1      14.599   4.764  11.964  0.00  0.00    -0.133 NA
ATOM     12  C   UNK d   1      13.682   5.724  11.771  0.00  0.00     0.145 A 
ENDROOT
BRANCH   1  13
ATOM     13  N   UNK d   1      12.266   1.525  10.404  0.00  0.00    -0.337 N 
ATOM     14  H   UNK d   1      12.907   1.102  11.164  0.00  0.00     0.167 HD
BRANCH  13  15
ATOM     15  C   UNK d   1      11.866   0.616   9.403  0.00  0.00     0.050 A 
ATOM     16  C   UNK d   1      12.770   0.314   8.360  0.00  0.00     0.033 A 
ATOM     17  I   UNK d   1      14.679   1.215   8.345  0.00  0.00    -0.042 I 
ATOM     18  C   UNK d   1      12.412  -0.562   7.364  0.00  0.00     0.020 A 
ATOM     19  C   UNK d   1      11.152  -1.155   7.380  0.00  0.00     0.001 A 
ATOM     20  C   UNK d   1      10.299  -0.843   8.401  0.00  0.00     0.002 A 
ATOM     21  C   UNK d   1      10.628   0.041   9.432  0.00  0.00     0.031 A 
ENDBRANCH  13  15
ENDBRANCH   1  13
BRANCH  12  22
ATOM     22  C   UNK d   1      13.760   7.178  12.070  0.00  0.00     0.192 C 
BRANCH  22  23
ATOM     23  C   UNK d   1      15.151   7.676  12.191  0.00  0.00     0.266 C 
ATOM     24  O   UNK d   1      15.717   7.861  13.289  0.00  0.00    -0.265 OA
BRANCH  23  25
ATOM     25  O   UNK d   1      15.851   7.949  11.049  0.00  0.00    -0.322 OA
BRANCH  25  26
ATOM     26  C   UNK d   1      17.205   7.732  10.868  0.00  0.00     0.174 C 
ATOM     27  C   UNK d   1      17.619   6.333  10.613  0.00  0.00     0.034 C 
ENDBRANCH  25  26
ENDBRANCH  23  25
ENDBRANCH  22  23
ENDBRANCH  12  22
TORSDOF 6
ENDMDL
