/Users/jonathanwahrer/Desktop/Msc/3_Semester/Drug_Design_Praktikum/waehrer_HTS_screening/HTS_experiment/out/docking_results/vina_output/2jam/0908_docked.pdbqt
 OpenBabel03162217593D

 25 28  0  0  0  0  0  0  0  0999 V2000
    7.7800    7.9110   12.6840 N   0  0  0  0  0  0  0  0  0  0  0  0
    8.3480    6.7450   12.3290 C   0  0  0  0  0  0  0  0  0  0  0  0
    7.7550    5.6250   12.2910 O   0  0  0  0  0  0  0  0  0  0  0  0
    9.6780    6.9100   12.0030 C   0  0  0  0  0  0  0  0  0  0  0  0
    9.9240    8.2010   12.1620 C   0  0  0  0  0  0  0  0  0  0  0  0
   11.2300    8.3480   11.8380 N   0  0  0  0  0  0  0  0  0  0  0  0
   11.7570    7.1870   11.4940 N   0  0  0  0  0  0  0  0  0  0  0  0
   10.8150    6.2840   11.5890 N   0  0  0  0  0  0  0  0  0  0  0  0
    8.7600    8.8260   12.5820 C   0  0  0  0  0  0  0  0  0  0  0  0
    8.6610   10.0730   12.8270 O   0  0  0  0  0  0  0  0  0  0  0  0
   11.7660    9.2420   11.8510 H   0  0  0  0  0  0  0  0  0  0  0  0
   12.7410    7.0180   11.2030 H   0  0  0  0  0  0  0  0  0  0  0  0
    6.4340    8.1630   13.0880 C   0  0  0  0  0  0  0  0  0  0  0  0
    6.0250    7.9830   14.3940 C   0  0  0  0  0  0  0  0  0  0  0  0
    7.4770    7.3160   15.7820 I   0  0  0  0  0  0  0  0  0  0  0  0
    4.7290    8.2210   14.8060 C   0  0  0  0  0  3  0  0  0  0  0  0
    3.7750    8.6560   13.9110 C   0  0  0  0  0  3  0  0  0  0  0  0
    4.1710    8.8390   12.6030 C   0  0  0  0  0  3  0  0  0  0  0  0
    5.4730    8.5990   12.1980 C   0  0  0  0  0  3  0  0  0  0  0  0
   10.9000    4.8910   11.3220 C   0  0  0  0  0  0  0  0  0  0  0  0
   10.4900    4.3480   10.1250 C   0  0  0  0  0  3  0  0  0  0  0  0
   10.5860    2.9850    9.8950 C   0  0  0  0  0  3  0  0  0  0  0  0
   11.0900    2.1200   10.8450 C   0  0  0  0  0  3  0  0  0  0  0  0
   11.5010    2.6620   12.0440 C   0  0  0  0  0  3  0  0  0  0  0  0
   11.4090    4.0120   12.2800 C   0  0  0  0  0  3  0  0  0  0  0  0
  1 13  1  0  0  0  0
  2  1  1  0  0  0  0
  3  2  2  0  0  0  0
  4  5  2  0  0  0  0
  4  2  1  0  0  0  0
  5  9  1  0  0  0  0
  6 11  1  0  0  0  0
  6  5  1  0  0  0  0
  7  8  1  0  0  0  0
  7  6  1  0  0  0  0
  8  4  1  0  0  0  0
  9  1  1  0  0  0  0
  9 10  2  0  0  0  0
 12  7  1  0  0  0  0
 13 14  1  0  0  0  0
 14 16  2  0  0  0  0
 14 15  1  0  0  0  0
 17 16  1  0  0  0  0
 18 17  2  0  0  0  0
 19 18  1  0  0  0  0
 19 13  2  0  0  0  0
 20  8  1  0  0  0  0
 20 25  1  0  0  0  0
 21 20  2  0  0  0  0
 22 21  1  0  0  0  0
 22 23  2  0  0  0  0
 23 24  1  0  0  0  0
 24 25  2  0  0  0  0
M  END
>  <Pose>
1

>  <Score>
-7.536

$$$$
