MODEL 1
REMARK VINA RESULT:    -7.536      0.000      0.000
REMARK INTER + INTRA:          -8.924
REMARK INTER:                  -8.417
REMARK INTRA:                  -0.507
REMARK UNBOUND:                -0.507
REMARK  2 active torsions:
REMARK  status: ('A' for Active; 'I' for Inactive)
REMARK    1  A    between atoms: C_3  and  N_8 
REMARK    2  A    between atoms: N_15  and  C_16 
ROOT
ATOM      1  N   UNK d   1       7.780   7.911  12.684  0.00  0.00    -0.240 N 
ATOM      2  C   UNK d   1       8.348   6.745  12.329  0.00  0.00     0.286 A 
ATOM      3  O   UNK d   1       7.755   5.625  12.291  0.00  0.00    -0.265 OA
ATOM      4  C   UNK d   1       9.678   6.910  12.003  0.00  0.00     0.160 A 
ATOM      5  C   UNK d   1       9.924   8.201  12.162  0.00  0.00     0.152 A 
ATOM      6  N   UNK d   1      11.230   8.348  11.838  0.00  0.00    -0.278 N 
ATOM      7  N   UNK d   1      11.757   7.187  11.494  0.00  0.00    -0.234 N 
ATOM      8  N   UNK d   1      10.815   6.284  11.589  0.00  0.00    -0.234 N 
ATOM      9  C   UNK d   1       8.760   8.826  12.582  0.00  0.00     0.286 A 
ATOM     10  O   UNK d   1       8.661  10.073  12.827  0.00  0.00    -0.265 OA
ATOM     11  H   UNK d   1      11.766   9.242  11.851  0.00  0.00     0.189 HD
ATOM     12  H   UNK d   1      12.741   7.018  11.203  0.00  0.00     0.209 HD
ENDROOT
BRANCH   1  13
ATOM     13  C   UNK d   1       6.434   8.163  13.088  0.00  0.00     0.062 A 
ATOM     14  C   UNK d   1       6.025   7.983  14.394  0.00  0.00     0.034 A 
ATOM     15  I   UNK d   1       7.477   7.316  15.782  0.00  0.00    -0.042 I 
ATOM     16  C   UNK d   1       4.729   8.221  14.806  0.00  0.00     0.020 A 
ATOM     17  C   UNK d   1       3.775   8.656  13.911  0.00  0.00     0.001 A 
ATOM     18  C   UNK d   1       4.171   8.839  12.603  0.00  0.00     0.002 A 
ATOM     19  C   UNK d   1       5.473   8.599  12.198  0.00  0.00     0.031 A 
ENDBRANCH   1  13
BRANCH   8  20
ATOM     20  C   UNK d   1      10.900   4.891  11.322  0.00  0.00     0.058 A 
ATOM     21  C   UNK d   1      10.490   4.348  10.125  0.00  0.00     0.031 A 
ATOM     22  C   UNK d   1      10.586   2.985   9.895  0.00  0.00     0.002 A 
ATOM     23  C   UNK d   1      11.090   2.120  10.845  0.00  0.00     0.000 A 
ATOM     24  C   UNK d   1      11.501   2.662  12.044  0.00  0.00     0.002 A 
ATOM     25  C   UNK d   1      11.409   4.012  12.280  0.00  0.00     0.031 A 
ENDBRANCH   8  20
TORSDOF 2
ENDMDL
