MODEL 1
REMARK VINA RESULT:    -7.638      0.000      0.000
REMARK INTER + INTRA:          -9.552
REMARK INTER:                  -8.977
REMARK INTRA:                  -0.575
REMARK UNBOUND:                -0.575
REMARK  3 active torsions:
REMARK  status: ('A' for Active; 'I' for Inactive)
REMARK    1  A    between atoms: C_3  and  C_8 
REMARK       I    between atoms: C_8  and  N_10 
REMARK    2  A    between atoms: N_10  and  C_11 
REMARK    3  A    between atoms: C_17  and  N_20 
ROOT
ATOM      1  C   UNK d   1       8.514   6.600  12.438  0.00  0.00     0.069 A 
ATOM      2  C   UNK d   1       7.864   7.806  12.088  0.00  0.00     0.146 A 
ATOM      3  N   UNK d   1       8.003   8.604  11.036  0.00  0.00    -0.101 NA
ATOM      4  O   UNK d   1       7.182   9.601  11.168  0.00  0.00    -0.106 OA
ATOM      5  N   UNK d   1       6.515   9.490  12.260  0.00  0.00    -0.101 NA
ATOM      6  C   UNK d   1       6.914   8.369  12.875  0.00  0.00     0.146 A 
ATOM      7  C   UNK d   1       6.555   7.759  14.057  0.00  0.00     0.064 A 
ATOM      8  C   UNK d   1       7.166   6.589  14.426  0.00  0.00     0.034 A 
ATOM      9  C   UNK d   1       8.136   6.005  13.634  0.00  0.00     0.034 A 
ENDROOT
BRANCH   1  10
ATOM     10  N   UNK d   1       9.395   6.118  11.492  0.00  0.00    -0.319 N 
ATOM     11  C   UNK d   1      10.246   5.652  10.579  0.00  0.00     0.275 C 
ATOM     12  O   UNK d   1      10.138   5.875   9.304  0.00  0.00    -0.266 OA
ATOM     13  H   UNK d   1       8.557   6.556  10.512  0.00  0.00     0.169 HD
BRANCH  11  14
ATOM     14  C   UNK d   1      11.444   4.811  10.846  0.00  0.00     0.138 A 
ATOM     15  C   UNK d   1      12.654   5.281  11.308  0.00  0.00     0.059 A 
ATOM     16  I   UNK d   1      13.157   7.313  11.695  0.00  0.00    -0.040 I 
ATOM     17  C   UNK d   1      13.481   4.198  11.477  0.00  0.00     0.159 A 
ATOM     18  N   UNK d   1      12.769   3.130  11.125  0.00  0.00    -0.183 NA
ATOM     19  N   UNK d   1      11.547   3.483  10.746  0.00  0.00    -0.268 N 
ATOM     20  C   UNK d   1      10.514   2.509  10.347  0.00  0.00     0.180 C 
ENDBRANCH  11  14
ENDBRANCH   1  10
BRANCH   7  21
ATOM     21  N   UNK d   1       5.573   8.377  14.846  0.00  0.00    -0.375 N 
ATOM     22  C   UNK d   1       4.189   7.902  14.902  0.00  0.00     0.149 C 
ATOM     23  C   UNK d   1       3.370   9.052  14.353  0.00  0.00     0.187 C 
ATOM     24  O   UNK d   1       4.125  10.164  14.018  0.00  0.00    -0.388 OA
ATOM     25  C   UNK d   1       4.948  10.640  15.016  0.00  0.00     0.187 C 
ATOM     26  C   UNK d   1       5.737   9.534  15.695  0.00  0.00     0.149 C 
ENDBRANCH   7  21
TORSDOF 3
ENDMDL
