/Users/jonathanwahrer/Desktop/Msc/3_Semester/Drug_Design_Praktikum/waehrer_HTS_screening/HTS_experiment/out/docking_results/vina_output/2jam/0920_docked.pdbqt
 OpenBabel03162217593D

 24 27  0  0  1  0  0  0  0  0999 V2000
   12.0150    5.1200   10.9440 N   0  0  0  0  0  0  0  0  0  0  0  0
   12.5070    3.9400   10.7240 C   0  0  1  0  0  3  0  0  0  0  0  0
   14.0090    2.9830   10.9860 S   0  0  0  0  0  0  0  0  0  0  0  0
   13.3570    1.5230   10.2080 C   0  0  0  0  0  3  0  0  0  0  0  0
   12.1300    1.7680    9.8060 C   0  0  0  0  0  0  0  0  0  0  0  0
   11.6350    3.0680   10.0690 N   0  0  0  0  0  0  0  0  0  0  0  0
   10.3800    3.8320    9.8470 C   0  0  0  0  0  3  0  0  0  0  0  0
   10.6950    5.1850   10.3810 C   0  0  0  0  0  3  0  0  0  0  0  0
   12.6860    6.1830   11.5930 C   0  0  0  0  0  2  0  0  0  0  0  0
   11.9760    7.1780   12.3530 C   0  0  2  0  0  3  0  0  0  0  0  0
   12.6960    8.2430   12.5880 O   0  0  0  0  0  1  0  0  0  0  0  0
   10.6490    7.2380   12.9030 C   0  0  0  0  0  0  0  0  0  0  0  0
   10.2040    6.3650   13.8480 C   0  0  0  0  0  3  0  0  0  0  0  0
    8.9280    6.4410   14.3390 C   0  0  0  0  0  3  0  0  0  0  0  0
    8.0180    7.3900   13.9160 C   0  0  0  0  0  0  0  0  0  0  0  0
    6.0680    7.5450   14.6290 I   0  0  0  0  0  0  0  0  0  0  0  0
    8.4820    8.2810   12.9480 C   0  0  0  0  0  3  0  0  0  0  0  0
    9.7450    8.2040   12.4640 C   0  0  0  0  0  3  0  0  0  0  0  0
   11.3910    0.6710    9.1140 C   0  0  0  0  0  0  0  0  0  0  0  0
   10.0940    0.3550    9.4230 C   0  0  0  0  0  3  0  0  0  0  0  0
    9.3970   -0.6750    8.7600 C   0  0  0  0  0  3  0  0  0  0  0  0
   10.0150   -1.4010    7.7680 C   0  0  0  0  0  3  0  0  0  0  0  0
   11.3140   -1.0880    7.4550 C   0  0  0  0  0  3  0  0  0  0  0  0
   11.9930   -0.0710    8.1130 C   0  0  0  0  0  3  0  0  0  0  0  0
  1  9  1  0  0  0  0
  2  1  1  0  0  0  0
  2  3  1  1  0  0  0
  4  3  1  0  0  0  0
  5  6  1  0  0  0  0
  5  4  2  0  0  0  0
  6  2  1  0  0  0  0
  7  6  1  0  0  0  0
  7  8  2  0  0  0  0
  8  1  1  0  0  0  0
  9 10  1  0  0  0  0
 10 11  1  1  0  0  0
 10 12  1  0  0  0  0
 12 13  1  0  0  0  0
 13 14  2  0  0  0  0
 15 14  1  0  0  0  0
 15 16  1  0  0  0  0
 17 15  2  0  0  0  0
 18 12  2  0  0  0  0
 18 17  1  0  0  0  0
 19 20  1  0  0  0  0
 19  5  1  0  0  0  0
 21 20  2  0  0  0  0
 22 21  1  0  0  0  0
 23 22  2  0  0  0  0
 23 24  1  0  0  0  0
 24 19  2  0  0  0  0
M  END
>  <Pose>
1

>  <Score>
-8.111

$$$$
