MODEL 1
REMARK VINA RESULT:    -8.111      0.000      0.000
REMARK INTER + INTRA:          -9.800
REMARK INTER:                  -9.533
REMARK INTRA:                  -0.267
REMARK UNBOUND:                -0.267
REMARK  3 active torsions:
REMARK  status: ('A' for Active; 'I' for Inactive)
REMARK    1  A    between atoms: C_5  and  C_8 
REMARK    2  A    between atoms: C_10  and  N_11 
REMARK    3  A    between atoms: C_15  and  C_19 
ROOT
ATOM      1  N   UNK d   1      12.015   5.120  10.944  0.00  0.00    -0.353 N 
ATOM      2  C   UNK d   1      12.507   3.940  10.724  0.00  0.00     0.149 A 
ATOM      3  S   UNK d   1      14.009   2.983  10.986  0.00  0.00    -0.063 SA
ATOM      4  C   UNK d   1      13.357   1.523  10.208  0.00  0.00     0.083 A 
ATOM      5  C   UNK d   1      12.130   1.768   9.806  0.00  0.00     0.053 A 
ATOM      6  N   UNK d   1      11.635   3.068  10.069  0.00  0.00    -0.325 N 
ATOM      7  C   UNK d   1      10.380   3.832   9.847  0.00  0.00     0.151 A 
ATOM      8  C   UNK d   1      10.695   5.185  10.381  0.00  0.00     0.145 A 
ENDROOT
BRANCH   1   9
ATOM      9  C   UNK d   1      12.686   6.183  11.593  0.00  0.00     0.193 C 
ATOM     10  C   UNK d   1      11.976   7.178  12.353  0.00  0.00     0.112 C 
ATOM     11  O   UNK d   1      12.696   8.243  12.588  0.00  0.00    -0.194 OA
BRANCH  10  12
ATOM     12  C   UNK d   1      10.649   7.238  12.903  0.00  0.00    -0.002 A 
ATOM     13  C   UNK d   1      10.204   6.365  13.848  0.00  0.00     0.015 A 
ATOM     14  C   UNK d   1       8.928   6.441  14.339  0.00  0.00     0.019 A 
ATOM     15  C   UNK d   1       8.018   7.390  13.916  0.00  0.00     0.006 A 
ATOM     16  I   UNK d   1       6.068   7.545  14.629  0.00  0.00    -0.045 I 
ATOM     17  C   UNK d   1       8.482   8.281  12.948  0.00  0.00     0.019 A 
ATOM     18  C   UNK d   1       9.745   8.204  12.464  0.00  0.00     0.015 A 
ENDBRANCH  10  12
ENDBRANCH   1   9
BRANCH   5  19
ATOM     19  C   UNK d   1      11.391   0.671   9.114  0.00  0.00    -0.009 A 
ATOM     20  C   UNK d   1      10.094   0.355   9.423  0.00  0.00     0.014 A 
ATOM     21  C   UNK d   1       9.397  -0.675   8.760  0.00  0.00     0.001 A 
ATOM     22  C   UNK d   1      10.015  -1.401   7.768  0.00  0.00     0.000 A 
ATOM     23  C   UNK d   1      11.314  -1.088   7.455  0.00  0.00     0.001 A 
ATOM     24  C   UNK d   1      11.993  -0.071   8.113  0.00  0.00     0.014 A 
ENDBRANCH   5  19
TORSDOF 3
ENDMDL
