MODEL 1
REMARK VINA RESULT:    -8.737      0.000      0.000
REMARK INTER + INTRA:          -7.930
REMARK INTER:                 -10.270
REMARK INTRA:                   2.340
REMARK UNBOUND:                 2.340
REMARK  3 active torsions:
REMARK  status: ('A' for Active; 'I' for Inactive)
REMARK    1  A    between atoms: C_5  and  N_8 
REMARK    2  A    between atoms: C_10  and  C_16 
REMARK    3  A    between atoms: C_22  and  O_29 
ROOT
ATOM      1  N   UNK d   1      12.503   4.490  10.522  0.00  0.00    -0.241 N 
ATOM      2  C   UNK d   1      13.493   4.588  11.426  0.00  0.00     0.204 A 
ATOM      3  C   UNK d   1      14.006   5.801  11.832  0.00  0.00     0.100 A 
ATOM      4  C   UNK d   1      13.440   6.920  11.254  0.00  0.00     0.262 A 
ATOM      5  O   UNK d   1      13.798   8.107  11.520  0.00  0.00    -0.267 OA
ATOM      6  N   UNK d   1      12.431   6.833  10.332  0.00  0.00    -0.274 N 
ATOM      7  C   UNK d   1      11.989   5.610   9.990  0.00  0.00     0.336 A 
ATOM      8  O   UNK d   1      11.065   5.481   9.148  0.00  0.00    -0.246 OA
ATOM      9  O   UNK d   1      14.027   3.453  11.979  0.00  0.00    -0.171 OA
ATOM     10  H   UNK d   1      12.009   7.676   9.901  0.00  0.00     0.173 HD
ENDROOT
BRANCH   3  11
ATOM     11  C   UNK d   1      15.082   5.987  12.789  0.00  0.00     0.267 C 
ATOM     12  N   UNK d   1      15.851   4.838  13.147  0.00  0.00    -0.062 N 
ATOM     13  C   UNK d   1      16.606   4.262  12.069  0.00  0.00     0.240 C 
ATOM     14  C   UNK d   1      16.873   5.343  14.102  0.00  0.00     0.270 C 
ATOM     15  H   UNK d   1      15.375   4.124  13.723  0.00  0.00     0.280 HD
ATOM     16  C   UNK d   1      16.630   5.125  10.825  0.00  0.00     0.067 C 
ATOM     17  C   UNK d   1      16.887   6.554  11.243  0.00  0.00    -0.042 A 
ATOM     18  C   UNK d   1      16.091   6.981  12.276  0.00  0.00     0.020 A 
ATOM     19  C   UNK d   1      17.833   7.351  10.688  0.00  0.00     0.047 A 
ATOM     20  C   UNK d   1      16.234   8.249  12.786  0.00  0.00     0.113 A 
ATOM     21  C   UNK d   1      17.203   9.060  12.215  0.00  0.00     0.139 A 
ATOM     22  C   UNK d   1      18.010   8.646  11.175  0.00  0.00     0.108 A 
ATOM     23  O   UNK d   1      17.605  10.377  12.487  0.00  0.00    -0.320 OA
ATOM     24  O   UNK d   1      18.864   9.685  10.840  0.00  0.00    -0.323 OA
ATOM     25  C   UNK d   1      18.362  10.903  11.413  0.00  0.00     0.352 C 
BRANCH  20  26
ATOM     26  O   UNK d   1      15.438   8.665  13.816  0.00  0.00    -0.352 OA
ATOM     27  C   UNK d   1      15.803   8.825  15.150  0.00  0.00     0.210 C 
ENDBRANCH  20  26
ENDBRANCH   3  11
BRANCH   1  28
ATOM     28  C   UNK d   1      11.991   3.229  10.118  0.00  0.00     0.046 A 
ATOM     29  C   UNK d   1      10.724   2.792  10.470  0.00  0.00     0.031 A 
ATOM     30  C   UNK d   1      10.230   1.581  10.082  0.00  0.00     0.020 A 
ATOM     31  C   UNK d   1      10.999   0.724   9.302  0.00  0.00     0.006 A 
ATOM     32  I   UNK d   1      10.227  -1.136   8.713  0.00  0.00    -0.045 I 
ATOM     33  C   UNK d   1      12.257   1.155   8.951  0.00  0.00     0.020 A 
ATOM     34  C   UNK d   1      12.766   2.377   9.337  0.00  0.00     0.031 A 
ENDBRANCH   1  28
TORSDOF 3
ENDMDL
