MODEL 1
REMARK VINA RESULT:    -8.649      0.000      0.000
REMARK INTER + INTRA:         -10.670
REMARK INTER:                 -10.166
REMARK INTRA:                  -0.504
REMARK UNBOUND:                -0.504
REMARK  3 active torsions:
REMARK  status: ('A' for Active; 'I' for Inactive)
REMARK    1  A    between atoms: C_5  and  N_8 
REMARK    2  A    between atoms: C_11  and  N_15 
REMARK    3  A    between atoms: N_18  and  C_21 
ROOT
ATOM      1  N   UNK d   1      10.400   6.994  11.339  0.00  0.00    -0.251 N 
ATOM      2  C   UNK d   1      10.660   6.159  10.223  0.00  0.00     0.254 C 
ATOM      3  O   UNK d   1       9.813   5.907   9.328  0.00  0.00    -0.270 OA
ATOM      4  C   UNK d   1      12.060   5.654  10.291  0.00  0.00     0.181 C 
ATOM      5  C   UNK d   1      12.752   6.782  11.037  0.00  0.00     0.138 C 
ATOM      6  C   UNK d   1      11.674   7.435  11.806  0.00  0.00     0.233 C 
ATOM      7  O   UNK d   1      11.820   8.268  12.747  0.00  0.00    -0.273 OA
ENDROOT
BRANCH   4   8
ATOM      8  N   UNK d   1      12.058   4.433  10.986  0.00  0.00    -0.397 N 
ATOM      9  C   UNK d   1      10.878   3.718  11.191  0.00  0.00     0.138 C 
ATOM     10  C   UNK d   1      11.276   2.228  11.359  0.00  0.00     0.161 C 
ATOM     11  N   UNK d   1      12.166   1.875  10.263  0.00  0.00    -0.211 N 
ATOM     12  C   UNK d   1      13.397   2.619  10.172  0.00  0.00     0.161 C 
ATOM     13  C   UNK d   1      13.295   3.785  11.152  0.00  0.00     0.138 C 
BRANCH  11  14
ATOM     14  C   UNK d   1      11.827   0.863   9.342  0.00  0.00     0.724 A 
ATOM     15  N   UNK d   1      10.574   0.331   9.325  0.00  0.00    -0.075 NA
ATOM     16  C   UNK d   1      10.192  -0.619   8.474  0.00  0.00     0.138 A 
ATOM     17  C   UNK d   1      11.089  -1.121   7.540  0.00  0.00     0.040 A 
ATOM     18  C   UNK d   1      12.361  -0.576   7.563  0.00  0.00     0.138 A 
ATOM     19  N   UNK d   1      12.703   0.380   8.437  0.00  0.00    -0.075 NA
ENDBRANCH  11  14
ENDBRANCH   4   8
BRANCH   1  20
ATOM     20  C   UNK d   1       9.126   7.346  11.912  0.00  0.00     0.045 A 
ATOM     21  C   UNK d   1       8.640   8.627  11.754  0.00  0.00     0.031 A 
ATOM     22  C   UNK d   1       7.426   9.011  12.286  0.00  0.00     0.020 A 
ATOM     23  C   UNK d   1       6.652   8.120  12.999  0.00  0.00     0.006 A 
ATOM     24  I   UNK d   1       4.787   8.666  13.829  0.00  0.00    -0.045 I 
ATOM     25  C   UNK d   1       7.122   6.836  13.167  0.00  0.00     0.020 A 
ATOM     26  C   UNK d   1       8.340   6.474  12.626  0.00  0.00     0.031 A 
ENDBRANCH   1  20
TORSDOF 3
ENDMDL
