MODEL 1
REMARK VINA RESULT:    -7.773      0.000      0.000
REMARK INTER + INTRA:          -9.835
REMARK INTER:                  -9.136
REMARK INTRA:                  -0.700
REMARK UNBOUND:                -0.700
REMARK  3 active torsions:
REMARK  status: ('A' for Active; 'I' for Inactive)
REMARK    1  A    between atoms: C_6  and  C_7 
REMARK       I    between atoms: C_7  and  N_9 
REMARK    2  A    between atoms: N_9  and  C_10 
REMARK    3  A    between atoms: C_16  and  N_19 
ROOT
ATOM      1  C   UNK d   1       9.659   6.083  13.299  0.00  0.00     0.069 A 
ATOM      2  C   UNK d   1       8.562   6.166  12.436  0.00  0.00     0.146 A 
ATOM      3  N   UNK d   1       8.301   5.558  11.265  0.00  0.00    -0.101 NA
ATOM      4  O   UNK d   1       7.140   5.964  10.841  0.00  0.00    -0.106 OA
ATOM      5  N   UNK d   1       6.625   6.811  11.677  0.00  0.00    -0.101 NA
ATOM      6  C   UNK d   1       7.486   6.972  12.701  0.00  0.00     0.146 A 
ATOM      7  C   UNK d   1       7.465   7.732  13.850  0.00  0.00     0.064 A 
ATOM      8  C   UNK d   1       8.547   7.642  14.690  0.00  0.00     0.034 A 
ATOM      9  C   UNK d   1       9.652   6.822  14.427  0.00  0.00     0.034 A 
ENDROOT
BRANCH   1  10
ATOM     10  N   UNK d   1      10.713   5.218  12.923  0.00  0.00    -0.319 N 
ATOM     11  C   UNK d   1      11.777   5.508  12.080  0.00  0.00     0.278 C 
ATOM     12  O   UNK d   1      11.869   6.668  11.547  0.00  0.00    -0.265 OA
ATOM     13  H   UNK d   1      10.705   4.222  13.311  0.00  0.00     0.169 HD
BRANCH  11  14
ATOM     14  C   UNK d   1      12.853   4.565  11.725  0.00  0.00     0.162 A 
ATOM     15  C   UNK d   1      12.848   3.386  11.062  0.00  0.00     0.059 A 
ATOM     16  I   UNK d   1      11.223   2.341  10.282  0.00  0.00    -0.040 I 
ATOM     17  C   UNK d   1      14.170   2.944  10.994  0.00  0.00     0.132 A 
ATOM     18  N   UNK d   1      14.946   3.841  11.605  0.00  0.00    -0.283 N 
ATOM     19  N   UNK d   1      14.172   4.798  12.038  0.00  0.00    -0.166 NA
ATOM     20  C   UNK d   1      16.404   3.733  11.743  0.00  0.00     0.179 C 
ENDBRANCH  11  14
ENDBRANCH   1  10
BRANCH   7  21
ATOM     21  N   UNK d   1       6.343   8.560  14.107  0.00  0.00    -0.375 N 
ATOM     22  C   UNK d   1       6.319   9.933  13.649  0.00  0.00     0.149 C 
ATOM     23  C   UNK d   1       4.997  10.533  13.982  0.00  0.00     0.187 C 
ATOM     24  O   UNK d   1       3.913   9.760  13.614  0.00  0.00    -0.388 OA
ATOM     25  C   UNK d   1       3.898   8.503  14.128  0.00  0.00     0.187 C 
ATOM     26  C   UNK d   1       5.172   8.098  14.826  0.00  0.00     0.149 C 
ENDBRANCH   7  21
TORSDOF 3
ENDMDL
