/Users/jonathanwahrer/Desktop/Msc/3_Semester/Drug_Design_Praktikum/waehrer_HTS_screening/HTS_experiment/out/docking_results/vina_output/2jam/0950_docked.pdbqt
 OpenBabel03162218003D

 26 29  0  0  0  0  0  0  0  0999 V2000
    9.6590    6.0830   13.2990 C   0  0  0  0  0  0  0  0  0  0  0  0
    8.5620    6.1660   12.4360 C   0  0  0  0  0  0  0  0  0  0  0  0
    8.3010    5.5580   11.2650 N   0  0  0  0  0  0  0  0  0  0  0  0
    7.1400    5.9640   10.8410 O   0  0  0  0  0  0  0  0  0  0  0  0
    6.6250    6.8110   11.6770 N   0  0  0  0  0  0  0  0  0  0  0  0
    7.4860    6.9720   12.7010 C   0  0  0  0  0  0  0  0  0  0  0  0
    7.4650    7.7320   13.8500 C   0  0  0  0  0  0  0  0  0  0  0  0
    8.5470    7.6420   14.6900 C   0  0  0  0  0  3  0  0  0  0  0  0
    9.6520    6.8220   14.4270 C   0  0  0  0  0  3  0  0  0  0  0  0
   10.7130    5.2180   12.9230 N   0  0  0  0  0  0  0  0  0  0  0  0
   11.7770    5.5080   12.0800 C   0  0  0  0  0  0  0  0  0  0  0  0
   11.8690    6.6680   11.5470 O   0  0  0  0  0  0  0  0  0  0  0  0
   10.7050    4.2220   13.3110 H   0  0  0  0  0  0  0  0  0  0  0  0
   12.8530    4.5650   11.7250 C   0  0  0  0  0  0  0  0  0  0  0  0
   12.8480    3.3860   11.0620 C   0  0  0  0  0  0  0  0  0  0  0  0
   11.2230    2.3410   10.2820 I   0  0  0  0  0  0  0  0  0  0  0  0
   14.1700    2.9440   10.9940 C   0  0  0  0  0  3  0  0  0  0  0  0
   14.9460    3.8410   11.6050 N   0  0  0  0  0  0  0  0  0  0  0  0
   14.1720    4.7980   12.0380 N   0  0  0  0  0  0  0  0  0  0  0  0
   16.4040    3.7330   11.7430 C   0  0  0  0  0  1  0  0  0  0  0  0
    6.3430    8.5600   14.1070 N   0  0  0  0  0  0  0  0  0  0  0  0
    6.3190    9.9330   13.6490 C   0  0  0  0  0  2  0  0  0  0  0  0
    4.9970   10.5330   13.9820 C   0  0  0  0  0  2  0  0  0  0  0  0
    3.9130    9.7600   13.6140 O   0  0  0  0  0  0  0  0  0  0  0  0
    3.8980    8.5030   14.1280 C   0  0  0  0  0  2  0  0  0  0  0  0
    5.1720    8.0980   14.8260 C   0  0  0  0  0  2  0  0  0  0  0  0
  1  9  2  0  0  0  0
  2  6  1  0  0  0  0
  2  1  1  0  0  0  0
  3  2  2  0  0  0  0
  4  3  1  0  0  0  0
  4  5  1  0  0  0  0
  5  6  2  0  0  0  0
  6  7  1  0  0  0  0
  7 21  1  0  0  0  0
  7  8  2  0  0  0  0
  9  8  1  0  0  0  0
 10  1  1  0  0  0  0
 10 13  1  0  0  0  0
 11 10  1  0  0  0  0
 12 11  2  0  0  0  0
 14 19  2  0  0  0  0
 14 11  1  0  0  0  0
 15 14  1  0  0  0  0
 16 15  1  0  0  0  0
 17 15  2  0  0  0  0
 17 18  1  0  0  0  0
 18 20  1  0  0  0  0
 18 19  1  0  0  0  0
 21 26  1  0  0  0  0
 22 23  1  0  0  0  0
 22 21  1  0  0  0  0
 24 23  1  0  0  0  0
 24 25  1  0  0  0  0
 25 26  1  0  0  0  0
M  END
>  <Pose>
1

>  <Score>
-7.773

$$$$
