/Users/jonathanwahrer/Desktop/Msc/3_Semester/Drug_Design_Praktikum/waehrer_HTS_screening/HTS_experiment/out/docking_results/vina_output/2jam/0956_docked.pdbqt
 OpenBabel03162218003D

 30 33  0  0  1  0  0  0  0  0999 V2000
   13.2240    7.8770   13.4220 I   0  0  0  0  0  0  0  0  0  0  0  0
   11.3100    7.3940   12.6820 C   0  0  0  0  0  0  0  0  0  0  0  0
   11.0280    6.5010   11.6910 C   0  0  0  0  0  0  0  0  0  0  0  0
    9.6380    6.5400   11.5710 C   0  0  0  0  0  0  0  0  0  0  0  0
    9.0920    7.4000   12.4310 N   0  0  0  0  0  0  0  0  0  0  0  0
   10.1080    7.9270   13.1140 C   0  0  0  0  0  3  0  0  0  0  0  0
    9.0710    5.7430   10.6500 N   0  0  0  0  0  0  0  0  0  0  0  0
    9.8150    4.9400    9.8740 C   0  0  0  0  0  3  0  0  0  0  0  0
   11.1460    4.9050    9.9920 N   0  0  0  0  0  0  0  0  0  0  0  0
   11.8060    5.6840   10.9040 C   0  0  0  0  0  0  0  0  0  0  0  0
    7.7100    7.7250   12.6200 C   0  0  2  0  0  3  0  0  0  0  0  0
    6.9130    7.4390   11.5190 O   0  0  0  0  0  0  0  0  0  0  0  0
    5.6800    7.9620   11.8980 C   0  0  1  0  0  3  0  0  0  0  0  0
    5.9540    9.2680   12.6060 C   0  0  2  0  0  3  0  0  0  0  0  0
    7.4800    9.2330   12.7550 C   0  0  0  0  0  2  0  0  0  0  0  0
    4.8560    8.3140   10.6510 C   0  0  0  0  0  2  0  0  0  0  0  0
    3.6680    7.5730   10.6720 O   0  0  0  0  0  0  0  0  0  0  0  0
    2.8740    8.1750   10.8350 H   0  0  0  0  0  0  0  0  0  0  0  0
    5.4380    9.2710   13.9030 O   0  0  0  0  0  0  0  0  0  0  0  0
    5.4790    8.3120   14.2070 H   0  0  0  0  0  0  0  0  0  0  0  0
   13.2260    5.6060   10.9850 N   0  0  0  0  0  0  0  0  0  0  0  0
   13.8100    4.4890   11.6480 C   0  0  0  0  0  0  0  0  0  0  0  0
   13.0280    3.6300   12.1280 O   0  0  0  0  0  0  0  0  0  0  0  0
   13.8840    6.2900   10.6030 H   0  0  0  0  0  0  0  0  0  0  0  0
   15.2250    4.2860   11.8020 C   0  0  0  0  0  0  0  0  0  0  0  0
   15.8910    3.3430   11.0690 C   0  0  0  0  0  3  0  0  0  0  0  0
   17.2650    3.1360   11.2040 C   0  0  0  0  0  3  0  0  0  0  0  0
   17.9720    3.8920   12.0920 C   0  0  0  0  0  3  0  0  0  0  0  0
   17.3310    4.8450   12.8410 C   0  0  0  0  0  3  0  0  0  0  0  0
   15.9530    5.0360   12.6890 C   0  0  0  0  0  3  0  0  0  0  0  0
  2  6  2  0  0  0  0
  2  1  1  0  0  0  0
  3  2  1  0  0  0  0
  4  3  1  0  0  0  0
  4  5  1  0  0  0  0
  5  6  1  0  0  0  0
  7  4  2  0  0  0  0
  8  9  2  0  0  0  0
  8  7  1  0  0  0  0
  9 10  1  0  0  0  0
 10 21  1  0  0  0  0
 10  3  2  0  0  0  0
 11  5  1  6  0  0  0
 11 15  1  0  0  0  0
 12 13  1  0  0  0  0
 12 11  1  0  0  0  0
 13 16  1  6  0  0  0
 13 14  1  0  0  0  0
 14 15  1  0  0  0  0
 14 19  1  1  0  0  0
 16 17  1  0  0  0  0
 17 18  1  0  0  0  0
 19 20  1  0  0  0  0
 21 22  1  0  0  0  0
 22 25  1  0  0  0  0
 22 23  2  0  0  0  0
 24 21  1  0  0  0  0
 25 30  1  0  0  0  0
 26 27  1  0  0  0  0
 26 25  2  0  0  0  0
 27 28  2  0  0  0  0
 28 29  1  0  0  0  0
 30 29  2  0  0  0  0
M  END
>  <Pose>
1

>  <Score>
-8.154

$$$$
