MODEL 1
REMARK VINA RESULT:    -8.154      0.000      0.000
REMARK INTER + INTRA:         -10.969
REMARK INTER:                 -10.537
REMARK INTRA:                  -0.432
REMARK UNBOUND:                -0.432
REMARK  6 active torsions:
REMARK  status: ('A' for Active; 'I' for Inactive)
REMARK    1  A    between atoms: N_5  and  C_7 
REMARK    2  A    between atoms: C_9  and  C_13 
REMARK    3  A    between atoms: C_10  and  O_12 
REMARK    4  A    between atoms: C_13  and  O_14 
REMARK    5  A    between atoms: C_18  and  N_19 
REMARK       I    between atoms: N_19  and  C_20 
REMARK    6  A    between atoms: C_20  and  C_22 
ROOT
ATOM      1  I   UNK d   1      13.224   7.877  13.422  0.00  0.00    -0.042 I 
ATOM      2  C   UNK d   1      11.310   7.394  12.682  0.00  0.00     0.040 A 
ATOM      3  C   UNK d   1      11.028   6.501  11.691  0.00  0.00     0.074 A 
ATOM      4  C   UNK d   1       9.638   6.540  11.571  0.00  0.00     0.148 A 
ATOM      5  N   UNK d   1       9.092   7.400  12.431  0.00  0.00    -0.312 N 
ATOM      6  C   UNK d   1      10.108   7.927  13.114  0.00  0.00     0.114 A 
ATOM      7  N   UNK d   1       9.071   5.743  10.650  0.00  0.00    -0.223 NA
ATOM      8  C   UNK d   1       9.815   4.940   9.874  0.00  0.00     0.237 A 
ATOM      9  N   UNK d   1      11.146   4.905   9.992  0.00  0.00    -0.223 NA
ATOM     10  C   UNK d   1      11.806   5.684  10.904  0.00  0.00     0.147 A 
ENDROOT
BRANCH   5  11
ATOM     11  C   UNK d   1       7.710   7.725  12.620  0.00  0.00     0.232 C 
ATOM     12  O   UNK d   1       6.913   7.439  11.519  0.00  0.00    -0.356 OA
ATOM     13  C   UNK d   1       5.680   7.962  11.898  0.00  0.00     0.176 C 
ATOM     14  C   UNK d   1       5.954   9.268  12.606  0.00  0.00     0.153 C 
ATOM     15  C   UNK d   1       7.480   9.233  12.755  0.00  0.00     0.088 C 
BRANCH  13  16
ATOM     16  C   UNK d   1       4.856   8.314  10.651  0.00  0.00     0.198 C 
BRANCH  16  17
ATOM     17  O   UNK d   1       3.668   7.573  10.672  0.00  0.00    -0.398 OA
ATOM     18  H   UNK d   1       2.874   8.175  10.835  0.00  0.00     0.209 HD
ENDBRANCH  16  17
ENDBRANCH  13  16
BRANCH  14  19
ATOM     19  O   UNK d   1       5.438   9.271  13.903  0.00  0.00    -0.393 OA
ATOM     20  H   UNK d   1       5.479   8.312  14.207  0.00  0.00     0.210 HD
ENDBRANCH  14  19
ENDBRANCH   5  11
BRANCH  10  21
ATOM     21  N   UNK d   1      13.226   5.606  10.985  0.00  0.00    -0.306 N 
ATOM     22  C   UNK d   1      13.810   4.489  11.648  0.00  0.00     0.257 C 
ATOM     23  O   UNK d   1      13.028   3.630  12.128  0.00  0.00    -0.267 OA
ATOM     24  H   UNK d   1      13.884   6.290  10.603  0.00  0.00     0.170 HD
BRANCH  22  25
ATOM     25  C   UNK d   1      15.225   4.286  11.802  0.00  0.00     0.032 A 
ATOM     26  C   UNK d   1      15.891   3.343  11.069  0.00  0.00     0.017 A 
ATOM     27  C   UNK d   1      17.265   3.136  11.204  0.00  0.00     0.001 A 
ATOM     28  C   UNK d   1      17.972   3.892  12.092  0.00  0.00     0.000 A 
ATOM     29  C   UNK d   1      17.331   4.845  12.841  0.00  0.00     0.001 A 
ATOM     30  C   UNK d   1      15.953   5.036  12.689  0.00  0.00     0.017 A 
ENDBRANCH  22  25
ENDBRANCH  10  21
TORSDOF 6
ENDMDL
