/Users/jonathanwahrer/Desktop/Msc/3_Semester/Drug_Design_Praktikum/waehrer_HTS_screening/HTS_experiment/out/docking_results/vina_output/2jam/0961_docked.pdbqt
 OpenBabel03162218013D

 29 33  0  0  1  0  0  0  0  0999 V2000
   13.4290    4.6710   11.4560 C   0  0  1  0  0  3  0  0  0  0  0  0
   14.6420    4.8380   11.9240 N   0  0  0  0  0  0  0  0  0  0  0  0
   14.9120    5.8830   12.7630 C   0  0  0  0  0  3  0  0  0  0  0  0
   13.9820    6.7920   13.1630 C   0  0  0  0  0  3  0  0  0  0  0  0
   12.6940    6.6480   12.6940 C   0  0  0  0  0  0  0  0  0  0  0  0
   11.5210    7.3470   12.8710 N   0  0  0  0  0  0  0  0  0  0  0  0
   10.5560    6.7700   12.1750 C   0  0  0  0  0  0  0  0  0  0  0  0
   11.1290    5.7010   11.5580 N   0  0  0  0  0  0  0  0  0  0  0  0
   12.4300    5.6040   11.8560 C   0  0  0  0  0  0  0  0  0  0  0  0
   11.4880    8.4970   13.7300 C   0  0  0  0  0  1  0  0  0  0  0  0
   15.7040    3.9140   11.6510 C   0  0  0  0  0  1  0  0  0  0  0  0
   12.9980    3.6830   10.4830 C   0  0  0  0  0  3  0  0  0  0  0  0
   12.8340    2.4100   10.5580 C   0  0  0  0  0  3  0  0  0  0  0  0
   12.3960    1.4260    9.5940 C   0  0  0  0  0  0  0  0  0  0  0  0
   13.1690    0.7690    8.6950 C   0  0  0  0  0  0  0  0  0  0  0  0
   15.0130    1.2090    8.4980 Br  0  0  0  0  0  0  0  0  0  0  0  0
   12.6430   -0.2280    7.8360 C   0  0  0  0  0  3  0  0  0  0  0  0
   11.3170   -0.5630    7.8860 C   0  0  0  0  0  0  0  0  0  0  0  0
   10.5070    0.0890    8.7880 C   0  0  0  0  0  0  0  0  0  0  0  0
   10.5040   -1.4720    7.2010 O   0  0  0  0  0  0  0  0  0  0  0  0
   11.0280    1.0560    9.6190 C   0  0  0  0  0  3  0  0  0  0  0  0
    9.2130   -0.4350    8.6350 O   0  0  0  0  0  0  0  0  0  0  0  0
    9.3740   -1.7060    8.0400 C   0  0  0  0  0  2  0  0  0  0  0  0
    9.1390    7.1370   12.0660 C   0  0  0  0  0  0  0  0  0  0  0  0
    8.6680    8.3960   11.8930 C   0  0  0  0  0  3  0  0  0  0  0  0
    7.2820    8.6320   11.8310 C   0  0  0  0  0  3  0  0  0  0  0  0
    6.3950    7.5860   11.9460 C   0  0  0  0  0  3  0  0  0  0  0  0
    6.8510    6.2860   12.1220 C   0  0  0  0  0  3  0  0  0  0  0  0
    8.1940    6.1050   12.1760 C   0  0  0  0  0  3  0  0  0  0  0  0
  1 12  1  6  0  0  0
  1  9  1  0  0  0  0
  1  2  1  0  0  0  0
  2  3  1  0  0  0  0
  3  4  2  0  0  0  0
  5  6  1  0  0  0  0
  5  4  1  0  0  0  0
  6 10  1  0  0  0  0
  7  6  1  0  0  0  0
  8  9  1  0  0  0  0
  8  7  2  0  0  0  0
  9  5  2  0  0  0  0
 11  2  1  0  0  0  0
 12 13  2  0  0  0  0
 14 21  1  0  0  0  0
 14 13  1  0  0  0  0
 15 14  2  0  0  0  0
 16 15  1  0  0  0  0
 17 18  2  0  0  0  0
 17 15  1  0  0  0  0
 18 19  1  0  0  0  0
 19 21  2  0  0  0  0
 20 18  1  0  0  0  0
 20 23  1  0  0  0  0
 22 19  1  0  0  0  0
 23 22  1  0  0  0  0
 24  7  1  0  0  0  0
 24 29  1  0  0  0  0
 25 24  2  0  0  0  0
 26 25  1  0  0  0  0
 26 27  2  0  0  0  0
 27 28  1  0  0  0  0
 28 29  2  0  0  0  0
M  END
>  <Pose>
1

>  <Score>
-9.957

$$$$
