MODEL 1
REMARK VINA RESULT:    -9.957      0.000      0.000
REMARK INTER + INTRA:         -12.143
REMARK INTER:                 -11.703
REMARK INTRA:                  -0.440
REMARK UNBOUND:                -0.440
REMARK  3 active torsions:
REMARK  status: ('A' for Active; 'I' for Inactive)
REMARK    1  A    between atoms: C_7  and  C_8 
REMARK    2  A    between atoms: C_9  and  C_10 
REMARK    3  A    between atoms: C_16  and  C_19 
ROOT
ATOM      1  C   UNK d   1      13.429   4.671  11.456  0.00  0.00     0.065 A 
ATOM      2  N   UNK d   1      14.642   4.838  11.924  0.00  0.00    -0.359 N 
ATOM      3  C   UNK d   1      14.912   5.883  12.763  0.00  0.00     0.093 A 
ATOM      4  C   UNK d   1      13.982   6.792  13.163  0.00  0.00     0.049 A 
ATOM      5  C   UNK d   1      12.694   6.648  12.694  0.00  0.00     0.068 A 
ATOM      6  N   UNK d   1      11.521   7.347  12.871  0.00  0.00    -0.333 N 
ATOM      7  C   UNK d   1      10.556   6.770  12.175  0.00  0.00     0.141 A 
ATOM      8  N   UNK d   1      11.129   5.701  11.558  0.00  0.00    -0.226 NA
ATOM      9  C   UNK d   1      12.430   5.604  11.856  0.00  0.00     0.113 A 
ATOM     10  C   UNK d   1      11.488   8.497  13.730  0.00  0.00     0.158 C 
ATOM     11  C   UNK d   1      15.704   3.914  11.651  0.00  0.00     0.156 C 
ENDROOT
BRANCH   1  12
ATOM     12  C   UNK d   1      12.998   3.683  10.483  0.00  0.00     0.033 C 
ATOM     13  C   UNK d   1      12.834   2.410  10.558  0.00  0.00     0.015 C 
BRANCH  13  14
ATOM     14  C   UNK d   1      12.396   1.426   9.594  0.00  0.00    -0.016 A 
ATOM     15  C   UNK d   1      13.169   0.769   8.695  0.00  0.00     0.024 A 
ATOM     16 Br   UNK d   1      15.013   1.209   8.498  0.00  0.00    -0.050 Br
ATOM     17  C   UNK d   1      12.643  -0.228   7.836  0.00  0.00     0.059 A 
ATOM     18  C   UNK d   1      11.317  -0.563   7.886  0.00  0.00     0.106 A 
ATOM     19  C   UNK d   1      10.507   0.089   8.788  0.00  0.00     0.105 A 
ATOM     20  O   UNK d   1      10.504  -1.472   7.201  0.00  0.00    -0.323 OA
ATOM     21  C   UNK d   1      11.028   1.056   9.619  0.00  0.00     0.052 A 
ATOM     22  O   UNK d   1       9.213  -0.435   8.635  0.00  0.00    -0.323 OA
ATOM     23  C   UNK d   1       9.374  -1.706   8.040  0.00  0.00     0.352 C 
ENDBRANCH  13  14
ENDBRANCH   1  12
BRANCH   7  24
ATOM     24  C   UNK d   1       9.139   7.137  12.066  0.00  0.00     0.010 A 
ATOM     25  C   UNK d   1       8.668   8.396  11.893  0.00  0.00     0.015 A 
ATOM     26  C   UNK d   1       7.282   8.632  11.831  0.00  0.00     0.001 A 
ATOM     27  C   UNK d   1       6.395   7.586  11.946  0.00  0.00     0.000 A 
ATOM     28  C   UNK d   1       6.851   6.286  12.122  0.00  0.00     0.001 A 
ATOM     29  C   UNK d   1       8.194   6.105  12.176  0.00  0.00     0.015 A 
ENDBRANCH   7  24
TORSDOF 3
ENDMDL
