MODEL 1
REMARK VINA RESULT:    -7.190      0.000      0.000
REMARK INTER + INTRA:          -9.054
REMARK INTER:                  -8.031
REMARK INTRA:                  -1.023
REMARK UNBOUND:                -1.023
REMARK  2 active torsions:
REMARK  status: ('A' for Active; 'I' for Inactive)
REMARK    1  A    between atoms: C_10  and  C_21 
REMARK    2  A    between atoms: C_26  and  C_27 
ROOT
ATOM      1 Br   UNK d   1       8.267  11.872  19.448  0.00  0.00    -0.045 Br
ATOM      2  C   UNK d   1       7.436  10.782  18.131  0.00  0.00     0.083 A 
ATOM      3  C   UNK d   1       8.103  10.296  17.010  0.00  0.00     0.107 A 
ATOM      4  C   UNK d   1       7.452   9.506  16.077  0.00  0.00     0.013 A 
ATOM      5  C   UNK d   1       6.120   9.187  16.250  0.00  0.00     0.037 A 
ATOM      6  C   UNK d   1       5.458   9.660  17.349  0.00  0.00     0.049 A 
ATOM      7  C   UNK d   1       6.110  10.442  18.268  0.00  0.00     0.144 A 
ATOM      8  O   UNK d   1       5.362  10.890  19.373  0.00  0.00    -0.189 OA
ATOM      9 Br   UNK d   1       3.609   9.177  17.530  0.00  0.00    -0.048 Br
ATOM     10  C   UNK d   1       8.088   9.012  14.959  0.00  0.00     0.003 A 
ATOM     11  C   UNK d   1       9.419   9.335  14.794  0.00  0.00     0.013 A 
ATOM     12  C   UNK d   1      10.028  10.178  15.830  0.00  0.00     0.108 A 
ATOM     13  C   UNK d   1      11.375  10.496  15.648  0.00  0.00     0.097 A 
ATOM     14  C   UNK d   1      12.063  10.032  14.552  0.00  0.00     0.209 A 
ATOM     15  O   UNK d   1      13.275  10.344  14.431  0.00  0.00    -0.285 OA
ATOM     16  C   UNK d   1      11.457   9.235  13.586  0.00  0.00     0.063 A 
ATOM     17  C   UNK d   1      10.144   8.885  13.701  0.00  0.00     0.038 A 
ATOM     18 Br   UNK d   1      12.490   8.633  12.094  0.00  0.00    -0.047 Br
ATOM     19 Br   UNK d   1      12.236  11.598  16.966  0.00  0.00    -0.044 Br
ATOM     20  O   UNK d   1       9.365  10.616  16.874  0.00  0.00    -0.306 OA
ENDROOT
BRANCH  10  21
ATOM     21  C   UNK d   1       7.396   8.184  13.971  0.00  0.00     0.016 A 
ATOM     22  C   UNK d   1       7.427   6.804  14.062  0.00  0.00     0.046 A 
ATOM     23  C   UNK d   1       6.788   6.002  13.141  0.00  0.00     0.026 A 
ATOM     24 Cl   UNK d   1       8.310   6.058  15.398  0.00  0.00    -0.083 Cl
ATOM     25  C   UNK d   1       6.102   6.604  12.106  0.00  0.00     0.026 A 
ATOM     26  C   UNK d   1       6.046   7.958  11.978  0.00  0.00     0.052 A 
ATOM     27  C   UNK d   1       6.691   8.744  12.908  0.00  0.00     0.075 A 
ATOM     28 Cl   UNK d   1       5.150   8.640  10.631  0.00  0.00    -0.083 Cl
BRANCH  27  29
ATOM     29  C   UNK d   1       6.641  10.180  12.777  0.00  0.00     0.212 C 
ATOM     30  O   UNK d   1       7.522  10.832  12.151  0.00  0.00    -0.644 OA
ATOM     31  O   UNK d   1       5.599  10.904  13.351  0.00  0.00    -0.644 OA
ENDBRANCH  27  29
ENDBRANCH  10  21
TORSDOF 2
ENDMDL
