MODEL 1
REMARK VINA RESULT:    -7.669      0.000      0.000
REMARK INTER + INTRA:          -7.669
REMARK INTER:                  -7.669
REMARK INTRA:                   0.000
REMARK UNBOUND:                 0.000
REMARK  0 active torsions:
REMARK  status: ('A' for Active; 'I' for Inactive)
ROOT
ATOM      1 Br   UNK d   1       3.176   8.473  16.305  0.00  0.00    -0.045 Br
ATOM      2  C   UNK d   1       4.588   8.236  15.045  0.00  0.00     0.083 A 
ATOM      3  C   UNK d   1       5.882   7.863  15.454  0.00  0.00     0.106 A 
ATOM      4  C   UNK d   1       6.918   7.684  14.586  0.00  0.00     0.023 A 
ATOM      5  C   UNK d   1       6.662   7.885  13.228  0.00  0.00     0.036 A 
ATOM      6  C   UNK d   1       5.409   8.247  12.831  0.00  0.00     0.049 A 
ATOM      7  C   UNK d   1       4.357   8.429  13.705  0.00  0.00     0.144 A 
ATOM      8  O   UNK d   1       3.090   8.802  13.225  0.00  0.00    -0.189 OA
ATOM      9 Br   UNK d   1       5.052   8.523  10.978  0.00  0.00    -0.048 Br
ATOM     10  C   UNK d   1       8.247   7.296  15.039  0.00  0.00     0.159 A 
ATOM     11  O   UNK d   1       8.518   6.020  14.463  0.00  0.00    -0.291 OA
ATOM     12  C   UNK d   1       9.614   6.048  13.645  0.00  0.00     0.295 A 
ATOM     13  O   UNK d   1      10.076   5.071  13.013  0.00  0.00    -0.259 OA
ATOM     14  C   UNK d   1      10.101   7.413  13.677  0.00  0.00     0.049 A 
ATOM     15  C   UNK d   1       9.312   8.187  14.497  0.00  0.00     0.003 A 
ATOM     16  C   UNK d   1       9.630   9.498  14.641  0.00  0.00     0.012 A 
ATOM     17  C   UNK d   1      10.718  10.020  13.973  0.00  0.00     0.001 A 
ATOM     18  C   UNK d   1      11.510   9.248  13.151  0.00  0.00     0.001 A 
ATOM     19  C   UNK d   1      11.202   7.922  12.996  0.00  0.00     0.018 A 
ATOM     20  C   UNK d   1       8.349   7.126  16.485  0.00  0.00     0.023 A 
ATOM     21  C   UNK d   1       7.273   7.321  17.306  0.00  0.00     0.106 A 
ATOM     22  C   UNK d   1       7.390   7.152  18.701  0.00  0.00     0.083 A 
ATOM     23  C   UNK d   1       8.609   6.786  19.223  0.00  0.00     0.144 A 
ATOM     24  C   UNK d   1       9.705   6.587  18.397  0.00  0.00     0.049 A 
ATOM     25  C   UNK d   1       9.584   6.753  17.046  0.00  0.00     0.036 A 
ATOM     26 Br   UNK d   1      11.399   6.080  19.106  0.00  0.00    -0.048 Br
ATOM     27  O   UNK d   1       8.710   6.623  20.597  0.00  0.00    -0.189 OA
ATOM     28 Br   UNK d   1       5.862   7.433  19.816  0.00  0.00    -0.045 Br
ATOM     29  O   UNK d   1       6.021   7.689  16.834  0.00  0.00    -0.306 OA
ENDROOT
TORSDOF 0
ENDMDL
