MODEL 1
REMARK VINA RESULT:    -7.661      0.000      0.000
REMARK INTER + INTRA:          -7.661
REMARK INTER:                  -7.661
REMARK INTRA:                   0.000
REMARK UNBOUND:                 0.000
REMARK  0 active torsions:
REMARK  status: ('A' for Active; 'I' for Inactive)
ROOT
ATOM      1  I   UNK d   1       2.734   9.261  15.330  0.00  0.00    -0.038 I 
ATOM      2  C   UNK d   1       4.232   8.841  16.759  0.00  0.00     0.078 A 
ATOM      3  C   UNK d   1       5.473   8.438  16.278  0.00  0.00     0.105 A 
ATOM      4  C   UNK d   1       6.455   8.161  17.173  0.00  0.00     0.023 A 
ATOM      5  C   UNK d   1       6.187   8.289  18.538  0.00  0.00     0.035 A 
ATOM      6  C   UNK d   1       4.960   8.686  19.024  0.00  0.00     0.045 A 
ATOM      7  C   UNK d   1       3.967   8.967  18.107  0.00  0.00     0.143 A 
ATOM      8  O   UNK d   1       2.724   9.369  18.574  0.00  0.00    -0.189 OA
ATOM      9  I   UNK d   1       4.604   8.864  21.106  0.00  0.00    -0.042 I 
ATOM     10  C   UNK d   1       7.785   7.734  16.780  0.00  0.00     0.161 A 
ATOM     11  O   UNK d   1       8.103   6.446  17.326  0.00  0.00    -0.291 OA
ATOM     12  C   UNK d   1       9.231   6.478  18.103  0.00  0.00     0.297 A 
ATOM     13  O   UNK d   1       9.801   5.543  18.737  0.00  0.00    -0.259 OA
ATOM     14  C   UNK d   1       9.700   7.855  18.084  0.00  0.00     0.074 A 
ATOM     15  C   UNK d   1       8.856   8.593  17.310  0.00  0.00     0.028 A 
ATOM     16  C   UNK d   1       9.082   9.957  17.124  0.00  0.00     0.068 A 
ATOM     17  C   UNK d   1      10.156  10.588  17.714  0.00  0.00     0.080 A 
ATOM     18  C   UNK d   1      11.017   9.831  18.504  0.00  0.00     0.080 A 
ATOM     19  C   UNK d   1      10.799   8.490  18.689  0.00  0.00     0.074 A 
ATOM     20 Cl   UNK d   1      11.873   7.567  19.670  0.00  0.00    -0.081 Cl
ATOM     21 Cl   UNK d   1      12.393  10.567  19.277  0.00  0.00    -0.081 Cl
ATOM     22 Cl   UNK d   1      10.409  12.299  17.458  0.00  0.00    -0.081 Cl
ATOM     23 Cl   UNK d   1       7.970  10.835  16.127  0.00  0.00    -0.082 Cl
ATOM     24  C   UNK d   1       7.928   7.642  15.301  0.00  0.00     0.023 A 
ATOM     25  C   UNK d   1       6.926   7.926  14.437  0.00  0.00     0.105 A 
ATOM     26  C   UNK d   1       7.196   7.798  13.076  0.00  0.00     0.078 A 
ATOM     27  C   UNK d   1       8.421   7.401  12.590  0.00  0.00     0.143 A 
ATOM     28  C   UNK d   1       9.419   7.120  13.501  0.00  0.00     0.045 A 
ATOM     29  C   UNK d   1       9.189   7.234  14.848  0.00  0.00     0.035 A 
ATOM     30  I   UNK d   1      11.305   6.509  12.789  0.00  0.00    -0.042 I 
ATOM     31  O   UNK d   1       8.686   7.276  11.251  0.00  0.00    -0.189 OA
ATOM     32  I   UNK d   1       5.650   8.236  11.725  0.00  0.00    -0.038 I 
ATOM     33  O   UNK d   1       5.683   8.328  14.889  0.00  0.00    -0.307 OA
ENDROOT
TORSDOF 0
ENDMDL
