/Users/jonathanwahrer/Desktop/Msc/3_Semester/Drug_Design_Praktikum/waehrer_HTS_screening/HTS_experiment/out/docking_results/vina_output/2jam/0978_docked.pdbqt
 OpenBabel03162218013D

 33 37  0  0  1  0  0  0  0  0999 V2000
    2.7340    9.2610   15.3300 I   0  0  0  0  0  0  0  0  0  0  0  0
    4.2320    8.8410   16.7590 C   0  0  0  0  0  0  0  0  0  0  0  0
    5.4730    8.4380   16.2780 C   0  0  0  0  0  0  0  0  0  0  0  0
    6.4550    8.1610   17.1730 C   0  0  0  0  0  0  0  0  0  0  0  0
    6.1870    8.2890   18.5380 C   0  0  0  0  0  3  0  0  0  0  0  0
    4.9600    8.6860   19.0240 C   0  0  0  0  0  0  0  0  0  0  0  0
    3.9670    8.9670   18.1070 C   0  0  0  0  0  0  0  0  0  0  0  0
    2.7240    9.3690   18.5740 O   0  0  0  0  0  1  0  0  0  0  0  0
    4.6040    8.8640   21.1060 I   0  0  0  0  0  0  0  0  0  0  0  0
    7.7850    7.7340   16.7800 C   0  0  2  0  0  0  0  0  0  0  0  0
    8.1030    6.4460   17.3260 O   0  0  0  0  0  0  0  0  0  0  0  0
    9.2310    6.4780   18.1030 C   0  0  0  0  0  0  0  0  0  0  0  0
    9.8010    5.5430   18.7370 O   0  0  0  0  0  0  0  0  0  0  0  0
    9.7000    7.8550   18.0840 C   0  0  0  0  0  0  0  0  0  0  0  0
    8.8560    8.5930   17.3100 C   0  0  0  0  0  0  0  0  0  0  0  0
    9.0820    9.9570   17.1240 C   0  0  0  0  0  0  0  0  0  0  0  0
   10.1560   10.5880   17.7140 C   0  0  0  0  0  0  0  0  0  0  0  0
   11.0170    9.8310   18.5040 C   0  0  0  0  0  0  0  0  0  0  0  0
   10.7990    8.4900   18.6890 C   0  0  0  0  0  0  0  0  0  0  0  0
   11.8730    7.5670   19.6700 Cl  0  0  0  0  0  0  0  0  0  0  0  0
   12.3930   10.5670   19.2770 Cl  0  0  0  0  0  0  0  0  0  0  0  0
   10.4090   12.2990   17.4580 Cl  0  0  0  0  0  0  0  0  0  0  0  0
    7.9700   10.8350   16.1270 Cl  0  0  0  0  0  0  0  0  0  0  0  0
    7.9280    7.6420   15.3010 C   0  0  0  0  0  0  0  0  0  0  0  0
    6.9260    7.9260   14.4370 C   0  0  0  0  0  0  0  0  0  0  0  0
    7.1960    7.7980   13.0760 C   0  0  0  0  0  0  0  0  0  0  0  0
    8.4210    7.4010   12.5900 C   0  0  0  0  0  0  0  0  0  0  0  0
    9.4190    7.1200   13.5010 C   0  0  0  0  0  0  0  0  0  0  0  0
    9.1890    7.2340   14.8480 C   0  0  0  0  0  3  0  0  0  0  0  0
   11.3050    6.5090   12.7890 I   0  0  0  0  0  0  0  0  0  0  0  0
    8.6860    7.2760   11.2510 O   0  0  0  0  0  1  0  0  0  0  0  0
    5.6500    8.2360   11.7250 I   0  0  0  0  0  0  0  0  0  0  0  0
    5.6830    8.3280   14.8890 O   0  0  0  0  0  0  0  0  0  0  0  0
  1  2  1  0  0  0  0
  2  7  1  0  0  0  0
  3  2  2  0  0  0  0
  3  4  1  0  0  0  0
  4  5  2  0  0  0  0
  5  6  1  0  0  0  0
  6  9  1  0  0  0  0
  7  8  1  0  0  0  0
  7  6  2  0  0  0  0
 10 24  1  6  0  0  0
 10  4  1  0  0  0  0
 10 15  1  0  0  0  0
 10 11  1  0  0  0  0
 11 12  1  0  0  0  0
 12 13  2  0  0  0  0
 14 12  1  0  0  0  0
 14 19  1  0  0  0  0
 15 14  2  0  0  0  0
 16 15  1  0  0  0  0
 16 17  2  0  0  0  0
 17 18  1  0  0  0  0
 18 19  2  0  0  0  0
 18 21  1  0  0  0  0
 19 20  1  0  0  0  0
 22 17  1  0  0  0  0
 23 16  1  0  0  0  0
 25 33  1  0  0  0  0
 25 24  2  0  0  0  0
 26 25  1  0  0  0  0
 27 26  2  0  0  0  0
 27 28  1  0  0  0  0
 28 29  2  0  0  0  0
 29 24  1  0  0  0  0
 30 28  1  0  0  0  0
 31 27  1  0  0  0  0
 32 26  1  0  0  0  0
 33  3  1  0  0  0  0
M  END
>  <Pose>
1

>  <Score>
-7.661

$$$$
