MODEL 1
REMARK VINA RESULT:    -7.604      0.000      0.000
REMARK INTER + INTRA:          -7.604
REMARK INTER:                  -7.604
REMARK INTRA:                   0.000
REMARK UNBOUND:                 0.000
REMARK  0 active torsions:
REMARK  status: ('A' for Active; 'I' for Inactive)
ROOT
ATOM      1  I   UNK d   1      12.697   8.092  17.766  0.00  0.00    -0.038 I 
ATOM      2  C   UNK d   1      11.934   7.880  15.801  0.00  0.00     0.078 A 
ATOM      3  C   UNK d   1      10.535   7.821  15.682  0.00  0.00     0.105 A 
ATOM      4  C   UNK d   1      10.020   7.685  14.431  0.00  0.00     0.023 A 
ATOM      5  C   UNK d   1      10.894   7.611  13.332  0.00  0.00     0.035 A 
ATOM      6  C   UNK d   1      12.258   7.670  13.451  0.00  0.00     0.045 A 
ATOM      7  C   UNK d   1      12.780   7.808  14.718  0.00  0.00     0.143 A 
ATOM      8  O   UNK d   1      14.157   7.871  14.875  0.00  0.00    -0.189 OA
ATOM      9  I   UNK d   1      13.518   7.554  11.750  0.00  0.00    -0.042 I 
ATOM     10  C   UNK d   1       8.572   7.613  14.203  0.00  0.00     0.159 A 
ATOM     11  O   UNK d   1       8.216   6.475  13.443  0.00  0.00    -0.291 OA
ATOM     12  C   UNK d   1       7.609   6.804  12.259  0.00  0.00     0.295 A 
ATOM     13  O   UNK d   1       7.171   6.043  11.356  0.00  0.00    -0.259 OA
ATOM     14  C   UNK d   1       7.544   8.258  12.202  0.00  0.00     0.049 A 
ATOM     15  C   UNK d   1       8.108   8.742  13.338  0.00  0.00     0.003 A 
ATOM     16  C   UNK d   1       8.162  10.130  13.513  0.00  0.00     0.012 A 
ATOM     17  C   UNK d   1       7.653  10.970  12.549  0.00  0.00     0.001 A 
ATOM     18  C   UNK d   1       7.081  10.480  11.394  0.00  0.00     0.001 A 
ATOM     19  C   UNK d   1       7.022   9.120  11.212  0.00  0.00     0.018 A 
ATOM     20  C   UNK d   1       7.782   7.703  15.443  0.00  0.00     0.023 A 
ATOM     21  C   UNK d   1       8.355   7.838  16.660  0.00  0.00     0.105 A 
ATOM     22  C   UNK d   1       7.545   7.916  17.789  0.00  0.00     0.078 A 
ATOM     23  C   UNK d   1       6.185   7.858  17.678  0.00  0.00     0.143 A 
ATOM     24  C   UNK d   1       5.568   7.722  16.456  0.00  0.00     0.045 A 
ATOM     25  C   UNK d   1       6.385   7.647  15.361  0.00  0.00     0.035 A 
ATOM     26  I   UNK d   1       3.462   7.633  16.290  0.00  0.00    -0.042 I 
ATOM     27  O   UNK d   1       5.400   7.939  18.821  0.00  0.00    -0.189 OA
ATOM     28  I   UNK d   1       8.455   8.128  19.699  0.00  0.00    -0.038 I 
ATOM     29  O   UNK d   1       9.747   7.902  16.832  0.00  0.00    -0.307 OA
ENDROOT
TORSDOF 0
ENDMDL
