MODEL 1
REMARK VINA RESULT:    -7.597      0.000      0.000
REMARK INTER + INTRA:          -9.189
REMARK INTER:                  -8.485
REMARK INTRA:                  -0.704
REMARK UNBOUND:                -0.704
REMARK  2 active torsions:
REMARK  status: ('A' for Active; 'I' for Inactive)
REMARK    1  A    between atoms: C_9  and  C_19 
REMARK    2  A    between atoms: C_20  and  C_25 
ROOT
ATOM      1  I   UNK d   1      10.880   7.483  11.860  0.00  0.00    -0.038 I 
ATOM      2  C   UNK d   1       8.936   7.296  12.649  0.00  0.00     0.077 A 
ATOM      3  C   UNK d   1       8.482   8.072  13.698  0.00  0.00     0.106 A 
ATOM      4  C   UNK d   1       7.211   7.952  14.217  0.00  0.00     0.011 A 
ATOM      5  C   UNK d   1       6.374   7.010  13.648  0.00  0.00     0.018 A 
ATOM      6  C   UNK d   1       6.821   6.227  12.595  0.00  0.00     0.042 A 
ATOM      7  C   UNK d   1       8.105   6.353  12.078  0.00  0.00     0.126 A 
ATOM      8  O   UNK d   1       8.502   5.541  11.019  0.00  0.00    -0.191 OA
ATOM      9  C   UNK d   1       6.739   8.718  15.264  0.00  0.00     0.001 A 
ATOM     10  C   UNK d   1       7.636   9.645  15.787  0.00  0.00     0.011 A 
ATOM     11  C   UNK d   1       8.973   9.741  15.209  0.00  0.00     0.107 A 
ATOM     12  C   UNK d   1       9.816  10.678  15.769  0.00  0.00     0.091 A 
ATOM     13  C   UNK d   1       9.442  11.492  16.817  0.00  0.00     0.191 A 
ATOM     14  O   UNK d   1      10.231  12.347  17.318  0.00  0.00    -0.287 OA
ATOM     15  C   UNK d   1       8.177  11.402  17.364  0.00  0.00     0.057 A 
ATOM     16  C   UNK d   1       7.309  10.474  16.825  0.00  0.00     0.019 A 
ATOM     17  I   UNK d   1      11.762  10.890  15.004  0.00  0.00    -0.037 I 
ATOM     18  O   UNK d   1       9.300   8.954  14.213  0.00  0.00    -0.306 OA
ENDROOT
BRANCH   9  19
ATOM     19  C   UNK d   1       5.394   8.595  15.817  0.00  0.00    -0.007 A 
ATOM     20  C   UNK d   1       4.363   9.307  15.212  0.00  0.00     0.051 A 
ATOM     21  C   UNK d   1       3.084   9.222  15.696  0.00  0.00     0.019 A 
ATOM     22  C   UNK d   1       2.820   8.427  16.789  0.00  0.00     0.001 A 
ATOM     23  C   UNK d   1       3.824   7.712  17.404  0.00  0.00     0.001 A 
ATOM     24  C   UNK d   1       5.102   7.811  16.902  0.00  0.00     0.013 A 
BRANCH  20  25
ATOM     25  C   UNK d   1       4.630  10.153  14.053  0.00  0.00     0.210 C 
ATOM     26  O   UNK d   1       4.978  11.351  14.152  0.00  0.00    -0.644 OA
ATOM     27  O   UNK d   1       4.503   9.648  12.767  0.00  0.00    -0.644 OA
ENDBRANCH  20  25
ENDBRANCH   9  19
TORSDOF 2
ENDMDL
