/Users/jonathanwahrer/Desktop/Msc/3_Semester/Drug_Design_Praktikum/waehrer_HTS_screening/HTS_experiment/out/docking_results/vina_output/2jam/0980_docked.pdbqt
 OpenBabel03162218013D

 27 30  0  0  1  0  0  0  0  0999 V2000
   10.8800    7.4830   11.8600 I   0  0  0  0  0  0  0  0  0  0  0  0
    8.9360    7.2960   12.6490 C   0  0  0  0  0  0  0  0  0  0  0  0
    8.4820    8.0720   13.6980 C   0  0  0  0  0  0  0  0  0  0  0  0
    7.2110    7.9520   14.2170 C   0  0  0  0  0  0  0  0  0  0  0  0
    6.3740    7.0100   13.6480 C   0  0  0  0  0  2  0  0  0  0  0  0
    6.8210    6.2270   12.5950 C   0  0  0  0  0  3  0  0  0  0  0  0
    8.1050    6.3530   12.0780 C   0  0  0  0  0  0  0  0  0  0  0  0
    8.5020    5.5410   11.0190 O   0  0  0  0  0  1  0  0  0  0  0  0
    6.7390    8.7180   15.2640 C   0  0  0  0  0  0  0  0  0  0  0  0
    7.6360    9.6450   15.7870 C   0  0  0  0  0  0  0  0  0  0  0  0
    8.9730    9.7410   15.2090 C   0  0  0  0  0  0  0  0  0  0  0  0
    9.8160   10.6780   15.7690 C   0  0  2  0  0  3  0  0  0  0  0  0
    9.4420   11.4920   16.8170 C   0  0  0  0  0  0  0  0  0  0  0  0
   10.2310   12.3470   17.3180 O   0  0  0  0  0  0  0  0  0  0  0  0
    8.1770   11.4020   17.3640 C   0  0  0  0  0  3  0  0  0  0  0  0
    7.3090   10.4740   16.8250 C   0  0  0  0  0  3  0  0  0  0  0  0
   11.7620   10.8900   15.0040 I   0  0  0  0  0  0  0  0  0  0  0  0
    9.3000    8.9540   14.2130 O   0  0  0  0  0  0  0  0  0  0  0  0
    5.3940    8.5950   15.8170 C   0  0  0  0  0  0  0  0  0  0  0  0
    4.3630    9.3070   15.2120 C   0  0  0  0  0  0  0  0  0  0  0  0
    3.0840    9.2220   15.6960 C   0  0  0  0  0  3  0  0  0  0  0  0
    2.8200    8.4270   16.7890 C   0  0  0  0  0  3  0  0  0  0  0  0
    3.8240    7.7120   17.4040 C   0  0  0  0  0  3  0  0  0  0  0  0
    5.1020    7.8110   16.9020 C   0  0  0  0  0  3  0  0  0  0  0  0
    4.6300   10.1530   14.0530 C   0  0  0  0  0  0  0  0  0  0  0  0
    4.9780   11.3510   14.1520 O   0  0  0  0  0  1  0  0  0  0  0  0
    4.5030    9.6480   12.7670 O   0  0  0  0  0  0  0  0  0  0  0  0
  1  2  1  0  0  0  0
  2  3  2  0  0  0  0
  3 18  1  0  0  0  0
  3  4  1  0  0  0  0
  4  9  2  0  0  0  0
  5  4  1  0  0  0  0
  6  5  1  0  0  0  0
  7  6  2  0  0  0  0
  7  2  1  0  0  0  0
  8  7  1  0  0  0  0
  9 10  1  0  0  0  0
  9 19  1  0  0  0  0
 10 16  1  0  0  0  0
 11 12  1  0  0  0  0
 11 10  2  0  0  0  0
 12 17  1  6  0  0  0
 12 13  1  0  0  0  0
 13 14  2  0  0  0  0
 13 15  1  0  0  0  0
 16 15  2  0  0  0  0
 18 11  1  0  0  0  0
 19 24  1  0  0  0  0
 20 21  1  0  0  0  0
 20 19  2  0  0  0  0
 21 22  2  0  0  0  0
 22 23  1  0  0  0  0
 24 23  2  0  0  0  0
 25 26  1  0  0  0  0
 25 20  1  0  0  0  0
 27 25  2  0  0  0  0
M  END
>  <Pose>
1

>  <Score>
-7.597

$$$$
