/Users/jonathanwahrer/Desktop/Msc/3_Semester/Drug_Design_Praktikum/waehrer_HTS_screening/HTS_experiment/out/docking_results/vina_output/2jam/0983_docked.pdbqt
 OpenBabel03162218013D

 34 37  0  0  0  0  0  0  0  0999 V2000
   11.7370    3.8620   11.1630 C   0  0  0  0  0  0  0  0  0  0  0  0
   11.6980    2.6740   10.4210 C   0  0  0  0  0  0  0  0  0  0  0  0
   13.0110    2.4290   10.0820 C   0  0  0  0  0  0  0  0  0  0  0  0
   13.7730    3.4070   10.5900 N   0  0  0  0  0  0  0  0  0  0  0  0
   13.0220    4.3240   11.2740 C   0  0  0  0  0  0  0  0  0  0  0  0
   13.3020    1.2960    9.3270 C   0  0  0  0  0  0  0  0  0  0  0  0
   12.2870    0.4610    8.9470 C   0  0  0  0  0  3  0  0  0  0  0  0
   10.9530    0.7060    9.2880 C   0  0  0  0  0  0  0  0  0  0  0  0
   10.6650    1.8450   10.0460 C   0  0  0  0  0  3  0  0  0  0  0  0
    9.5900   -0.4910    8.7280 Br  0  0  0  0  0  0  0  0  0  0  0  0
   15.0970    0.9330    8.8460 Br  0  0  0  0  0  0  0  0  0  0  0  0
   14.8250    3.4800   10.4860 H   0  0  0  0  0  0  0  0  0  0  0  0
   13.5490    5.4860   11.9800 C   0  0  0  0  0  0  0  0  0  0  0  0
   12.8200    6.1880   12.8900 N   0  0  0  0  0  0  0  0  0  0  0  0
   13.5320    7.2150   13.3790 C   0  0  0  0  0  0  0  0  0  0  0  0
   11.8410    5.9840   13.1900 H   0  0  0  0  0  0  0  0  0  0  0  0
   14.7770    7.2160   12.7890 C   0  0  0  0  0  0  0  0  0  0  0  0
   13.2770    8.2160   14.3060 C   0  0  0  0  0  0  0  0  0  0  0  0
   14.7500    6.1200   11.9190 C   0  0  0  0  0  0  0  0  0  0  0  0
   15.7370    8.1590   13.0960 C   0  0  0  0  0  3  0  0  0  0  0  0
   15.4710    9.1550   14.0220 C   0  0  0  0  0  0  0  0  0  0  0  0
   14.2230    9.1680   14.6250 C   0  0  0  0  0  3  0  0  0  0  0  0
   16.7880   10.4770   14.4630 Br  0  0  0  0  0  0  0  0  0  0  0  0
   11.5800    8.2930   15.1720 Br  0  0  0  0  0  0  0  0  0  0  0  0
   15.8300    5.7810   11.1240 O   0  0  0  0  0  0  0  0  0  0  0  0
   17.0870    4.7690   11.6750 S   0  0  0  0  0  0  0  0  0  0  0  0
   17.3090    4.9430   13.1490 O   0  0  0  0  0  1  0  0  0  0  0  0
   18.3870    5.0710   10.9870 O   0  0  0  0  0  1  0  0  0  0  0  0
   16.7170    3.1550   11.3000 O   0  0  0  0  0  1  0  0  0  0  0  0
   10.5960    4.4540   11.6930 O   0  0  0  0  0  0  0  0  0  0  0  0
    9.7840    5.7140   10.8650 S   0  0  0  0  0  0  0  0  0  0  0  0
   10.1560    5.5840    9.4140 O   0  0  0  0  0  1  0  0  0  0  0  0
    8.2880    5.5740   11.0040 O   0  0  0  0  0  1  0  0  0  0  0  0
   10.3010    7.2230   11.3980 O   0  0  0  0  0  1  0  0  0  0  0  0
  1  5  2  0  0  0  0
  1 30  1  0  0  0  0
  2  1  1  0  0  0  0
  3  2  1  0  0  0  0
  3  4  1  0  0  0  0
  4  5  1  0  0  0  0
  5 13  1  0  0  0  0
  6  3  2  0  0  0  0
  7  8  2  0  0  0  0
  7  6  1  0  0  0  0
  8  9  1  0  0  0  0
  9  2  2  0  0  0  0
 10  8  1  0  0  0  0
 11  6  1  0  0  0  0
 12  4  1  0  0  0  0
 13 14  1  0  0  0  0
 14 16  1  0  0  0  0
 14 15  1  0  0  0  0
 15 18  1  0  0  0  0
 17 20  1  0  0  0  0
 17 15  2  0  0  0  0
 18 22  2  0  0  0  0
 18 24  1  0  0  0  0
 19 13  2  0  0  0  0
 19 17  1  0  0  0  0
 20 21  2  0  0  0  0
 21 23  1  0  0  0  0
 21 22  1  0  0  0  0
 25 26  1  0  0  0  0
 25 19  1  0  0  0  0
 26 27  1  0  0  0  0
 28 26  1  0  0  0  0
 29 26  1  0  0  0  0
 31 33  1  0  0  0  0
 31 34  1  0  0  0  0
 31 30  1  0  0  0  0
 32 31  1  0  0  0  0
M  END
>  <Pose>
1

>  <Score>
-8.448

$$$$
