MODEL 1
REMARK VINA RESULT:    -8.317      0.000      0.000
REMARK INTER + INTRA:          -9.758
REMARK INTER:                  -9.532
REMARK INTRA:                  -0.226
REMARK UNBOUND:                -0.226
REMARK  4 active torsions:
REMARK  status: ('A' for Active; 'I' for Inactive)
REMARK    1  A    between atoms: C_7  and  N_10 
REMARK    2  A    between atoms: C_8  and  O_9 
REMARK    3  A    between atoms: C_13  and  N_21 
REMARK    4  A    between atoms: C_15  and  O_20 
ROOT
ATOM      1  N   UNK d   1       9.520   7.137  12.167  0.00  0.00    -0.277 N 
ATOM      2  C   UNK d   1       8.295   7.671  12.095  0.00  0.00     0.186 A 
ATOM      3  N   UNK d   1       7.134   7.207  11.558  0.00  0.00    -0.042 NA
ATOM      4  C   UNK d   1       5.994   7.893  11.583  0.00  0.00     0.724 A 
ATOM      5  N   UNK d   1       5.987   9.105  12.166  0.00  0.00    -0.036 NA
ATOM      6  C   UNK d   1       7.103   9.624  12.719  0.00  0.00     0.214 A 
ATOM      7  C   UNK d   1       8.286   8.915  12.694  0.00  0.00     0.159 A 
ATOM      8  N   UNK d   1       9.537   9.122  13.132  0.00  0.00    -0.216 NA
ATOM      9  C   UNK d   1      10.283   8.040  12.809  0.00  0.00     0.182 A 
ATOM     10 Br   UNK d   1      12.145   7.799  13.195  0.00  0.00    -0.008 Br
ENDROOT
BRANCH   1  11
ATOM     11  C   UNK d   1       9.855   5.841  11.630  0.00  0.00     0.263 C 
ATOM     12  O   UNK d   1      10.563   5.061  12.543  0.00  0.00    -0.353 OA
ATOM     13  C   UNK d   1      10.848   3.951  11.787  0.00  0.00     0.180 C 
ATOM     14  C   UNK d   1      11.517   4.576  10.557  0.00  0.00     0.198 C 
ATOM     15  C   UNK d   1      11.801   2.992  12.395  0.00  0.00     0.216 C 
ATOM     16  O   UNK d   1      11.159   3.772   9.478  0.00  0.00    -0.279 OA
ATOM     17  C   UNK d   1      10.870   5.944  10.494  0.00  0.00     0.199 C 
ATOM     18  P   UNK d   1      11.223   2.162  10.040  0.00  0.00     0.408 P 
ATOM     19  O   UNK d   1       9.835   1.569  10.147  0.00  0.00    -0.624 OA
ATOM     20  O   UNK d   1      12.111   2.015  11.443  0.00  0.00    -0.287 OA
ATOM     21  O   UNK d   1      12.019   1.277   8.810  0.00  0.00    -0.624 OA
BRANCH  17  22
ATOM     22  O   UNK d   1      10.284   6.214   9.283  0.00  0.00    -0.388 OA
ATOM     23  H   UNK d   1      10.957   6.641   8.664  0.00  0.00     0.210 HD
ENDBRANCH  17  22
ENDBRANCH   1  11
BRANCH   4  24
ATOM     24  N   UNK d   1       4.803   7.365  11.006  0.00  0.00    -0.231 N 
ATOM     25  H   UNK d   1       4.828   6.362  10.721  0.00  0.00     0.174 HD
ATOM     26  H   UNK d   1       3.938   7.945  10.868  0.00  0.00     0.174 HD
ENDBRANCH   4  24
BRANCH   6  27
ATOM     27  O   UNK d   1       7.101  10.877  13.324  0.00  0.00    -0.343 OA
ATOM     28  H   UNK d   1       6.303  11.488  13.091  0.00  0.00     0.219 HD
ENDBRANCH   6  27
TORSDOF 4
ENDMDL
