/Users/jonathanwahrer/Desktop/Msc/3_Semester/Drug_Design_Praktikum/waehrer_HTS_screening/HTS_experiment/out/docking_results/vina_output/2jam/0985_docked.pdbqt
 OpenBabel03162218023D

 28 31  0  0  1  0  0  0  0  0999 V2000
    9.5200    7.1370   12.1670 N   0  0  0  0  0  0  0  0  0  0  0  0
    8.2950    7.6710   12.0950 C   0  0  0  0  0  0  0  0  0  0  0  0
    7.1340    7.2070   11.5580 N   0  0  0  0  0  0  0  0  0  0  0  0
    5.9940    7.8930   11.5830 C   0  0  0  0  0  0  0  0  0  0  0  0
    5.9870    9.1050   12.1660 N   0  0  0  0  0  0  0  0  0  0  0  0
    7.1030    9.6240   12.7190 C   0  0  0  0  0  0  0  0  0  0  0  0
    8.2860    8.9150   12.6940 C   0  0  0  0  0  0  0  0  0  0  0  0
    9.5370    9.1220   13.1320 N   0  0  0  0  0  0  0  0  0  0  0  0
   10.2830    8.0400   12.8090 C   0  0  0  0  0  0  0  0  0  0  0  0
   12.1450    7.7990   13.1950 Br  0  0  0  0  0  0  0  0  0  0  0  0
    9.8550    5.8410   11.6300 C   0  0  2  0  0  3  0  0  0  0  0  0
   10.5630    5.0610   12.5430 O   0  0  0  0  0  0  0  0  0  0  0  0
   10.8480    3.9510   11.7870 C   0  0  1  0  0  3  0  0  0  0  0  0
   11.5170    4.5760   10.5570 C   0  0  1  0  0  3  0  0  0  0  0  0
   11.8010    2.9920   12.3950 C   0  0  0  0  0  2  0  0  0  0  0  0
   11.1590    3.7720    9.4780 O   0  0  0  0  0  0  0  0  0  0  0  0
   10.8700    5.9440   10.4940 C   0  0  1  0  0  3  0  0  0  0  0  0
   11.2230    2.1620   10.0400 P   0  0  2  0  0  0  0  0  0  0  0  0
    9.8350    1.5690   10.1470 O   0  0  0  0  0  1  0  0  0  0  0  0
   12.1110    2.0150   11.4430 O   0  0  0  0  0  0  0  0  0  0  0  0
   12.0190    1.2770    8.8100 O   0  0  0  0  0  0  0  0  0  0  0  0
   10.2840    6.2140    9.2830 O   0  0  0  0  0  0  0  0  0  0  0  0
   10.9570    6.6410    8.6640 H   0  0  0  0  0  0  0  0  0  0  0  0
    4.8030    7.3650   11.0060 N   0  0  0  0  0  0  0  0  0  0  0  0
    4.8280    6.3620   10.7210 H   0  0  0  0  0  0  0  0  0  0  0  0
    3.9380    7.9450   10.8680 H   0  0  0  0  0  0  0  0  0  0  0  0
    7.1010   10.8770   13.3240 O   0  0  0  0  0  0  0  0  0  0  0  0
    6.3030   11.4880   13.0910 H   0  0  0  0  0  0  0  0  0  0  0  0
  1  9  1  0  0  0  0
  2  1  1  0  0  0  0
  2  7  2  0  0  0  0
  3  4  2  0  0  0  0
  3  2  1  0  0  0  0
  4  5  1  0  0  0  0
  5  6  2  0  0  0  0
  6 27  1  0  0  0  0
  7  6  1  0  0  0  0
  7  8  1  0  0  0  0
  9  8  2  0  0  0  0
  9 10  1  0  0  0  0
 11  1  1  1  0  0  0
 11 12  1  0  0  0  0
 13 15  1  1  0  0  0
 13 12  1  0  0  0  0
 14 16  1  6  0  0  0
 14 13  1  0  0  0  0
 16 18  1  0  0  0  0
 17 22  1  6  0  0  0
 17 14  1  0  0  0  0
 17 11  1  0  0  0  0
 18 21  2  6  0  0  0
 18 19  1  0  0  0  0
 18 20  1  0  0  0  0
 20 15  1  0  0  0  0
 23 22  1  0  0  0  0
 24  4  1  0  0  0  0
 25 24  1  0  0  0  0
 26 24  1  0  0  0  0
 28 27  1  0  0  0  0
M  END
>  <Pose>
1

>  <Score>
-8.317

$$$$
