MODEL 1
REMARK VINA RESULT:   -10.652      0.000      0.000
REMARK INTER + INTRA:         -12.421
REMARK INTER:                 -12.209
REMARK INTRA:                  -0.212
REMARK UNBOUND:                -0.212
REMARK  3 active torsions:
REMARK  status: ('A' for Active; 'I' for Inactive)
REMARK    1  A    between atoms: C_7  and  N_10 
REMARK    2  A    between atoms: C_8  and  O_9 
REMARK    3  A    between atoms: C_21  and  C_23 
ROOT
ATOM      1  N   UNK d   1       9.059   7.443  12.475  0.00  0.00    -0.279 N 
ATOM      2  C   UNK d   1       9.795   6.457  11.904  0.00  0.00     0.162 A 
ATOM      3  C   UNK d   1      11.140   6.751  11.975  0.00  0.00     0.173 A 
ATOM      4  N   UNK d   1      11.208   7.943  12.605  0.00  0.00    -0.214 NA
ATOM      5  C   UNK d   1       9.957   8.350  12.899  0.00  0.00     0.182 A 
ATOM      6 Br   UNK d   1       9.448   9.965  13.789  0.00  0.00    -0.008 Br
ATOM      7  C   UNK d   1      12.059   5.866  11.447  0.00  0.00     0.298 A 
ATOM      8  O   UNK d   1      13.282   6.123  11.506  0.00  0.00    -0.264 OA
ATOM      9  N   UNK d   1      11.687   4.708  10.855  0.00  0.00    -0.115 N 
ATOM     10  C   UNK d   1      10.370   4.442  10.796  0.00  0.00     0.716 A 
ATOM     11  N   UNK d   1      10.265   3.255  10.172  0.00  0.00    -0.062 NA
ATOM     12  C   UNK d   1      11.470   2.760   9.834  0.00  0.00     0.102 A 
ATOM     13  C   UNK d   1      12.385   3.695  10.272  0.00  0.00     0.152 A 
ATOM     14  N   UNK d   1       9.447   5.302  11.312  0.00  0.00    -0.171 N 
ATOM     15  H   UNK d   1       8.425   5.090  11.264  0.00  0.00     0.186 HD
ENDROOT
BRANCH   1  16
ATOM     16  C   UNK d   1       7.606   7.516  12.605  0.00  0.00     0.263 C 
ATOM     17  O   UNK d   1       7.145   8.803  12.341  0.00  0.00    -0.353 OA
ATOM     18  C   UNK d   1       5.955   8.970  12.994  0.00  0.00     0.180 C 
ATOM     19  C   UNK d   1       6.137   8.199  14.303  0.00  0.00     0.197 C 
ATOM     20  C   UNK d   1       5.661  10.399  13.381  0.00  0.00     0.214 C 
ATOM     21  O   UNK d   1       4.880   7.703  14.635  0.00  0.00    -0.292 OA
ATOM     22  C   UNK d   1       7.125   7.125  13.959  0.00  0.00     0.199 C 
ATOM     23  P   UNK d   1       3.774   8.963  14.357  0.00  0.00     0.422 P 
ATOM     24  S   UNK d   1       2.737   9.079  15.746  0.00  0.00     0.009 SA
ATOM     25  O   UNK d   1       4.559  10.451  14.203  0.00  0.00    -0.300 OA
ATOM     26  O   UNK d   1       2.884   8.707  12.944  0.00  0.00    -0.240 OA
BRANCH  22  27
ATOM     27  O   UNK d   1       6.499   5.872  13.934  0.00  0.00    -0.388 OA
ATOM     28  H   UNK d   1       5.816   5.787  14.630  0.00  0.00     0.210 HD
ENDBRANCH  22  27
ENDBRANCH   1  16
BRANCH  12  29
ATOM     29  C   UNK d   1      11.757   1.496   9.144  0.00  0.00    -0.005 A 
ATOM     30  C   UNK d   1      10.781   0.533   9.024  0.00  0.00     0.014 A 
ATOM     31  C   UNK d   1      11.022  -0.672   8.377  0.00  0.00     0.001 A 
ATOM     32  C   UNK d   1      12.271  -0.899   7.845  0.00  0.00     0.000 A 
ATOM     33  C   UNK d   1      13.282   0.045   7.943  0.00  0.00     0.001 A 
ATOM     34  C   UNK d   1      12.986   1.222   8.596  0.00  0.00     0.014 A 
ENDBRANCH  12  29
TORSDOF 3
ENDMDL
