/Users/jonathanwahrer/Desktop/Msc/3_Semester/Drug_Design_Praktikum/waehrer_HTS_screening/HTS_experiment/out/docking_results/vina_output/2jam/0993_docked.pdbqt
 OpenBabel03162218023D

 26 29  0  0  1  0  0  0  0  0999 V2000
    4.1940    8.7970   15.3630 P   0  0  2  0  0  0  0  0  0  0  0  0
    4.9990    9.3450   16.8110 S   0  0  0  0  0  1  0  0  0  0  0  0
    5.0880    7.5260   14.6550 O   0  0  0  0  0  0  0  0  0  0  0  0
    6.2140    8.0900   14.1070 C   0  0  2  0  0  3  0  0  0  0  0  0
    5.7850    9.0710   13.0070 C   0  0  2  0  0  3  0  0  0  0  0  0
    7.0040    9.2570   12.3570 O   0  0  0  0  0  0  0  0  0  0  0  0
    7.5170    7.9970   12.1590 C   0  0  2  0  0  3  0  0  0  0  0  0
    7.0250    7.1130   13.2760 C   0  0  2  0  0  3  0  0  0  0  0  0
    5.2330   10.3340   13.5910 C   0  0  0  0  0  2  0  0  0  0  0  0
    4.0530   10.0330   14.2470 O   0  0  0  0  0  0  0  0  0  0  0  0
    2.6960    8.2000   15.7950 O   0  0  0  0  0  0  0  0  0  0  0  0
    8.9670    7.9670   12.1870 N   0  0  0  0  0  0  0  0  0  0  0  0
    9.7230    7.0900   11.4800 C   0  0  0  0  0  0  0  0  0  0  0  0
    9.3940    6.0860   10.6270 N   0  0  0  0  0  0  0  0  0  0  0  0
   11.0540    7.3460   11.7420 C   0  0  0  0  0  0  0  0  0  0  0  0
   10.3430    5.3360   10.0340 C   0  0  0  0  0  3  0  0  0  0  0  0
   11.6520    5.5830   10.2890 N   0  0  0  0  0  0  0  0  0  0  0  0
   12.0180    6.5680   11.1280 C   0  0  0  0  0  0  0  0  0  0  0  0
   11.1020    8.3750   12.6070 N   0  0  0  0  0  0  0  0  0  0  0  0
    9.8280    8.7420   12.8680 C   0  0  0  0  0  0  0  0  0  0  0  0
    9.2440   10.1550   14.0300 Br  0  0  0  0  0  0  0  0  0  0  0  0
   13.4040    6.8170   11.3860 N   0  0  0  0  0  0  0  0  0  0  0  0
   13.6580    7.4830   12.1660 H   0  0  0  0  0  0  0  0  0  0  0  0
   14.1640    6.3680   10.8370 H   0  0  0  0  0  0  0  0  0  0  0  0
    6.1090    6.2130   12.7140 O   0  0  0  0  0  0  0  0  0  0  0  0
    6.0360    5.3780   13.2120 H   0  0  0  0  0  0  0  0  0  0  0  0
  1 11  2  1  0  0  0
  1  2  1  0  0  0  0
  3  1  1  0  0  0  0
  4  3  1  6  0  0  0
  5  9  1  1  0  0  0
  5  4  1  0  0  0  0
  6  5  1  0  0  0  0
  7 12  1  1  0  0  0
  7  6  1  0  0  0  0
  7  8  1  0  0  0  0
  8 25  1  6  0  0  0
  8  4  1  0  0  0  0
  9 10  1  0  0  0  0
 10  1  1  0  0  0  0
 12 20  1  0  0  0  0
 13 15  1  0  0  0  0
 13 12  1  0  0  0  0
 14 13  2  0  0  0  0
 15 19  1  0  0  0  0
 16 17  2  0  0  0  0
 16 14  1  0  0  0  0
 17 18  1  0  0  0  0
 18 22  1  0  0  0  0
 18 15  2  0  0  0  0
 19 20  2  0  0  0  0
 20 21  1  0  0  0  0
 22 23  1  0  0  0  0
 24 22  1  0  0  0  0
 25 26  1  0  0  0  0
M  END
>  <Pose>
1

>  <Score>
-3.040

$$$$
