MODEL 1
REMARK VINA RESULT:    -3.040      0.000      0.000
REMARK INTER + INTRA:          -3.414
REMARK INTER:                  -3.396
REMARK INTRA:                  -0.018
REMARK UNBOUND:                -0.018
REMARK  3 active torsions:
REMARK  status: ('A' for Active; 'I' for Inactive)
REMARK    1  A    between atoms: C_7  and  N_10 
REMARK    2  A    between atoms: C_8  and  O_9 
REMARK    3  A    between atoms: C_15  and  N_20 
ROOT
ATOM      1  P   UNK d   1       4.194   8.797  15.363  0.00  0.00     0.422 P 
ATOM      2  S   UNK d   1       4.999   9.345  16.811  0.00  0.00     0.009 SA
ATOM      3  O   UNK d   1       5.088   7.526  14.655  0.00  0.00    -0.292 OA
ATOM      4  C   UNK d   1       6.214   8.090  14.107  0.00  0.00     0.197 C 
ATOM      5  C   UNK d   1       5.785   9.071  13.007  0.00  0.00     0.180 C 
ATOM      6  O   UNK d   1       7.004   9.257  12.357  0.00  0.00    -0.353 OA
ATOM      7  C   UNK d   1       7.517   7.997  12.159  0.00  0.00     0.263 C 
ATOM      8  C   UNK d   1       7.025   7.113  13.276  0.00  0.00     0.199 C 
ATOM      9  C   UNK d   1       5.233  10.334  13.591  0.00  0.00     0.214 C 
ATOM     10  O   UNK d   1       4.053  10.033  14.247  0.00  0.00    -0.300 OA
ATOM     11  O   UNK d   1       2.696   8.200  15.795  0.00  0.00    -0.240 OA
ENDROOT
BRANCH   7  12
ATOM     12  N   UNK d   1       8.967   7.967  12.187  0.00  0.00    -0.278 N 
ATOM     13  C   UNK d   1       9.723   7.090  11.480  0.00  0.00     0.168 A 
ATOM     14  N   UNK d   1       9.394   6.086  10.627  0.00  0.00    -0.221 NA
ATOM     15  C   UNK d   1      11.054   7.346  11.742  0.00  0.00     0.151 A 
ATOM     16  C   UNK d   1      10.343   5.336  10.034  0.00  0.00     0.237 A 
ATOM     17  N   UNK d   1      11.652   5.583  10.289  0.00  0.00    -0.222 NA
ATOM     18  C   UNK d   1      12.018   6.568  11.128  0.00  0.00     0.155 A 
ATOM     19  N   UNK d   1      11.102   8.375  12.607  0.00  0.00    -0.216 NA
ATOM     20  C   UNK d   1       9.828   8.742  12.868  0.00  0.00     0.182 A 
ATOM     21 Br   UNK d   1       9.244  10.155  14.030  0.00  0.00    -0.008 Br
BRANCH  18  22
ATOM     22  N   UNK d   1      13.404   6.817  11.386  0.00  0.00    -0.382 N 
ATOM     23  H   UNK d   1      13.658   7.483  12.166  0.00  0.00     0.157 HD
ATOM     24  H   UNK d   1      14.164   6.368  10.837  0.00  0.00     0.157 HD
ENDBRANCH  18  22
ENDBRANCH   7  12
BRANCH   8  25
ATOM     25  O   UNK d   1       6.109   6.213  12.714  0.00  0.00    -0.388 OA
ATOM     26  H   UNK d   1       6.036   5.378  13.212  0.00  0.00     0.210 HD
ENDBRANCH   8  25
TORSDOF 3
ENDMDL
