/Users/jonathanwahrer/Desktop/Msc/3_Semester/Drug_Design_Praktikum/waehrer_HTS_screening/HTS_experiment/out/docking_results/vina_output/2jam/0999_docked.pdbqt
 OpenBabel03162218033D

 35 39  0  0  1  0  0  0  0  0999 V2000
    5.9990    7.9570   13.6130 N   0  0  0  0  0  0  0  0  0  0  0  0
    6.6190    7.7390   12.3580 C   0  0  0  0  0  0  0  0  0  0  0  0
    6.0670    8.2150   11.3300 O   0  0  0  0  0  0  0  0  0  0  0  0
    6.4770    7.5500   14.4560 H   0  0  0  0  0  0  0  0  0  0  0  0
    4.7830    8.7010   13.6730 C   0  0  1  0  0  3  0  0  0  0  0  0
    4.0290    8.7190   14.9360 C   0  0  1  0  0  0  0  0  0  0  0  0
    3.8420    7.2450   15.9350 S   0  0  0  0  0  0  0  0  0  0  0  0
    5.1170    9.4820   15.4610 N   0  0  0  0  0  0  0  0  0  0  0  0
    3.7920    8.0680   17.5690 C   0  0  0  0  0  2  0  0  0  0  0  0
    5.1440    8.7810   17.7130 C   0  0  0  0  0  0  0  0  0  0  0  0
    5.7320    9.4180   16.7500 C   0  0  0  0  0  0  0  0  0  0  0  0
    5.1230   10.0920   14.1820 C   0  0  1  0  0  0  0  0  0  0  0  0
    5.2890   11.1560   13.5750 O   0  0  0  0  0  1  0  0  0  0  0  0
    5.6420    8.6260   19.0560 C   0  0  0  0  0  2  0  0  0  0  0  0
    5.0530    9.1820   20.1410 O   0  0  0  0  0  0  0  0  0  0  0  0
    4.6110   10.5100   20.1820 C   0  0  0  0  0  0  0  0  0  0  0  0
    5.4660   11.3980   20.0020 O   0  0  0  0  0  0  0  0  0  0  0  0
    3.1720   10.7550   20.4370 C   0  0  0  0  0  1  0  0  0  0  0  0
    7.0430   10.1190   16.8790 C   0  0  0  0  0  0  0  0  0  0  0  0
    8.1410    9.6070   16.8880 O   0  0  0  0  0  0  0  0  0  0  0  0
    7.0450   11.5210   17.0050 O   0  0  0  0  0  1  0  0  0  0  0  0
    7.8690    6.9840   12.2260 C   0  0  0  0  0  0  0  0  0  0  0  0
    8.5140    6.6380   11.1560 O   0  0  0  0  0  0  0  0  0  0  0  0
    9.5900    5.9710   11.4220 C   0  0  0  0  0  0  0  0  0  0  0  0
    9.6750    5.8570   12.8140 C   0  0  0  0  0  3  0  0  0  0  0  0
    8.5740    6.5040   13.3070 C   0  0  0  0  0  3  0  0  0  0  0  0
   10.5990    5.4010   10.4560 C   0  0  0  0  0  2  0  0  0  0  0  0
   11.1600    4.2170   10.9620 O   0  0  0  0  0  0  0  0  0  0  0  0
   11.4950    3.1100   10.2350 C   0  0  0  0  0  0  0  0  0  0  0  0
   12.7830    2.8100    9.8020 C   0  0  0  0  0  3  0  0  0  0  0  0
   13.0090    1.6620    9.0750 C   0  0  0  0  0  3  0  0  0  0  0  0
   12.0160    0.7720    8.7390 C   0  0  0  0  0  0  0  0  0  0  0  0
   10.7310    1.0630    9.1650 C   0  0  0  0  0  3  0  0  0  0  0  0
   12.3890   -0.8030    7.7290 Br  0  0  0  0  0  0  0  0  0  0  0  0
   10.4970    2.2180    9.9000 C   0  0  0  0  0  3  0  0  0  0  0  0
  1  4  1  0  0  0  0
  2  1  1  0  0  0  0
  3  2  2  0  0  0  0
  5  1  1  1  0  0  0
  5 12  1  0  0  0  0
  5  6  1  0  0  0  0
  6  8  1  0  0  0  0
  6  7  1  1  0  0  0
  7  9  1  0  0  0  0
  8 11  1  0  0  0  0
  9 10  1  0  0  0  0
 10 14  1  0  0  0  0
 11 19  1  0  0  0  0
 11 10  2  0  0  0  0
 12 13  1  6  0  0  0
 12  6  1  0  0  0  0
 12  8  1  0  0  0  0
 14 15  1  0  0  0  0
 15 16  1  0  0  0  0
 16 18  1  0  0  0  0
 17 16  2  0  0  0  0
 19 20  2  0  0  0  0
 19 21  1  0  0  0  0
 22  2  1  0  0  0  0
 22 26  2  0  0  0  0
 23 24  1  0  0  0  0
 23 22  1  0  0  0  0
 24 25  2  0  0  0  0
 25 26  1  0  0  0  0
 27 28  1  0  0  0  0
 27 24  1  0  0  0  0
 29 28  1  0  0  0  0
 30 29  2  0  0  0  0
 31 30  1  0  0  0  0
 32 31  2  0  0  0  0
 32 33  1  0  0  0  0
 33 35  2  0  0  0  0
 34 32  1  0  0  0  0
 35 29  1  0  0  0  0
M  END
>  <Pose>
1

>  <Score>
-8.626

$$$$
