MODEL 1
REMARK VINA RESULT:    -8.626      0.000      0.000
REMARK INTER + INTRA:         -14.509
REMARK INTER:                 -13.164
REMARK INTRA:                  -1.345
REMARK UNBOUND:                -1.345
REMARK  9 active torsions:
REMARK  status: ('A' for Active; 'I' for Inactive)
REMARK    1  A    between atoms: C_4  and  C_12 
REMARK    2  A    between atoms: C_5  and  C_7 
REMARK    3  A    between atoms: C_7  and  O_8 
REMARK    4  A    between atoms: O_8  and  C_9 
REMARK    5  A    between atoms: C_17  and  N_18 
REMARK       I    between atoms: N_18  and  C_19 
REMARK    6  A    between atoms: C_19  and  C_21 
REMARK    7  A    between atoms: C_23  and  C_26 
REMARK    8  A    between atoms: C_26  and  O_27 
REMARK    9  A    between atoms: O_27  and  C_28 
ROOT
ATOM      1  N   UNK d   1       5.999   7.957  13.613  0.00  0.00    -0.339 N 
ATOM      2  C   UNK d   1       6.619   7.739  12.358  0.00  0.00     0.276 C 
ATOM      3  O   UNK d   1       6.067   8.215  11.330  0.00  0.00    -0.265 OA
ATOM      4  H   UNK d   1       6.477   7.550  14.456  0.00  0.00     0.163 HD
ENDROOT
BRANCH   1   5
ATOM      5  C   UNK d   1       4.783   8.701  13.673  0.00  0.00     0.211 C 
ATOM      6  C   UNK d   1       4.029   8.719  14.936  0.00  0.00     0.187 C 
ATOM      7  S   UNK d   1       3.842   7.245  15.935  0.00  0.00    -0.136 SA
ATOM      8  N   UNK d   1       5.117   9.482  15.461  0.00  0.00    -0.293 N 
ATOM      9  C   UNK d   1       3.792   8.068  17.569  0.00  0.00     0.115 C 
ATOM     10  C   UNK d   1       5.144   8.781  17.713  0.00  0.00    -0.013 C 
ATOM     11  C   UNK d   1       5.732   9.418  16.750  0.00  0.00     0.121 C 
ATOM     12  C   UNK d   1       5.123  10.092  14.182  0.00  0.00     0.251 C 
ATOM     13  O   UNK d   1       5.289  11.156  13.575  0.00  0.00    -0.271 OA
BRANCH  10  14
ATOM     14  C   UNK d   1       5.642   8.626  19.056  0.00  0.00     0.216 C 
BRANCH  14  15
ATOM     15  O   UNK d   1       5.053   9.182  20.141  0.00  0.00    -0.317 OA
BRANCH  15  16
ATOM     16  C   UNK d   1       4.611  10.510  20.182  0.00  0.00     0.255 C 
ATOM     17  O   UNK d   1       5.466  11.398  20.002  0.00  0.00    -0.266 OA
ATOM     18  C   UNK d   1       3.172  10.755  20.437  0.00  0.00     0.126 C 
ENDBRANCH  15  16
ENDBRANCH  14  15
ENDBRANCH  10  14
BRANCH  11  19
ATOM     19  C   UNK d   1       7.043  10.119  16.879  0.00  0.00     0.227 C 
ATOM     20  O   UNK d   1       8.141   9.607  16.888  0.00  0.00    -0.643 OA
ATOM     21  O   UNK d   1       7.045  11.521  17.005  0.00  0.00    -0.643 OA
ENDBRANCH  11  19
ENDBRANCH   1   5
BRANCH   2  22
ATOM     22  C   UNK d   1       7.869   6.984  12.226  0.00  0.00     0.143 A 
ATOM     23  O   UNK d   1       8.514   6.638  11.156  0.00  0.00    -0.307 OA
ATOM     24  C   UNK d   1       9.590   5.971  11.422  0.00  0.00     0.078 A 
ATOM     25  C   UNK d   1       9.675   5.857  12.814  0.00  0.00     0.038 A 
ATOM     26  C   UNK d   1       8.574   6.504  13.307  0.00  0.00     0.045 A 
BRANCH  24  27
ATOM     27  C   UNK d   1      10.599   5.401  10.456  0.00  0.00     0.240 C 
BRANCH  27  28
ATOM     28  O   UNK d   1      11.160   4.217  10.962  0.00  0.00    -0.345 OA
BRANCH  28  29
ATOM     29  C   UNK d   1      11.495   3.110  10.235  0.00  0.00     0.069 A 
ATOM     30  C   UNK d   1      12.783   2.810   9.802  0.00  0.00     0.038 A 
ATOM     31  C   UNK d   1      13.009   1.662   9.075  0.00  0.00     0.022 A 
ATOM     32  C   UNK d   1      12.016   0.772   8.739  0.00  0.00     0.011 A 
ATOM     33  C   UNK d   1      10.731   1.063   9.165  0.00  0.00     0.022 A 
ATOM     34 Br   UNK d   1      12.389  -0.803   7.729  0.00  0.00    -0.051 Br
ATOM     35  C   UNK d   1      10.497   2.218   9.900  0.00  0.00     0.038 A 
ENDBRANCH  28  29
ENDBRANCH  27  28
ENDBRANCH  24  27
ENDBRANCH   2  22
TORSDOF 9
ENDMDL
