MODEL 1
REMARK VINA RESULT:    -7.860      0.000      0.000
REMARK INTER + INTRA:          -8.472
REMARK INTER:                  -8.779
REMARK INTRA:                   0.307
REMARK UNBOUND:                 0.307
REMARK  3 active torsions:
REMARK  status: ('A' for Active; 'I' for Inactive)
REMARK    1  A    between atoms: C_7  and  N_10 
REMARK    2  A    between atoms: C_8  and  O_9 
REMARK    3  A    between atoms: C_15  and  N_20 
ROOT
ATOM      1  P   UNK d   1       9.253   7.196  11.752  0.00  0.00     0.408 P 
ATOM      2  O   UNK d   1       8.764   8.474  11.068  0.00  0.00    -0.624 OA
ATOM      3  O   UNK d   1      10.928   7.173  11.642  0.00  0.00    -0.279 OA
ATOM      4  C   UNK d   1      11.397   5.953  11.228  0.00  0.00     0.198 C 
ATOM      5  C   UNK d   1      10.448   4.898  11.814  0.00  0.00     0.180 C 
ATOM      6  O   UNK d   1      11.188   3.763  11.967  0.00  0.00    -0.353 OA
ATOM      7  C   UNK d   1      12.511   4.081  12.101  0.00  0.00     0.263 C 
ATOM      8  C   UNK d   1      12.695   5.541  11.869  0.00  0.00     0.199 C 
ATOM      9  C   UNK d   1       9.304   4.792  10.857  0.00  0.00     0.216 C 
ATOM     10  O   UNK d   1       8.513   5.908  10.991  0.00  0.00    -0.287 OA
ATOM     11  O   UNK d   1       8.773   7.335  13.388  0.00  0.00    -0.624 OA
ENDROOT
BRANCH   7  12
ATOM     12  N   UNK d   1      13.263   3.261  11.160  0.00  0.00    -0.278 N 
ATOM     13  C   UNK d   1      12.734   2.385  10.274  0.00  0.00     0.168 A 
ATOM     14  N   UNK d   1      11.458   2.046  10.026  0.00  0.00    -0.221 NA
ATOM     15  C   UNK d   1      13.766   1.807   9.566  0.00  0.00     0.151 A 
ATOM     16  C   UNK d   1      11.191   1.133   9.077  0.00  0.00     0.237 A 
ATOM     17  N   UNK d   1      12.200   0.570   8.388  0.00  0.00    -0.222 NA
ATOM     18  C   UNK d   1      13.495   0.860   8.581  0.00  0.00     0.155 A 
ATOM     19  N   UNK d   1      14.908   2.322  10.013  0.00  0.00    -0.216 NA
ATOM     20  C   UNK d   1      14.592   3.203  10.980  0.00  0.00     0.182 A 
ATOM     21 Br   UNK d   1      15.821   4.274  12.011  0.00  0.00    -0.008 Br
BRANCH  18  22
ATOM     22  N   UNK d   1      14.568   0.273   7.859  0.00  0.00    -0.382 N 
ATOM     23  H   UNK d   1      14.445  -0.724   7.512  0.00  0.00     0.157 HD
ATOM     24  H   UNK d   1      15.453   0.744   7.648  0.00  0.00     0.157 HD
ENDBRANCH  18  22
ENDBRANCH   7  12
BRANCH   8  25
ATOM     25  O   UNK d   1      12.914   6.267  13.023  0.00  0.00    -0.388 OA
ATOM     26  H   UNK d   1      13.083   7.210  12.870  0.00  0.00     0.210 HD
ENDBRANCH   8  25
TORSDOF 3
ENDMDL
