MODEL 1
REMARK VINA RESULT:    -8.712      0.000      0.000
REMARK INTER + INTRA:         -11.213
REMARK INTER:                 -10.495
REMARK INTRA:                  -0.719
REMARK UNBOUND:                -0.719
REMARK  4 active torsions:
REMARK  status: ('A' for Active; 'I' for Inactive)
REMARK    1  A    between atoms: S_1  and  N_4 
REMARK    2  A    between atoms: S_1  and  C_5 
REMARK    3  A    between atoms: C_7  and  C_12 
REMARK       I    between atoms: C_12  and  N_14 
REMARK    4  A    between atoms: C_16  and  C_20 
ROOT
ATOM      1  C   UNK d   1      10.496   5.824  10.459  0.00  0.00     0.255 C 
ATOM      2  O   UNK d   1      10.500   5.988   9.214  0.00  0.00    -0.267 OA
ATOM      3  N   UNK d   1      10.490   4.506  11.005  0.00  0.00    -0.347 N 
ATOM      4  C   UNK d   1      10.484   3.349  10.135  0.00  0.00     0.138 C 
ATOM      5  C   UNK d   1      11.365   2.242  10.623  0.00  0.00     0.075 C 
ATOM      6  C   UNK d   1      12.294   2.846  11.679  0.00  0.00     0.015 C 
ATOM      7  C   UNK d   1      11.405   3.185  12.855  0.00  0.00     0.021 C 
ATOM      8  C   UNK d   1      10.485   4.300  12.429  0.00  0.00     0.126 C 
ENDROOT
BRANCH   1   9
ATOM      9  C   UNK d   1      10.502   6.986  11.325  0.00  0.00     0.051 A 
ATOM     10  C   UNK d   1       9.318   7.616  11.696  0.00  0.00     0.043 A 
ATOM     11  C   UNK d   1       9.308   8.719  12.518  0.00  0.00     0.075 A 
ATOM     12  C   UNK d   1      10.498   9.234  13.002  0.00  0.00     0.026 A 
ATOM     13  C   UNK d   1      11.679   8.623  12.645  0.00  0.00     0.021 A 
ATOM     14  C   UNK d   1      11.682   7.505  11.811  0.00  0.00     0.026 A 
ATOM     15 Br   UNK d   1      13.335   6.704  11.351  0.00  0.00    -0.050 Br
BRANCH  11  16
ATOM     16  S   UNK d   1       7.794   9.461  12.944  0.00  0.00     0.239 S 
ATOM     17  O   UNK d   1       6.825   8.379  13.374  0.00  0.00    -0.206 OA
ATOM     18  O   UNK d   1       7.202  10.185  11.760  0.00  0.00    -0.206 OA
BRANCH  16  19
ATOM     19  N   UNK d   1       8.001  10.514  14.281  0.00  0.00    -0.225 NA
ATOM     20  H   UNK d   1       7.298  11.292  14.276  0.00  0.00     0.136 HD
ATOM     21  H   UNK d   1       8.974  10.909  14.286  0.00  0.00     0.136 HD
ENDBRANCH  16  19
ENDBRANCH  11  16
ENDBRANCH   1   9
BRANCH   5  22
ATOM     22  C   UNK d   1      12.155   1.591   9.529  0.00  0.00     0.136 A 
ATOM     23  N   UNK d   1      11.809   0.474   8.837  0.00  0.00    -0.320 N 
ATOM     24  C   UNK d   1      12.749   0.180   7.934  0.00  0.00     0.130 A 
ATOM     25  C   UNK d   1      10.731  -0.497   8.779  0.00  0.00     0.132 C 
ATOM     26  N   UNK d   1      13.698   1.152   8.084  0.00  0.00    -0.135 NA
ATOM     27  C   UNK d   1      12.415  -1.043   7.146  0.00  0.00     0.082 C 
ATOM     28  N   UNK d   1      13.338   1.990   9.036  0.00  0.00    -0.134 NA
ATOM     29  C   UNK d   1      10.969  -1.240   7.481  0.00  0.00     0.028 C 
ENDBRANCH   5  22
TORSDOF 4
ENDMDL
