/Users/jonathanwahrer/Desktop/Msc/3_Semester/Drug_Design_Praktikum/waehrer_HTS_screening/HTS_experiment/out/docking_results/vina_output/2jam/1008_docked.pdbqt
 OpenBabel03162218033D

 29 32  0  0  1  0  0  0  0  0999 V2000
   10.4960    5.8240   10.4590 C   0  0  0  0  0  0  0  0  0  0  0  0
   10.5000    5.9880    9.2140 O   0  0  0  0  0  0  0  0  0  0  0  0
   10.4900    4.5060   11.0050 N   0  0  0  0  0  0  0  0  0  0  0  0
   10.4840    3.3490   10.1350 C   0  0  0  0  0  2  0  0  0  0  0  0
   11.3650    2.2420   10.6230 C   0  0  2  0  0  3  0  0  0  0  0  0
   12.2940    2.8460   11.6790 C   0  0  0  0  0  2  0  0  0  0  0  0
   11.4050    3.1850   12.8550 C   0  0  0  0  0  2  0  0  0  0  0  0
   10.4850    4.3000   12.4290 C   0  0  0  0  0  2  0  0  0  0  0  0
   10.5020    6.9860   11.3250 C   0  0  0  0  0  0  0  0  0  0  0  0
    9.3180    7.6160   11.6960 C   0  0  0  0  0  3  0  0  0  0  0  0
    9.3080    8.7190   12.5180 C   0  0  0  0  0  0  0  0  0  0  0  0
   10.4980    9.2340   13.0020 C   0  0  0  0  0  3  0  0  0  0  0  0
   11.6790    8.6230   12.6450 C   0  0  0  0  0  3  0  0  0  0  0  0
   11.6820    7.5050   11.8110 C   0  0  0  0  0  0  0  0  0  0  0  0
   13.3350    6.7040   11.3510 Br  0  0  0  0  0  0  0  0  0  0  0  0
    7.7940    9.4610   12.9440 S   0  0  0  0  0  0  0  0  0  0  0  0
    6.8250    8.3790   13.3740 O   0  0  0  0  0  0  0  0  0  0  0  0
    7.2020   10.1850   11.7600 O   0  0  0  0  0  0  0  0  0  0  0  0
    8.0010   10.5140   14.2810 N   0  0  0  0  0  0  0  0  0  0  0  0
    7.2980   11.2920   14.2760 H   0  0  0  0  0  0  0  0  0  0  0  0
    8.9740   10.9090   14.2860 H   0  0  0  0  0  0  0  0  0  0  0  0
   12.1550    1.5910    9.5290 C   0  0  0  0  0  0  0  0  0  0  0  0
   11.8090    0.4740    8.8370 N   0  0  0  0  0  0  0  0  0  0  0  0
   12.7490    0.1800    7.9340 C   0  0  0  0  0  0  0  0  0  0  0  0
   10.7310   -0.4970    8.7790 C   0  0  0  0  0  2  0  0  0  0  0  0
   13.6980    1.1520    8.0840 N   0  0  0  0  0  0  0  0  0  0  0  0
   12.4150   -1.0430    7.1460 C   0  0  0  0  0  2  0  0  0  0  0  0
   13.3380    1.9900    9.0360 N   0  0  0  0  0  0  0  0  0  0  0  0
   10.9690   -1.2400    7.4810 C   0  0  0  0  0  2  0  0  0  0  0  0
  1  3  1  0  0  0  0
  1  9  1  0  0  0  0
  2  1  2  0  0  0  0
  3  8  1  0  0  0  0
  4  5  1  0  0  0  0
  4  3  1  0  0  0  0
  5 22  1  6  0  0  0
  5  6  1  0  0  0  0
  6  7  1  0  0  0  0
  8  7  1  0  0  0  0
  9 10  2  0  0  0  0
  9 14  1  0  0  0  0
 10 11  1  0  0  0  0
 11 16  1  0  0  0  0
 11 12  2  0  0  0  0
 13 12  1  0  0  0  0
 14 13  2  0  0  0  0
 15 14  1  0  0  0  0
 16 17  2  0  0  0  0
 16 19  1  0  0  0  0
 18 16  2  0  0  0  0
 19 21  1  0  0  0  0
 20 19  1  0  0  0  0
 23 22  1  0  0  0  0
 24 26  2  0  0  0  0
 24 23  1  0  0  0  0
 25 23  1  0  0  0  0
 26 28  1  0  0  0  0
 27 29  1  0  0  0  0
 27 24  1  0  0  0  0
 28 22  2  0  0  0  0
 29 25  1  0  0  0  0
M  END
>  <Pose>
1

>  <Score>
-8.712

$$$$
