/Users/jonathanwahrer/Desktop/Msc/3_Semester/Drug_Design_Praktikum/waehrer_HTS_screening/HTS_experiment/out/docking_results/vina_output/2jam/1011_docked.pdbqt
 OpenBabel03162218033D

 29 32  0  0  0  0  0  0  0  0999 V2000
   12.5870    4.7590   11.2930 C   0  0  0  0  0  0  0  0  0  0  0  0
   12.0370    3.7220   10.5330 C   0  0  0  0  0  3  0  0  0  0  0  0
   12.7850    2.6060   10.2280 C   0  0  0  0  0  0  0  0  0  0  0  0
   14.0940    2.4530   10.6470 C   0  0  0  0  0  0  0  0  0  0  0  0
   14.6410    3.4610   11.3910 C   0  0  0  0  0  3  0  0  0  0  0  0
   13.8870    4.5970   11.7050 C   0  0  0  0  0  0  0  0  0  0  0  0
   14.6650    6.0120   12.7400 Br  0  0  0  0  0  0  0  0  0  0  0  0
   14.6230    1.1540   10.1460 C   0  0  0  0  0  2  0  0  0  0  0  0
   13.6460    0.8450    8.9910 C   0  0  0  0  0  2  0  0  0  0  0  0
   12.4100    1.4380    9.4750 N   0  0  0  0  0  0  0  0  0  0  0  0
   11.0730    1.0130    9.2950 C   0  0  0  0  0  0  0  0  0  0  0  0
   10.0950    1.6170    9.7920 O   0  0  0  0  0  0  0  0  0  0  0  0
   11.6160    6.1570   11.6690 S   0  0  0  0  0  0  0  0  0  0  0  0
   12.3990    7.4290   11.3620 O   0  0  0  0  0  0  0  0  0  0  0  0
   10.3820    6.2230   10.8350 O   0  0  0  0  0  0  0  0  0  0  0  0
   11.2680    6.2190   13.3550 N   0  0  0  0  0  0  0  0  0  0  0  0
   10.3910    5.6880   13.5210 H   0  0  0  0  0  0  0  0  0  0  0  0
   11.1560    7.5750   13.8540 C   0  0  0  0  0  2  0  0  0  0  0  0
    9.6710    7.8300   14.0640 C   0  0  0  0  0  2  0  0  0  0  0  0
    9.1400    8.7970   13.0390 C   0  0  0  0  0  2  0  0  0  0  0  0
    8.0420    8.2030   12.3730 N   0  0  0  0  0  0  0  0  0  0  0  0
    7.5070    7.0250   12.9560 C   0  0  0  0  0  2  0  0  0  0  0  0
    6.7290    6.2730   11.8900 C   0  0  0  0  0  2  0  0  0  0  0  0
    5.9690    7.1290   11.1180 O   0  0  0  0  0  0  0  0  0  0  0  0
    5.7570    8.3690   11.7080 C   0  0  0  0  0  2  0  0  0  0  0  0
    7.1150    9.0770   11.7540 C   0  0  0  0  0  2  0  0  0  0  0  0
   10.8150   -0.2000    8.4830 C   0  0  0  0  0  3  0  0  0  0  0  0
    9.5030   -0.8310    8.7090 C   0  0  0  0  0  2  0  0  0  0  0  0
   10.7690   -1.5360    9.1280 C   0  0  0  0  0  2  0  0  0  0  0  0
  1 13  1  0  0  0  0
  1  6  1  0  0  0  0
  2  1  2  0  0  0  0
  3  2  1  0  0  0  0
  3  4  2  0  0  0  0
  4  5  1  0  0  0  0
  5  6  2  0  0  0  0
  6  7  1  0  0  0  0
  8  4  1  0  0  0  0
  9 10  1  0  0  0  0
  9  8  1  0  0  0  0
 10  3  1  0  0  0  0
 11 10  1  0  0  0  0
 11 12  2  0  0  0  0
 13 16  1  0  0  0  0
 14 13  2  0  0  0  0
 15 13  2  0  0  0  0
 16 17  1  0  0  0  0
 16 18  1  0  0  0  0
 18 19  1  0  0  0  0
 20 19  1  0  0  0  0
 21 22  1  0  0  0  0
 21 20  1  0  0  0  0
 23 22  1  0  0  0  0
 24 25  1  0  0  0  0
 24 23  1  0  0  0  0
 25 26  1  0  0  0  0
 26 21  1  0  0  0  0
 27 28  1  0  0  0  0
 27 29  1  0  0  0  0
 27 11  1  0  0  0  0
 28 29  1  0  0  0  0
M  END
>  <Pose>
1

>  <Score>
-8.275

$$$$
