/Users/jonathanwahrer/Desktop/Msc/3_Semester/Drug_Design_Praktikum/waehrer_HTS_screening/HTS_experiment/out/docking_results/vina_output/2jam/1027_docked.pdbqt
 OpenBabel03162218043D

 32 35  0  0  0  0  0  0  0  0999 V2000
   10.6930    6.7580   12.1860 N   0  0  0  0  0  0  0  0  0  0  0  0
   11.5650    6.6970   11.1030 C   0  0  0  0  0  2  0  0  0  0  0  0
   11.4340    5.4990   10.2440 C   0  0  0  0  0  0  0  0  0  0  0  0
   11.7570    5.5330    9.0320 O   0  0  0  0  0  0  0  0  0  0  0  0
   10.9280    4.3260   10.8710 N   0  0  0  0  0  0  0  0  0  0  0  0
   10.8710    4.3380   12.2880 C   0  0  0  0  0  0  0  0  0  0  0  0
   10.9290    3.2320   12.8950 O   0  0  0  0  0  0  0  0  0  0  0  0
   10.7480    5.5930   13.0570 C   0  0  0  0  0  2  0  0  0  0  0  0
    9.1520    7.4010   12.0360 S   0  0  0  0  0  0  0  0  0  0  0  0
    8.1810    6.2330   11.8620 O   0  0  0  0  0  0  0  0  0  0  0  0
    9.0260    8.1820   10.7490 O   0  0  0  0  0  0  0  0  0  0  0  0
    8.5520    8.3370   13.3770 C   0  0  0  0  0  0  0  0  0  0  0  0
    7.1660    8.4170   13.5630 C   0  0  0  0  0  3  0  0  0  0  0  0
    6.5660    9.1750   14.5430 C   0  0  0  0  0  0  0  0  0  0  0  0
    7.3410    9.9140   15.4110 C   0  0  0  0  0  0  0  0  0  0  0  0
    5.1950    9.3860   14.8870 N   0  0  0  0  0  0  0  0  0  0  0  0
    8.7020    9.8470   15.2450 C   0  0  0  0  0  3  0  0  0  0  0  0
    6.4880   10.6440   16.3800 C   0  0  0  0  0  2  0  0  0  0  0  0
    9.3090    9.0700   14.2440 C   0  0  0  0  0  0  0  0  0  0  0  0
   11.2230    8.9760   14.1760 Br  0  0  0  0  0  0  0  0  0  0  0  0
    5.1650    9.8860   16.2570 C   0  0  0  0  0  2  0  0  0  0  0  0
    4.0590    9.1780   14.0860 C   0  0  0  0  0  0  0  0  0  0  0  0
    2.9050    9.4030   14.5920 O   0  0  0  0  0  0  0  0  0  0  0  0
    4.0630    8.7130   12.6780 C   0  0  0  0  0  1  0  0  0  0  0  0
   10.5060    3.1930   10.0750 C   0  0  0  0  0  2  0  0  0  0  0  0
   11.5410    2.1360    9.8980 C   0  0  0  0  0  2  0  0  0  0  0  0
   11.1120    0.9330    9.1870 C   0  0  0  0  0  0  0  0  0  0  0  0
    9.8760    0.3800    9.3700 C   0  0  0  0  0  3  0  0  0  0  0  0
    9.5390   -0.7490    8.6770 C   0  0  0  0  0  3  0  0  0  0  0  0
   10.4180   -1.3570    7.7880 C   0  0  0  0  0  3  0  0  0  0  0  0
   11.6490   -0.7840    7.6220 C   0  0  0  0  0  3  0  0  0  0  0  0
   12.0200    0.3500    8.3020 C   0  0  0  0  0  3  0  0  0  0  0  0
  1  8  1  0  0  0  0
  2  1  1  0  0  0  0
  3  5  1  0  0  0  0
  3  2  1  0  0  0  0
  4  3  2  0  0  0  0
  5  6  1  0  0  0  0
  6  7  2  0  0  0  0
  6  8  1  0  0  0  0
  9  1  1  0  0  0  0
  9 12  1  0  0  0  0
 10  9  2  0  0  0  0
 11  9  2  0  0  0  0
 12 13  2  0  0  0  0
 12 19  1  0  0  0  0
 13 14  1  0  0  0  0
 14 16  1  0  0  0  0
 14 15  2  0  0  0  0
 15 18  1  0  0  0  0
 16 21  1  0  0  0  0
 17 15  1  0  0  0  0
 19 17  2  0  0  0  0
 20 19  1  0  0  0  0
 21 18  1  0  0  0  0
 22 23  2  0  0  0  0
 22 16  1  0  0  0  0
 24 22  1  0  0  0  0
 25  5  1  0  0  0  0
 26 25  1  0  0  0  0
 27 28  1  0  0  0  0
 27 26  1  0  0  0  0
 29 28  2  0  0  0  0
 30 29  1  0  0  0  0
 31 30  2  0  0  0  0
 31 32  1  0  0  0  0
 32 27  2  0  0  0  0
M  END
>  <Pose>
1

>  <Score>
-9.720

$$$$
