MODEL 1
REMARK VINA RESULT:    -8.342      0.000      0.000
REMARK INTER + INTRA:         -10.523
REMARK INTER:                 -10.780
REMARK INTRA:                   0.258
REMARK UNBOUND:                 0.258
REMARK  5 active torsions:
REMARK  status: ('A' for Active; 'I' for Inactive)
REMARK    1  A    between atoms: S_1  and  N_4 
REMARK    2  A    between atoms: S_1  and  C_20 
REMARK    3  A    between atoms: C_6  and  N_8 
REMARK    4  A    between atoms: C_11  and  C_13 
REMARK    5  A    between atoms: C_13  and  N_14 
ROOT
ATOM      1  N   UNK d   1      12.075   3.873   9.794  0.00  0.00    -0.202 NA
ATOM      2  C   UNK d   1      10.707   3.894  10.168  0.00  0.00     0.136 C 
ATOM      3  C   UNK d   1      11.010   4.726  11.353  0.00  0.00     0.139 C 
ATOM      4  C   UNK d   1      12.386   4.830  10.795  0.00  0.00     0.136 C 
ENDROOT
BRANCH   3   5
ATOM      5  N   UNK d   1      10.338   6.009  11.432  0.00  0.00    -0.254 N 
ATOM      6  N   UNK d   1       9.811   6.712  10.463  0.00  0.00    -0.066 NA
ATOM      7  N   UNK d   1       9.283   7.846  10.944  0.00  0.00    -0.134 NA
ATOM      8  C   UNK d   1       9.476   7.879  12.274  0.00  0.00     0.093 A 
ATOM      9  C   UNK d   1      10.149   6.702  12.567  0.00  0.00     0.145 A 
BRANCH   8  10
ATOM     10  C   UNK d   1       9.058   8.950  13.240  0.00  0.00     0.188 C 
BRANCH  10  11
ATOM     11  N   UNK d   1       7.608   9.022  13.222  0.00  0.00    -0.346 N 
ATOM     12  C   UNK d   1       6.714   7.935  13.483  0.00  0.00     0.126 C 
ATOM     13  C   UNK d   1       5.329   8.513  13.425  0.00  0.00     0.029 C 
ATOM     14  C   UNK d   1       5.441  10.003  13.381  0.00  0.00     0.104 C 
ATOM     15  C   UNK d   1       6.864  10.203  12.937  0.00  0.00     0.220 C 
ATOM     16  O   UNK d   1       7.275  11.252  12.409  0.00  0.00    -0.273 OA
ENDBRANCH  10  11
ENDBRANCH   8  10
ENDBRANCH   3   5
BRANCH   1  17
ATOM     17  S   UNK d   1      12.941   2.426   9.880  0.00  0.00     0.250 S 
ATOM     18  O   UNK d   1      13.087   2.031  11.321  0.00  0.00    -0.205 OA
ATOM     19  O   UNK d   1      14.341   2.568   9.332  0.00  0.00    -0.205 OA
BRANCH  17  20
ATOM     20  C   UNK d   1      12.152   1.080   9.061  0.00  0.00     0.116 A 
ATOM     21  S   UNK d   1      10.531   0.546   9.234  0.00  0.00    -0.070 SA
ATOM     22  C   UNK d   1      10.555  -0.763   8.138  0.00  0.00     0.052 A 
ATOM     23  C   UNK d   1      11.842  -0.740   7.667  0.00  0.00     0.028 A 
ATOM     24 Br   UNK d   1       9.145  -1.985   7.659  0.00  0.00    -0.043 Br
ATOM     25  C   UNK d   1      12.654   0.206   8.143  0.00  0.00     0.034 A 
ENDBRANCH  17  20
ENDBRANCH   1  17
TORSDOF 5
ENDMDL
