MODEL 1
REMARK VINA RESULT:    -9.893      0.000      0.000
REMARK INTER + INTRA:         -12.891
REMARK INTER:                 -12.206
REMARK INTRA:                  -0.684
REMARK UNBOUND:                -0.684
REMARK  4 active torsions:
REMARK  status: ('A' for Active; 'I' for Inactive)
REMARK    1  A    between atoms: S_1  and  N_4 
REMARK    2  A    between atoms: S_1  and  C_20 
REMARK       I    between atoms: N_7  and  C_10 
REMARK    3  A    between atoms: C_10  and  C_12 
REMARK    4  A    between atoms: C_12  and  C_13 
ROOT
ATOM      1  N   UNK d   1       9.891   7.012  12.193  0.00  0.00    -0.304 N 
ATOM      2  C   UNK d   1      10.182   6.043  13.194  0.00  0.00     0.155 C 
ATOM      3  C   UNK d   1      10.584   4.705  12.777  0.00  0.00     0.145 C 
ATOM      4  N   UNK d   1      10.978   4.503  11.396  0.00  0.00    -0.360 N 
ATOM      5  C   UNK d   1      10.720   5.505  10.408  0.00  0.00     0.145 C 
ATOM      6  C   UNK d   1      10.669   6.903  11.013  0.00  0.00     0.155 C 
ATOM      7  C   UNK d   1      11.637   3.316  11.072  0.00  0.00     0.158 C 
ATOM      8  O   UNK d   1      11.892   2.596  12.185  0.00  0.00    -0.177 OA
ENDROOT
BRANCH   1   9
ATOM      9  S   UNK d   1       8.254   7.378  11.956  0.00  0.00     0.261 S 
ATOM     10  O   UNK d   1       7.584   6.225  11.261  0.00  0.00    -0.200 OA
ATOM     11  O   UNK d   1       8.106   8.573  11.030  0.00  0.00    -0.200 OA
BRANCH   9  12
ATOM     12  C   UNK d   1       7.353   7.645  13.434  0.00  0.00     0.082 A 
ATOM     13  C   UNK d   1       7.493   8.846  14.129  0.00  0.00     0.057 A 
ATOM     14  C   UNK d   1       6.822   9.110  15.303  0.00  0.00     0.070 A 
ATOM     15  C   UNK d   1       5.967   8.180  15.851  0.00  0.00     0.096 A 
ATOM     16  N   UNK d   1       6.991  10.351  16.009  0.00  0.00    -0.323 N 
ATOM     17  C   UNK d   1       5.824   6.991  15.170  0.00  0.00     0.040 A 
ATOM     18  O   UNK d   1       5.279   8.440  17.052  0.00  0.00    -0.340 OA
ATOM     19  C   UNK d   1       6.498   6.717  13.985  0.00  0.00     0.028 A 
ATOM     20  C   UNK d   1       5.009   9.801  17.433  0.00  0.00     0.278 C 
ATOM     21  C   UNK d   1       6.280  10.541  17.219  0.00  0.00     0.246 C 
ATOM     22  O   UNK d   1       6.749  11.329  18.071  0.00  0.00    -0.271 OA
ATOM     23  H   UNK d   1       7.632  11.041  15.591  0.00  0.00     0.169 HD
ENDBRANCH   9  12
ENDBRANCH   1   9
BRANCH   7  24
ATOM     24  C   UNK d   1      12.084   2.722   9.845  0.00  0.00     0.127 C 
BRANCH  24  25
ATOM     25  C   UNK d   1      11.543   1.451   9.371  0.00  0.00    -0.033 A 
ATOM     26  C   UNK d   1      12.332   0.538   8.714  0.00  0.00     0.017 A 
ATOM     27  C   UNK d   1      11.805  -0.675   8.272  0.00  0.00     0.019 A 
ATOM     28 Br   UNK d   1      14.182   0.916   8.381  0.00  0.00    -0.051 Br
ATOM     29  C   UNK d   1      10.490  -0.958   8.496  0.00  0.00     0.001 A 
ATOM     30  C   UNK d   1       9.684  -0.035   9.165  0.00  0.00     0.001 A 
ATOM     31  C   UNK d   1      10.200   1.146   9.594  0.00  0.00     0.009 A 
ENDBRANCH  24  25
ENDBRANCH   7  24
TORSDOF 4
ENDMDL
