/Users/jonathanwahrer/Desktop/Msc/3_Semester/Drug_Design_Praktikum/waehrer_HTS_screening/HTS_experiment/out/docking_results/vina_output/2jam/1042_docked.pdbqt
 OpenBabel03162218053D

 31 34  0  0  0  0  0  0  0  0999 V2000
   11.6070    4.4360   11.0990 N   0  0  0  0  0  0  0  0  0  0  0  0
   10.4490    4.3160   10.3470 C   0  0  0  0  0  2  0  0  0  0  0  0
    9.8600    5.7380   10.1390 C   0  0  0  0  0  2  0  0  0  0  0  0
    9.7400    6.4010   11.4080 N   0  0  0  0  0  0  0  0  0  0  0  0
   10.9550    6.5660   12.1730 C   0  0  0  0  0  2  0  0  0  0  0  0
   12.0270    5.7570   11.4770 C   0  0  0  0  0  2  0  0  0  0  0  0
    8.5240    6.8850   11.9260 C   0  0  0  0  0  0  0  0  0  0  0  0
    7.4750    6.7390   11.2580 O   0  0  0  0  0  0  0  0  0  0  0  0
    8.4680    7.5520   13.2270 C   0  0  0  0  0  2  0  0  0  0  0  0
    7.1660    7.3460   13.8550 N   0  0  0  0  0  0  0  0  0  0  0  0
    6.6940    6.2550   14.6190 C   0  0  0  0  0  0  0  0  0  0  0  0
    7.3710    5.2120   14.9010 O   0  0  0  0  0  0  0  0  0  0  0  0
    5.3550    6.5470   14.9980 N   0  0  0  0  0  0  0  0  0  0  0  0
    5.1850    7.9720   14.8840 C   0  0  0  0  0  0  0  0  0  0  0  0
    4.6800    5.7980   15.2940 H   0  0  0  0  0  0  0  0  0  0  0  0
    5.4950    8.7190   16.1410 C   0  0  0  0  0  2  0  0  0  0  0  0
    3.7560    8.3540   14.5750 C   0  0  0  0  0  2  0  0  0  0  0  0
    6.0990    8.3120   13.7680 C   0  0  0  0  0  0  0  0  0  0  0  0
    4.8590   10.0850   15.8530 C   0  0  0  0  0  2  0  0  0  0  0  0
    3.6070    9.7470   15.0920 C   0  0  0  0  0  2  0  0  0  0  0  0
    5.9630    9.2390   12.9380 O   0  0  0  0  0  0  0  0  0  0  0  0
   12.7050    3.2140   11.3100 S   0  0  0  0  0  0  0  0  0  0  0  0
   13.9730    3.8110   11.9350 O   0  0  0  0  0  0  0  0  0  0  0  0
   12.2460    2.2050   12.3670 O   0  0  0  0  0  0  0  0  0  0  0  0
   13.2490    2.3460    9.9080 C   0  0  0  0  0  0  0  0  0  0  0  0
   12.5320    1.4230    9.1940 C   0  0  0  0  0  0  0  0  0  0  0  0
   13.0840    0.7390    8.1050 C   0  0  0  0  0  3  0  0  0  0  0  0
   10.7170    1.1080    9.6480 Br  0  0  0  0  0  0  0  0  0  0  0  0
   14.3620    0.9570    7.6980 C   0  0  0  0  0  3  0  0  0  0  0  0
   15.1050    1.8750    8.3890 C   0  0  0  0  0  3  0  0  0  0  0  0
   14.5680    2.5490    9.4600 C   0  0  0  0  0  3  0  0  0  0  0  0
  1 22  1  0  0  0  0
  1  6  1  0  0  0  0
  2  1  1  0  0  0  0
  3  2  1  0  0  0  0
  3  4  1  0  0  0  0
  4  7  1  0  0  0  0
  4  5  1  0  0  0  0
  6  5  1  0  0  0  0
  7  9  1  0  0  0  0
  8  7  2  0  0  0  0
  9 10  1  0  0  0  0
 10 11  1  0  0  0  0
 11 12  2  0  0  0  0
 11 13  1  0  0  0  0
 13 15  1  0  0  0  0
 14 13  1  0  0  0  0
 14 16  1  0  0  0  0
 17 14  1  0  0  0  0
 17 20  1  0  0  0  0
 18 10  1  0  0  0  0
 18 14  1  0  0  0  0
 19 16  1  0  0  0  0
 20 19  1  0  0  0  0
 21 18  2  0  0  0  0
 22 23  2  0  0  0  0
 22 24  2  0  0  0  0
 25 22  1  0  0  0  0
 26 28  1  0  0  0  0
 26 25  2  0  0  0  0
 27 26  1  0  0  0  0
 29 27  2  0  0  0  0
 29 30  1  0  0  0  0
 30 31  2  0  0  0  0
 31 25  1  0  0  0  0
M  END
>  <Pose>
1

>  <Score>
-9.643

$$$$
