MODEL 1
REMARK VINA RESULT:    -8.803      0.000      0.000
REMARK INTER + INTRA:         -10.819
REMARK INTER:                 -10.347
REMARK INTRA:                  -0.472
REMARK UNBOUND:                -0.472
REMARK  3 active torsions:
REMARK  status: ('A' for Active; 'I' for Inactive)
REMARK    1  A    between atoms: S_1  and  N_4 
REMARK    2  A    between atoms: S_1  and  C_24 
REMARK       I    between atoms: N_7  and  C_10 
REMARK    3  A    between atoms: C_12  and  N_13 
ROOT
ATOM      1  N   UNK d   1      10.609   5.949  11.705  0.00  0.00    -0.203 NA
ATOM      2  C   UNK d   1      11.667   5.959  12.692  0.00  0.00     0.127 C 
ATOM      3  C   UNK d   1      11.562   7.165  13.593  0.00  0.00     0.140 C 
ATOM      4  N   UNK d   1      10.179   7.194  14.110  0.00  0.00    -0.359 N 
ATOM      5  C   UNK d   1       9.153   7.208  13.114  0.00  0.00     0.140 C 
ATOM      6  C   UNK d   1       9.853   7.152  11.736  0.00  0.00     0.127 C 
ATOM      7  C   UNK d   1       9.933   7.201  15.491  0.00  0.00     0.172 C 
ATOM      8  O   UNK d   1      11.018   7.171  16.239  0.00  0.00    -0.175 OA
ATOM      9  C   UNK d   1       8.721   7.234  16.269  0.00  0.00     0.224 C 
ENDROOT
BRANCH   9  10
ATOM     10  N   UNK d   1       7.447   7.278  15.623  0.00  0.00    -0.260 N 
ATOM     11  C   UNK d   1       6.767   6.196  14.935  0.00  0.00     0.326 C 
ATOM     12  O   UNK d   1       7.253   5.034  14.846  0.00  0.00    -0.247 OA
ATOM     13  N   UNK d   1       5.542   6.704  14.434  0.00  0.00    -0.324 N 
ATOM     14  C   UNK d   1       5.648   8.124  14.411  0.00  0.00     0.116 C 
ATOM     15  H   UNK d   1       4.742   6.075  14.149  0.00  0.00     0.165 HD
ATOM     16  C   UNK d   1       6.103   8.670  13.079  0.00  0.00     0.041 C 
ATOM     17  C   UNK d   1       4.307   8.816  14.586  0.00  0.00     0.041 C 
ATOM     18  C   UNK d   1       6.575   8.421  15.502  0.00  0.00     0.256 C 
ATOM     19  C   UNK d   1       5.807  10.149  13.243  0.00  0.00     0.003 C 
ATOM     20  C   UNK d   1       4.649  10.237  14.207  0.00  0.00     0.003 C 
ATOM     21  O   UNK d   1       6.635   9.454  16.216  0.00  0.00    -0.270 OA
ENDBRANCH   9  10
BRANCH   1  22
ATOM     22  S   UNK d   1      11.143   5.485  10.152  0.00  0.00     0.243 S 
ATOM     23  O   UNK d   1      12.491   6.146   9.930  0.00  0.00    -0.206 OA
ATOM     24  O   UNK d   1      10.223   6.074   9.112  0.00  0.00    -0.206 OA
BRANCH  22  25
ATOM     25  C   UNK d   1      11.253   3.753   9.951  0.00  0.00     0.074 A 
ATOM     26  C   UNK d   1      12.448   3.118   9.678  0.00  0.00     0.026 A 
ATOM     27  C   UNK d   1      12.525   1.739   9.519  0.00  0.00     0.020 A 
ATOM     28  C   UNK d   1      11.404   0.958   9.632  0.00  0.00     0.011 A 
ATOM     29  C   UNK d   1      10.204   1.579   9.905  0.00  0.00     0.020 A 
ATOM     30 Br   UNK d   1      11.502  -0.954   9.415  0.00  0.00    -0.051 Br
ATOM     31  C   UNK d   1      10.134   2.955  10.063  0.00  0.00     0.026 A 
ENDBRANCH  22  25
ENDBRANCH   1  22
TORSDOF 3
ENDMDL
