/Users/jonathanwahrer/Desktop/Msc/3_Semester/Drug_Design_Praktikum/waehrer_HTS_screening/HTS_experiment/out/docking_results/vina_output/2jam/1044_docked.pdbqt
 OpenBabel03162218053D

 30 33  0  0  0  0  0  0  0  0999 V2000
   10.9010    5.0810   11.6770 N   0  0  0  0  0  0  0  0  0  0  0  0
   12.2370    5.0000   12.0740 C   0  0  0  0  0  2  0  0  0  0  0  0
   12.9190    3.6920   11.8820 C   0  0  0  0  0  2  0  0  0  0  0  0
   12.3810    2.8840   10.8340 N   0  0  0  0  0  0  0  0  0  0  0  0
   11.2640    3.3870   10.0630 C   0  0  0  0  0  2  0  0  0  0  0  0
   10.2860    3.9640   11.0840 C   0  0  0  0  0  2  0  0  0  0  0  0
   12.8990    1.6050   10.5190 C   0  0  0  0  0  0  0  0  0  0  0  0
   13.8810    1.1220   11.1690 O   0  0  0  0  0  0  0  0  0  0  0  0
   10.2940    6.6050   11.2660 S   0  0  0  0  0  0  0  0  0  0  0  0
   11.2680    7.7100   11.3960 O   0  0  0  0  0  0  0  0  0  0  0  0
    9.8740    6.5540    9.8030 O   0  0  0  0  0  0  0  0  0  0  0  0
    8.8190    6.9360   12.1670 C   0  0  0  0  0  0  0  0  0  0  0  0
    8.3440    8.2220   12.3250 C   0  0  0  0  0  3  0  0  0  0  0  0
    7.1910    8.5130   13.0250 C   0  0  0  0  0  0  0  0  0  0  0  0
    6.4550    7.5020   13.6060 C   0  0  0  0  0  0  0  0  0  0  0  0
    6.6990    9.8370   13.1910 N   0  0  0  0  0  0  0  0  0  0  0  0
    6.9280    6.2090   13.4500 C   0  0  0  0  0  3  0  0  0  0  0  0
    5.2860    7.7650   14.3200 O   0  0  0  0  0  0  0  0  0  0  0  0
    8.0810    5.9240   12.7490 C   0  0  0  0  0  3  0  0  0  0  0  0
    4.8810    9.0570   14.7310 C   0  0  0  0  0  2  0  0  0  0  0  0
    5.5090   10.1260   13.9150 C   0  0  0  0  0  0  0  0  0  0  0  0
    4.9460   11.2500   13.9080 O   0  0  0  0  0  0  0  0  0  0  0  0
    7.2440   10.6120   12.7570 H   0  0  0  0  0  0  0  0  0  0  0  0
   12.3630    0.7680    9.4540 C   0  0  0  0  0  0  0  0  0  0  0  0
   13.0230    0.5850    8.2530 C   0  0  0  0  0  0  0  0  0  0  0  0
   12.5270   -0.2040    7.2410 C   0  0  0  0  0  3  0  0  0  0  0  0
   14.6930    1.4860    8.0410 Br  0  0  0  0  0  0  0  0  0  0  0  0
   11.3110   -0.8360    7.4470 C   0  0  0  0  0  3  0  0  0  0  0  0
   10.6100   -0.6910    8.6210 C   0  0  0  0  0  3  0  0  0  0  0  0
   11.1490    0.1100    9.6030 C   0  0  0  0  0  3  0  0  0  0  0  0
  1  2  1  0  0  0  0
  3  2  1  0  0  0  0
  4  3  1  0  0  0  0
  5  4  1  0  0  0  0
  5  6  1  0  0  0  0
  6  1  1  0  0  0  0
  7  4  1  0  0  0  0
  7  8  2  0  0  0  0
  9 10  2  0  0  0  0
  9  1  1  0  0  0  0
  9 12  1  0  0  0  0
 11  9  2  0  0  0  0
 12 13  2  0  0  0  0
 12 19  1  0  0  0  0
 13 14  1  0  0  0  0
 14 16  1  0  0  0  0
 14 15  2  0  0  0  0
 15 18  1  0  0  0  0
 16 21  1  0  0  0  0
 17 15  1  0  0  0  0
 18 20  1  0  0  0  0
 19 17  2  0  0  0  0
 21 20  1  0  0  0  0
 22 21  2  0  0  0  0
 23 16  1  0  0  0  0
 24 30  1  0  0  0  0
 24  7  1  0  0  0  0
 25 24  2  0  0  0  0
 26 28  2  0  0  0  0
 26 25  1  0  0  0  0
 27 25  1  0  0  0  0
 28 29  1  0  0  0  0
 29 30  2  0  0  0  0
M  END
>  <Pose>
1

>  <Score>
-10.359

$$$$
