MODEL 1
REMARK VINA RESULT:    -8.629      0.000      0.000
REMARK INTER + INTRA:         -10.367
REMARK INTER:                 -10.142
REMARK INTRA:                  -0.225
REMARK UNBOUND:                -0.225
REMARK  3 active torsions:
REMARK  status: ('A' for Active; 'I' for Inactive)
REMARK    1  A    between atoms: S_1  and  N_4 
REMARK    2  A    between atoms: S_1  and  C_22 
REMARK       I    between atoms: N_7  and  C_10 
REMARK    3  A    between atoms: C_10  and  C_12 
ROOT
ATOM      1  N   UNK d   1      10.685   7.025  12.094  0.00  0.00    -0.203 NA
ATOM      2  C   UNK d   1      10.484   6.486  10.799  0.00  0.00     0.127 C 
ATOM      3  C   UNK d   1      11.158   5.190  10.503  0.00  0.00     0.141 C 
ATOM      4  N   UNK d   1      12.434   5.032  11.147  0.00  0.00    -0.344 N 
ATOM      5  C   UNK d   1      12.891   6.140  11.956  0.00  0.00     0.141 C 
ATOM      6  C   UNK d   1      11.728   6.452  12.875  0.00  0.00     0.127 C 
ATOM      7  C   UNK d   1      13.246   3.888  11.034  0.00  0.00     0.274 C 
ATOM      8  O   UNK d   1      14.344   3.842  11.632  0.00  0.00    -0.266 OA
ENDROOT
BRANCH   7   9
ATOM      9  C   UNK d   1      12.819   2.752  10.224  0.00  0.00     0.148 A 
ATOM     10  N   UNK d   1      11.619   2.183  10.253  0.00  0.00    -0.161 NA
ATOM     11  N   UNK d   1      11.564   1.169   9.386  0.00  0.00    -0.225 N 
ATOM     12  C   UNK d   1      12.756   1.051   8.758  0.00  0.00     0.152 A 
ATOM     13  C   UNK d   1      10.576   0.307   9.064  0.00  0.00     0.141 A 
ATOM     14  C   UNK d   1      13.558   2.064   9.296  0.00  0.00     0.091 A 
ATOM     15  N   UNK d   1      12.982   0.096   7.821  0.00  0.00    -0.240 NA
ATOM     16  C   UNK d   1      11.982  -0.774   7.498  0.00  0.00     0.139 A 
ATOM     17  C   UNK d   1      10.756  -0.678   8.119  0.00  0.00     0.046 A 
ATOM     18 Br   UNK d   1       9.348  -1.906   7.661  0.00  0.00    -0.048 Br
ENDBRANCH   7   9
BRANCH   1  19
ATOM     19  S   UNK d   1       9.257   7.094  13.053  0.00  0.00     0.246 S 
ATOM     20  O   UNK d   1       9.526   7.828  14.327  0.00  0.00    -0.206 OA
ATOM     21  O   UNK d   1       8.898   5.655  13.397  0.00  0.00    -0.206 OA
BRANCH  19  22
ATOM     22  C   UNK d   1       7.941   7.875  12.212  0.00  0.00     0.111 A 
ATOM     23  C   UNK d   1       6.660   7.402  12.043  0.00  0.00     0.138 A 
ATOM     24  N   UNK d   1       5.943   8.283  11.345  0.00  0.00    -0.284 N 
ATOM     25  N   UNK d   1       6.714   9.314  11.056  0.00  0.00    -0.184 NA
ATOM     26  C   UNK d   1       4.563   8.172  10.953  0.00  0.00     0.179 C 
ATOM     27  C   UNK d   1       7.955   9.112  11.567  0.00  0.00     0.165 A 
ENDBRANCH  19  22
ENDBRANCH   1  19
TORSDOF 3
ENDMDL
