/Users/jonathanwahrer/Desktop/Msc/3_Semester/Drug_Design_Praktikum/waehrer_HTS_screening/HTS_experiment/out/docking_results/vina_output/2jam/1051_docked.pdbqt
 OpenBabel03162218053D

 27 30  0  0  0  0  0  0  0  0999 V2000
   10.6850    7.0250   12.0940 N   0  0  0  0  0  0  0  0  0  0  0  0
   10.4840    6.4860   10.7990 C   0  0  0  0  0  2  0  0  0  0  0  0
   11.1580    5.1900   10.5030 C   0  0  0  0  0  2  0  0  0  0  0  0
   12.4340    5.0320   11.1470 N   0  0  0  0  0  0  0  0  0  0  0  0
   12.8910    6.1400   11.9560 C   0  0  0  0  0  2  0  0  0  0  0  0
   11.7280    6.4520   12.8750 C   0  0  0  0  0  2  0  0  0  0  0  0
   13.2460    3.8880   11.0340 C   0  0  0  0  0  0  0  0  0  0  0  0
   14.3440    3.8420   11.6320 O   0  0  0  0  0  0  0  0  0  0  0  0
   12.8190    2.7520   10.2240 C   0  0  0  0  0  0  0  0  0  0  0  0
   11.6190    2.1830   10.2530 N   0  0  0  0  0  0  0  0  0  0  0  0
   11.5640    1.1690    9.3860 N   0  0  0  0  0  0  0  0  0  0  0  0
   12.7560    1.0510    8.7580 C   0  0  0  0  0  0  0  0  0  0  0  0
   10.5760    0.3070    9.0640 C   0  0  0  0  0  3  0  0  0  0  0  0
   13.5580    2.0640    9.2960 C   0  0  0  0  0  3  0  0  0  0  0  0
   12.9820    0.0960    7.8210 N   0  0  0  0  0  0  0  0  0  0  0  0
   11.9820   -0.7740    7.4980 C   0  0  0  0  0  3  0  0  0  0  0  0
   10.7560   -0.6780    8.1190 C   0  0  0  0  0  0  0  0  0  0  0  0
    9.3480   -1.9060    7.6610 Br  0  0  0  0  0  0  0  0  0  0  0  0
    9.2570    7.0940   13.0530 S   0  0  0  0  0  0  0  0  0  0  0  0
    9.5260    7.8280   14.3270 O   0  0  0  0  0  0  0  0  0  0  0  0
    8.8980    5.6550   13.3970 O   0  0  0  0  0  0  0  0  0  0  0  0
    7.9410    7.8750   12.2120 C   0  0  0  0  0  0  0  0  0  0  0  0
    6.6600    7.4020   12.0430 C   0  0  0  0  0  3  0  0  0  0  0  0
    5.9430    8.2830   11.3450 N   0  0  0  0  0  0  0  0  0  0  0  0
    6.7140    9.3140   11.0560 N   0  0  0  0  0  0  0  0  0  0  0  0
    4.5630    8.1720   10.9530 C   0  0  0  0  0  1  0  0  0  0  0  0
    7.9550    9.1120   11.5670 C   0  0  0  0  0  3  0  0  0  0  0  0
  1  6  1  0  0  0  0
  1 19  1  0  0  0  0
  2  1  1  0  0  0  0
  3  2  1  0  0  0  0
  3  4  1  0  0  0  0
  4  5  1  0  0  0  0
  5  6  1  0  0  0  0
  7  4  1  0  0  0  0
  7  8  2  0  0  0  0
  9 10  2  0  0  0  0
  9  7  1  0  0  0  0
 11 10  1  0  0  0  0
 12 14  2  0  0  0  0
 12 11  1  0  0  0  0
 13 11  1  0  0  0  0
 14  9  1  0  0  0  0
 15 12  1  0  0  0  0
 16 15  2  0  0  0  0
 16 17  1  0  0  0  0
 17 13  2  0  0  0  0
 18 17  1  0  0  0  0
 19 21  2  0  0  0  0
 19 20  2  0  0  0  0
 22 19  1  0  0  0  0
 23 22  2  0  0  0  0
 24 23  1  0  0  0  0
 25 24  1  0  0  0  0
 25 27  2  0  0  0  0
 26 24  1  0  0  0  0
 27 22  1  0  0  0  0
M  END
>  <Pose>
1

>  <Score>
-8.629

$$$$
