/Users/jonathanwahrer/Desktop/Msc/3_Semester/Drug_Design_Praktikum/waehrer_HTS_screening/HTS_experiment/out/docking_results/vina_output/2jam/1056_docked.pdbqt
 OpenBabel03162218053D

 30 33  0  0  1  0  0  0  0  0999 V2000
   11.1430    4.2210   10.2330 N   0  0  0  0  0  0  0  0  0  0  0  0
   11.6170    5.5170    9.9260 C   0  0  0  0  0  2  0  0  0  0  0  0
   11.4480    6.5590   10.9520 C   0  0  0  0  0  2  0  0  0  0  0  0
   10.1910    6.4500   11.6300 N   0  0  0  0  0  0  0  0  0  0  0  0
    9.2550    5.4440   11.2190 C   0  0  0  0  0  2  0  0  0  0  0  0
    9.8920    4.1290   10.8930 C   0  0  0  0  0  2  0  0  0  0  0  0
    9.8680    7.3180   12.6930 C   0  0  0  0  0  0  0  0  0  0  0  0
   10.6980    8.1890   13.0380 O   0  0  0  0  0  0  0  0  0  0  0  0
    8.6100    7.2640   13.4270 C   0  0  1  0  0  3  0  0  0  0  0  0
    8.5020    6.4650   14.5510 C   0  0  0  0  0  3  0  0  0  0  0  0
    7.3450    6.4150   15.2280 N   0  0  0  0  0  0  0  0  0  0  0  0
    6.2570    7.1240   14.8570 C   0  0  2  0  0  3  0  0  0  0  0  0
    6.3270    7.9110   13.7700 N   0  0  0  0  0  0  0  0  0  0  0  0
    5.0700    7.0530   15.5790 C   0  0  0  0  0  3  0  0  0  0  0  0
    5.2320    8.6280   13.3920 C   0  0  0  0  0  3  0  0  0  0  0  0
    7.4870    7.9800   13.0640 C   0  0  0  0  0  0  0  0  0  0  0  0
    4.0450    8.5710   14.0940 C   0  0  0  0  0  0  0  0  0  0  0  0
    3.9490    7.7670   15.2180 C   0  0  0  0  0  3  0  0  0  0  0  0
    2.8320    9.3360   13.7130 C   0  0  0  0  0  1  0  0  0  0  0  0
    7.5510    8.7070   12.0610 O   0  0  0  0  0  0  0  0  0  0  0  0
   12.3080    3.0750   10.6700 S   0  0  0  0  0  0  0  0  0  0  0  0
   13.6570    3.7030   10.7400 O   0  0  0  0  0  0  0  0  0  0  0  0
   11.9600    2.5360   12.0350 O   0  0  0  0  0  0  0  0  0  0  0  0
   12.2960    1.7470    9.5410 C   0  0  0  0  0  0  0  0  0  0  0  0
   11.1850    0.9370    9.4350 C   0  0  0  0  0  3  0  0  0  0  0  0
   11.2430   -0.1040    8.5130 C   0  0  0  0  0  0  0  0  0  0  0  0
   12.3480   -0.3300    7.7350 C   0  0  0  0  0  3  0  0  0  0  0  0
    9.7430   -1.2570    8.3200 Br  0  0  0  0  0  0  0  0  0  0  0  0
   13.4600    0.4910    7.8500 C   0  0  0  0  0  3  0  0  0  0  0  0
   13.4230    1.5440    8.7700 C   0  0  0  0  0  3  0  0  0  0  0  0
  1 21  1  0  0  0  0
  1  6  1  0  0  0  0
  2  1  1  0  0  0  0
  2  3  1  0  0  0  0
  3  4  1  0  0  0  0
  4  7  1  0  0  0  0
  5  4  1  0  0  0  0
  6  5  1  0  0  0  0
  7  8  2  0  0  0  0
  9  7  1  1  0  0  0
  9 10  1  0  0  0  0
 10 11  2  0  0  0  0
 12 11  1  0  0  0  0
 12 14  1  1  0  0  0
 13 12  1  0  0  0  0
 15 13  1  0  0  0  0
 15 17  2  0  0  0  0
 16  9  1  0  0  0  0
 16 13  1  0  0  0  0
 17 18  1  0  0  0  0
 18 14  2  0  0  0  0
 19 17  1  0  0  0  0
 20 16  2  0  0  0  0
 21 22  2  0  0  0  0
 21 23  2  0  0  0  0
 24 21  1  0  0  0  0
 25 24  1  0  0  0  0
 26 25  2  0  0  0  0
 27 29  2  0  0  0  0
 27 26  1  0  0  0  0
 28 26  1  0  0  0  0
 29 30  1  0  0  0  0
 30 24  2  0  0  0  0
M  END
>  <Pose>
1

>  <Score>
-9.705

$$$$
