MODEL 1
REMARK VINA RESULT:    -9.705      0.000      0.000
REMARK INTER + INTRA:         -12.078
REMARK INTER:                 -11.407
REMARK INTRA:                  -0.672
REMARK UNBOUND:                -0.672
REMARK  3 active torsions:
REMARK  status: ('A' for Active; 'I' for Inactive)
REMARK    1  A    between atoms: S_1  and  N_4 
REMARK    2  A    between atoms: S_1  and  C_24 
REMARK       I    between atoms: N_7  and  C_10 
REMARK    3  A    between atoms: C_10  and  C_12 
ROOT
ATOM      1  N   UNK d   1      11.143   4.221  10.233  0.00  0.00    -0.304 N 
ATOM      2  C   UNK d   1      11.617   5.517   9.926  0.00  0.00     0.155 C 
ATOM      3  C   UNK d   1      11.448   6.559  10.952  0.00  0.00     0.146 C 
ATOM      4  N   UNK d   1      10.191   6.450  11.630  0.00  0.00    -0.345 N 
ATOM      5  C   UNK d   1       9.255   5.444  11.219  0.00  0.00     0.146 C 
ATOM      6  C   UNK d   1       9.892   4.129  10.893  0.00  0.00     0.155 C 
ATOM      7  C   UNK d   1       9.868   7.318  12.693  0.00  0.00     0.260 C 
ATOM      8  O   UNK d   1      10.698   8.189  13.038  0.00  0.00    -0.267 OA
ENDROOT
BRANCH   7   9
ATOM      9  C   UNK d   1       8.610   7.264  13.427  0.00  0.00     0.118 A 
ATOM     10  C   UNK d   1       8.502   6.465  14.551  0.00  0.00     0.141 A 
ATOM     11  N   UNK d   1       7.345   6.415  15.228  0.00  0.00    -0.242 NA
ATOM     12  C   UNK d   1       6.257   7.124  14.857  0.00  0.00     0.136 A 
ATOM     13  N   UNK d   1       6.327   7.911  13.770  0.00  0.00    -0.272 N 
ATOM     14  C   UNK d   1       5.070   7.053  15.579  0.00  0.00     0.051 A 
ATOM     15  C   UNK d   1       5.232   8.628  13.392  0.00  0.00     0.108 A 
ATOM     16  C   UNK d   1       7.487   7.980  13.064  0.00  0.00     0.270 A 
ATOM     17  C   UNK d   1       4.045   8.571  14.094  0.00  0.00    -0.046 A 
ATOM     18  C   UNK d   1       3.949   7.767  15.218  0.00  0.00     0.012 A 
ATOM     19  C   UNK d   1       2.832   9.336  13.713  0.00  0.00     0.049 C 
ATOM     20  O   UNK d   1       7.551   8.707  12.061  0.00  0.00    -0.266 OA
ENDBRANCH   7   9
BRANCH   1  21
ATOM     21  S   UNK d   1      12.308   3.075  10.670  0.00  0.00     0.261 S 
ATOM     22  O   UNK d   1      13.657   3.703  10.740  0.00  0.00    -0.200 OA
ATOM     23  O   UNK d   1      11.960   2.536  12.035  0.00  0.00    -0.200 OA
BRANCH  21  24
ATOM     24  C   UNK d   1      12.296   1.747   9.541  0.00  0.00     0.081 A 
ATOM     25  C   UNK d   1      11.185   0.937   9.435  0.00  0.00     0.044 A 
ATOM     26  C   UNK d   1      11.243  -0.104   8.513  0.00  0.00     0.012 A 
ATOM     27  C   UNK d   1      12.348  -0.330   7.735  0.00  0.00     0.019 A 
ATOM     28 Br   UNK d   1       9.743  -1.257   8.320  0.00  0.00    -0.051 Br
ATOM     29  C   UNK d   1      13.460   0.491   7.850  0.00  0.00     0.003 A 
ATOM     30  C   UNK d   1      13.423   1.544   8.770  0.00  0.00     0.025 A 
ENDBRANCH  21  24
ENDBRANCH   1  21
TORSDOF 3
ENDMDL
