MODEL 1
REMARK VINA RESULT:    -9.146      0.000      0.000
REMARK INTER + INTRA:         -12.667
REMARK INTER:                 -11.820
REMARK INTRA:                  -0.847
REMARK UNBOUND:                -0.847
REMARK  5 active torsions:
REMARK  status: ('A' for Active; 'I' for Inactive)
REMARK    1  A    between atoms: S_1  and  N_4 
REMARK    2  A    between atoms: S_1  and  C_24 
REMARK    3  A    between atoms: N_7  and  C_10 
REMARK    4  A    between atoms: C_10  and  C_11 
REMARK    5  A    between atoms: C_11  and  N_12 
ROOT
ATOM      1  N   UNK d   1       4.745   8.600  13.666  0.00  0.00    -0.303 N 
ATOM      2  C   UNK d   1       4.964   8.847  12.265  0.00  0.00     0.165 C 
ATOM      3  C   UNK d   1       6.263   8.237  11.788  0.00  0.00     0.293 C 
ATOM      4  N   UNK d   1       7.388   8.716  12.631  0.00  0.00     0.093 N 
ATOM      5  C   UNK d   1       7.166   8.215  13.980  0.00  0.00     0.293 C 
ATOM      6  C   UNK d   1       5.745   7.734  14.212  0.00  0.00     0.165 C 
ENDROOT
BRANCH   4   7
ATOM      7  C   UNK d   1       8.546   8.065  12.058  0.00  0.00     0.293 C 
BRANCH   7   8
ATOM      8  C   UNK d   1       8.402   6.674  11.608  0.00  0.00     0.165 C 
BRANCH   8   9
ATOM      9  N   UNK d   1       9.557   5.858  11.444  0.00  0.00    -0.286 N 
ATOM     10  C   UNK d   1      10.268   5.479  10.272  0.00  0.00     0.232 C 
ATOM     11  O   UNK d   1       9.789   5.419   9.130  0.00  0.00    -0.272 OA
ATOM     12  C   UNK d   1      11.670   5.168  10.643  0.00  0.00     0.100 C 
ATOM     13  C   UNK d   1      11.470   4.668  12.092  0.00  0.00     0.100 C 
ATOM     14  C   UNK d   1      12.111   3.911   9.983  0.00  0.00     0.022 C 
ATOM     15  C   UNK d   1      11.463   3.188  12.004  0.00  0.00     0.022 C 
ATOM     16  C   UNK d   1      10.250   5.294  12.580  0.00  0.00     0.232 C 
ATOM     17  C   UNK d   1      11.046   2.952  10.543  0.00  0.00     0.018 C 
ATOM     18  C   UNK d   1      12.909   2.765  11.847  0.00  0.00    -0.025 C 
ATOM     19  C   UNK d   1      13.301   3.414  10.751  0.00  0.00    -0.025 C 
ATOM     20  O   UNK d   1       9.892   5.320  13.784  0.00  0.00    -0.272 OA
ENDBRANCH   8   9
ENDBRANCH   7   8
ENDBRANCH   4   7
BRANCH   1  21
ATOM     21  S   UNK d   1       4.248   9.907  14.595  0.00  0.00     0.260 S 
ATOM     22  O   UNK d   1       4.914  11.158  14.036  0.00  0.00    -0.200 OA
ATOM     23  O   UNK d   1       2.761  10.133  14.319  0.00  0.00    -0.200 OA
BRANCH  21  24
ATOM     24  C   UNK d   1       4.438   9.787  16.297  0.00  0.00     0.079 A 
ATOM     25  C   UNK d   1       5.611  10.167  16.903  0.00  0.00     0.026 A 
ATOM     26  C   UNK d   1       5.724  10.066  18.278  0.00  0.00     0.020 A 
ATOM     27  C   UNK d   1       4.698   9.593  19.075  0.00  0.00     0.011 A 
ATOM     28  C   UNK d   1       3.523   9.213  18.463  0.00  0.00     0.020 A 
ATOM     29 Br   UNK d   1       4.853   9.451  20.970  0.00  0.00    -0.051 Br
ATOM     30  C   UNK d   1       3.410   9.315  17.081  0.00  0.00     0.026 A 
ENDBRANCH  21  24
ENDBRANCH   1  21
TORSDOF 5
ENDMDL
