/Users/jonathanwahrer/Desktop/Msc/3_Semester/Drug_Design_Praktikum/waehrer_HTS_screening/HTS_experiment/out/docking_results/vina_output/2jam/1073_docked.pdbqt
 OpenBabel03162218063D

 28 31  0  0  0  0  0  0  0  0999 V2000
   10.0690    7.0150   12.2930 N   0  0  0  0  0  0  0  0  0  0  0  0
   11.1080    7.0380   11.3460 C   0  0  0  0  0  2  0  0  0  0  0  0
   11.0070    5.9430   10.3200 C   0  0  0  0  0  2  0  0  0  0  0  0
   10.2050    4.8410   10.7160 N   0  0  0  0  0  0  0  0  0  0  0  0
    8.8920    5.2560   11.0610 C   0  0  0  0  0  2  0  0  0  0  0  0
    8.8230    6.4740   11.9050 C   0  0  0  0  0  2  0  0  0  0  0  0
   10.8850    3.9770   11.6060 C   0  0  0  0  0  2  0  0  0  0  0  0
   11.6460    2.9210   11.0310 N   0  0  0  0  0  0  0  0  0  0  0  0
   11.0710    2.0180   10.2630 N   0  0  0  0  0  0  0  0  0  0  0  0
   11.7130    0.9890    9.6880 C   0  0  0  0  0  0  0  0  0  0  0  0
   13.0630    0.8900    9.9290 C   0  0  0  0  0  3  0  0  0  0  0  0
   13.7230    1.8030   10.7230 C   0  0  0  0  0  3  0  0  0  0  0  0
   12.9640    2.8290   11.2700 C   0  0  0  0  0  0  0  0  0  0  0  0
   13.5800    3.6760   12.0060 O   0  0  0  0  0  0  0  0  0  0  0  0
   11.0600    0.0230    8.8570 N   0  0  0  0  0  0  0  0  0  0  0  0
   11.5430   -0.6280    7.7940 C   0  0  0  0  0  3  0  0  0  0  0  0
   10.5850   -1.4430    7.3170 N   0  0  0  0  0  0  0  0  0  0  0  0
    9.4800   -1.3170    8.0740 C   0  0  0  0  0  3  0  0  0  0  0  0
    9.7950   -0.3880    9.0420 C   0  0  0  0  0  3  0  0  0  0  0  0
   10.0760    8.1320   13.5230 S   0  0  0  0  0  0  0  0  0  0  0  0
   10.3210    7.5180   14.8600 O   0  0  0  0  0  0  0  0  0  0  0  0
   11.1150    9.1790   13.2770 O   0  0  0  0  0  0  0  0  0  0  0  0
    8.4910    8.9290   13.5940 C   0  0  0  0  0  0  0  0  0  0  0  0
    7.1670    8.6010   14.6160 S   0  0  0  0  0  0  0  0  0  0  0  0
    6.0830    9.7850   14.0460 C   0  0  0  0  0  0  0  0  0  0  0  0
    6.7960   10.4150   13.0560 C   0  0  0  0  0  3  0  0  0  0  0  0
    4.2980   10.1680   14.6270 Br  0  0  0  0  0  0  0  0  0  0  0  0
    8.0400    9.9670   12.8270 C   0  0  0  0  0  3  0  0  0  0  0  0
  1 20  1  0  0  0  0
  2  1  1  0  0  0  0
  3  4  1  0  0  0  0
  3  2  1  0  0  0  0
  4  5  1  0  0  0  0
  4  7  1  0  0  0  0
  5  6  1  0  0  0  0
  6  1  1  0  0  0  0
  8 13  1  0  0  0  0
  8  7  1  0  0  0  0
  9  8  1  0  0  0  0
 10 11  1  0  0  0  0
 10  9  2  0  0  0  0
 11 12  2  0  0  0  0
 12 13  1  0  0  0  0
 13 14  2  0  0  0  0
 15 19  1  0  0  0  0
 15 10  1  0  0  0  0
 16 15  1  0  0  0  0
 17 16  2  0  0  0  0
 17 18  1  0  0  0  0
 18 19  2  0  0  0  0
 20 23  1  0  0  0  0
 20 21  2  0  0  0  0
 22 20  2  0  0  0  0
 23 24  1  0  0  0  0
 25 24  1  0  0  0  0
 25 27  1  0  0  0  0
 26 25  2  0  0  0  0
 28 26  1  0  0  0  0
 28 23  2  0  0  0  0
M  END
>  <Pose>
1

>  <Score>
-8.174

$$$$
