MODEL 1
REMARK VINA RESULT:    -8.174      0.000      0.000
REMARK INTER + INTRA:         -11.372
REMARK INTER:                 -10.563
REMARK INTRA:                  -0.809
REMARK UNBOUND:                -0.809
REMARK  5 active torsions:
REMARK  status: ('A' for Active; 'I' for Inactive)
REMARK    1  A    between atoms: S_1  and  N_4 
REMARK    2  A    between atoms: S_1  and  C_23 
REMARK    3  A    between atoms: N_7  and  C_10 
REMARK    4  A    between atoms: C_10  and  N_11 
REMARK    5  A    between atoms: C_13  and  N_18 
ROOT
ATOM      1  N   UNK d   1      10.069   7.015  12.293  0.00  0.00    -0.303 N 
ATOM      2  C   UNK d   1      11.108   7.038  11.346  0.00  0.00     0.165 C 
ATOM      3  C   UNK d   1      11.007   5.943  10.320  0.00  0.00     0.295 C 
ATOM      4  N   UNK d   1      10.205   4.841  10.716  0.00  0.00     0.111 NA
ATOM      5  C   UNK d   1       8.892   5.256  11.061  0.00  0.00     0.295 C 
ATOM      6  C   UNK d   1       8.823   6.474  11.905  0.00  0.00     0.165 C 
ENDROOT
BRANCH   4   7
ATOM      7  C   UNK d   1      10.885   3.977  11.606  0.00  0.00     0.426 C 
BRANCH   7   8
ATOM      8  N   UNK d   1      11.646   2.921  11.031  0.00  0.00    -0.204 N 
ATOM      9  N   UNK d   1      11.071   2.018  10.263  0.00  0.00    -0.149 NA
ATOM     10  C   UNK d   1      11.713   0.989   9.688  0.00  0.00     0.155 A 
ATOM     11  C   UNK d   1      13.063   0.890   9.929  0.00  0.00     0.058 A 
ATOM     12  C   UNK d   1      13.723   1.803  10.723  0.00  0.00     0.080 A 
ATOM     13  C   UNK d   1      12.964   2.829  11.270  0.00  0.00     0.265 A 
ATOM     14  O   UNK d   1      13.580   3.676  12.006  0.00  0.00    -0.267 OA
BRANCH  10  15
ATOM     15  N   UNK d   1      11.060   0.023   8.857  0.00  0.00    -0.298 N 
ATOM     16  C   UNK d   1      11.543  -0.628   7.794  0.00  0.00     0.215 A 
ATOM     17  N   UNK d   1      10.585  -1.443   7.317  0.00  0.00    -0.254 NA
ATOM     18  C   UNK d   1       9.480  -1.317   8.074  0.00  0.00     0.135 A 
ATOM     19  C   UNK d   1       9.795  -0.388   9.042  0.00  0.00     0.119 A 
ENDBRANCH  10  15
ENDBRANCH   7   8
ENDBRANCH   4   7
BRANCH   1  20
ATOM     20  S   UNK d   1      10.076   8.132  13.523  0.00  0.00     0.267 S 
ATOM     21  O   UNK d   1      10.321   7.518  14.860  0.00  0.00    -0.200 OA
ATOM     22  O   UNK d   1      11.115   9.179  13.277  0.00  0.00    -0.200 OA
BRANCH  20  23
ATOM     23  C   UNK d   1       8.491   8.929  13.594  0.00  0.00     0.121 A 
ATOM     24  S   UNK d   1       7.167   8.601  14.616  0.00  0.00    -0.069 SA
ATOM     25  C   UNK d   1       6.083   9.785  14.046  0.00  0.00     0.052 A 
ATOM     26  C   UNK d   1       6.796  10.415  13.056  0.00  0.00     0.028 A 
ATOM     27 Br   UNK d   1       4.298  10.168  14.627  0.00  0.00    -0.043 Br
ATOM     28  C   UNK d   1       8.040   9.967  12.827  0.00  0.00     0.035 A 
ENDBRANCH  20  23
ENDBRANCH   1  20
TORSDOF 5
ENDMDL
