MODEL 1
REMARK VINA RESULT:    -8.196      0.000      0.000
REMARK INTER + INTRA:         -10.997
REMARK INTER:                 -10.113
REMARK INTRA:                  -0.884
REMARK UNBOUND:                -0.884
REMARK  4 active torsions:
REMARK  status: ('A' for Active; 'I' for Inactive)
REMARK    1  A    between atoms: S_1  and  N_4 
REMARK    2  A    between atoms: S_1  and  C_21 
REMARK    3  A    between atoms: N_7  and  C_10 
REMARK    4  A    between atoms: N_11  and  C_15 
ROOT
ATOM      1  N   UNK d   1       8.833   6.456  13.396  0.00  0.00    -0.304 N 
ATOM      2  C   UNK d   1       7.800   5.695  13.987  0.00  0.00     0.155 C 
ATOM      3  C   UNK d   1       6.583   6.434  14.433  0.00  0.00     0.162 C 
ATOM      4  N   UNK d   1       6.623   7.855  14.191  0.00  0.00    -0.209 N 
ATOM      5  C   UNK d   1       7.866   8.548  14.293  0.00  0.00     0.162 C 
ATOM      6  C   UNK d   1       9.062   7.766  13.877  0.00  0.00     0.155 C 
ENDROOT
BRANCH   4   7
ATOM      7  C   UNK d   1       5.385   8.503  13.864  0.00  0.00     0.747 A 
ATOM      8  N   UNK d   1       4.517   9.030  14.745  0.00  0.00    -0.041 N 
ATOM      9  N   UNK d   1       3.510   9.508  14.004  0.00  0.00    -0.025 NA
ATOM     10  N   UNK d   1       3.749   9.285  12.731  0.00  0.00    -0.007 NA
ATOM     11  N   UNK d   1       4.903   8.664  12.603  0.00  0.00     0.065 NA
BRANCH   8  12
ATOM     12  C   UNK d   1       4.654   9.076  16.158  0.00  0.00     0.078 A 
ATOM     13  C   UNK d   1       5.418  10.042  16.771  0.00  0.00     0.032 A 
ATOM     14  C   UNK d   1       5.533  10.060  18.161  0.00  0.00     0.002 A 
ATOM     15  C   UNK d   1       4.893   9.125  18.944  0.00  0.00     0.000 A 
ATOM     16  C   UNK d   1       4.116   8.141  18.320  0.00  0.00     0.002 A 
ATOM     17  C   UNK d   1       4.013   8.139  16.928  0.00  0.00     0.032 A 
ENDBRANCH   8  12
ENDBRANCH   4   7
BRANCH   1  18
ATOM     18  S   UNK d   1       9.099   6.237  11.731  0.00  0.00     0.260 S 
ATOM     19  O   UNK d   1       9.502   7.453  10.997  0.00  0.00    -0.200 OA
ATOM     20  O   UNK d   1       7.787   5.775  11.109  0.00  0.00    -0.200 OA
BRANCH  18  21
ATOM     21  C   UNK d   1      10.256   4.958  11.480  0.00  0.00     0.079 A 
ATOM     22  C   UNK d   1      10.982   4.398  12.500  0.00  0.00     0.026 A 
ATOM     23  C   UNK d   1      11.904   3.373  12.286  0.00  0.00     0.020 A 
ATOM     24  C   UNK d   1      12.082   2.910  10.978  0.00  0.00     0.011 A 
ATOM     25  C   UNK d   1      11.359   3.466   9.946  0.00  0.00     0.020 A 
ATOM     26 Br   UNK d   1      13.327   1.505  10.611  0.00  0.00    -0.051 Br
ATOM     27  C   UNK d   1      10.465   4.469  10.198  0.00  0.00     0.026 A 
ENDBRANCH  18  21
ENDBRANCH   1  18
TORSDOF 4
ENDMDL
