/Users/jonathanwahrer/Desktop/Msc/3_Semester/Drug_Design_Praktikum/waehrer_HTS_screening/HTS_experiment/out/docking_results/vina_output/2jam/1084_docked.pdbqt
 OpenBabel03162218073D

 29 32  0  0  0  0  0  0  0  0999 V2000
   10.4760    5.6240   11.1840 N   0  0  0  0  0  0  0  0  0  0  0  0
   10.5240    7.0310   10.9670 C   0  0  0  0  0  2  0  0  0  0  0  0
    9.9860    7.8380   12.1280 C   0  0  0  0  0  2  0  0  0  0  0  0
    9.0410    7.0150   12.8260 N   0  0  0  0  0  0  0  0  0  0  0  0
    9.5040    5.8040   13.4360 C   0  0  0  0  0  2  0  0  0  0  0  0
   10.5960    5.2320   12.5680 C   0  0  0  0  0  2  0  0  0  0  0  0
    7.6920    7.4010   12.9040 C   0  0  0  0  0  0  0  0  0  0  0  0
    7.0500    7.5620   14.0730 N   0  0  0  0  0  0  0  0  0  0  0  0
    5.7860    7.9200   14.2110 C   0  0  0  0  0  0  0  0  0  0  0  0
    5.0560    8.1540   13.0580 C   0  0  0  0  0  3  0  0  0  0  0  0
    5.6700    8.0030   11.8350 C   0  0  0  0  0  0  0  0  0  0  0  0
    6.9630    7.6340   11.7860 N   0  0  0  0  0  0  0  0  0  0  0  0
    4.9200    8.2440   10.5730 C   0  0  0  0  0  1  0  0  0  0  0  0
    5.2250    8.0550   15.5040 N   0  0  0  0  0  0  0  0  0  0  0  0
    5.7110    8.9920   16.4950 C   0  0  0  0  0  2  0  0  0  0  0  0
    4.5470    9.2430   17.4520 C   0  0  0  0  0  2  0  0  0  0  0  0
    3.3970    9.3720   16.6700 O   0  0  0  0  0  0  0  0  0  0  0  0
    2.9420    8.1740   16.1700 C   0  0  0  0  0  2  0  0  0  0  0  0
    4.1040    7.2200   15.8700 C   0  0  0  0  0  2  0  0  0  0  0  0
   11.8010    4.9040   10.3360 S   0  0  0  0  0  0  0  0  0  0  0  0
   11.9380    5.6150    9.0000 O   0  0  0  0  0  0  0  0  0  0  0  0
   13.0640    5.1330   11.1140 O   0  0  0  0  0  0  0  0  0  0  0  0
   11.5250    3.2110   10.0380 C   0  0  0  0  0  0  0  0  0  0  0  0
   12.6070    2.4090    9.7030 C   0  0  0  0  0  3  0  0  0  0  0  0
   12.4640    1.0620    9.4530 C   0  0  0  0  0  3  0  0  0  0  0  0
   11.2210    0.4840    9.5330 C   0  0  0  0  0  0  0  0  0  0  0  0
   10.1180    1.2490    9.8630 C   0  0  0  0  0  3  0  0  0  0  0  0
   11.0410   -1.3810    9.1850 Br  0  0  0  0  0  0  0  0  0  0  0  0
   10.2960    2.6070   10.1100 C   0  0  0  0  0  3  0  0  0  0  0  0
  1  6  1  0  0  0  0
  2  1  1  0  0  0  0
  2  3  1  0  0  0  0
  3  4  1  0  0  0  0
  4  7  1  0  0  0  0
  4  5  1  0  0  0  0
  6  5  1  0  0  0  0
  7  8  2  0  0  0  0
  8  9  1  0  0  0  0
  9 14  1  0  0  0  0
 10  9  2  0  0  0  0
 11 10  1  0  0  0  0
 12 11  2  0  0  0  0
 12  7  1  0  0  0  0
 13 11  1  0  0  0  0
 14 19  1  0  0  0  0
 14 15  1  0  0  0  0
 15 16  1  0  0  0  0
 17 16  1  0  0  0  0
 18 17  1  0  0  0  0
 19 18  1  0  0  0  0
 20 22  2  0  0  0  0
 20  1  1  0  0  0  0
 21 20  2  0  0  0  0
 23 29  1  0  0  0  0
 23 20  1  0  0  0  0
 24 23  2  0  0  0  0
 25 26  2  0  0  0  0
 25 24  1  0  0  0  0
 26 27  1  0  0  0  0
 27 29  2  0  0  0  0
 28 26  1  0  0  0  0
M  END
>  <Pose>
1

>  <Score>
-9.158

$$$$
