MODEL 1
REMARK VINA RESULT:    -9.158      0.000      0.000
REMARK INTER + INTRA:         -12.024
REMARK INTER:                 -11.299
REMARK INTRA:                  -0.725
REMARK UNBOUND:                -0.725
REMARK  4 active torsions:
REMARK  status: ('A' for Active; 'I' for Inactive)
REMARK    1  A    between atoms: S_1  and  N_4 
REMARK    2  A    between atoms: S_1  and  C_23 
REMARK    3  A    between atoms: N_7  and  C_10 
REMARK    4  A    between atoms: C_12  and  N_17 
ROOT
ATOM      1  N   UNK d   1      10.476   5.624  11.184  0.00  0.00    -0.203 NA
ATOM      2  C   UNK d   1      10.524   7.031  10.967  0.00  0.00     0.128 C 
ATOM      3  C   UNK d   1       9.986   7.838  12.128  0.00  0.00     0.157 C 
ATOM      4  N   UNK d   1       9.041   7.015  12.826  0.00  0.00    -0.212 N 
ATOM      5  C   UNK d   1       9.504   5.804  13.436  0.00  0.00     0.157 C 
ATOM      6  C   UNK d   1      10.596   5.232  12.568  0.00  0.00     0.128 C 
ENDROOT
BRANCH   4   7
ATOM      7  C   UNK d   1       7.692   7.401  12.904  0.00  0.00     0.726 A 
ATOM      8  N   UNK d   1       7.050   7.562  14.073  0.00  0.00    -0.045 NA
ATOM      9  C   UNK d   1       5.786   7.920  14.211  0.00  0.00     0.146 A 
ATOM     10  C   UNK d   1       5.056   8.154  13.058  0.00  0.00     0.078 A 
ATOM     11  C   UNK d   1       5.670   8.003  11.835  0.00  0.00     0.053 A 
ATOM     12  N   UNK d   1       6.963   7.634  11.786  0.00  0.00    -0.068 NA
ATOM     13  C   UNK d   1       4.920   8.244  10.573  0.00  0.00     0.071 C 
BRANCH   9  14
ATOM     14  N   UNK d   1       5.225   8.055  15.504  0.00  0.00    -0.361 N 
ATOM     15  C   UNK d   1       5.711   8.992  16.495  0.00  0.00     0.150 C 
ATOM     16  C   UNK d   1       4.547   9.243  17.452  0.00  0.00     0.187 C 
ATOM     17  O   UNK d   1       3.397   9.372  16.670  0.00  0.00    -0.388 OA
ATOM     18  C   UNK d   1       2.942   8.174  16.170  0.00  0.00     0.187 C 
ATOM     19  C   UNK d   1       4.104   7.220  15.870  0.00  0.00     0.150 C 
ENDBRANCH   9  14
ENDBRANCH   4   7
BRANCH   1  20
ATOM     20  S   UNK d   1      11.801   4.904  10.336  0.00  0.00     0.243 S 
ATOM     21  O   UNK d   1      11.938   5.615   9.000  0.00  0.00    -0.206 OA
ATOM     22  O   UNK d   1      13.064   5.133  11.114  0.00  0.00    -0.206 OA
BRANCH  20  23
ATOM     23  C   UNK d   1      11.525   3.211  10.038  0.00  0.00     0.074 A 
ATOM     24  C   UNK d   1      12.607   2.409   9.703  0.00  0.00     0.026 A 
ATOM     25  C   UNK d   1      12.464   1.062   9.453  0.00  0.00     0.020 A 
ATOM     26  C   UNK d   1      11.221   0.484   9.533  0.00  0.00     0.011 A 
ATOM     27  C   UNK d   1      10.118   1.249   9.863  0.00  0.00     0.020 A 
ATOM     28 Br   UNK d   1      11.041  -1.381   9.185  0.00  0.00    -0.051 Br
ATOM     29  C   UNK d   1      10.296   2.607  10.110  0.00  0.00     0.026 A 
ENDBRANCH  20  23
ENDBRANCH   1  20
TORSDOF 4
ENDMDL
