MODEL 1
REMARK VINA RESULT:    -9.189      0.000      0.000
REMARK INTER + INTRA:         -12.122
REMARK INTER:                 -11.875
REMARK INTRA:                  -0.247
REMARK UNBOUND:                -0.247
REMARK  5 active torsions:
REMARK  status: ('A' for Active; 'I' for Inactive)
REMARK    1  A    between atoms: S_1  and  N_4 
REMARK    2  A    between atoms: S_1  and  C_26 
REMARK    3  A    between atoms: C_10  and  C_11 
REMARK    4  A    between atoms: C_11  and  C_12 
REMARK       I    between atoms: C_12  and  N_14 
REMARK    5  A    between atoms: N_17  and  C_20 
ROOT
ATOM      1  N   UNK d   1      18.056   5.563  11.411  0.00  0.00    -0.191 NA
ATOM      2  C   UNK d   1      18.633   6.587  10.606  0.00  0.00     0.128 C 
ATOM      3  C   UNK d   1      17.670   7.666  10.168  0.00  0.00     0.138 C 
ATOM      4  N   UNK d   1      16.835   8.104  11.289  0.00  0.00    -0.358 N 
ATOM      5  C   UNK d   1      16.278   7.003  12.043  0.00  0.00     0.237 C 
ATOM      6  O   UNK d   1      15.584   7.172  13.049  0.00  0.00    -0.272 OA
ATOM      7  C   UNK d   1      16.645   5.670  11.460  0.00  0.00     0.175 C 
ATOM      8  H   UNK d   1      16.644   9.073  11.542  0.00  0.00     0.162 HD
ENDROOT
BRANCH   7   9
ATOM      9  C   UNK d   1      15.890   4.552  12.061  0.00  0.00     0.133 C 
BRANCH   9  10
ATOM     10  C   UNK d   1      15.986   3.360  11.185  0.00  0.00     0.221 C 
ATOM     11  O   UNK d   1      17.144   2.922  10.952  0.00  0.00    -0.273 OA
ATOM     12  N   UNK d   1      14.827   2.735  10.629  0.00  0.00    -0.349 N 
ATOM     13  C   UNK d   1      13.511   3.244  10.902  0.00  0.00     0.145 C 
ATOM     14  C   UNK d   1      14.995   1.580   9.787  0.00  0.00     0.145 C 
ATOM     15  C   UNK d   1      12.523   3.009   9.802  0.00  0.00     0.143 C 
ATOM     16  N   UNK d   1      12.762   1.792   9.045  0.00  0.00    -0.378 N 
ATOM     17  C   UNK d   1      14.123   1.650   8.551  0.00  0.00     0.143 C 
BRANCH  16  18
ATOM     18  C   UNK d   1      11.805   0.809   8.762  0.00  0.00     0.030 A 
ATOM     19  C   UNK d   1      12.115  -0.204   7.881  0.00  0.00     0.029 A 
ATOM     20  C   UNK d   1      11.161  -1.168   7.593  0.00  0.00     0.002 A 
ATOM     21  C   UNK d   1       9.906  -1.161   8.149  0.00  0.00     0.000 A 
ATOM     22  C   UNK d   1       9.601  -0.147   9.028  0.00  0.00     0.002 A 
ATOM     23  C   UNK d   1      10.550   0.821   9.321  0.00  0.00     0.029 A 
ENDBRANCH  16  18
ENDBRANCH   9  10
ENDBRANCH   7   9
BRANCH   1  24
ATOM     24  S   UNK d   1      18.852   5.482  12.910  0.00  0.00     0.244 S 
ATOM     25  O   UNK d   1      17.939   5.301  14.081  0.00  0.00    -0.206 OA
ATOM     26  O   UNK d   1      19.630   6.765  13.177  0.00  0.00    -0.206 OA
BRANCH  24  27
ATOM     27  C   UNK d   1      20.044   4.195  12.942  0.00  0.00     0.074 A 
ATOM     28  C   UNK d   1      19.692   2.851  12.906  0.00  0.00     0.026 A 
ATOM     29  C   UNK d   1      20.602   1.832  12.934  0.00  0.00     0.020 A 
ATOM     30  C   UNK d   1      21.942   2.109  13.000  0.00  0.00     0.011 A 
ATOM     31  C   UNK d   1      22.336   3.452  13.037  0.00  0.00     0.020 A 
ATOM     32 Br   UNK d   1      23.257   0.735  13.040  0.00  0.00    -0.051 Br
ATOM     33  C   UNK d   1      21.393   4.452  13.008  0.00  0.00     0.026 A 
ENDBRANCH  24  27
ENDBRANCH   1  24
TORSDOF 5
ENDMDL
