MODEL 1
REMARK VINA RESULT:    -9.413      0.000      0.000
REMARK INTER + INTRA:         -14.274
REMARK INTER:                 -13.266
REMARK INTRA:                  -1.008
REMARK UNBOUND:                -1.008
REMARK  7 active torsions:
REMARK  status: ('A' for Active; 'I' for Inactive)
REMARK    1  A    between atoms: S_1  and  N_4 
REMARK    2  A    between atoms: S_1  and  C_10 
REMARK    3  A    between atoms: C_13  and  C_16 
REMARK    4  A    between atoms: C_16  and  O_17 
REMARK    5  A    between atoms: O_17  and  C_18 
REMARK    6  A    between atoms: C_18  and  C_20 
REMARK    7  A    between atoms: C_20  and  N_21 
ROOT
ATOM      1  C   UNK d   1      12.829   6.124  10.743  0.00  0.00     0.217 C 
ENDROOT
BRANCH   1   2
ATOM      2  C   UNK d   1      11.385   6.237  11.058  0.00  0.00    -0.034 A 
ATOM      3  C   UNK d   1      10.452   5.282  10.784  0.00  0.00     0.011 A 
ATOM      4  C   UNK d   1       9.111   5.465  11.109  0.00  0.00     0.025 A 
ATOM      5  C   UNK d   1       8.673   6.607  11.715  0.00  0.00     0.074 A 
ATOM      6  C   UNK d   1       9.616   7.578  11.995  0.00  0.00     0.025 A 
ATOM      7  C   UNK d   1      10.949   7.398  11.673  0.00  0.00     0.011 A 
BRANCH   5   8
ATOM      8  S   UNK d   1       6.988   6.873  12.139  0.00  0.00     0.243 S 
ATOM      9  O   UNK d   1       6.071   6.340  11.093  0.00  0.00    -0.206 OA
ATOM     10  O   UNK d   1       6.738   6.074  13.402  0.00  0.00    -0.206 OA
BRANCH   8  11
ATOM     11  N   UNK d   1       6.658   8.510  12.496  0.00  0.00    -0.202 NA
ATOM     12  C   UNK d   1       6.418   8.749  13.895  0.00  0.00     0.134 C 
ATOM     13  C   UNK d   1       5.682  10.089  13.988  0.00  0.00     0.183 C 
ATOM     14  O   UNK d   1       4.372   9.951  13.584  0.00  0.00    -0.389 OA
ATOM     15  C   UNK d   1       4.279   8.857  12.705  0.00  0.00     0.183 C 
ATOM     16  C   UNK d   1       5.477   8.944  11.772  0.00  0.00     0.134 C 
ENDBRANCH   8  11
ENDBRANCH   5   8
ENDBRANCH   1   2
BRANCH   1  17
ATOM     17  O   UNK d   1      13.536   5.409  11.732  0.00  0.00    -0.316 OA
BRANCH  17  18
ATOM     18  C   UNK d   1      14.830   4.964  11.611  0.00  0.00     0.277 C 
ATOM     19  O   UNK d   1      15.735   5.784  11.357  0.00  0.00    -0.263 OA
BRANCH  18  20
ATOM     20  C   UNK d   1      15.158   3.550  11.773  0.00  0.00     0.246 C 
BRANCH  20  21
ATOM     21  N   UNK d   1      14.470   2.689  10.856  0.00  0.00    -0.271 N 
ATOM     22  C   UNK d   1      13.159   2.167  11.108  0.00  0.00     0.262 A 
ATOM     23  O   UNK d   1      12.459   2.390  12.137  0.00  0.00    -0.267 OA
ATOM     24  C   UNK d   1      12.754   1.333   9.982  0.00  0.00     0.049 A 
ATOM     25  C   UNK d   1      13.765   1.326   9.057  0.00  0.00     0.048 A 
ATOM     26  C   UNK d   1      11.622   0.603   9.703  0.00  0.00     0.037 A 
ATOM     27  C   UNK d   1      13.638   0.605   7.885  0.00  0.00     0.019 A 
ATOM     28  C   UNK d   1      14.846   2.172   9.592  0.00  0.00     0.262 A 
ATOM     29  C   UNK d   1      12.493  -0.122   7.618  0.00  0.00     0.020 A 
ATOM     30  C   UNK d   1      11.468  -0.124   8.541  0.00  0.00     0.011 A 
ATOM     31 Br   UNK d   1       9.870  -1.113   8.218  0.00  0.00    -0.051 Br
ATOM     32  O   UNK d   1      15.941   2.416   9.038  0.00  0.00    -0.267 OA
ENDBRANCH  20  21
ENDBRANCH  18  20
ENDBRANCH  17  18
ENDBRANCH   1  17
TORSDOF 7
ENDMDL
