MODEL 1
REMARK VINA RESULT:    -9.075      0.000      0.000
REMARK INTER + INTRA:         -12.845
REMARK INTER:                 -12.258
REMARK INTRA:                  -0.587
REMARK UNBOUND:                -0.587
REMARK  6 active torsions:
REMARK  status: ('A' for Active; 'I' for Inactive)
REMARK    1  A    between atoms: S_1  and  N_4 
REMARK    2  A    between atoms: S_1  and  C_10 
REMARK    3  A    between atoms: N_13  and  C_15 
REMARK    4  A    between atoms: C_15  and  C_16 
REMARK    5  A    between atoms: C_19  and  C_21 
REMARK    6  A    between atoms: C_21  and  C_22 
ROOT
ATOM      1  C   UNK d   1       7.886   7.517  11.720  0.00  0.00     0.188 A 
ATOM      2  N   UNK d   1       7.784   6.190  11.538  0.00  0.00    -0.229 NA
ATOM      3  C   UNK d   1       9.030   5.652  11.523  0.00  0.00     0.211 A 
ATOM      4  N   UNK d   1       9.936   6.630  11.696  0.00  0.00    -0.341 N 
ATOM      5  C   UNK d   1       9.259   7.762  11.817  0.00  0.00     0.138 A 
ENDROOT
BRANCH   4   6
ATOM      6  C   UNK d   1      11.370   6.431  11.736  0.00  0.00     0.212 C 
BRANCH   6   7
ATOM      7  C   UNK d   1      11.787   5.286  10.892  0.00  0.00     0.174 A 
ATOM      8  N   UNK d   1      11.682   5.235   9.538  0.00  0.00    -0.109 NA
ATOM      9  O   UNK d   1      12.143   4.088   9.141  0.00  0.00    -0.196 OA
ATOM     10  C   UNK d   1      12.554   3.363  10.150  0.00  0.00     0.177 A 
ATOM     11  N   UNK d   1      12.328   4.121  11.253  0.00  0.00    -0.207 NA
BRANCH  10  12
ATOM     12  C   UNK d   1      13.148   1.992  10.127  0.00  0.00     0.127 C 
BRANCH  12  13
ATOM     13  C   UNK d   1      12.123   1.089   9.534  0.00  0.00    -0.050 A 
ATOM     14  C   UNK d   1      12.542   0.106   8.651  0.00  0.00     0.009 A 
ATOM     15  C   UNK d   1      11.670  -0.768   8.058  0.00  0.00     0.019 A 
ATOM     16  C   UNK d   1      10.339  -0.657   8.357  0.00  0.00     0.011 A 
ATOM     17  C   UNK d   1       9.877   0.291   9.216  0.00  0.00     0.019 A 
ATOM     18 Br   UNK d   1       9.094  -1.856   7.550  0.00  0.00    -0.051 Br
ATOM     19  C   UNK d   1      10.786   1.166   9.804  0.00  0.00     0.009 A 
ENDBRANCH  12  13
ENDBRANCH  10  12
ENDBRANCH   6   7
ENDBRANCH   4   6
BRANCH   1  20
ATOM     20  S   UNK d   1       6.594   8.692  11.818  0.00  0.00     0.280 S 
ATOM     21  O   UNK d   1       7.199  10.068  11.565  0.00  0.00    -0.199 OA
ATOM     22  O   UNK d   1       5.626   8.472  10.673  0.00  0.00    -0.199 OA
BRANCH  20  23
ATOM     23  N   UNK d   1       5.798   8.730  13.292  0.00  0.00    -0.301 N 
ATOM     24  C   UNK d   1       4.728   9.622  13.453  0.00  0.00     0.161 C 
ATOM     25  C   UNK d   1       3.566   8.955  14.127  0.00  0.00     0.188 C 
ATOM     26  O   UNK d   1       4.013   8.456  15.338  0.00  0.00    -0.388 OA
ATOM     27  C   UNK d   1       4.922   7.417  15.184  0.00  0.00     0.188 C 
ATOM     28  C   UNK d   1       5.996   7.687  14.202  0.00  0.00     0.161 C 
ENDBRANCH  20  23
ENDBRANCH   1  20
TORSDOF 6
ENDMDL
