/Users/jonathanwahrer/Desktop/Msc/3_Semester/Drug_Design_Praktikum/waehrer_HTS_screening/HTS_experiment/out/docking_results/vina_output/2jam/1130_docked.pdbqt
 OpenBabel03162218093D

 29 32  0  0  0  0  0  0  0  0999 V2000
   13.5570    4.3810   11.8700 C   0  0  0  0  0  0  0  0  0  0  0  0
   12.3200    3.9140   12.1100 N   0  0  0  0  0  0  0  0  0  0  0  0
   11.7590    2.9310   11.4250 N   0  0  0  0  0  2  0  0  0  0  0  0
   12.4190    2.3240   10.4160 C   0  0  0  0  0  0  0  0  0  0  0  0
   13.6910    2.7860   10.1500 C   0  0  0  0  0  0  0  0  0  0  0  0
   14.1420    2.0410    9.1210 N   0  0  0  0  0  0  0  0  0  0  0  0
   13.2210    1.1430    8.7340 C   0  0  0  0  0  0  0  0  0  0  0  0
   12.1130    1.2980    9.5380 C   0  0  0  0  0  0  0  0  0  0  0  0
   10.9730    0.5190    9.4020 C   0  0  0  0  0  3  0  0  0  0  0  0
   10.9880   -0.4420    8.4050 C   0  0  0  0  0  0  0  0  0  0  0  0
   12.0840   -0.6170    7.5860 C   0  0  0  0  0  3  0  0  0  0  0  0
   13.2030    0.1660    7.7390 C   0  0  0  0  0  3  0  0  0  0  0  0
    9.4160   -1.5160    8.2170 Br  0  0  0  0  0  0  0  0  0  0  0  0
   15.4560    2.2160    8.5340 C   0  0  0  0  0  1  0  0  0  0  0  0
   14.2480    3.8040   10.8720 N   0  0  0  0  0  2  0  0  0  0  0  0
   14.2560    5.7270   12.8480 S   0  0  0  0  0  0  0  0  0  0  0  0
   13.6180    7.2900   12.1900 C   0  0  0  0  0  2  0  0  0  0  0  0
   12.1300    7.2730   12.2920 C   0  0  0  0  0  0  0  0  0  0  0  0
   11.5520    7.3750   13.4200 O   0  0  0  0  0  0  0  0  0  0  0  0
   11.3130    7.1430   11.1500 N   0  0  0  0  0  0  0  0  0  0  0  0
   11.7720    7.0570   10.2180 H   0  0  0  0  0  0  0  0  0  0  0  0
    9.9000    7.1270   11.2480 C   0  0  0  0  0  0  0  0  0  0  0  0
    9.0690    8.1700   11.4090 N   0  0  0  0  0  0  0  0  0  0  0  0
    7.8310    7.7620   11.4570 O   0  0  0  0  0  0  0  0  0  0  0  0
    7.8380    6.4790   11.3310 N   0  0  0  0  0  0  0  0  0  0  0  0
    9.0830    6.0040   11.1970 C   0  0  0  0  0  0  0  0  0  0  0  0
    9.4530    4.6510   11.0390 N   0  0  0  0  0  0  0  0  0  0  0  0
    8.7600    3.9740   10.6700 H   0  0  0  0  0  0  0  0  0  0  0  0
   10.4010    4.2960   11.2790 H   0  0  0  0  0  0  0  0  0  0  0  0
  1  2  2  0  0  0  0
  1 16  1  0  0  0  0
  3  2  1  0  0  0  0
  4  3  1  0  0  0  0
  5  4  2  0  0  0  0
  5 15  1  0  0  0  0
  6  5  1  0  0  0  0
  7  6  1  0  0  0  0
  7  8  1  0  0  0  0
  8  4  1  0  0  0  0
  9  8  2  0  0  0  0
 10  9  1  0  0  0  0
 11 12  1  0  0  0  0
 11 10  2  0  0  0  0
 12  7  2  0  0  0  0
 13 10  1  0  0  0  0
 14  6  1  0  0  0  0
 15  1  1  0  0  0  0
 17 18  1  0  0  0  0
 17 16  1  0  0  0  0
 18 19  2  0  0  0  0
 20 22  1  0  0  0  0
 20 18  1  0  0  0  0
 21 20  1  0  0  0  0
 22 23  2  0  0  0  0
 23 24  1  0  0  0  0
 25 24  1  0  0  0  0
 26 22  1  0  0  0  0
 26 25  2  0  0  0  0
 27 26  1  0  0  0  0
 27 29  1  0  0  0  0
 28 27  1  0  0  0  0
M  END
>  <Pose>
1

>  <Score>
-8.462

$$$$
