/Users/jonathanwahrer/Desktop/Msc/3_Semester/Drug_Design_Praktikum/waehrer_HTS_screening/HTS_experiment/out/docking_results/vina_output/2jam/1133_docked.pdbqt
 OpenBabel03162218093D

 35 38  0  0  1  0  0  0  0  0999 V2000
   12.4610    4.0640   11.8030 C   0  0  0  0  0  0  0  0  0  0  0  0
   12.0970    5.3080   12.1160 N   0  0  0  0  0  0  0  0  0  0  0  0
   13.2420    6.0070   12.3360 C   0  0  0  0  0  0  0  0  0  0  0  0
   13.5860    7.2390   12.7410 N   0  0  0  0  0  0  0  0  0  0  0  0
   14.8330    7.6760   12.9500 C   0  0  0  0  0  0  0  0  0  0  0  0
   15.8750    6.7870   12.7210 N   0  0  0  0  0  0  0  0  0  0  0  0
   15.6350    5.5620   12.3250 C   0  0  0  0  0  0  0  0  0  0  0  0
   14.3400    5.1290   12.1230 C   0  0  0  0  0  0  0  0  0  0  0  0
   13.7980    3.9600   11.8050 N   0  0  0  0  0  0  0  0  0  0  0  0
   10.8050    5.9100   12.1910 C   0  0  2  0  0  3  0  0  0  0  0  0
   10.0310    5.4740   13.2890 O   0  0  0  0  0  0  0  0  0  0  0  0
    8.8070    6.1000   12.9600 C   0  0  1  0  0  3  0  0  0  0  0  0
    8.5960    5.4260   11.5790 C   0  0  2  0  0  3  0  0  0  0  0  0
    9.9490    5.8160   10.9700 C   0  0  1  0  0  3  0  0  0  0  0  0
    7.7270    5.7690   13.9180 C   0  0  0  0  0  2  0  0  0  0  0  0
    6.4740    6.0940   13.3830 O   0  0  0  0  0  0  0  0  0  0  0  0
    5.8050    5.4700   13.8010 H   0  0  0  0  0  0  0  0  0  0  0  0
    7.5300    5.9480   10.8970 O   0  0  0  0  0  0  0  0  0  0  0  0
    7.6270    5.7750    9.9300 H   0  0  0  0  0  0  0  0  0  0  0  0
    9.7690    7.0870   10.3670 O   0  0  0  0  0  0  0  0  0  0  0  0
   10.0020    6.9400    9.4240 H   0  0  0  0  0  0  0  0  0  0  0  0
   11.3520    2.6790   11.5110 S   0  0  0  0  0  0  0  0  0  0  0  0
   10.9140    2.5730    9.7210 C   0  0  0  0  0  2  0  0  0  0  0  0
   10.9290    1.1560    9.2910 C   0  0  0  0  0  0  0  0  0  0  0  0
   12.0100    0.5320    8.7190 C   0  0  0  0  0  0  0  0  0  0  0  0
   11.9390   -0.7210    8.2170 C   0  0  0  0  0  3  0  0  0  0  0  0
   13.6620    1.4930    8.7970 Br  0  0  0  0  0  0  0  0  0  0  0  0
   10.7600   -1.4560    8.2610 C   0  0  0  0  0  3  0  0  0  0  0  0
    9.6350   -0.8480    8.8360 C   0  0  0  0  0  3  0  0  0  0  0  0
    9.7200    0.4340    9.3420 C   0  0  0  0  0  3  0  0  0  0  0  0
   15.1790    8.9840   13.4310 N   0  0  0  0  0  0  0  0  0  0  0  0
   14.5380    9.7180   13.7250 H   0  0  0  0  0  0  0  0  0  0  0  0
   16.2290    9.2300   13.4480 H   0  0  0  0  0  0  0  0  0  0  0  0
   16.6270    4.6470   12.0760 O   0  0  0  0  0  0  0  0  0  0  0  0
   16.6460    4.0440   11.2620 H   0  0  0  0  0  0  0  0  0  0  0  0
  1  9  2  0  0  0  0
  1  2  1  0  0  0  0
  2  3  1  0  0  0  0
  3  4  1  0  0  0  0
  4  5  2  0  0  0  0
  5 31  1  0  0  0  0
  6  5  1  0  0  0  0
  7  6  2  0  0  0  0
  8  7  1  0  0  0  0
  8  3  2  0  0  0  0
  9  8  1  0  0  0  0
 10  2  1  6  0  0  0
 10 11  1  0  0  0  0
 12 11  1  0  0  0  0
 12 15  1  1  0  0  0
 13 18  1  6  0  0  0
 13 12  1  0  0  0  0
 14 20  1  1  0  0  0
 14 13  1  0  0  0  0
 14 10  1  0  0  0  0
 16 17  1  0  0  0  0
 16 15  1  0  0  0  0
 19 18  1  0  0  0  0
 21 20  1  0  0  0  0
 22  1  1  0  0  0  0
 23 22  1  0  0  0  0
 24 30  1  0  0  0  0
 24 23  1  0  0  0  0
 25 27  1  0  0  0  0
 25 24  2  0  0  0  0
 26 28  2  0  0  0  0
 26 25  1  0  0  0  0
 28 29  1  0  0  0  0
 29 30  2  0  0  0  0
 31 33  1  0  0  0  0
 31 32  1  0  0  0  0
 34  7  1  0  0  0  0
 35 34  1  0  0  0  0
M  END
>  <Pose>
1

>  <Score>
-8.161

$$$$
