MODEL 1
REMARK VINA RESULT:    -7.303      0.000      0.000
REMARK INTER + INTRA:         -10.047
REMARK INTER:                  -8.584
REMARK INTRA:                  -1.463
REMARK UNBOUND:                -1.463
REMARK  3 active torsions:
REMARK  status: ('A' for Active; 'I' for Inactive)
REMARK    1  A    between atoms: C_6  and  C_17 
REMARK    2  A    between atoms: N_9  and  C_10 
REMARK    3  A    between atoms: C_23  and  O_30 
ROOT
ATOM      1  C   UNK d   1       7.163   8.739  13.468  0.00  0.00     0.246 C 
ATOM      2  N   UNK d   1       6.342   8.668  12.267  0.00  0.00    -0.065 N 
ATOM      3  C   UNK d   1       6.152   7.283  11.874  0.00  0.00     0.240 C 
ATOM      4  C   UNK d   1       7.073   6.314  12.568  0.00  0.00     0.067 C 
ATOM      5  C   UNK d   1       8.448   6.928  12.614  0.00  0.00    -0.043 A 
ATOM      6  C   UNK d   1       8.480   8.262  13.087  0.00  0.00     0.017 A 
ATOM      7  C   UNK d   1       9.676   8.922  13.146  0.00  0.00     0.113 A 
ATOM      8  C   UNK d   1      10.818   8.237  12.735  0.00  0.00     0.139 A 
ATOM      9  C   UNK d   1      10.761   6.940  12.281  0.00  0.00     0.108 A 
ATOM     10  C   UNK d   1       9.559   6.260  12.214  0.00  0.00     0.047 A 
ATOM     11  O   UNK d   1      12.039   6.537  11.952  0.00  0.00    -0.323 OA
ATOM     12  C   UNK d   1      12.874   7.668  11.922  0.00  0.00     0.352 C 
ATOM     13  O   UNK d   1      12.130   8.622  12.680  0.00  0.00    -0.320 OA
ATOM     14  C   UNK d   1       6.853   9.388  11.151  0.00  0.00     0.270 C 
ATOM     15  H   UNK d   1       5.408   9.052  12.521  0.00  0.00     0.280 HD
ENDROOT
BRANCH   1  16
ATOM     16  C   UNK d   1       6.952   9.960  14.235  0.00  0.00     0.208 C 
ATOM     17  C   UNK d   1       5.443  10.257  14.095  0.00  0.00     0.261 C 
ATOM     18  N   UNK d   1       4.608   9.273  14.681  0.00  0.00    -0.187 NA
ATOM     19  O   UNK d   1       5.028  11.267  13.520  0.00  0.00    -0.270 OA
ATOM     20  C   UNK d   1       4.894   8.570  15.716  0.00  0.00     0.190 C 
ATOM     21  S   UNK d   1       3.775   7.349  16.387  0.00  0.00    -0.010 SA
ATOM     22  N   UNK d   1       6.192   8.832  16.296  0.00  0.00    -0.259 N 
ATOM     23  C   UNK d   1       7.047   9.807  15.719  0.00  0.00     0.246 C 
ATOM     24  O   UNK d   1       7.788  10.444  16.470  0.00  0.00    -0.272 OA
BRANCH  22  25
ATOM     25  C   UNK d   1       6.616   8.133  17.431  0.00  0.00     0.044 A 
ATOM     26  C   UNK d   1       7.621   7.173  17.261  0.00  0.00     0.031 A 
ATOM     27  C   UNK d   1       8.092   6.444  18.332  0.00  0.00     0.021 A 
ATOM     28  C   UNK d   1       7.556   6.670  19.597  0.00  0.00     0.011 A 
ATOM     29  C   UNK d   1       6.552   7.633  19.756  0.00  0.00     0.021 A 
ATOM     30 Br   UNK d   1       8.172   5.694  21.090  0.00  0.00    -0.051 Br
ATOM     31  C   UNK d   1       6.096   8.350  18.676  0.00  0.00     0.031 A 
ENDBRANCH  22  25
ENDBRANCH   1  16
BRANCH   7  32
ATOM     32  O   UNK d   1       9.765  10.233  13.592  0.00  0.00    -0.352 OA
ATOM     33  C   UNK d   1      10.635  10.530  14.679  0.00  0.00     0.210 C 
ENDBRANCH   7  32
TORSDOF 3
ENDMDL
