MODEL 1
REMARK VINA RESULT:    -7.283      0.000      0.000
REMARK INTER + INTRA:          -7.653
REMARK INTER:                  -7.709
REMARK INTRA:                   0.056
REMARK UNBOUND:                 0.056
REMARK  1 active torsions:
REMARK  status: ('A' for Active; 'I' for Inactive)
REMARK    1  A    between atoms: N_11  and  C_14 
ROOT
ATOM      1  S   UNK d   1       3.968   9.275  13.985  0.00  0.00     0.148 S 
ATOM      2  O   UNK d   1       3.631  10.547  14.708  0.00  0.00    -0.228 OA
ATOM      3  O   UNK d   1       3.004   8.998  12.865  0.00  0.00    -0.228 OA
ATOM      4  C   UNK d   1       5.634   9.306  13.360  0.00  0.00     0.175 C 
ATOM      5  C   UNK d   1       6.068   7.858  13.263  0.00  0.00     0.195 C 
ATOM      6  N   UNK d   1       6.237   7.332  14.603  0.00  0.00    -0.318 N 
ATOM      7  C   UNK d   1       5.339   7.727  15.668  0.00  0.00     0.143 C 
ATOM      8  C   UNK d   1       3.920   7.879  15.118  0.00  0.00     0.160 C 
ATOM      9  C   UNK d   1       7.363   6.468  14.523  0.00  0.00     0.328 C 
ATOM     10  O   UNK d   1       7.715   5.610  15.402  0.00  0.00    -0.246 OA
ATOM     11  N   UNK d   1       8.074   6.679  13.310  0.00  0.00    -0.259 N 
ATOM     12  C   UNK d   1       7.374   7.700  12.616  0.00  0.00     0.252 C 
ATOM     13  O   UNK d   1       7.784   8.365  11.619  0.00  0.00    -0.270 OA
ENDROOT
BRANCH  11  14
ATOM     14  C   UNK d   1       9.276   6.003  12.846  0.00  0.00     0.135 C 
ATOM     15  C   UNK d   1       9.209   5.726  11.354  0.00  0.00     0.058 C 
ATOM     16  C   UNK d   1      10.475   4.934  11.019  0.00  0.00     0.178 C 
ATOM     17  O   UNK d   1      11.559   5.825  11.217  0.00  0.00    -0.349 OA
ATOM     18  C   UNK d   1      11.550   6.729  12.273  0.00  0.00     0.094 A 
ATOM     19  C   UNK d   1      10.460   6.848  13.088  0.00  0.00     0.000 A 
ATOM     20  C   UNK d   1      12.690   7.497  12.452  0.00  0.00     0.044 A 
ATOM     21  C   UNK d   1      10.451   7.737  14.127  0.00  0.00     0.012 A 
ATOM     22  C   UNK d   1      11.563   8.517  14.337  0.00  0.00     0.002 A 
ATOM     23  C   UNK d   1      12.650   8.386  13.511  0.00  0.00     0.022 A 
ATOM     24 Br   UNK d   1      14.203   7.326  11.314  0.00  0.00    -0.048 Br
ENDBRANCH  11  14
TORSDOF 1
ENDMDL
