/Users/jonathanwahrer/Desktop/Msc/3_Semester/Drug_Design_Praktikum/waehrer_HTS_screening/HTS_experiment/out/docking_results/vina_output/2jam/1157_docked.pdbqt
 OpenBabel03162218103D

 24 27  0  0  1  0  0  0  0  0999 V2000
   11.9430    3.9480   12.1200 C   0  0  2  0  0  3  0  0  0  0  0  0
   11.3610    2.6120   11.7370 C   0  0  0  0  0  2  0  0  0  0  0  0
   11.3530    2.6990   10.2840 N   0  0  0  0  0  0  0  0  0  0  0  0
   10.8020    4.0000    9.9860 C   0  0  0  0  0  2  0  0  0  0  0  0
   11.2280    4.8690   11.1540 C   0  0  0  0  0  2  0  0  0  0  0  0
   13.3640    4.0260   11.8150 N   0  0  0  0  0  0  0  0  0  0  0  0
   14.1610    5.1140   12.2380 C   0  0  0  0  0  0  0  0  0  0  0  0
   13.7060    6.0800   12.8990 O   0  0  0  0  0  0  0  0  0  0  0  0
   13.8260    3.2650   11.2690 H   0  0  0  0  0  0  0  0  0  0  0  0
   15.6050    5.1760   11.9180 C   0  0  0  0  0  0  0  0  0  0  0  0
   16.5450    6.4990   11.3940 S   0  0  0  0  0  0  0  0  0  0  0  0
   18.0590    5.7270   11.2650 C   0  0  0  0  0  3  0  0  0  0  0  0
   17.7820    4.4380   11.6420 C   0  0  0  0  0  0  0  0  0  0  0  0
   16.5210    4.1580   11.9770 C   0  0  0  0  0  3  0  0  0  0  0  0
   19.2190    3.1350   11.6610 Br  0  0  0  0  0  0  0  0  0  0  0  0
   11.8100    1.6740    9.3880 C   0  0  0  0  0  0  0  0  0  0  0  0
   10.9650    0.7440    8.9070 N   0  0  0  0  0  0  0  0  0  0  0  0
   11.4220   -0.2040    8.0700 C   0  0  0  0  0  3  0  0  0  0  0  0
   12.7360   -0.2620    7.6830 C   0  0  0  0  0  3  0  0  0  0  0  0
   13.5930    0.6600    8.1540 N   0  0  0  0  0  0  0  0  0  0  0  0
   13.1240    1.6050    8.9920 C   0  0  0  0  0  0  0  0  0  0  0  0
   14.9190    0.8490    7.9500 C   0  0  0  0  0  3  0  0  0  0  0  0
   14.1950    2.3670    9.2880 N   0  0  0  0  0  0  0  0  0  0  0  0
   15.2780    1.9260    8.6700 N   0  0  0  0  0  0  0  0  0  0  0  0
  1  6  1  6  0  0  0
  2  1  1  0  0  0  0
  3  2  1  0  0  0  0
  4  3  1  0  0  0  0
  4  5  1  0  0  0  0
  5  1  1  0  0  0  0
  6  7  1  0  0  0  0
  7  8  2  0  0  0  0
  9  6  1  0  0  0  0
 10 14  2  0  0  0  0
 10  7  1  0  0  0  0
 11 10  1  0  0  0  0
 12 11  1  0  0  0  0
 12 13  2  0  0  0  0
 13 15  1  0  0  0  0
 13 14  1  0  0  0  0
 16  3  1  0  0  0  0
 17 16  2  0  0  0  0
 18 17  1  0  0  0  0
 19 18  2  0  0  0  0
 19 20  1  0  0  0  0
 20 21  1  0  0  0  0
 21 23  2  0  0  0  0
 21 16  1  0  0  0  0
 22 20  1  0  0  0  0
 22 24  2  0  0  0  0
 24 23  1  0  0  0  0
M  END
>  <Pose>
1

>  <Score>
-7.282

$$$$
