MODEL 1
REMARK VINA RESULT:    -7.282      0.000      0.000
REMARK INTER + INTRA:          -9.493
REMARK INTER:                  -8.559
REMARK INTRA:                  -0.934
REMARK UNBOUND:                -0.934
REMARK  3 active torsions:
REMARK  status: ('A' for Active; 'I' for Inactive)
REMARK    1  A    between atoms: C_2  and  C_7 
REMARK       I    between atoms: C_7  and  N_9 
REMARK    2  A    between atoms: N_9  and  C_10 
REMARK    3  A    between atoms: N_12  and  C_15 
ROOT
ATOM      1  C   UNK d   1      11.943   3.948  12.120  0.00  0.00     0.104 C 
ATOM      2  C   UNK d   1      11.361   2.612  11.737  0.00  0.00     0.149 C 
ATOM      3  N   UNK d   1      11.353   2.699  10.284  0.00  0.00    -0.361 N 
ATOM      4  C   UNK d   1      10.802   4.000   9.986  0.00  0.00     0.127 C 
ATOM      5  C   UNK d   1      11.228   4.869  11.154  0.00  0.00     0.046 C 
ENDROOT
BRANCH   1   6
ATOM      6  N   UNK d   1      13.364   4.026  11.815  0.00  0.00    -0.350 N 
ATOM      7  C   UNK d   1      14.161   5.114  12.238  0.00  0.00     0.259 C 
ATOM      8  O   UNK d   1      13.706   6.080  12.899  0.00  0.00    -0.267 OA
ATOM      9  H   UNK d   1      13.826   3.265  11.269  0.00  0.00     0.163 HD
BRANCH   7  10
ATOM     10  C   UNK d   1      15.605   5.176  11.918  0.00  0.00     0.073 A 
ATOM     11  S   UNK d   1      16.545   6.499  11.394  0.00  0.00    -0.095 SA
ATOM     12  C   UNK d   1      18.059   5.727  11.265  0.00  0.00     0.069 A 
ATOM     13  C   UNK d   1      17.782   4.438  11.642  0.00  0.00     0.018 A 
ATOM     14  C   UNK d   1      16.521   4.158  11.977  0.00  0.00     0.044 A 
ATOM     15 Br   UNK d   1      19.219   3.135  11.661  0.00  0.00    -0.051 Br
ENDBRANCH   7  10
ENDBRANCH   1   6
BRANCH   3  16
ATOM     16  C   UNK d   1      11.810   1.674   9.388  0.00  0.00     0.174 A 
ATOM     17  N   UNK d   1      10.965   0.744   8.907  0.00  0.00    -0.238 NA
ATOM     18  C   UNK d   1      11.422  -0.204   8.070  0.00  0.00     0.136 A 
ATOM     19  C   UNK d   1      12.736  -0.262   7.683  0.00  0.00     0.119 A 
ATOM     20  N   UNK d   1      13.593   0.660   8.154  0.00  0.00    -0.294 N 
ATOM     21  C   UNK d   1      13.124   1.605   8.992  0.00  0.00     0.203 A 
ATOM     22  C   UNK d   1      14.919   0.849   7.950  0.00  0.00     0.240 A 
ATOM     23  N   UNK d   1      14.195   2.367   9.288  0.00  0.00    -0.126 NA
ATOM     24  N   UNK d   1      15.278   1.926   8.670  0.00  0.00    -0.143 NA
ENDBRANCH   3  16
TORSDOF 3
ENDMDL
