MODEL 1
REMARK VINA RESULT:    -7.782      0.000      0.000
REMARK INTER + INTRA:         -11.636
REMARK INTER:                 -10.739
REMARK INTRA:                  -0.897
REMARK UNBOUND:                -0.897
REMARK  7 active torsions:
REMARK  status: ('A' for Active; 'I' for Inactive)
REMARK    1  A    between atoms: C_5  and  C_6 
REMARK    2  A    between atoms: C_6  and  C_8 
REMARK    3  A    between atoms: C_8  and  N_9 
REMARK    4  A    between atoms: N_16  and  C_19 
REMARK    5  A    between atoms: C_17  and  N_18 
REMARK    6  A    between atoms: C_19  and  C_20 
REMARK    7  A    between atoms: C_20  and  N_21 
ROOT
ATOM      1  N   UNK d   1       8.479   6.688  12.346  0.00  0.00    -0.172 N 
ATOM      2  C   UNK d   1       8.891   7.884  12.828  0.00  0.00     0.079 A 
ATOM      3  C   UNK d   1       7.856   8.769  12.811  0.00  0.00     0.079 A 
ATOM      4  C   UNK d   1       8.033  10.065  13.260  0.00  0.00     0.032 A 
ATOM      5  C   UNK d   1       9.270  10.448  13.725  0.00  0.00     0.002 A 
ATOM      6  C   UNK d   1      10.328   9.576  13.754  0.00  0.00     0.002 A 
ATOM      7  C   UNK d   1      10.119   8.294  13.299  0.00  0.00     0.032 A 
ATOM      8  N   UNK d   1       6.802   8.114  12.313  0.00  0.00    -0.178 N 
ATOM      9  C   UNK d   1       7.191   6.838  12.029  0.00  0.00     0.703 A 
ENDROOT
BRANCH   1  10
ATOM     10  C   UNK d   1       9.322   5.524  12.225  0.00  0.00     0.232 C 
BRANCH  10  11
ATOM     11  C   UNK d   1       9.963   5.440  10.890  0.00  0.00     0.185 C 
ATOM     12  O   UNK d   1       9.781   6.333  10.027  0.00  0.00    -0.290 OA
BRANCH  11  13
ATOM     13  C   UNK d   1      10.830   4.317  10.516  0.00  0.00     0.053 A 
ATOM     14  S   UNK d   1      12.537   4.188  10.548  0.00  0.00    -0.079 SA
ATOM     15  C   UNK d   1      12.714   2.604   9.957  0.00  0.00     0.052 A 
ATOM     16  C   UNK d   1      11.420   2.213   9.748  0.00  0.00     0.028 A 
ATOM     17 Br   UNK d   1      14.333   1.638   9.671  0.00  0.00    -0.043 Br
ATOM     18  C   UNK d   1      10.454   3.088  10.034  0.00  0.00     0.024 A 
ENDBRANCH  11  13
ENDBRANCH  10  11
ENDBRANCH   1  10
BRANCH   9  19
ATOM     19  N   UNK d   1       6.356   6.006  11.525  0.00  0.00    -0.117 NA
ATOM     20  H   UNK d   1       6.467   5.007  11.362  0.00  0.00     0.206 HD
ENDBRANCH   9  19
BRANCH   8  21
ATOM     21  C   UNK d   1       5.477   8.691  12.133  0.00  0.00     0.175 C 
BRANCH  21  22
ATOM     22  C   UNK d   1       4.700   8.522  13.448  0.00  0.00     0.255 C 
BRANCH  22  23
ATOM     23  N   UNK d   1       3.927   9.687  13.768  0.00  0.00    -0.070 N 
ATOM     24  C   UNK d   1       2.697   9.403  14.479  0.00  0.00     0.235 C 
ATOM     25  C   UNK d   1       2.931   8.540  15.686  0.00  0.00     0.028 C 
ATOM     26  C   UNK d   1       4.055   9.015  16.544  0.00  0.00     0.003 C 
ATOM     27  C   UNK d   1       5.122   9.786  15.852  0.00  0.00     0.028 C 
ATOM     28  C   UNK d   1       4.712  10.533  14.634  0.00  0.00     0.235 C 
ATOM     29  H   UNK d   1       3.643  10.187  12.897  0.00  0.00     0.279 HD
ENDBRANCH  22  23
ENDBRANCH  21  22
ENDBRANCH   8  21
TORSDOF 7
ENDMDL
