/Users/jonathanwahrer/Desktop/Msc/3_Semester/Drug_Design_Praktikum/waehrer_HTS_screening/HTS_experiment/out/docking_results/vina_output/2jam/1177_docked.pdbqt
 OpenBabel03162218113D

 33 36  0  0  1  0  0  0  0  0999 V2000
    6.0400    9.1610   13.1710 C   0  0  2  0  0  3  0  0  0  0  0  0
    7.4500    8.9520   12.7040 C   0  0  2  0  0  3  0  0  0  0  0  0
    7.4520    7.6090   12.2150 N   0  0  0  0  0  0  0  0  0  0  0  0
    6.1250    7.4340   11.6430 C   0  0  0  0  0  0  0  0  0  0  0  0
    5.8650    6.5570   10.7750 O   0  0  0  0  0  0  0  0  0  0  0  0
    5.2210    8.4050   12.2320 C   0  0  0  0  0  0  0  0  0  0  0  0
    3.9810    8.5660   11.9810 O   0  0  0  0  0  0  0  0  0  0  0  0
    8.4790    6.6100   12.1750 C   0  0  0  0  0  2  0  0  0  0  0  0
    9.5780    6.8280   11.1870 C   0  0  0  0  0  2  0  0  0  0  0  0
   10.9310    6.9670   11.9000 C   0  0  0  0  0  2  0  0  0  0  0  0
   11.9640    6.8020   10.9340 N   0  0  0  0  0  4  0  0  0  0  0  0
   13.2950    6.6980   11.4410 C   0  0  0  0  0  2  0  0  0  0  0  0
   13.6000    5.3550   12.0610 C   0  0  0  0  0  2  0  0  0  0  0  0
   12.4070    4.6000   12.0030 O   0  0  0  0  0  0  0  0  0  0  0  0
   12.1970    4.3690   10.6280 C   0  0  0  0  0  2  0  0  0  0  0  0
   11.7160    5.6820   10.0460 C   0  0  0  0  0  2  0  0  0  0  0  0
   11.9450    7.6650   10.3100 H   0  0  0  0  0  0  0  0  0  0  0  0
    8.4220    9.2920   13.7350 C   0  0  0  0  0  0  0  0  0  0  0  0
    8.6900    8.3320   14.7240 C   0  0  0  0  0  3  0  0  0  0  0  0
    9.6000    8.5250   15.7320 C   0  0  0  0  0  0  0  0  0  0  0  0
   10.2970    9.7060   15.7980 C   0  0  0  0  0  3  0  0  0  0  0  0
    9.9450    7.2010   17.0650 Br  0  0  0  0  0  0  0  0  0  0  0  0
   10.0610   10.6780   14.8380 C   0  0  0  0  0  3  0  0  0  0  0  0
    9.1380   10.4490   13.8400 C   0  0  0  0  0  3  0  0  0  0  0  0
    5.6090    9.9070   14.1700 C   0  0  1  0  0  3  0  0  0  0  0  0
    5.2910   11.2620   13.9210 O   0  0  0  0  0  1  0  0  0  0  0  0
    5.4570    9.3560   15.5140 C   0  0  0  0  0  0  0  0  0  0  0  0
    4.4510    8.0500   15.9770 S   0  0  0  0  0  0  0  0  0  0  0  0
    4.7690    8.0550   17.6520 C   0  0  0  0  0  0  0  0  0  0  0  0
    5.6250    9.0530   17.7710 N   0  0  0  0  0  0  0  0  0  0  0  0
    4.2150    7.1510   18.7290 C   0  0  0  0  0  1  0  0  0  0  0  0
    5.9910    9.7270   16.7210 C   0  0  0  0  0  0  0  0  0  0  0  0
    6.9460   10.9040   16.8700 C   0  0  0  0  0  1  0  0  0  0  0  0
  1 25  1  6  0  0  0
  2  1  1  0  0  0  0
  2 18  1  1  0  0  0
  3  2  1  0  0  0  0
  4  3  1  0  0  0  0
  4  6  1  0  0  0  0
  5  4  2  0  0  0  0
  6  1  1  0  0  0  0
  7  6  2  0  0  0  0
  8  3  1  0  0  0  0
  9 10  1  0  0  0  0
  9  8  1  0  0  0  0
 11 12  1  0  0  0  0
 11 10  1  0  0  0  0
 12 13  1  0  0  0  0
 14 13  1  0  0  0  0
 15 14  1  0  0  0  0
 16 15  1  0  0  0  0
 16 11  1  0  0  0  0
 17 11  1  0  0  0  0
 18 24  2  0  0  0  0
 18 19  1  0  0  0  0
 19 20  2  0  0  0  0
 20 21  1  0  0  0  0
 20 22  1  0  0  0  0
 23 21  2  0  0  0  0
 24 23  1  0  0  0  0
 25 26  1  6  0  0  0
 25 27  1  0  0  0  0
 27 28  1  0  0  0  0
 27 32  2  0  0  0  0
 28 29  1  0  0  0  0
 29 30  2  0  0  0  0
 29 31  1  0  0  0  0
 32 33  1  0  0  0  0
 32 30  1  0  0  0  0
M  END
>  <Pose>
1

>  <Score>
-7.180

$$$$
