MODEL 1
REMARK VINA RESULT:    -7.180      0.000      0.000
REMARK INTER + INTRA:         -11.815
REMARK INTER:                 -10.118
REMARK INTRA:                  -1.698
REMARK UNBOUND:                -1.698
REMARK  7 active torsions:
REMARK  status: ('A' for Active; 'I' for Inactive)
REMARK    1  A    between atoms: C_5  and  C_6 
REMARK    2  A    between atoms: C_6  and  C_7 
REMARK    3  A    between atoms: C_8  and  C_23 
REMARK    4  A    between atoms: N_9  and  C_14 
REMARK    5  A    between atoms: C_14  and  C_15 
REMARK    6  A    between atoms: C_15  and  C_16 
REMARK    7  A    between atoms: C_16  and  N_17 
ROOT
ATOM      1  C   UNK d   1       6.040   9.161  13.171  0.00  0.00     0.063 C 
ATOM      2  C   UNK d   1       7.450   8.952  12.704  0.00  0.00     0.161 C 
ATOM      3  N   UNK d   1       7.452   7.609  12.215  0.00  0.00    -0.332 N 
ATOM      4  C   UNK d   1       6.125   7.434  11.643  0.00  0.00     0.295 C 
ATOM      5  O   UNK d   1       5.865   6.557  10.775  0.00  0.00    -0.264 OA
ATOM      6  C   UNK d   1       5.221   8.405  12.232  0.00  0.00     0.250 C 
ATOM      7  O   UNK d   1       3.981   8.566  11.981  0.00  0.00    -0.282 OA
ENDROOT
BRANCH   3   8
ATOM      8  C   UNK d   1       8.479   6.610  12.175  0.00  0.00     0.129 C 
BRANCH   8   9
ATOM      9  C   UNK d   1       9.578   6.828  11.187  0.00  0.00     0.048 C 
BRANCH   9  10
ATOM     10  C   UNK d   1      10.931   6.967  11.900  0.00  0.00     0.236 C 
BRANCH  10  11
ATOM     11  N   UNK d   1      11.964   6.802  10.934  0.00  0.00    -0.067 N 
ATOM     12  C   UNK d   1      13.295   6.698  11.441  0.00  0.00     0.261 C 
ATOM     13  C   UNK d   1      13.600   5.355  12.061  0.00  0.00     0.195 C 
ATOM     14  O   UNK d   1      12.407   4.600  12.003  0.00  0.00    -0.388 OA
ATOM     15  C   UNK d   1      12.197   4.369  10.628  0.00  0.00     0.195 C 
ATOM     16  C   UNK d   1      11.716   5.682  10.046  0.00  0.00     0.261 C 
ATOM     17  H   UNK d   1      11.945   7.665  10.310  0.00  0.00     0.280 HD
ENDBRANCH  10  11
ENDBRANCH   9  10
ENDBRANCH   8   9
ENDBRANCH   3   8
BRANCH   2  18
ATOM     18  C   UNK d   1       8.422   9.292  13.735  0.00  0.00    -0.029 A 
ATOM     19  C   UNK d   1       8.690   8.332  14.724  0.00  0.00     0.028 A 
ATOM     20  C   UNK d   1       9.600   8.525  15.732  0.00  0.00     0.011 A 
ATOM     21  C   UNK d   1      10.297   9.706  15.798  0.00  0.00     0.019 A 
ATOM     22 Br   UNK d   1       9.945   7.201  17.065  0.00  0.00    -0.051 Br
ATOM     23  C   UNK d   1      10.061  10.678  14.838  0.00  0.00     0.002 A 
ATOM     24  C   UNK d   1       9.138  10.449  13.840  0.00  0.00     0.009 A 
ENDBRANCH   2  18
BRANCH   1  25
ATOM     25  C   UNK d   1       5.609   9.907  14.170  0.00  0.00     0.139 C 
ATOM     26  O   UNK d   1       5.291  11.262  13.921  0.00  0.00    -0.190 OA
BRANCH  25  27
ATOM     27  C   UNK d   1       5.457   9.356  15.514  0.00  0.00     0.068 A 
ATOM     28  S   UNK d   1       4.451   8.050  15.977  0.00  0.00    -0.070 SA
ATOM     29  C   UNK d   1       4.769   8.055  17.652  0.00  0.00     0.072 A 
ATOM     30  N   UNK d   1       5.625   9.053  17.771  0.00  0.00    -0.250 NA
ATOM     31  C   UNK d   1       4.215   7.151  18.729  0.00  0.00     0.078 C 
ATOM     32  C   UNK d   1       5.991   9.727  16.721  0.00  0.00     0.051 A 
ATOM     33  C   UNK d   1       6.946  10.904  16.870  0.00  0.00     0.072 C 
ENDBRANCH  25  27
ENDBRANCH   1  25
TORSDOF 7
ENDMDL
