MODEL 1
REMARK VINA RESULT:    -7.109      0.000      0.000
REMARK INTER + INTRA:         -11.754
REMARK INTER:                 -10.019
REMARK INTRA:                  -1.736
REMARK UNBOUND:                -1.736
REMARK  7 active torsions:
REMARK  status: ('A' for Active; 'I' for Inactive)
REMARK    1  A    between atoms: C_5  and  C_6 
REMARK    2  A    between atoms: C_6  and  C_7 
REMARK    3  A    between atoms: C_8  and  C_23 
REMARK    4  A    between atoms: N_9  and  C_14 
REMARK    5  A    between atoms: C_14  and  C_15 
REMARK    6  A    between atoms: C_15  and  C_16 
REMARK    7  A    between atoms: C_16  and  N_17 
ROOT
ATOM      1  C   UNK d   1      12.101   7.432  12.583  0.00  0.00     0.063 C 
ATOM      2  C   UNK d   1      11.029   6.393  12.696  0.00  0.00     0.161 C 
ATOM      3  N   UNK d   1       9.854   7.109  12.275  0.00  0.00    -0.332 N 
ATOM      4  C   UNK d   1      10.034   8.449  12.753  0.00  0.00     0.295 C 
ATOM      5  O   UNK d   1       9.132   9.280  12.960  0.00  0.00    -0.264 OA
ATOM      6  C   UNK d   1      11.457   8.683  12.960  0.00  0.00     0.250 C 
ATOM      7  O   UNK d   1      12.076   9.701  13.373  0.00  0.00    -0.282 OA
ENDROOT
BRANCH   3   8
ATOM      8  C   UNK d   1       8.753   6.545  11.553  0.00  0.00     0.129 C 
BRANCH   8   9
ATOM      9  C   UNK d   1       7.674   5.980  12.379  0.00  0.00     0.048 C 
BRANCH   9  10
ATOM     10  C   UNK d   1       6.516   6.793  12.646  0.00  0.00     0.236 C 
BRANCH  10  11
ATOM     11  N   UNK d   1       6.435   8.126  13.013  0.00  0.00    -0.067 N 
ATOM     12  C   UNK d   1       6.146   8.256  14.490  0.00  0.00     0.261 C 
ATOM     13  C   UNK d   1       4.687   8.038  14.722  0.00  0.00     0.195 C 
ATOM     14  O   UNK d   1       4.013   9.117  14.162  0.00  0.00    -0.388 OA
ATOM     15  C   UNK d   1       4.139   8.950  12.765  0.00  0.00     0.195 C 
ATOM     16  C   UNK d   1       5.579   9.043  12.344  0.00  0.00     0.261 C 
ATOM     17  H   UNK d   1       7.388   8.563  12.979  0.00  0.00     0.280 HD
ENDBRANCH  10  11
ENDBRANCH   9  10
ENDBRANCH   8   9
ENDBRANCH   3   8
BRANCH   2  18
ATOM     18  C   UNK d   1      11.368   5.199  11.908  0.00  0.00    -0.030 A 
ATOM     19  C   UNK d   1      11.641   5.157  10.568  0.00  0.00     0.011 A 
ATOM     20  C   UNK d   1      11.950   4.014   9.866  0.00  0.00     0.019 A 
ATOM     21  C   UNK d   1      11.992   2.821  10.542  0.00  0.00     0.011 A 
ATOM     22  C   UNK d   1      11.726   2.797  11.886  0.00  0.00     0.019 A 
ATOM     23 Br   UNK d   1      12.424   1.231   9.561  0.00  0.00    -0.051 Br
ATOM     24  C   UNK d   1      11.421   3.958  12.557  0.00  0.00     0.011 A 
ENDBRANCH   2  18
BRANCH   1  25
ATOM     25  C   UNK d   1      13.339   7.201  12.259  0.00  0.00     0.139 C 
ATOM     26  O   UNK d   1      13.763   7.447  10.942  0.00  0.00    -0.190 OA
BRANCH  25  27
ATOM     27  C   UNK d   1      14.298   6.684  13.260  0.00  0.00     0.068 A 
ATOM     28  S   UNK d   1      14.708   7.316  14.798  0.00  0.00    -0.070 SA
ATOM     29  C   UNK d   1      15.800   6.105  15.294  0.00  0.00     0.072 A 
ATOM     30  N   UNK d   1      15.797   5.281  14.266  0.00  0.00    -0.250 NA
ATOM     31  C   UNK d   1      16.587   5.972  16.569  0.00  0.00     0.078 C 
ATOM     32  C   UNK d   1      15.058   5.539  13.230  0.00  0.00     0.051 A 
ATOM     33  C   UNK d   1      14.995   4.585  12.040  0.00  0.00     0.072 C 
ENDBRANCH  25  27
ENDBRANCH   1  25
TORSDOF 7
ENDMDL
