MODEL 1
REMARK VINA RESULT:    -7.021      0.000      0.000
REMARK INTER + INTRA:         -11.501
REMARK INTER:                  -9.484
REMARK INTRA:                  -2.017
REMARK UNBOUND:                -2.017
REMARK  6 active torsions:
REMARK  status: ('A' for Active; 'I' for Inactive)
REMARK    1  A    between atoms: C_5  and  C_6 
REMARK    2  A    between atoms: C_6  and  C_7 
REMARK    3  A    between atoms: C_8  and  C_22 
REMARK    4  A    between atoms: N_9  and  C_14 
REMARK    5  A    between atoms: C_14  and  C_15 
REMARK    6  A    between atoms: C_15  and  N_16 
ROOT
ATOM      1  C   UNK d   1       6.993   7.374  12.820  0.00  0.00     0.063 C 
ATOM      2  C   UNK d   1       6.934   8.851  13.042  0.00  0.00     0.161 C 
ATOM      3  N   UNK d   1       5.540   9.070  13.008  0.00  0.00    -0.331 N 
ATOM      4  C   UNK d   1       5.141   8.324  11.793  0.00  0.00     0.295 C 
ATOM      5  O   UNK d   1       4.179   8.587  11.022  0.00  0.00    -0.264 OA
ATOM      6  C   UNK d   1       6.091   7.222  11.679  0.00  0.00     0.250 C 
ATOM      7  O   UNK d   1       6.177   6.300  10.810  0.00  0.00    -0.282 OA
ENDROOT
BRANCH   1   8
ATOM      8  C   UNK d   1       7.705   6.464  13.451  0.00  0.00     0.139 C 
ATOM      9  O   UNK d   1       7.170   5.801  14.542  0.00  0.00    -0.190 OA
BRANCH   8  10
ATOM     10  C   UNK d   1       9.060   6.205  12.941  0.00  0.00     0.068 A 
ATOM     11  S   UNK d   1       9.540   5.649  11.383  0.00  0.00    -0.070 SA
ATOM     12  C   UNK d   1      11.227   5.677  11.602  0.00  0.00     0.072 A 
ATOM     13  N   UNK d   1      11.343   6.106  12.842  0.00  0.00    -0.250 NA
ATOM     14  C   UNK d   1      12.314   5.304  10.631  0.00  0.00     0.078 C 
ATOM     15  C   UNK d   1      10.285   6.380  13.540  0.00  0.00     0.051 A 
ATOM     16  C   UNK d   1      10.399   6.919  14.959  0.00  0.00     0.072 C 
ENDBRANCH   8  10
ENDBRANCH   1   8
BRANCH   2  17
ATOM     17  C   UNK d   1       7.840   9.413  13.983  0.00  0.00    -0.030 A 
ATOM     18  C   UNK d   1       9.039   9.964  13.523  0.00  0.00     0.011 A 
ATOM     19  C   UNK d   1       9.975  10.510  14.363  0.00  0.00     0.019 A 
ATOM     20  C   UNK d   1       9.708  10.510  15.716  0.00  0.00     0.011 A 
ATOM     21  C   UNK d   1       8.530   9.971  16.190  0.00  0.00     0.019 A 
ATOM     22 Br   UNK d   1      10.959  11.253  16.958  0.00  0.00    -0.051 Br
ATOM     23  C   UNK d   1       7.606   9.428  15.327  0.00  0.00     0.011 A 
ENDBRANCH   2  17
BRANCH   3  24
ATOM     24  C   UNK d   1       4.516   9.792  13.684  0.00  0.00     0.155 C 
BRANCH  24  25
ATOM     25  C   UNK d   1       3.649   9.112  14.654  0.00  0.00     0.255 C 
BRANCH  25  26
ATOM     26  N   UNK d   1       3.887   9.160  16.039  0.00  0.00    -0.066 N 
ATOM     27  C   UNK d   1       2.696   9.114  16.861  0.00  0.00     0.261 C 
ATOM     28  C   UNK d   1       3.163   9.319  18.299  0.00  0.00     0.195 C 
ATOM     29  O   UNK d   1       4.537   9.110  18.412  0.00  0.00    -0.388 OA
ATOM     30  C   UNK d   1       4.774   7.842  17.844  0.00  0.00     0.195 C 
ATOM     31  C   UNK d   1       4.558   7.857  16.358  0.00  0.00     0.261 C 
ATOM     32  H   UNK d   1       4.564   9.888  16.291  0.00  0.00     0.280 HD
ENDBRANCH  25  26
ENDBRANCH  24  25
ENDBRANCH   3  24
TORSDOF 6
ENDMDL
