MODEL 1
REMARK VINA RESULT:    -7.727      0.000      0.000
REMARK INTER + INTRA:          -8.234
REMARK INTER:                  -8.179
REMARK INTRA:                  -0.055
REMARK UNBOUND:                -0.055
REMARK  1 active torsions:
REMARK  status: ('A' for Active; 'I' for Inactive)
REMARK    1  A    between atoms: C_14  and  C_16 
ROOT
ATOM      1  S   UNK d   1       7.216   8.903  12.087  0.00  0.00    -0.074 SA
ATOM      2  C   UNK d   1       6.269   8.063  13.248  0.00  0.00     0.088 A 
ATOM      3  C   UNK d   1       7.097   7.039  13.621  0.00  0.00     0.073 A 
ATOM      4  C   UNK d   1       8.304   6.974  13.039  0.00  0.00    -0.023 A 
ATOM      5  C   UNK d   1       8.613   7.938  12.117  0.00  0.00     0.018 A 
ATOM      6  C   UNK d   1       9.968   7.848  11.478  0.00  0.00     0.281 C 
ATOM      7  N   UNK d   1      10.965   7.806  12.545  0.00  0.00    -0.070 N 
ATOM      8  C   UNK d   1      10.724   6.773  13.504  0.00  0.00     0.239 C 
ATOM      9  C   UNK d   1       9.449   5.988  13.218  0.00  0.00     0.068 C 
ATOM     10  C   UNK d   1      10.853   9.088  13.241  0.00  0.00     0.270 C 
ATOM     11  C   UNK d   1       6.516   6.124  14.643  0.00  0.00     0.256 C 
ATOM     12  O   UNK d   1       7.179   5.135  15.076  0.00  0.00    -0.267 OA
ATOM     13  N   UNK d   1       5.207   6.381  15.124  0.00  0.00    -0.332 N 
ATOM     14  C   UNK d   1       4.553   7.656  15.066  0.00  0.00     0.219 C 
ATOM     15  N   UNK d   1       4.941   8.250  13.796  0.00  0.00    -0.358 N 
ATOM     16  H   UNK d   1      11.923   7.789  12.139  0.00  0.00     0.279 HD
ATOM     17  H   UNK d   1       4.690   5.561  15.553  0.00  0.00     0.165 HD
ATOM     18  H   UNK d   1       4.289   8.831  13.232  0.00  0.00     0.162 HD
ENDROOT
BRANCH  14  19
ATOM     19  C   UNK d   1       4.950   8.556  16.175  0.00  0.00    -0.013 A 
ATOM     20  C   UNK d   1       6.090   9.330  16.113  0.00  0.00     0.033 A 
ATOM     21  C   UNK d   1       6.474  10.173  17.132  0.00  0.00     0.049 A 
ATOM     22  C   UNK d   1       5.703  10.263  18.273  0.00  0.00     0.141 A 
ATOM     23 Br   UNK d   1       8.043  11.232  17.035  0.00  0.00    -0.048 Br
ATOM     24  C   UNK d   1       4.562   9.501  18.358  0.00  0.00     0.049 A 
ATOM     25  O   UNK d   1       6.084  11.109  19.305  0.00  0.00    -0.189 OA
ATOM     26  C   UNK d   1       4.184   8.658  17.330  0.00  0.00     0.033 A 
ATOM     27 Br   UNK d   1       3.520   9.658  19.964  0.00  0.00    -0.048 Br
ENDBRANCH  14  19
TORSDOF 1
ENDMDL
