/Users/jonathanwahrer/Desktop/Msc/3_Semester/Drug_Design_Praktikum/waehrer_HTS_screening/HTS_experiment/out/docking_results/vina_output/2jam/1193_docked.pdbqt
 OpenBabel03162218123D

 29 32  0  0  1  0  0  0  0  0999 V2000
    6.8240    6.1410   13.3580 S   0  0  0  0  0  0  0  0  0  0  0  0
    6.0740    7.6720   13.4480 C   0  0  0  0  0  0  0  0  0  0  0  0
    7.1130    8.5360   13.2460 C   0  0  0  0  0  0  0  0  0  0  0  0
    8.3400    7.9900   13.0480 C   0  0  0  0  0  0  0  0  0  0  0  0
    8.4230    6.6200   13.0700 C   0  0  0  0  0  0  0  0  0  0  0  0
    9.7150    5.9000   12.8680 C   0  0  0  0  0  2  0  0  0  0  0  0
   10.6250    6.5680   12.0030 N   0  0  0  0  0  4  0  0  0  0  0  0
   10.3400    7.9310   11.7090 C   0  0  0  0  0  2  0  0  0  0  0  0
    9.6710    8.7090   12.7980 C   0  0  0  0  0  2  0  0  0  0  0  0
   12.0010    6.3890   12.4510 C   0  0  0  0  0  1  0  0  0  0  0  0
    6.7080    9.9760   13.2700 C   0  0  0  0  0  0  0  0  0  0  0  0
    7.5890   10.8790   13.0950 O   0  0  0  0  0  0  0  0  0  0  0  0
    5.3550   10.3220   13.4870 N   0  0  0  0  0  0  0  0  0  0  0  0
    4.4800    9.4500   14.2400 C   0  0  1  0  0  3  0  0  0  0  0  0
    4.7110    8.1220   13.6740 N   0  0  0  0  0  0  0  0  0  0  0  0
   10.5880    6.0490   11.0710 H   0  0  0  0  0  0  0  0  0  0  0  0
    4.9770   11.2160   13.1010 H   0  0  0  0  0  0  0  0  0  0  0  0
    3.9630    7.4570   13.4140 H   0  0  0  0  0  0  0  0  0  0  0  0
    4.9350    9.4830   15.6550 C   0  0  0  0  0  0  0  0  0  0  0  0
    4.4820    8.5500   16.5620 C   0  0  0  0  0  3  0  0  0  0  0  0
    4.8920    8.5630   17.8780 C   0  0  0  0  0  0  0  0  0  0  0  0
    5.7820    9.5390   18.3060 C   0  0  0  0  0  0  0  0  0  0  0  0
    4.2750    7.2780   19.1430 Br  0  0  0  0  0  0  0  0  0  0  0  0
    6.2510   10.4860   17.4210 C   0  0  0  0  0  0  0  0  0  0  0  0
    6.2090    9.5730   19.6310 O   0  0  0  0  0  1  0  0  0  0  0  0
    5.8280   10.4460   16.1300 C   0  0  0  0  0  3  0  0  0  0  0  0
    7.1350   11.4360   17.8970 O   0  0  0  0  0  0  0  0  0  0  0  0
    8.3900   11.7250   17.3660 C   0  0  0  0  0  2  0  0  0  0  0  0
    9.2900   10.5080   17.3760 C   0  0  0  0  0  1  0  0  0  0  0  0
  1  2  1  0  0  0  0
  2 15  1  0  0  0  0
  3 11  1  0  0  0  0
  3  2  2  0  0  0  0
  4  5  2  0  0  0  0
  4  3  1  0  0  0  0
  5  1  1  0  0  0  0
  6  5  1  0  0  0  0
  7 10  1  0  0  0  0
  7  6  1  0  0  0  0
  8  7  1  0  0  0  0
  8  9  1  0  0  0  0
  9  4  1  0  0  0  0
 11 13  1  0  0  0  0
 12 11  2  0  0  0  0
 13 14  1  0  0  0  0
 14 19  1  1  0  0  0
 15 14  1  0  0  0  0
 16  7  1  0  0  0  0
 17 13  1  0  0  0  0
 18 15  1  0  0  0  0
 19 26  2  0  0  0  0
 19 20  1  0  0  0  0
 20 21  2  0  0  0  0
 21 22  1  0  0  0  0
 21 23  1  0  0  0  0
 22 25  1  0  0  0  0
 24 27  1  0  0  0  0
 24 22  2  0  0  0  0
 26 24  1  0  0  0  0
 28 29  1  0  0  0  0
 28 27  1  0  0  0  0
M  END
>  <Pose>
1

>  <Score>
-7.050

$$$$
