MODEL 1
REMARK VINA RESULT:    -7.050      0.000      0.000
REMARK INTER + INTRA:          -8.722
REMARK INTER:                  -8.287
REMARK INTRA:                  -0.435
REMARK UNBOUND:                -0.435
REMARK  3 active torsions:
REMARK  status: ('A' for Active; 'I' for Inactive)
REMARK    1  A    between atoms: C_14  and  C_16 
REMARK    2  A    between atoms: C_20  and  O_22 
REMARK    3  A    between atoms: O_22  and  C_23 
ROOT
ATOM      1  S   UNK d   1       6.824   6.141  13.358  0.00  0.00    -0.074 SA
ATOM      2  C   UNK d   1       6.074   7.672  13.448  0.00  0.00     0.088 A 
ATOM      3  C   UNK d   1       7.113   8.536  13.246  0.00  0.00     0.073 A 
ATOM      4  C   UNK d   1       8.340   7.990  13.048  0.00  0.00    -0.023 A 
ATOM      5  C   UNK d   1       8.423   6.620  13.070  0.00  0.00     0.018 A 
ATOM      6  C   UNK d   1       9.715   5.900  12.868  0.00  0.00     0.281 C 
ATOM      7  N   UNK d   1      10.625   6.568  12.003  0.00  0.00    -0.070 N 
ATOM      8  C   UNK d   1      10.340   7.931  11.709  0.00  0.00     0.239 C 
ATOM      9  C   UNK d   1       9.671   8.709  12.798  0.00  0.00     0.068 C 
ATOM     10  C   UNK d   1      12.001   6.389  12.451  0.00  0.00     0.270 C 
ATOM     11  C   UNK d   1       6.708   9.976  13.270  0.00  0.00     0.256 C 
ATOM     12  O   UNK d   1       7.589  10.879  13.095  0.00  0.00    -0.267 OA
ATOM     13  N   UNK d   1       5.355  10.322  13.487  0.00  0.00    -0.332 N 
ATOM     14  C   UNK d   1       4.480   9.450  14.240  0.00  0.00     0.219 C 
ATOM     15  N   UNK d   1       4.711   8.122  13.674  0.00  0.00    -0.358 N 
ATOM     16  H   UNK d   1      10.588   6.049  11.071  0.00  0.00     0.279 HD
ATOM     17  H   UNK d   1       4.977  11.216  13.101  0.00  0.00     0.165 HD
ATOM     18  H   UNK d   1       3.963   7.457  13.414  0.00  0.00     0.162 HD
ENDROOT
BRANCH  14  19
ATOM     19  C   UNK d   1       4.935   9.483  15.655  0.00  0.00    -0.012 A 
ATOM     20  C   UNK d   1       4.482   8.550  16.562  0.00  0.00     0.033 A 
ATOM     21  C   UNK d   1       4.892   8.563  17.878  0.00  0.00     0.051 A 
ATOM     22  C   UNK d   1       5.782   9.539  18.306  0.00  0.00     0.157 A 
ATOM     23 Br   UNK d   1       4.275   7.278  19.143  0.00  0.00    -0.048 Br
ATOM     24  C   UNK d   1       6.251  10.486  17.421  0.00  0.00     0.107 A 
ATOM     25  O   UNK d   1       6.209   9.573  19.631  0.00  0.00    -0.188 OA
ATOM     26  C   UNK d   1       5.828  10.446  16.130  0.00  0.00     0.050 A 
BRANCH  24  27
ATOM     27  O   UNK d   1       7.135  11.436  17.897  0.00  0.00    -0.348 OA
BRANCH  27  28
ATOM     28  C   UNK d   1       8.390  11.725  17.366  0.00  0.00     0.171 C 
ATOM     29  C   UNK d   1       9.290  10.508  17.376  0.00  0.00     0.034 C 
ENDBRANCH  27  28
ENDBRANCH  24  27
ENDBRANCH  14  19
TORSDOF 3
ENDMDL
