MODEL 1
REMARK VINA RESULT:    -8.564      0.000      0.000
REMARK INTER + INTRA:         -10.455
REMARK INTER:                 -10.066
REMARK INTRA:                  -0.389
REMARK UNBOUND:                -0.389
REMARK  3 active torsions:
REMARK  status: ('A' for Active; 'I' for Inactive)
REMARK    1  A    between atoms: N_6  and  C_18 
REMARK    2  A    between atoms: C_8  and  C_9 
REMARK    3  A    between atoms: C_12  and  N_15 
ROOT
ATOM      1  S   UNK d   1      13.644   5.200  12.127  0.00  0.00    -0.087 SA
ATOM      2  C   UNK d   1      13.506   6.955  12.555  0.00  0.00     0.069 C 
ATOM      3  C   UNK d   1      12.062   6.990  12.976  0.00  0.00     0.146 C 
ATOM      4  N   UNK d   1      11.259   6.069  12.229  0.00  0.00    -0.324 N 
ATOM      5  C   UNK d   1      11.922   5.045  11.667  0.00  0.00     0.154 A 
ATOM      6  N   UNK d   1      11.060   4.284  10.983  0.00  0.00    -0.300 N 
ATOM      7  C   UNK d   1       9.825   4.819  11.102  0.00  0.00     0.130 A 
ATOM      8  C   UNK d   1       9.932   5.943  11.885  0.00  0.00     0.062 A 
ATOM      9  C   UNK d   1      13.654   7.832  11.335  0.00  0.00     0.023 C 
ENDROOT
BRANCH   8  10
ATOM     10  C   UNK d   1       8.825   6.800  12.237  0.00  0.00    -0.008 A 
ATOM     11  C   UNK d   1       8.843   8.123  11.763  0.00  0.00     0.016 A 
ATOM     12  C   UNK d   1       7.805   8.979  12.026  0.00  0.00     0.037 A 
ATOM     13  C   UNK d   1       6.701   8.612  12.753  0.00  0.00     0.102 A 
ATOM     14  C   UNK d   1       6.658   7.322  13.228  0.00  0.00     0.037 A 
ATOM     15  C   UNK d   1       7.717   6.447  12.960  0.00  0.00     0.016 A 
BRANCH  13  16
ATOM     16  N   UNK d   1       5.671   9.555  12.981  0.00  0.00    -0.116 N 
ATOM     17  O   UNK d   1       4.483   9.229  12.892  0.00  0.00    -0.532 OA
ATOM     18  O   UNK d   1       6.000  10.837  13.303  0.00  0.00    -0.532 OA
ENDBRANCH  13  16
ENDBRANCH   8  10
BRANCH   6  19
ATOM     19  C   UNK d   1      11.368   3.106  10.246  0.00  0.00     0.041 A 
ATOM     20  C   UNK d   1      10.411   2.166   9.941  0.00  0.00     0.031 A 
ATOM     21  C   UNK d   1      10.683   1.017   9.228  0.00  0.00     0.021 A 
ATOM     22  C   UNK d   1      11.967   0.776   8.793  0.00  0.00     0.011 A 
ATOM     23  C   UNK d   1      12.957   1.699   9.082  0.00  0.00     0.021 A 
ATOM     24 Br   UNK d   1      12.382  -0.808   7.803  0.00  0.00    -0.051 Br
ATOM     25  C   UNK d   1      12.658   2.842   9.796  0.00  0.00     0.031 A 
ENDBRANCH   6  19
TORSDOF 3
ENDMDL
