MODEL 1
REMARK VINA RESULT:    -8.192      0.000      0.000
REMARK INTER + INTRA:         -10.441
REMARK INTER:                  -9.628
REMARK INTRA:                  -0.813
REMARK UNBOUND:                -0.813
REMARK  3 active torsions:
REMARK  status: ('A' for Active; 'I' for Inactive)
REMARK    1  A    between atoms: N_7  and  C_18 
REMARK    2  A    between atoms: C_8  and  C_10 
REMARK    3  A    between atoms: C_13  and  O_16 
ROOT
ATOM      1  S   UNK d   1      15.297   5.547  11.937  0.00  0.00    -0.093 SA
ATOM      2  C   UNK d   1      16.803   5.203  12.888  0.00  0.00     0.084 C 
ATOM      3  C   UNK d   1      17.294   3.829  12.470  0.00  0.00     0.031 C 
ATOM      4  C   UNK d   1      17.236   3.690  10.963  0.00  0.00     0.131 C 
ATOM      5  N   UNK d   1      15.883   3.270  10.635  0.00  0.00    -0.335 N 
ATOM      6  C   UNK d   1      14.886   4.061  11.040  0.00  0.00     0.154 A 
ATOM      7  N   UNK d   1      13.690   3.502  10.641  0.00  0.00    -0.290 N 
ATOM      8  C   UNK d   1      13.939   2.376   9.994  0.00  0.00     0.067 A 
ATOM      9  C   UNK d   1      15.326   2.245  10.001  0.00  0.00     0.124 A 
ENDROOT
BRANCH   8  10
ATOM     10  C   UNK d   1      13.042   1.412   9.376  0.00  0.00    -0.007 A 
ATOM     11  C   UNK d   1      13.446   0.755   8.204  0.00  0.00     0.016 A 
ATOM     12  C   UNK d   1      12.646  -0.160   7.578  0.00  0.00     0.037 A 
ATOM     13  C   UNK d   1      11.397  -0.503   8.043  0.00  0.00     0.068 A 
ATOM     14  C   UNK d   1      10.993   0.135   9.187  0.00  0.00     0.037 A 
ATOM     15  C   UNK d   1      11.797   1.076   9.846  0.00  0.00     0.016 A 
BRANCH  13  16
ATOM     16  O   UNK d   1      10.614  -1.438   7.379  0.00  0.00    -0.356 OA
ATOM     17  C   UNK d   1       9.310  -1.735   7.841  0.00  0.00     0.210 C 
ENDBRANCH  13  16
ENDBRANCH   8  10
BRANCH   7  18
ATOM     18  C   UNK d   1      12.438   4.121  10.929  0.00  0.00     0.042 A 
ATOM     19  C   UNK d   1      11.781   4.872   9.970  0.00  0.00     0.031 A 
ATOM     20  C   UNK d   1      10.554   5.459  10.207  0.00  0.00     0.021 A 
ATOM     21  C   UNK d   1       9.978   5.279  11.449  0.00  0.00     0.011 A 
ATOM     22  C   UNK d   1      10.640   4.529  12.398  0.00  0.00     0.021 A 
ATOM     23 Br   UNK d   1       8.274   6.057  11.873  0.00  0.00    -0.051 Br
ATOM     24  C   UNK d   1      11.865   3.935  12.183  0.00  0.00     0.031 A 
ENDBRANCH   7  18
TORSDOF 3
ENDMDL
