MODEL 1
REMARK VINA RESULT:    -6.403      0.000      0.000
REMARK INTER + INTRA:          -7.748
REMARK INTER:                  -7.713
REMARK INTRA:                  -0.035
REMARK UNBOUND:                -0.035
REMARK  4 active torsions:
REMARK  status: ('A' for Active; 'I' for Inactive)
REMARK    1  A    between atoms: N_7  and  C_19 
REMARK    2  A    between atoms: C_8  and  O_10 
REMARK    3  A    between atoms: C_8  and  C_11 
REMARK    4  A    between atoms: C_14  and  O_17 
ROOT
ATOM      1  S   UNK d   1      11.152   7.160  14.524  0.00  0.00    -0.094 SA
ATOM      2  C   UNK d   1      12.590   8.262  14.228  0.00  0.00     0.084 C 
ATOM      3  C   UNK d   1      12.195   9.077  12.994  0.00  0.00     0.030 C 
ATOM      4  C   UNK d   1      12.130   8.119  11.809  0.00  0.00     0.126 C 
ATOM      5  N   UNK d   1      10.826   7.503  11.829  0.00  0.00    -0.356 N 
ATOM      6  C   UNK d   1      10.314   7.058  12.947  0.00  0.00     0.148 C 
ATOM      7  N   UNK d   1       9.002   6.520  12.635  0.00  0.00    -0.289 N 
ATOM      8  C   UNK d   1       9.235   5.937  11.332  0.00  0.00     0.185 C 
ATOM      9  C   UNK d   1       9.855   7.264  10.756  0.00  0.00     0.192 C 
ENDROOT
BRANCH   8  10
ATOM     10  O   UNK d   1       8.128   5.560  10.641  0.00  0.00    -0.365 OA
ATOM     11  H   UNK d   1       8.310   5.683   9.658  0.00  0.00     0.213 HD
ENDBRANCH   8  10
BRANCH   8  12
ATOM     12  C   UNK d   1      10.306   4.938  11.422  0.00  0.00    -0.001 A 
ATOM     13  C   UNK d   1      10.494   4.131  12.532  0.00  0.00     0.015 A 
ATOM     14  C   UNK d   1      11.562   3.221  12.557  0.00  0.00     0.037 A 
ATOM     15  C   UNK d   1      12.426   3.095  11.536  0.00  0.00     0.068 A 
ATOM     16  C   UNK d   1      12.262   3.900  10.389  0.00  0.00     0.037 A 
ATOM     17  C   UNK d   1      11.197   4.784  10.403  0.00  0.00     0.015 A 
BRANCH  15  18
ATOM     18  O   UNK d   1      13.519   2.189  11.524  0.00  0.00    -0.356 OA
ATOM     19  C   UNK d   1      13.752   1.368  10.399  0.00  0.00     0.210 C 
ENDBRANCH  15  18
ENDBRANCH   8  12
BRANCH   7  20
ATOM     20  C   UNK d   1       7.829   6.642  13.407  0.00  0.00     0.040 A 
ATOM     21  C   UNK d   1       7.007   7.773  13.180  0.00  0.00     0.031 A 
ATOM     22  C   UNK d   1       5.864   8.006  13.925  0.00  0.00     0.021 A 
ATOM     23  C   UNK d   1       5.482   7.148  14.919  0.00  0.00     0.011 A 
ATOM     24  C   UNK d   1       6.262   6.038  15.166  0.00  0.00     0.021 A 
ATOM     25 Br   UNK d   1       3.926   7.438  15.988  0.00  0.00    -0.051 Br
ATOM     26  C   UNK d   1       7.423   5.806  14.402  0.00  0.00     0.031 A 
ENDBRANCH   7  20
TORSDOF 4
ENDMDL
