/Users/jonathanwahrer/Desktop/Msc/3_Semester/Drug_Design_Praktikum/waehrer_HTS_screening/HTS_experiment/out/docking_results/vina_output/2jam/1211_docked.pdbqt
 OpenBabel03162218123D

 26 29  0  0  1  0  0  0  0  0999 V2000
   11.1520    7.1600   14.5240 S   0  0  0  0  0  0  0  0  0  0  0  0
   12.5900    8.2620   14.2280 C   0  0  0  0  0  2  0  0  0  0  0  0
   12.1950    9.0770   12.9940 C   0  0  0  0  0  2  0  0  0  0  0  0
   12.1300    8.1190   11.8090 C   0  0  0  0  0  2  0  0  0  0  0  0
   10.8260    7.5030   11.8290 N   0  0  1  0  0  0  0  0  0  0  0  0
   10.3140    7.0580   12.9470 C   0  0  2  0  0  3  0  0  0  0  0  0
    9.0020    6.5200   12.6350 N   0  0  0  0  0  0  0  0  0  0  0  0
    9.2350    5.9370   11.3320 C   0  0  2  0  0  0  0  0  0  0  0  0
    9.8550    7.2640   10.7560 C   0  0  0  0  0  2  0  0  0  0  0  0
    8.1280    5.5600   10.6410 O   0  0  0  0  0  0  0  0  0  0  0  0
    8.3100    5.6830    9.6580 H   0  0  0  0  0  0  0  0  0  0  0  0
   10.3060    4.9380   11.4220 C   0  0  0  0  0  0  0  0  0  0  0  0
   10.4940    4.1310   12.5320 C   0  0  0  0  0  3  0  0  0  0  0  0
   11.5620    3.2210   12.5570 C   0  0  0  0  0  3  0  0  0  0  0  0
   12.4260    3.0950   11.5360 C   0  0  0  0  0  0  0  0  0  0  0  0
   12.2620    3.9000   10.3890 C   0  0  0  0  0  3  0  0  0  0  0  0
   11.1970    4.7840   10.4030 C   0  0  0  0  0  3  0  0  0  0  0  0
   13.5190    2.1890   11.5240 O   0  0  0  0  0  0  0  0  0  0  0  0
   13.7520    1.3680   10.3990 C   0  0  0  0  0  1  0  0  0  0  0  0
    7.8290    6.6420   13.4070 C   0  0  0  0  0  0  0  0  0  0  0  0
    7.0070    7.7730   13.1800 C   0  0  0  0  0  3  0  0  0  0  0  0
    5.8640    8.0060   13.9250 C   0  0  0  0  0  3  0  0  0  0  0  0
    5.4820    7.1480   14.9190 C   0  0  0  0  0  0  0  0  0  0  0  0
    6.2620    6.0380   15.1660 C   0  0  0  0  0  3  0  0  0  0  0  0
    3.9260    7.4380   15.9880 Br  0  0  0  0  0  0  0  0  0  0  0  0
    7.4230    5.8060   14.4020 C   0  0  0  0  0  3  0  0  0  0  0  0
  2  1  1  0  0  0  0
  3  2  1  0  0  0  0
  4  5  1  0  0  0  0
  4  3  1  0  0  0  0
  5  9  1  1  0  0  0
  5  6  1  0  0  0  0
  6  1  1  1  0  0  0
  7  6  1  0  0  0  0
  7 20  1  0  0  0  0
  8 10  1  6  0  0  0
  8 12  1  0  0  0  0
  8  7  1  0  0  0  0
  9  8  1  0  0  0  0
 11 10  1  0  0  0  0
 12 13  1  0  0  0  0
 13 14  2  0  0  0  0
 15 14  1  0  0  0  0
 16 17  1  0  0  0  0
 16 15  2  0  0  0  0
 17 12  2  0  0  0  0
 18 15  1  0  0  0  0
 19 18  1  0  0  0  0
 20 26  1  0  0  0  0
 21 20  2  0  0  0  0
 21 22  1  0  0  0  0
 22 23  2  0  0  0  0
 23 24  1  0  0  0  0
 23 25  1  0  0  0  0
 26 24  2  0  0  0  0
M  END
>  <Pose>
1

>  <Score>
-6.403

$$$$
