MODEL 1
REMARK VINA RESULT:    -6.329      0.000      0.000
REMARK INTER + INTRA:          -9.230
REMARK INTER:                  -7.994
REMARK INTRA:                  -1.236
REMARK UNBOUND:                -1.236
REMARK  5 active torsions:
REMARK  status: ('A' for Active; 'I' for Inactive)
REMARK    1  A    between atoms: C_6  and  O_20 
REMARK    2  A    between atoms: C_6  and  C_21 
REMARK    3  A    between atoms: N_8  and  C_10 
REMARK    4  A    between atoms: C_11  and  O_18 
REMARK    5  A    between atoms: C_14  and  O_16 
ROOT
ATOM      1  S   UNK d   1       5.145   8.581  12.766  0.00  0.00    -0.094 SA
ATOM      2  C   UNK d   1       3.490   9.024  13.235  0.00  0.00     0.084 C 
ATOM      3  C   UNK d   1       3.438   9.283  14.727  0.00  0.00     0.030 C 
ATOM      4  C   UNK d   1       3.843   8.023  15.471  0.00  0.00     0.129 C 
ATOM      5  N   UNK d   1       5.274   7.836  15.380  0.00  0.00    -0.324 N 
ATOM      6  C   UNK d   1       6.280   7.681  16.380  0.00  0.00     0.181 C 
ATOM      7  C   UNK d   1       7.223   6.740  15.648  0.00  0.00     0.198 C 
ATOM      8  N   UNK d   1       7.139   7.195  14.279  0.00  0.00    -0.320 N 
ATOM      9  C   UNK d   1       5.997   7.773  14.138  0.00  0.00     0.148 C 
ENDROOT
BRANCH   8  10
ATOM     10  C   UNK d   1       8.129   7.079  13.267  0.00  0.00     0.072 A 
ATOM     11  C   UNK d   1       8.949   8.179  13.057  0.00  0.00     0.095 A 
ATOM     12  C   UNK d   1       9.931   8.151  12.061  0.00  0.00     0.042 A 
ATOM     13  C   UNK d   1      10.083   7.018  11.281  0.00  0.00     0.039 A 
ATOM     14  C   UNK d   1       9.289   5.911  11.463  0.00  0.00     0.070 A 
ATOM     15  C   UNK d   1       8.321   6.003  12.481  0.00  0.00     0.069 A 
BRANCH  11  16
ATOM     16  O   UNK d   1       8.792   9.307  13.834  0.00  0.00    -0.354 OA
ATOM     17  C   UNK d   1       8.347  10.559  13.368  0.00  0.00     0.210 C 
ENDBRANCH  11  16
BRANCH  14  18
ATOM     18  O   UNK d   1       9.392   4.749  10.717  0.00  0.00    -0.356 OA
ATOM     19  C   UNK d   1      10.580   4.155  10.279  0.00  0.00     0.210 C 
ENDBRANCH  14  18
ENDBRANCH   8  10
BRANCH   6  20
ATOM     20  O   UNK d   1       5.746   7.073  17.512  0.00  0.00    -0.365 OA
ATOM     21  H   UNK d   1       4.790   6.885  17.379  0.00  0.00     0.213 HD
ENDBRANCH   6  20
BRANCH   6  22
ATOM     22  C   UNK d   1       7.041   8.900  16.716  0.00  0.00    -0.002 A 
ATOM     23  C   UNK d   1       6.586  10.179  16.648  0.00  0.00     0.013 A 
ATOM     24  C   UNK d   1       7.408  11.264  16.955  0.00  0.00     0.020 A 
ATOM     25  C   UNK d   1       8.720  11.081  17.340  0.00  0.00     0.011 A 
ATOM     26  C   UNK d   1       9.186   9.804  17.411  0.00  0.00     0.020 A 
ATOM     27 Br   UNK d   1       9.839  12.582  17.753  0.00  0.00    -0.051 Br
ATOM     28  C   UNK d   1       8.381   8.741  17.110  0.00  0.00     0.013 A 
ENDBRANCH   6  22
TORSDOF 5
ENDMDL
