MODEL 1
REMARK VINA RESULT:    -7.669      0.000      0.000
REMARK INTER + INTRA:          -9.961
REMARK INTER:                  -9.238
REMARK INTRA:                  -0.723
REMARK UNBOUND:                -0.723
REMARK  4 active torsions:
REMARK  status: ('A' for Active; 'I' for Inactive)
REMARK    1  A    between atoms: C_6  and  O_17 
REMARK    2  A    between atoms: C_6  and  C_18 
REMARK    3  A    between atoms: N_8  and  C_10 
REMARK    4  A    between atoms: C_20  and  N_24 
ROOT
ATOM      1  S   UNK d   1      12.740   7.454  12.031  0.00  0.00    -0.094 SA
ATOM      2  C   UNK d   1      13.925   8.056  13.304  0.00  0.00     0.084 C 
ATOM      3  C   UNK d   1      13.199   8.195  14.631  0.00  0.00     0.030 C 
ATOM      4  C   UNK d   1      11.870   8.883  14.452  0.00  0.00     0.129 C 
ATOM      5  N   UNK d   1      10.895   7.945  13.996  0.00  0.00    -0.324 N 
ATOM      6  C   UNK d   1       9.507   7.634  14.287  0.00  0.00     0.181 C 
ATOM      7  C   UNK d   1       9.413   6.154  13.963  0.00  0.00     0.198 C 
ATOM      8  N   UNK d   1      10.464   6.014  12.935  0.00  0.00    -0.323 N 
ATOM      9  C   UNK d   1      11.266   7.002  12.978  0.00  0.00     0.147 C 
ENDROOT
BRANCH   6  10
ATOM     10  O   UNK d   1       9.171   7.905  15.599  0.00  0.00    -0.365 OA
ATOM     11  H   UNK d   1       8.291   7.620  15.881  0.00  0.00     0.213 HD
ENDBRANCH   6  10
BRANCH   6  12
ATOM     12  C   UNK d   1       8.582   8.357  13.383  0.00  0.00     0.001 A 
ATOM     13  C   UNK d   1       7.685   7.647  12.609  0.00  0.00     0.048 A 
ATOM     14  C   UNK d   1       6.833   8.368  11.773  0.00  0.00     0.103 A 
ATOM     15  C   UNK d   1       6.881   9.729  11.719  0.00  0.00     0.036 A 
ATOM     16  C   UNK d   1       7.773  10.453  12.489  0.00  0.00     0.003 A 
ATOM     17  C   UNK d   1       8.625   9.722  13.326  0.00  0.00     0.012 A 
BRANCH  14  18
ATOM     18  N   UNK d   1       5.908   7.648  10.975  0.00  0.00    -0.116 N 
ATOM     19  O   UNK d   1       5.894   6.403  10.948  0.00  0.00    -0.532 OA
ATOM     20  O   UNK d   1       4.990   8.295  10.197  0.00  0.00    -0.532 OA
ENDBRANCH  14  18
ENDBRANCH   6  12
BRANCH   8  21
ATOM     21  C   UNK d   1      10.564   4.909  12.041  0.00  0.00     0.036 A 
ATOM     22  C   UNK d   1      10.053   4.846  10.778  0.00  0.00     0.031 A 
ATOM     23  C   UNK d   1      10.205   3.741   9.951  0.00  0.00     0.021 A 
ATOM     24  C   UNK d   1      10.902   2.640  10.405  0.00  0.00     0.011 A 
ATOM     25  C   UNK d   1      11.437   2.669  11.688  0.00  0.00     0.021 A 
ATOM     26 Br   UNK d   1      11.160   1.069   9.344  0.00  0.00    -0.051 Br
ATOM     27  C   UNK d   1      11.272   3.786  12.497  0.00  0.00     0.031 A 
ENDBRANCH   8  21
TORSDOF 4
ENDMDL
