/Users/jonathanwahrer/Desktop/Msc/3_Semester/Drug_Design_Praktikum/waehrer_HTS_screening/HTS_experiment/out/docking_results/vina_output/2jam/1219_docked.pdbqt
 OpenBabel03162218133D

 27 30  0  0  1  0  0  0  0  0999 V2000
   12.7400    7.4540   12.0310 S   0  0  0  0  0  0  0  0  0  0  0  0
   13.9250    8.0560   13.3040 C   0  0  0  0  0  2  0  0  0  0  0  0
   13.1990    8.1950   14.6310 C   0  0  0  0  0  2  0  0  0  0  0  0
   11.8700    8.8830   14.4520 C   0  0  0  0  0  2  0  0  0  0  0  0
   10.8950    7.9450   13.9960 N   0  0  2  0  0  0  0  0  0  0  0  0
    9.5070    7.6340   14.2870 C   0  0  1  0  0  0  0  0  0  0  0  0
    9.4130    6.1540   13.9630 C   0  0  0  0  0  2  0  0  0  0  0  0
   10.4640    6.0140   12.9350 N   0  0  0  0  0  0  0  0  0  0  0  0
   11.2660    7.0020   12.9780 C   0  0  1  0  0  3  0  0  0  0  0  0
    9.1710    7.9050   15.5990 O   0  0  0  0  0  0  0  0  0  0  0  0
    8.2910    7.6200   15.8810 H   0  0  0  0  0  0  0  0  0  0  0  0
    8.5820    8.3570   13.3830 C   0  0  0  0  0  0  0  0  0  0  0  0
    7.6850    7.6470   12.6090 C   0  0  0  0  0  3  0  0  0  0  0  0
    6.8330    8.3680   11.7730 C   0  0  0  0  0  0  0  0  0  0  0  0
    6.8810    9.7290   11.7190 C   0  0  0  0  0  3  0  0  0  0  0  0
    7.7730   10.4530   12.4890 C   0  0  0  0  0  3  0  0  0  0  0  0
    8.6250    9.7220   13.3260 C   0  0  0  0  0  3  0  0  0  0  0  0
    5.9080    7.6480   10.9750 N   0  0  0  0  0  0  0  0  0  0  0  0
    5.8940    6.4030   10.9480 O   0  0  0  0  0  0  0  0  0  0  0  0
    4.9900    8.2950   10.1970 O   0  0  0  0  0  0  0  0  0  0  0  0
   10.5640    4.9090   12.0410 C   0  0  0  0  0  0  0  0  0  0  0  0
   10.0530    4.8460   10.7780 C   0  0  0  0  0  3  0  0  0  0  0  0
   10.2050    3.7410    9.9510 C   0  0  0  0  0  3  0  0  0  0  0  0
   10.9020    2.6400   10.4050 C   0  0  0  0  0  0  0  0  0  0  0  0
   11.4370    2.6690   11.6880 C   0  0  0  0  0  3  0  0  0  0  0  0
   11.1600    1.0690    9.3440 Br  0  0  0  0  0  0  0  0  0  0  0  0
   11.2720    3.7860   12.4970 C   0  0  0  0  0  3  0  0  0  0  0  0
  1  2  1  0  0  0  0
  2  3  1  0  0  0  0
  4  3  1  0  0  0  0
  5  6  1  0  0  0  0
  5  4  1  1  0  0  0
  6 10  1  1  0  0  0
  7  6  1  0  0  0  0
  8  9  1  0  0  0  0
  8  7  1  0  0  0  0
  9  1  1  6  0  0  0
  9  5  1  0  0  0  0
 10 11  1  0  0  0  0
 12  6  1  0  0  0  0
 13 12  2  0  0  0  0
 14 13  1  0  0  0  0
 15 14  2  0  0  0  0
 15 16  1  0  0  0  0
 16 17  2  0  0  0  0
 17 12  1  0  0  0  0
 18 14  1  0  0  0  0
 19 18  2  0  0  0  0
 20 18  2  0  0  0  0
 21 27  1  0  0  0  0
 21  8  1  0  0  0  0
 22 21  2  0  0  0  0
 23 24  2  0  0  0  0
 23 22  1  0  0  0  0
 24 25  1  0  0  0  0
 25 27  2  0  0  0  0
 26 24  1  0  0  0  0
M  END
>  <Pose>
1

>  <Score>
-7.669

$$$$
