MODEL 1
REMARK VINA RESULT:    -8.156      0.000      0.000
REMARK INTER + INTRA:         -10.439
REMARK INTER:                  -9.825
REMARK INTRA:                  -0.614
REMARK UNBOUND:                -0.614
REMARK  4 active torsions:
REMARK  status: ('A' for Active; 'I' for Inactive)
REMARK    1  A    between atoms: C_6  and  O_17 
REMARK    2  A    between atoms: C_6  and  C_18 
REMARK    3  A    between atoms: N_8  and  C_10 
REMARK    4  A    between atoms: C_21  and  N_24 
ROOT
ATOM      1  S   UNK d   1      13.049   6.833  12.364  0.00  0.00    -0.094 SA
ATOM      2  C   UNK d   1      13.170   7.512  14.068  0.00  0.00     0.084 C 
ATOM      3  C   UNK d   1      11.995   8.299  14.470  0.00  0.00     0.030 C 
ATOM      4  C   UNK d   1      10.993   8.680  13.459  0.00  0.00     0.129 C 
ATOM      5  N   UNK d   1      10.499   7.685  12.598  0.00  0.00    -0.324 N 
ATOM      6  C   UNK d   1       9.263   7.487  11.905  0.00  0.00     0.181 C 
ATOM      7  C   UNK d   1       9.161   5.978  11.938  0.00  0.00     0.198 C 
ATOM      8  N   UNK d   1      10.550   5.587  11.825  0.00  0.00    -0.323 N 
ATOM      9  C   UNK d   1      11.280   6.529  12.199  0.00  0.00     0.147 C 
ENDROOT
BRANCH   6  10
ATOM     10  O   UNK d   1       9.428   7.842  10.563  0.00  0.00    -0.365 OA
ATOM     11  H   UNK d   1       9.478   7.034  10.027  0.00  0.00     0.213 HD
ENDBRANCH   6  10
BRANCH   6  12
ATOM     12  C   UNK d   1       8.074   8.131  12.495  0.00  0.00    -0.001 A 
ATOM     13  C   UNK d   1       7.591   9.275  11.867  0.00  0.00     0.014 A 
ATOM     14  C   UNK d   1       6.485   9.944  12.340  0.00  0.00     0.037 A 
ATOM     15  C   UNK d   1       5.798   9.513  13.461  0.00  0.00     0.102 A 
ATOM     16  C   UNK d   1       6.271   8.375  14.087  0.00  0.00     0.037 A 
ATOM     17  C   UNK d   1       7.396   7.698  13.605  0.00  0.00     0.014 A 
BRANCH  15  18
ATOM     18  N   UNK d   1       4.662  10.217  13.926  0.00  0.00    -0.116 N 
ATOM     19  O   UNK d   1       4.727  11.264  14.580  0.00  0.00    -0.532 OA
ATOM     20  O   UNK d   1       3.414   9.726  13.640  0.00  0.00    -0.532 OA
ENDBRANCH  15  18
ENDBRANCH   6  12
BRANCH   8  21
ATOM     21  C   UNK d   1      11.009   4.320  11.340  0.00  0.00     0.036 A 
ATOM     22  C   UNK d   1      10.555   3.881  10.104  0.00  0.00     0.031 A 
ATOM     23  C   UNK d   1      10.941   2.650   9.579  0.00  0.00     0.021 A 
ATOM     24  C   UNK d   1      11.793   1.825  10.279  0.00  0.00     0.011 A 
ATOM     25  C   UNK d   1      12.251   2.246  11.504  0.00  0.00     0.021 A 
ATOM     26 Br   UNK d   1      12.309   0.119   9.555  0.00  0.00    -0.051 Br
ATOM     27  C   UNK d   1      11.844   3.487  12.008  0.00  0.00     0.031 A 
ENDBRANCH   8  21
TORSDOF 4
ENDMDL
