MODEL 1
REMARK VINA RESULT:    -6.921      0.000      0.000
REMARK INTER + INTRA:          -8.406
REMARK INTER:                  -7.933
REMARK INTRA:                  -0.473
REMARK UNBOUND:                -0.473
REMARK  3 active torsions:
REMARK  status: ('A' for Active; 'I' for Inactive)
REMARK    1  A    between atoms: C_6  and  O_17 
REMARK    2  A    between atoms: C_6  and  C_18 
REMARK    3  A    between atoms: N_8  and  C_10 
ROOT
ATOM      1  S   UNK d   1      10.152   5.313  13.137  0.00  0.00    -0.094 SA
ATOM      2  C   UNK d   1       8.843   6.609  12.979  0.00  0.00     0.084 C 
ATOM      3  C   UNK d   1       9.421   7.864  12.377  0.00  0.00     0.030 C 
ATOM      4  C   UNK d   1      10.894   8.059  12.667  0.00  0.00     0.129 C 
ATOM      5  N   UNK d   1      11.744   7.175  11.971  0.00  0.00    -0.324 N 
ATOM      6  C   UNK d   1      13.055   7.146  11.299  0.00  0.00     0.181 C 
ATOM      7  C   UNK d   1      12.686   6.210  10.172  0.00  0.00     0.198 C 
ATOM      8  N   UNK d   1      11.891   5.214  10.875  0.00  0.00    -0.323 N 
ATOM      9  C   UNK d   1      11.314   5.794  11.818  0.00  0.00     0.147 C 
ENDROOT
BRANCH   6  10
ATOM     10  O   UNK d   1      13.435   8.358  10.812  0.00  0.00    -0.365 OA
ATOM     11  H   UNK d   1      13.072   8.606   9.925  0.00  0.00     0.213 HD
ENDBRANCH   6  10
BRANCH   6  12
ATOM     12  C   UNK d   1      14.084   6.493  12.175  0.00  0.00    -0.002 A 
ATOM     13  C   UNK d   1      14.938   5.507  11.721  0.00  0.00     0.012 A 
ATOM     14  C   UNK d   1      15.867   4.960  12.597  0.00  0.00     0.001 A 
ATOM     15  C   UNK d   1      15.981   5.364  13.921  0.00  0.00     0.000 A 
ATOM     16  C   UNK d   1      15.138   6.341  14.377  0.00  0.00     0.001 A 
ATOM     17  C   UNK d   1      14.202   6.890  13.501  0.00  0.00     0.012 A 
ENDBRANCH   6  12
BRANCH   8  18
ATOM     18  C   UNK d   1      11.848   3.805  10.561  0.00  0.00     0.036 A 
ATOM     19  C   UNK d   1      12.884   2.937  10.705  0.00  0.00     0.031 A 
ATOM     20  C   UNK d   1      12.814   1.597  10.347  0.00  0.00     0.021 A 
ATOM     21  C   UNK d   1      11.652   1.099   9.819  0.00  0.00     0.011 A 
ATOM     22  C   UNK d   1      10.596   1.977   9.672  0.00  0.00     0.021 A 
ATOM     23 Br   UNK d   1      11.464  -0.738   9.292  0.00  0.00    -0.051 Br
ATOM     24  C   UNK d   1      10.667   3.296  10.025  0.00  0.00     0.031 A 
ENDBRANCH   8  18
TORSDOF 3
ENDMDL
