/Users/jonathanwahrer/Desktop/Msc/3_Semester/Drug_Design_Praktikum/waehrer_HTS_screening/HTS_experiment/out/docking_results/vina_output/2jam/1231_docked.pdbqt
 OpenBabel03162218143D

 37 40  0  0  0  0  0  0  0  0999 V2000
    7.7550    8.1680   12.5490 C   0  0  0  0  0  0  0  0  0  0  0  0
    6.4400    8.4170   12.5870 N   0  0  0  0  0  0  0  0  0  0  0  0
    5.8710    7.4660   11.8250 N   0  0  0  0  0  0  0  0  0  0  0  0
    6.7530    6.6700   11.3370 N   0  0  0  0  0  0  0  0  0  0  0  0
    8.0160    7.0470   11.7540 C   0  0  0  0  0  0  0  0  0  0  0  0
    9.2230    6.3490   11.3930 C   0  0  0  0  0  0  0  0  0  0  0  0
    9.8520    6.7830   10.3490 O   0  0  0  0  0  0  0  0  0  0  0  0
    9.8150    5.2570   12.0210 N   0  0  0  0  0  0  0  0  0  0  0  0
    9.4950    4.7400   12.8570 H   0  0  0  0  0  0  0  0  0  0  0  0
   11.0360    4.7070   11.4960 N   0  0  0  0  0  0  0  0  0  0  0  0
   11.1000    3.5150   11.0510 C   0  0  0  0  0  3  0  0  0  0  0  0
   12.3160    2.9210   10.5110 C   0  0  0  0  0  0  0  0  0  0  0  0
   13.5650    3.3270   10.9230 C   0  0  0  0  0  3  0  0  0  0  0  0
   14.7250    2.7700   10.4260 C   0  0  0  0  0  0  0  0  0  0  0  0
   14.6790    1.7730    9.4860 C   0  0  0  0  0  0  0  0  0  0  0  0
   16.4370    3.3670   11.0290 Br  0  0  0  0  0  0  0  0  0  0  0  0
   13.4220    1.3340    9.0430 C   0  0  0  0  0  0  0  0  0  0  0  0
   15.8570    1.2270    9.0000 O   0  0  0  0  0  1  0  0  0  0  0  0
   12.2810    1.9110    9.5590 C   0  0  0  0  0  3  0  0  0  0  0  0
   13.4480    0.3320    8.1000 O   0  0  0  0  0  0  0  0  0  0  0  0
   12.3270   -0.3440    7.5880 C   0  0  0  0  0  1  0  0  0  0  0  0
    8.8190    8.9090   13.2440 C   0  0  0  0  0  2  0  0  0  0  0  0
    9.1320    8.4820   14.9440 S   0  0  0  0  0  0  0  0  0  0  0  0
    7.8480    9.0550   16.0490 C   0  0  0  0  0  0  0  0  0  0  0  0
    6.7640    7.9290   16.9270 S   0  0  0  0  0  0  0  0  0  0  0  0
    5.6660    9.2160   17.5950 C   0  0  0  0  0  2  0  0  0  0  0  0
    6.4710   10.4320   17.2620 C   0  0  0  0  0  2  0  0  0  0  0  0
    7.5000   10.1950   16.3840 N   0  0  0  0  0  0  0  0  0  0  0  0
    5.6710    9.4040   13.2680 C   0  0  0  0  0  0  0  0  0  0  0  0
    5.8760   10.7370   13.3220 N   0  0  0  0  0  0  0  0  0  0  0  0
    4.9760   11.3370   14.0060 O   0  0  0  0  0  0  0  0  0  0  0  0
    4.1380   10.4460   14.4340 N   0  0  0  0  0  0  0  0  0  0  0  0
    4.5200    9.2080   14.0020 C   0  0  0  0  0  0  0  0  0  0  0  0
    3.8500    7.9880   14.2480 N   0  0  0  0  0  4  0  0  0  0  0  0
    3.9610    7.7560   15.2700 H   0  0  0  0  0  0  0  0  0  0  0  0
    4.1690    7.1940   13.6640 H   0  0  0  0  0  0  0  0  0  0  0  0
    2.8150    8.1310   14.0940 H   0  0  0  0  0  0  0  0  0  0  0  0
  1  2  1  0  0  0  0
  1 22  1  0  0  0  0
  2 29  1  0  0  0  0
  3  2  1  0  0  0  0
  4  5  1  0  0  0  0
  4  3  2  0  0  0  0
  5  1  2  0  0  0  0
  6  5  1  0  0  0  0
  6  8  1  0  0  0  0
  7  6  2  0  0  0  0
  8  9  1  0  0  0  0
 10  8  1  0  0  0  0
 11 10  2  0  0  0  0
 12 13  1  0  0  0  0
 12 11  1  0  0  0  0
 14 13  2  0  0  0  0
 14 16  1  0  0  0  0
 15 14  1  0  0  0  0
 17 15  2  0  0  0  0
 17 19  1  0  0  0  0
 18 15  1  0  0  0  0
 19 12  2  0  0  0  0
 20 17  1  0  0  0  0
 21 20  1  0  0  0  0
 22 23  1  0  0  0  0
 23 24  1  0  0  0  0
 24 28  2  0  0  0  0
 24 25  1  0  0  0  0
 25 26  1  0  0  0  0
 27 26  1  0  0  0  0
 28 27  1  0  0  0  0
 29 30  2  0  0  0  0
 29 33  1  0  0  0  0
 30 31  1  0  0  0  0
 31 32  1  0  0  0  0
 33 34  1  0  0  0  0
 33 32  2  0  0  0  0
 34 35  1  0  0  0  0
 36 34  1  0  0  0  0
 37 34  1  0  0  0  0
M  END
>  <Pose>
1

>  <Score>
-8.841

$$$$
