MODEL 1
REMARK VINA RESULT:    -8.841      0.000      0.000
REMARK INTER + INTRA:         -14.921
REMARK INTER:                 -13.235
REMARK INTRA:                  -1.686
REMARK UNBOUND:                -1.686
REMARK  9 active torsions:
REMARK  status: ('A' for Active; 'I' for Inactive)
REMARK    1  A    between atoms: C_5  and  S_6 
REMARK    2  A    between atoms: S_6  and  C_7 
REMARK    3  A    between atoms: C_7  and  C_8 
REMARK    4  A    between atoms: N_9  and  C_28 
REMARK    5  A    between atoms: C_12  and  C_13 
REMARK       I    between atoms: C_13  and  N_15 
REMARK    6  A    between atoms: N_15  and  N_16 
REMARK    7  A    between atoms: C_17  and  C_18 
REMARK    8  A    between atoms: C_22  and  O_24 
REMARK    9  A    between atoms: C_32  and  N_33 
ROOT
ATOM      1  C   UNK d   1       7.755   8.168  12.549  0.00  0.00     0.086 A 
ATOM      2  N   UNK d   1       6.440   8.417  12.587  0.00  0.00    -0.192 N 
ATOM      3  N   UNK d   1       5.871   7.466  11.825  0.00  0.00    -0.058 NA
ATOM      4  N   UNK d   1       6.753   6.670  11.337  0.00  0.00    -0.124 NA
ATOM      5  C   UNK d   1       8.016   7.047  11.754  0.00  0.00     0.175 A 
ENDROOT
BRANCH   5   6
ATOM      6  C   UNK d   1       9.223   6.349  11.393  0.00  0.00     0.294 C 
ATOM      7  O   UNK d   1       9.852   6.783  10.349  0.00  0.00    -0.264 OA
ATOM      8  N   UNK d   1       9.815   5.257  12.021  0.00  0.00    -0.242 N 
ATOM      9  H   UNK d   1       9.495   4.740  12.857  0.00  0.00     0.192 HD
BRANCH   8  10
ATOM     10  N   UNK d   1      11.036   4.707  11.496  0.00  0.00    -0.183 NA
ATOM     11  C   UNK d   1      11.100   3.515  11.051  0.00  0.00     0.150 C 
BRANCH  11  12
ATOM     12  C   UNK d   1      12.316   2.921  10.511  0.00  0.00    -0.013 A 
ATOM     13  C   UNK d   1      13.565   3.327  10.923  0.00  0.00     0.035 A 
ATOM     14  C   UNK d   1      14.725   2.770  10.426  0.00  0.00     0.051 A 
ATOM     15  C   UNK d   1      14.679   1.773   9.486  0.00  0.00     0.157 A 
ATOM     16 Br   UNK d   1      16.437   3.367  11.029  0.00  0.00    -0.048 Br
ATOM     17  C   UNK d   1      13.422   1.334   9.043  0.00  0.00     0.106 A 
ATOM     18  O   UNK d   1      15.857   1.227   9.000  0.00  0.00    -0.188 OA
ATOM     19  C   UNK d   1      12.281   1.911   9.559  0.00  0.00     0.052 A 
BRANCH  17  20
ATOM     20  O   UNK d   1      13.448   0.332   8.100  0.00  0.00    -0.353 OA
ATOM     21  C   UNK d   1      12.327  -0.344   7.588  0.00  0.00     0.210 C 
ENDBRANCH  17  20
ENDBRANCH  11  12
ENDBRANCH   8  10
ENDBRANCH   5   6
BRANCH   1  22
ATOM     22  C   UNK d   1       8.819   8.909  13.244  0.00  0.00     0.143 C 
BRANCH  22  23
ATOM     23  S   UNK d   1       9.132   8.482  14.944  0.00  0.00    -0.098 SA
BRANCH  23  24
ATOM     24  C   UNK d   1       7.848   9.055  16.049  0.00  0.00     0.125 C 
ATOM     25  S   UNK d   1       6.764   7.929  16.927  0.00  0.00    -0.102 SA
ATOM     26  C   UNK d   1       5.666   9.216  17.595  0.00  0.00     0.103 C 
ATOM     27  C   UNK d   1       6.471  10.432  17.262  0.00  0.00     0.161 C 
ATOM     28  N   UNK d   1       7.500  10.195  16.384  0.00  0.00    -0.275 NA
ENDBRANCH  23  24
ENDBRANCH  22  23
ENDBRANCH   1  22
BRANCH   2  29
ATOM     29  C   UNK d   1       5.671   9.404  13.268  0.00  0.00     0.237 A 
ATOM     30  N   UNK d   1       5.876  10.737  13.322  0.00  0.00    -0.081 NA
ATOM     31  O   UNK d   1       4.976  11.337  14.006  0.00  0.00    -0.103 OA
ATOM     32  N   UNK d   1       4.138  10.446  14.434  0.00  0.00    -0.075 NA
ATOM     33  C   UNK d   1       4.520   9.208  14.002  0.00  0.00     0.300 A 
BRANCH  33  34
ATOM     34  N   UNK d   1       3.850   7.988  14.248  0.00  0.00    -0.026 N 
ATOM     35  H   UNK d   1       3.961   7.756  15.270  0.00  0.00     0.283 HD
ATOM     36  H   UNK d   1       4.169   7.194  13.664  0.00  0.00     0.283 HD
ATOM     37  H   UNK d   1       2.815   8.131  14.094  0.00  0.00     0.283 HD
ENDBRANCH  33  34
ENDBRANCH   2  29
TORSDOF 9
ENDMDL
