/Users/jonathanwahrer/Desktop/Msc/3_Semester/Drug_Design_Praktikum/waehrer_HTS_screening/HTS_experiment/out/docking_results/vina_output/2jam/1236_docked.pdbqt
 OpenBabel03162218143D

 30 34  0  0  1  0  0  0  0  0999 V2000
    7.9880    9.1270   14.7860 C   0  0  2  0  0  3  0  0  0  0  0  0
    7.4800    9.3230   16.1720 C   0  0  1  0  0  3  0  0  0  0  0  0
    6.8710   10.6800   16.2360 C   0  0  0  0  0  0  0  0  0  0  0  0
    5.5440   10.8310   15.6930 N   0  0  0  0  0  0  0  0  0  0  0  0
    7.5140   11.6290   16.7480 O   0  0  0  0  0  0  0  0  0  0  0  0
    4.7460    9.8590   15.5590 C   0  0  0  0  0  0  0  0  0  0  0  0
    3.0830    9.7260   14.9360 S   0  0  0  0  0  0  0  0  0  0  0  0
    5.1050    8.5570   15.9630 N   0  0  0  0  0  0  0  0  0  0  0  0
    2.7280    8.1420   15.8380 C   0  0  0  0  0  2  0  0  0  0  0  0
    4.1100    7.5500   15.7250 C   0  0  0  0  0  2  0  0  0  0  0  0
    6.4200    8.3580   16.5440 C   0  0  0  0  0  0  0  0  0  0  0  0
    6.5740    7.3860   17.3230 O   0  0  0  0  0  0  0  0  0  0  0  0
    7.6030    7.8020   14.1760 C   0  0  2  0  0  3  0  0  0  0  0  0
    8.6510    6.7710   14.2540 C   0  0  0  0  0  0  0  0  0  0  0  0
    8.8720    6.1680   15.3620 O   0  0  0  0  0  0  0  0  0  0  0  0
    9.4370    6.4380   13.0820 N   0  0  0  0  0  0  0  0  0  0  0  0
   10.6330    5.6420   13.0510 C   0  0  0  0  0  2  0  0  0  0  0  0
    8.9990    6.9060   11.8240 C   0  0  0  0  0  0  0  0  0  0  0  0
   11.5430    6.0890   11.9340 C   0  0  0  0  0  2  0  0  0  0  0  0
   10.2250    6.3290   10.6520 S   0  0  0  0  0  0  0  0  0  0  0  0
    7.9420    7.6060   11.6740 N   0  0  0  0  0  0  0  0  0  0  0  0
    7.1120    7.9750   12.7860 C   0  0  0  0  0  0  0  0  0  0  0  0
    5.9720    8.4420   12.5390 O   0  0  0  0  0  0  0  0  0  0  0  0
    9.4510    9.3460   14.7730 C   0  0  0  0  0  0  0  0  0  0  0  0
   10.2170    9.1120   15.9080 C   0  0  0  0  0  3  0  0  0  0  0  0
   11.5820    9.3090   15.9060 C   0  0  0  0  0  0  0  0  0  0  0  0
   12.2210    9.7450   14.7670 C   0  0  0  0  0  3  0  0  0  0  0  0
   12.6420    8.9890   17.4610 Br  0  0  0  0  0  0  0  0  0  0  0  0
   11.4680    9.9740   13.6550 C   0  0  0  0  0  3  0  0  0  0  0  0
   10.1020    9.7820   13.6420 C   0  0  0  0  0  3  0  0  0  0  0  0
  1 24  1  1  0  0  0
  2  1  1  6  0  0  0
  2  3  1  0  0  0  0
  2 11  1  0  0  0  0
  3  5  2  0  0  0  0
  4  3  1  0  0  0  0
  6  4  2  0  0  0  0
  6  8  1  0  0  0  0
  7  6  1  0  0  0  0
  7  9  1  0  0  0  0
  8 11  1  0  0  0  0
 10  9  1  0  0  0  0
 10  8  1  0  0  0  0
 11 12  2  0  0  0  0
 13 14  1  0  0  0  0
 13  1  1  6  0  0  0
 14 15  2  0  0  0  0
 16 14  1  0  0  0  0
 17 16  1  0  0  0  0
 18 16  1  0  0  0  0
 19 17  1  0  0  0  0
 20 18  1  0  0  0  0
 20 19  1  0  0  0  0
 21 18  2  0  0  0  0
 21 22  1  0  0  0  0
 22 13  1  0  0  0  0
 23 22  2  0  0  0  0
 24 25  1  0  0  0  0
 26 25  2  0  0  0  0
 26 28  1  0  0  0  0
 27 26  1  0  0  0  0
 29 27  2  0  0  0  0
 30 29  1  0  0  0  0
 30 24  2  0  0  0  0
M  END
>  <Pose>
1

>  <Score>
-6.978

$$$$
