MODEL 1
REMARK VINA RESULT:    -6.978      0.000      0.000
REMARK INTER + INTRA:          -9.135
REMARK INTER:                  -8.202
REMARK INTRA:                  -0.933
REMARK UNBOUND:                -0.933
REMARK  3 active torsions:
REMARK  status: ('A' for Active; 'I' for Inactive)
REMARK    1  A    between atoms: C_9  and  C_12 
REMARK    2  A    between atoms: C_12  and  C_13 
REMARK    3  A    between atoms: C_12  and  C_24 
ROOT
ATOM      1  C   UNK d   1       7.988   9.127  14.786  0.00  0.00     0.063 C 
ENDROOT
BRANCH   1   2
ATOM      2  C   UNK d   1       7.480   9.323  16.172  0.00  0.00     0.182 C 
ATOM      3  C   UNK d   1       6.871  10.680  16.236  0.00  0.00     0.259 C 
ATOM      4  N   UNK d   1       5.544  10.831  15.693  0.00  0.00    -0.188 NA
ATOM      5  O   UNK d   1       7.514  11.629  16.748  0.00  0.00    -0.270 OA
ATOM      6  C   UNK d   1       4.746   9.859  15.559  0.00  0.00     0.174 C 
ATOM      7  S   UNK d   1       3.083   9.726  14.936  0.00  0.00    -0.090 SA
ATOM      8  N   UNK d   1       5.105   8.557  15.963  0.00  0.00    -0.295 N 
ATOM      9  C   UNK d   1       2.728   8.142  15.838  0.00  0.00     0.103 C 
ATOM     10  C   UNK d   1       4.110   7.550  15.725  0.00  0.00     0.144 C 
ATOM     11  C   UNK d   1       6.420   8.358  16.544  0.00  0.00     0.239 C 
ATOM     12  O   UNK d   1       6.574   7.386  17.323  0.00  0.00    -0.272 OA
ENDBRANCH   1   2
BRANCH   1  13
ATOM     13  C   UNK d   1       7.603   7.802  14.176  0.00  0.00     0.182 C 
ATOM     14  C   UNK d   1       8.651   6.771  14.254  0.00  0.00     0.239 C 
ATOM     15  O   UNK d   1       8.872   6.168  15.362  0.00  0.00    -0.272 OA
ATOM     16  N   UNK d   1       9.437   6.438  13.082  0.00  0.00    -0.295 N 
ATOM     17  C   UNK d   1      10.633   5.642  13.051  0.00  0.00     0.144 C 
ATOM     18  C   UNK d   1       8.999   6.906  11.824  0.00  0.00     0.174 C 
ATOM     19  C   UNK d   1      11.543   6.089  11.934  0.00  0.00     0.103 C 
ATOM     20  S   UNK d   1      10.225   6.329  10.652  0.00  0.00    -0.090 SA
ATOM     21  N   UNK d   1       7.942   7.606  11.674  0.00  0.00    -0.188 NA
ATOM     22  C   UNK d   1       7.112   7.975  12.786  0.00  0.00     0.259 C 
ATOM     23  O   UNK d   1       5.972   8.442  12.539  0.00  0.00    -0.270 OA
ENDBRANCH   1  13
BRANCH   1  24
ATOM     24  C   UNK d   1       9.451   9.346  14.773  0.00  0.00    -0.050 A 
ATOM     25  C   UNK d   1      10.217   9.112  15.908  0.00  0.00     0.026 A 
ATOM     26  C   UNK d   1      11.582   9.309  15.906  0.00  0.00     0.011 A 
ATOM     27  C   UNK d   1      12.221   9.745  14.767  0.00  0.00     0.019 A 
ATOM     28 Br   UNK d   1      12.642   8.989  17.461  0.00  0.00    -0.051 Br
ATOM     29  C   UNK d   1      11.468   9.974  13.655  0.00  0.00     0.002 A 
ATOM     30  C   UNK d   1      10.102   9.782  13.642  0.00  0.00     0.007 A 
ENDBRANCH   1  24
TORSDOF 3
ENDMDL
