MODEL 1
REMARK VINA RESULT:    -7.010      0.000      0.000
REMARK INTER + INTRA:          -9.865
REMARK INTER:                  -8.240
REMARK INTRA:                  -1.625
REMARK UNBOUND:                -1.625
REMARK  3 active torsions:
REMARK  status: ('A' for Active; 'I' for Inactive)
REMARK    1  A    between atoms: C_9  and  C_12 
REMARK    2  A    between atoms: C_12  and  C_13 
REMARK    3  A    between atoms: C_12  and  C_24 
ROOT
ATOM      1  C   UNK d   1       5.785   9.274  16.502  0.00  0.00     0.063 C 
ENDROOT
BRANCH   1   2
ATOM      2  C   UNK d   1       4.980   8.887  15.335  0.00  0.00     0.182 C 
ATOM      3  C   UNK d   1       4.396   9.839  14.433  0.00  0.00     0.259 C 
ATOM      4  N   UNK d   1       5.185  10.225  13.274  0.00  0.00    -0.188 NA
ATOM      5  O   UNK d   1       3.278  10.409  14.478  0.00  0.00    -0.270 OA
ATOM      6  C   UNK d   1       6.085   9.426  12.795  0.00  0.00     0.174 C 
ATOM      7  S   UNK d   1       7.214   9.604  11.389  0.00  0.00    -0.090 SA
ATOM      8  N   UNK d   1       6.410   8.172  13.352  0.00  0.00    -0.295 N 
ATOM      9  C   UNK d   1       8.382   8.299  11.973  0.00  0.00     0.103 C 
ATOM     10  C   UNK d   1       7.406   7.419  12.688  0.00  0.00     0.144 C 
ATOM     11  C   UNK d   1       5.663   7.802  14.534  0.00  0.00     0.239 C 
ATOM     12  O   UNK d   1       5.590   6.608  14.875  0.00  0.00    -0.272 OA
ENDBRANCH   1   2
BRANCH   1  13
ATOM     13  C   UNK d   1       7.224   8.991  16.583  0.00  0.00     0.182 C 
ATOM     14  C   UNK d   1       7.958  10.327  16.477  0.00  0.00     0.239 C 
ATOM     15  O   UNK d   1       8.104  10.870  15.358  0.00  0.00    -0.272 OA
ATOM     16  N   UNK d   1       8.481  10.964  17.666  0.00  0.00    -0.295 N 
ATOM     17  C   UNK d   1       8.883  12.320  17.815  0.00  0.00     0.144 C 
ATOM     18  C   UNK d   1       8.633  10.152  18.815  0.00  0.00     0.174 C 
ATOM     19  C   UNK d   1       8.688  12.799  19.232  0.00  0.00     0.103 C 
ATOM     20  S   UNK d   1       9.253  11.248  20.079  0.00  0.00    -0.090 SA
ATOM     21  N   UNK d   1       8.343   8.912  18.858  0.00  0.00    -0.188 NA
ATOM     22  C   UNK d   1       7.821   8.253  17.665  0.00  0.00     0.259 C 
ATOM     23  O   UNK d   1       7.938   7.015  17.655  0.00  0.00    -0.270 OA
ENDBRANCH   1  13
BRANCH   1  24
ATOM     24  C   UNK d   1       5.053   9.051  17.808  0.00  0.00    -0.051 A 
ATOM     25  C   UNK d   1       4.478   7.837  18.098  0.00  0.00     0.009 A 
ATOM     26  C   UNK d   1       3.818   7.675  19.290  0.00  0.00     0.019 A 
ATOM     27  C   UNK d   1       3.701   8.667  20.212  0.00  0.00     0.011 A 
ATOM     28  C   UNK d   1       4.265   9.891  19.951  0.00  0.00     0.019 A 
ATOM     29 Br   UNK d   1       2.776   8.431  21.876  0.00  0.00    -0.051 Br
ATOM     30  C   UNK d   1       4.936  10.056  18.739  0.00  0.00     0.009 A 
ENDBRANCH   1  24
TORSDOF 3
ENDMDL
