MODEL 1
REMARK VINA RESULT:    -7.242      0.000      0.000
REMARK INTER + INTRA:          -8.176
REMARK INTER:                  -8.089
REMARK INTRA:                  -0.088
REMARK UNBOUND:                -0.088
REMARK  2 active torsions:
REMARK  status: ('A' for Active; 'I' for Inactive)
REMARK    1  A    between atoms: C_4  and  C_7 
REMARK    2  A    between atoms: C_14  and  C_15 
ROOT
ATOM      1  S   UNK d   1      13.192   1.552  10.364  0.00  0.00    -0.025 SA
ATOM      2  C   UNK d   1      13.289   3.082  11.138  0.00  0.00     0.219 A 
ATOM      3  N   UNK d   1      12.034   3.512  11.021  0.00  0.00    -0.184 N 
ATOM      4  C   UNK d   1      12.046   4.747  11.629  0.00  0.00     0.205 A 
ATOM      5  N   UNK d   1      13.273   5.010  12.076  0.00  0.00    -0.125 NA
ATOM      6  N   UNK d   1      14.071   4.001  11.791  0.00  0.00    -0.120 NA
ATOM      7  N   UNK d   1      11.179   2.774  10.438  0.00  0.00    -0.154 NA
ATOM      8  C   UNK d   1      11.518   1.597   9.950  0.00  0.00     0.153 A 
ENDROOT
BRANCH   8   9
ATOM      9  C   UNK d   1      10.709   0.594   9.249  0.00  0.00     0.133 A 
ATOM     10  N   UNK d   1       9.404   0.353   9.425  0.00  0.00    -0.171 NA
ATOM     11  N   UNK d   1       9.024  -0.638   8.602  0.00  0.00    -0.287 N 
ATOM     12  C   UNK d   1      10.093  -1.042   7.888  0.00  0.00     0.131 A 
ATOM     13  H   UNK d   1       8.052  -1.019   8.541  0.00  0.00     0.188 HD
ATOM     14  C   UNK d   1      11.169  -0.253   8.303  0.00  0.00     0.061 A 
ATOM     15 Br   UNK d   1      12.916  -0.413   7.611  0.00  0.00    -0.047 Br
ENDBRANCH   8   9
BRANCH   4  16
ATOM     16  C   UNK d   1      10.891   5.656  11.773  0.00  0.00     0.123 A 
ATOM     17  N   UNK d   1      10.131   5.644  12.883  0.00  0.00    -0.254 NA
ATOM     18  C   UNK d   1       9.076   6.481  13.002  0.00  0.00     0.136 A 
ATOM     19  C   UNK d   1       8.767   7.353  11.995  0.00  0.00     0.135 A 
ATOM     20  N   UNK d   1       9.531   7.354  10.901  0.00  0.00    -0.269 NA
ATOM     21  C   UNK d   1      10.590   6.529  10.755  0.00  0.00     0.151 A 
ENDBRANCH   4  16
TORSDOF 2
ENDMDL
