MODEL 1
REMARK VINA RESULT:    -7.794      0.000      0.000
REMARK INTER + INTRA:          -9.437
REMARK INTER:                  -9.161
REMARK INTRA:                  -0.275
REMARK UNBOUND:                -0.275
REMARK  3 active torsions:
REMARK  status: ('A' for Active; 'I' for Inactive)
REMARK    1  A    between atoms: C_6  and  C_13 
REMARK    2  A    between atoms: C_13  and  C_14 
REMARK    3  A    between atoms: C_13  and  C_26 
ROOT
ATOM      1  C   UNK d   1       9.560   7.468  12.570  0.00  0.00     0.063 C 
ENDROOT
BRANCH   1   2
ATOM      2  C   UNK d   1      10.414   8.669  12.862  0.00  0.00     0.184 C 
ATOM      3  C   UNK d   1      11.743   8.181  13.435  0.00  0.00     0.259 C 
ATOM      4  N   UNK d   1      11.680   7.523  14.721  0.00  0.00    -0.186 NA
ATOM      5  O   UNK d   1      12.765   8.376  12.779  0.00  0.00    -0.270 OA
ATOM      6  C   UNK d   1      10.750   7.846  15.560  0.00  0.00     0.200 A 
ATOM      7  S   UNK d   1      10.391   7.240  17.201  0.00  0.00    -0.032 SA
ATOM      8  N   UNK d   1       9.778   8.835  15.295  0.00  0.00    -0.197 N 
ATOM      9  C   UNK d   1       8.983   8.307  17.472  0.00  0.00     0.083 A 
ATOM     10  N   UNK d   1       8.867   9.069  16.289  0.00  0.00    -0.283 N 
ATOM     11  C   UNK d   1       8.230   8.346  18.567  0.00  0.00     0.052 C 
ATOM     12  H   UNK d   1       8.078   9.804  16.220  0.00  0.00     0.188 HD
ATOM     13  C   UNK d   1       9.880   9.488  13.996  0.00  0.00     0.259 C 
ATOM     14  O   UNK d   1       9.527  10.696  13.872  0.00  0.00    -0.270 OA
ENDBRANCH   1   2
BRANCH   1  15
ATOM     15  C   UNK d   1       8.284   7.694  11.863  0.00  0.00     0.184 C 
ATOM     16  C   UNK d   1       7.432   8.780  12.323  0.00  0.00     0.259 C 
ATOM     17  O   UNK d   1       7.401   9.884  11.680  0.00  0.00    -0.270 OA
ATOM     18  N   UNK d   1       6.600   8.647  13.505  0.00  0.00    -0.197 N 
ATOM     19  N   UNK d   1       6.115   9.634  14.303  0.00  0.00    -0.283 N 
ATOM     20  C   UNK d   1       6.259   7.323  13.847  0.00  0.00     0.200 A 
ATOM     21  C   UNK d   1       5.312   9.245  15.403  0.00  0.00     0.083 A 
ATOM     22  H   UNK d   1       6.292  10.688  14.161  0.00  0.00     0.188 HD
ATOM     23  C   UNK d   1       4.722   9.987  16.315  0.00  0.00     0.052 C 
ATOM     24  S   UNK d   1       5.251   7.458  15.312  0.00  0.00    -0.032 SA
ATOM     25  N   UNK d   1       6.638   6.289  13.185  0.00  0.00    -0.186 NA
ATOM     26  C   UNK d   1       7.463   6.425  12.016  0.00  0.00     0.259 C 
ATOM     27  O   UNK d   1       7.551   5.575  11.118  0.00  0.00    -0.270 OA
ENDBRANCH   1  15
BRANCH   1  28
ATOM     28  C   UNK d   1      10.341   6.398  11.886  0.00  0.00    -0.051 A 
ATOM     29  C   UNK d   1      10.781   6.553  10.591  0.00  0.00     0.009 A 
ATOM     30  C   UNK d   1      11.502   5.570   9.955  0.00  0.00     0.019 A 
ATOM     31  C   UNK d   1      11.793   4.401  10.622  0.00  0.00     0.011 A 
ATOM     32  C   UNK d   1      11.365   4.203  11.937  0.00  0.00     0.019 A 
ATOM     33 Br   UNK d   1      12.793   3.015   9.765  0.00  0.00    -0.051 Br
ATOM     34  C   UNK d   1      10.645   5.214  12.540  0.00  0.00     0.009 A 
ENDBRANCH   1  28
TORSDOF 3
ENDMDL
