MODEL 1
REMARK VINA RESULT:    -8.773      0.000      0.000
REMARK INTER + INTRA:         -12.090
REMARK INTER:                 -11.337
REMARK INTRA:                  -0.753
REMARK UNBOUND:                -0.753
REMARK  5 active torsions:
REMARK  status: ('A' for Active; 'I' for Inactive)
REMARK    1  A    between atoms: C_7  and  C_17 
REMARK    2  A    between atoms: C_10  and  N_11 
REMARK       I    between atoms: C_17  and  N_19 
REMARK    3  A    between atoms: N_19  and  C_20 
REMARK    4  A    between atoms: C_20  and  C_21 
REMARK    5  A    between atoms: C_22  and  O_28 
ROOT
ATOM      1  S   UNK d   1      13.524   2.042  10.285  0.00  0.00    -0.010 SA
ATOM      2  C   UNK d   1      13.449   3.598  10.996  0.00  0.00     0.201 A 
ATOM      3  N   UNK d   1      14.362   4.413  11.612  0.00  0.00    -0.183 NA
ATOM      4  C   UNK d   1      14.016   5.632  12.056  0.00  0.00     0.271 A 
ATOM      5  O   UNK d   1      14.776   6.439  12.624  0.00  0.00    -0.266 OA
ATOM      6  C   UNK d   1      12.702   5.979  11.845  0.00  0.00     0.114 A 
ATOM      7  C   UNK d   1      11.787   5.174  11.233  0.00  0.00     0.134 A 
ATOM      8  N   UNK d   1      12.172   3.933  10.788  0.00  0.00    -0.201 N 
ATOM      9  N   UNK d   1      11.428   3.094  10.179  0.00  0.00    -0.139 NA
ATOM     10  C   UNK d   1      11.879   1.944   9.766  0.00  0.00     0.192 A 
ENDROOT
BRANCH   7  11
ATOM     11  C   UNK d   1      10.429   5.688  11.070  0.00  0.00     0.270 C 
ATOM     12  O   UNK d   1      10.055   6.121   9.918  0.00  0.00    -0.266 OA
ATOM     13  N   UNK d   1       9.467   5.758  12.098  0.00  0.00    -0.351 N 
ATOM     14  H   UNK d   1       9.685   5.452  13.065  0.00  0.00     0.163 HD
BRANCH  13  15
ATOM     15  C   UNK d   1       8.136   6.279  11.810  0.00  0.00     0.164 C 
BRANCH  15  16
ATOM     16  C   UNK d   1       8.036   7.707  12.201  0.00  0.00    -0.006 A 
ATOM     17  C   UNK d   1       6.987   8.469  11.710  0.00  0.00     0.076 A 
ATOM     18  C   UNK d   1       6.908   9.801  12.032  0.00  0.00     0.039 A 
ATOM     19  C   UNK d   1       7.839  10.416  12.828  0.00  0.00     0.022 A 
ATOM     20  C   UNK d   1       8.888   9.663  13.322  0.00  0.00     0.011 A 
ATOM     21  C   UNK d   1       8.963   8.318  12.996  0.00  0.00     0.030 A 
ATOM     22 Br   UNK d   1      10.223  10.440  14.443  0.00  0.00    -0.051 Br
BRANCH  17  23
ATOM     23  O   UNK d   1       6.058   7.841  10.910  0.00  0.00    -0.355 OA
ATOM     24  C   UNK d   1       4.735   8.374  10.865  0.00  0.00     0.210 C 
ENDBRANCH  17  23
ENDBRANCH  15  16
ENDBRANCH  13  15
ENDBRANCH   7  11
BRANCH  10  25
ATOM     25  N   UNK d   1      11.210   0.880   9.049  0.00  0.00    -0.355 N 
ATOM     26  C   UNK d   1       9.884   0.517   9.374  0.00  0.00     0.151 C 
ATOM     27  C   UNK d   1       9.449  -0.673   8.552  0.00  0.00     0.187 C 
ATOM     28  O   UNK d   1      10.509  -1.577   8.440  0.00  0.00    -0.388 OA
ATOM     29  C   UNK d   1      11.486  -1.072   7.573  0.00  0.00     0.187 C 
ATOM     30  C   UNK d   1      11.989   0.263   8.029  0.00  0.00     0.151 C 
ENDBRANCH  10  25
TORSDOF 5
ENDMDL
