MODEL 1
REMARK VINA RESULT:    -7.988      0.000      0.000
REMARK INTER + INTRA:         -10.452
REMARK INTER:                  -9.855
REMARK INTRA:                  -0.596
REMARK UNBOUND:                -0.596
REMARK  4 active torsions:
REMARK  status: ('A' for Active; 'I' for Inactive)
REMARK    1  A    between atoms: N_3  and  C_15 
REMARK    2  A    between atoms: C_7  and  C_9 
REMARK    3  A    between atoms: C_15  and  C_16 
REMARK    4  A    between atoms: C_16  and  C_18 
ROOT
ATOM      1  S   UNK d   1      10.377   6.961  14.300  0.00  0.00    -0.063 SA
ATOM      2  C   UNK d   1       9.740   6.151  12.839  0.00  0.00     0.149 A 
ATOM      3  N   UNK d   1      10.083   5.358  11.876  0.00  0.00    -0.352 N 
ATOM      4  C   UNK d   1       9.004   5.108  10.996  0.00  0.00     0.145 A 
ATOM      5  C   UNK d   1       7.865   5.890  11.563  0.00  0.00     0.151 A 
ATOM      6  N   UNK d   1       8.394   6.555  12.777  0.00  0.00    -0.325 N 
ATOM      7  C   UNK d   1       7.955   7.410  13.795  0.00  0.00     0.053 A 
ATOM      8  C   UNK d   1       8.831   7.759  14.709  0.00  0.00     0.083 A 
ENDROOT
BRANCH   3   9
ATOM      9  C   UNK d   1      11.448   4.811  11.782  0.00  0.00     0.208 C 
BRANCH   9  10
ATOM     10  C   UNK d   1      11.350   3.362  12.049  0.00  0.00     0.177 C 
ATOM     11  O   UNK d   1      11.054   2.929  13.181  0.00  0.00    -0.291 OA
BRANCH  10  12
ATOM     12  C   UNK d   1      11.600   2.404  10.981  0.00  0.00     0.011 A 
ATOM     13  C   UNK d   1      10.558   1.926  10.185  0.00  0.00     0.016 A 
ATOM     14  C   UNK d   1      10.766   1.011   9.170  0.00  0.00     0.020 A 
ATOM     15  C   UNK d   1      12.048   0.576   8.961  0.00  0.00     0.011 A 
ATOM     16  C   UNK d   1      13.114   1.020   9.721  0.00  0.00     0.020 A 
ATOM     17 Br   UNK d   1      12.327  -0.693   7.550  0.00  0.00    -0.051 Br
ATOM     18  C   UNK d   1      12.878   1.945  10.740  0.00  0.00     0.016 A 
ENDBRANCH  10  12
ENDBRANCH   9  10
ENDBRANCH   3   9
BRANCH   7  19
ATOM     19  C   UNK d   1       6.556   7.938  13.914  0.00  0.00    -0.009 A 
ATOM     20  C   UNK d   1       5.699   7.488  14.893  0.00  0.00     0.014 A 
ATOM     21  C   UNK d   1       4.404   7.936  15.045  0.00  0.00     0.001 A 
ATOM     22  C   UNK d   1       3.900   8.887  14.188  0.00  0.00     0.000 A 
ATOM     23  C   UNK d   1       4.731   9.349  13.207  0.00  0.00     0.001 A 
ATOM     24  C   UNK d   1       6.052   8.885  13.061  0.00  0.00     0.014 A 
ENDBRANCH   7  19
TORSDOF 4
ENDMDL
