MODEL 1
REMARK VINA RESULT:    -9.360      0.000      0.000
REMARK INTER + INTRA:         -10.889
REMARK INTER:                 -10.455
REMARK INTRA:                  -0.434
REMARK UNBOUND:                -0.434
REMARK  2 active torsions:
REMARK  status: ('A' for Active; 'I' for Inactive)
REMARK    1  A    between atoms: C_3  and  C_8 
REMARK       I    between atoms: N_12  and  C_14 
REMARK    2  A    between atoms: C_14  and  C_16 
ROOT
ATOM      1  C   UNK d   1      12.987   2.440   9.938  0.00  0.00     0.273 C 
ATOM      2  N   UNK d   1      13.228   2.056  11.323  0.00  0.00     0.095 NA
ATOM      3  C   UNK d   1      13.028   2.986  12.332  0.00  0.00     0.290 C 
ATOM      4  C   UNK d   1      12.055   4.125  12.111  0.00  0.00     0.155 C 
ATOM      5  N   UNK d   1      11.904   4.482  10.768  0.00  0.00    -0.355 N 
ATOM      6  C   UNK d   1      12.767   3.876   9.800  0.00  0.00     0.165 C 
ATOM      7  C   UNK d   1      10.961   5.404  10.245  0.00  0.00     0.189 C 
ATOM      8  O   UNK d   1      11.166   5.644   8.971  0.00  0.00    -0.171 OA
ATOM      9  H   UNK d   1      12.800   1.129  11.522  0.00  0.00     0.316 HD
ENDROOT
BRANCH   7  10
ATOM     10  C   UNK d   1       9.860   6.097  10.810  0.00  0.00     0.038 A 
ATOM     11  C   UNK d   1       8.661   5.367  10.993  0.00  0.00     0.135 A 
ATOM     12  N   UNK d   1       7.622   5.898  11.637  0.00  0.00    -0.234 NA
ATOM     13  C   UNK d   1       7.660   7.135  12.136  0.00  0.00     0.192 A 
ATOM     14  C   UNK d   1       8.792   7.889  11.990  0.00  0.00     0.089 A 
ATOM     15  O   UNK d   1       6.557   7.677  12.806  0.00  0.00    -0.323 OA
ATOM     16  C   UNK d   1       9.900   7.371  11.323  0.00  0.00     0.051 A 
ATOM     17  N   UNK d   1       8.857   9.204  12.551  0.00  0.00    -0.322 N 
ATOM     18  C   UNK d   1       7.720   9.699  13.260  0.00  0.00     0.246 C 
ATOM     19  H   UNK d   1       9.699   9.792  12.462  0.00  0.00     0.169 HD
ATOM     20  O   UNK d   1       7.767  10.589  14.134  0.00  0.00    -0.271 OA
ATOM     21  C   UNK d   1       6.393   9.100  12.920  0.00  0.00     0.280 C 
ENDBRANCH   7  10
BRANCH   1  22
ATOM     22  C   UNK d   1      11.817   1.594   9.512  0.00  0.00    -0.002 A 
ATOM     23  C   UNK d   1      12.066   0.548   8.609  0.00  0.00     0.042 A 
ATOM     24 Cl   UNK d   1      13.705   0.432   7.937  0.00  0.00    -0.084 Cl
ATOM     25  C   UNK d   1      11.106  -0.366   8.231  0.00  0.00     0.024 A 
ATOM     26  C   UNK d   1       9.825  -0.260   8.763  0.00  0.00     0.002 A 
ATOM     27  C   UNK d   1       9.582   0.771   9.654  0.00  0.00     0.001 A 
ATOM     28  C   UNK d   1      10.556   1.682  10.025  0.00  0.00     0.011 A 
ENDBRANCH   1  22
TORSDOF 2
ENDMDL
