MODEL 1
REMARK VINA RESULT:    -8.727      0.000      0.000
REMARK INTER + INTRA:         -14.246
REMARK INTER:                 -12.553
REMARK INTRA:                  -1.693
REMARK UNBOUND:                -1.693
REMARK  8 active torsions:
REMARK  status: ('A' for Active; 'I' for Inactive)
REMARK    1  A    between atoms: C_4  and  C_8 
REMARK    2  A    between atoms: C_8  and  N_10 
REMARK    3  A    between atoms: N_10  and  N_11 
REMARK       I    between atoms: N_11  and  C_12 
REMARK    4  A    between atoms: C_12  and  C_14 
REMARK    5  A    between atoms: N_17  and  C_26 
REMARK    6  A    between atoms: C_18  and  C_19 
REMARK    7  A    between atoms: C_19  and  N_20 
REMARK    8  A    between atoms: C_30  and  N_31 
ROOT
ATOM      1  C   UNK d   1       8.954   6.152  11.044  0.00  0.00     0.176 A 
ATOM      2  N   UNK d   1       7.672   5.772  11.133  0.00  0.00    -0.124 NA
ATOM      3  N   UNK d   1       7.056   6.695  11.825  0.00  0.00    -0.058 NA
ATOM      4  N   UNK d   1       7.905   7.655  12.183  0.00  0.00    -0.191 N 
ATOM      5  C   UNK d   1       9.113   7.371  11.722  0.00  0.00     0.104 A 
ENDROOT
BRANCH   1   6
ATOM      6  C   UNK d   1       9.979   5.405  10.340  0.00  0.00     0.292 C 
ATOM      7  N   UNK d   1      11.017   4.716  11.011  0.00  0.00    -0.264 N 
ATOM      8  H   UNK d   1      11.106   4.715  12.062  0.00  0.00     0.190 HD
ATOM      9  O   UNK d   1       9.936   5.369   9.089  0.00  0.00    -0.264 OA
BRANCH   7  10
ATOM     10  N   UNK d   1      11.993   3.995  10.323  0.00  0.00    -0.298 N 
ATOM     11  H   UNK d   1      12.570   4.358   9.546  0.00  0.00     0.187 HD
BRANCH  10  12
ATOM     12  C   UNK d   1      12.231   2.627  10.720  0.00  0.00     0.049 C 
ATOM     13  C   UNK d   1      12.471   2.375  11.982  0.00  0.00     0.045 C 
BRANCH  12  14
ATOM     14  C   UNK d   1      12.209   1.597   9.701  0.00  0.00    -0.008 A 
ATOM     15  C   UNK d   1      11.070   0.812   9.526  0.00  0.00     0.032 A 
ATOM     16  C   UNK d   1      11.029  -0.157   8.554  0.00  0.00     0.011 A 
ATOM     17 Br   UNK d   1       9.483  -1.237   8.307  0.00  0.00    -0.051 Br
ATOM     18  C   UNK d   1      12.107  -0.390   7.717  0.00  0.00     0.019 A 
ATOM     19  C   UNK d   1      13.224   0.370   7.877  0.00  0.00     0.002 A 
ATOM     20  C   UNK d   1      13.260   1.354   8.866  0.00  0.00     0.014 A 
ENDBRANCH  12  14
ENDBRANCH  10  12
ENDBRANCH   7  10
ENDBRANCH   1   6
BRANCH   5  21
ATOM     21  C   UNK d   1      10.395   8.027  11.845  0.00  0.00     0.334 C 
BRANCH  21  22
ATOM     22  N   UNK d   1      11.329   7.443  12.787  0.00  0.00     0.094 NA
ATOM     23  C   UNK d   1      12.352   8.412  13.170  0.00  0.00     0.273 C 
ATOM     24  C   UNK d   1      11.751   9.749  13.541  0.00  0.00     0.030 C 
ATOM     25  C   UNK d   1      10.745   9.571  14.665  0.00  0.00     0.003 C 
ATOM     26  C   UNK d   1      10.667   8.133  15.093  0.00  0.00     0.030 C 
ATOM     27  C   UNK d   1      10.628   7.115  14.025  0.00  0.00     0.273 C 
ENDBRANCH  21  22
ENDBRANCH   5  21
BRANCH   4  28
ATOM     28  C   UNK d   1       7.537   8.777  12.962  0.00  0.00     0.229 A 
ATOM     29  N   UNK d   1       7.604  10.056  12.498  0.00  0.00    -0.081 NA
ATOM     30  O   UNK d   1       7.204  10.838  13.451  0.00  0.00    -0.103 OA
ATOM     31  N   UNK d   1       6.884  10.174  14.502  0.00  0.00    -0.083 NA
ATOM     32  C   UNK d   1       7.076   8.874  14.242  0.00  0.00     0.201 A 
BRANCH  32  33
ATOM     33  N   UNK d   1       6.855   7.790  15.104  0.00  0.00    -0.379 N 
ATOM     34  H   UNK d   1       7.071   6.789  14.901  0.00  0.00     0.158 HD
ATOM     35  H   UNK d   1       6.436   7.974  16.041  0.00  0.00     0.158 HD
ENDBRANCH  32  33
ENDBRANCH   4  28
TORSDOF 8
ENDMDL
