/Users/jonathanwahrer/Desktop/Msc/3_Semester/Drug_Design_Praktikum/waehrer_HTS_screening/HTS_experiment/out/docking_results/vina_output/2jam/1280_docked.pdbqt
 OpenBabel03162218163D

 35 38  0  0  1  0  0  0  0  0999 V2000
   11.0000    5.3790   12.7390 C   0  0  1  0  0  3  0  0  0  0  0  0
    9.9290    6.1600   12.1510 N   0  0  0  0  0  0  0  0  0  0  0  0
   10.1730    6.2080   10.7550 C   0  0  0  0  0  0  0  0  0  0  0  0
    9.7890    7.1000    9.9920 O   0  0  0  0  0  0  0  0  0  0  0  0
   10.9580    5.0050   10.4270 C   0  0  0  0  0  0  0  0  0  0  0  0
   11.3810    4.6500    9.3000 O   0  0  0  0  0  0  0  0  0  0  0  0
   11.1340    4.3090   11.6950 C   0  0  0  0  0  0  0  0  0  0  0  0
   11.3290    3.0050   11.8370 C   0  0  0  0  0  0  0  0  0  0  0  0
   11.4250    2.5470   13.1720 O   0  0  0  0  0  1  0  0  0  0  0  0
   12.2070    6.2030   12.8980 C   0  0  0  0  0  0  0  0  0  0  0  0
   13.4330    5.7380   12.4420 C   0  0  0  0  0  3  0  0  0  0  0  0
   14.5950    6.5090   12.5590 C   0  0  0  0  0  0  0  0  0  0  0  0
   16.2750    5.8350   11.9160 Br  0  0  0  0  0  0  0  0  0  0  0  0
   14.5420    7.7520   13.1350 C   0  0  0  0  0  3  0  0  0  0  0  0
   13.3350    8.2260   13.5910 C   0  0  0  0  0  3  0  0  0  0  0  0
   12.1920    7.4470   13.4660 C   0  0  0  0  0  3  0  0  0  0  0  0
   11.4430    2.0700   10.7230 C   0  0  0  0  0  0  0  0  0  0  0  0
   12.6220    1.6730   10.1660 C   0  0  0  0  0  0  0  0  0  0  0  0
   12.6390    0.8040    9.0590 C   0  0  0  0  0  3  0  0  0  0  0  0
   13.9120    2.1100   10.7480 C   0  0  0  0  0  1  0  0  0  0  0  0
   11.4940    0.3170    8.4890 C   0  0  0  0  0  0  0  0  0  0  0  0
   10.3010    0.7170    9.0510 C   0  0  0  0  0  3  0  0  0  0  0  0
   10.2720    1.5620   10.1290 C   0  0  0  0  0  3  0  0  0  0  0  0
   11.5050   -0.5450    7.3920 O   0  0  0  0  0  0  0  0  0  0  0  0
   10.4920   -1.5030    7.2240 C   0  0  0  0  0  1  0  0  0  0  0  0
    8.8460    6.7580   12.9030 C   0  0  0  0  0  2  0  0  0  0  0  0
    7.5020    6.1880   12.5770 C   0  0  0  0  0  2  0  0  0  0  0  0
    6.5630    7.0980   11.8810 C   0  0  0  0  0  2  0  0  0  0  0  0
    6.4990    8.4220   12.3890 N   0  0  0  0  0  4  0  0  0  0  0  0
    7.0400    9.4350   11.4680 C   0  0  0  0  0  2  0  0  0  0  0  0
    7.4140   10.6250   12.3540 C   0  0  0  0  0  2  0  0  0  0  0  0
    6.8930   10.5070   13.6300 O   0  0  0  0  0  0  0  0  0  0  0  0
    5.5270   10.2250   13.5880 C   0  0  0  0  0  2  0  0  0  0  0  0
    5.2470    8.9080   12.8420 C   0  0  0  0  0  2  0  0  0  0  0  0
    7.1570    8.4590   13.2270 H   0  0  0  0  0  0  0  0  0  0  0  0
  1 10  1  6  0  0  0
  2  1  1  0  0  0  0
  2 26  1  0  0  0  0
  3  2  1  0  0  0  0
  4  3  2  0  0  0  0
  5  3  1  0  0  0  0
  5  7  1  0  0  0  0
  6  5  2  0  0  0  0
  7  8  2  0  0  0  0
  7  1  1  0  0  0  0
  8  9  1  0  0  0  0
 10 16  1  0  0  0  0
 11 12  1  0  0  0  0
 11 10  2  0  0  0  0
 12 14  2  0  0  0  0
 13 12  1  0  0  0  0
 14 15  1  0  0  0  0
 16 15  2  0  0  0  0
 17  8  1  0  0  0  0
 18 17  1  0  0  0  0
 18 20  1  0  0  0  0
 19 18  2  0  0  0  0
 21 22  2  0  0  0  0
 21 19  1  0  0  0  0
 22 23  1  0  0  0  0
 23 17  2  0  0  0  0
 24 21  1  0  0  0  0
 25 24  1  0  0  0  0
 27 26  1  0  0  0  0
 28 29  1  0  0  0  0
 28 27  1  0  0  0  0
 29 34  1  0  0  0  0
 29 35  1  0  0  0  0
 30 31  1  0  0  0  0
 30 29  1  0  0  0  0
 31 32  1  0  0  0  0
 33 32  1  0  0  0  0
 34 33  1  0  0  0  0
M  END
>  <Pose>
1

>  <Score>
-9.171

$$$$
