MODEL 1
REMARK VINA RESULT:    -9.405      0.000      0.000
REMARK INTER + INTRA:         -12.043
REMARK INTER:                 -11.605
REMARK INTRA:                  -0.438
REMARK UNBOUND:                -0.438
REMARK  4 active torsions:
REMARK  status: ('A' for Active; 'I' for Inactive)
REMARK    1  A    between atoms: C_4  and  C_8 
REMARK       I    between atoms: C_8  and  N_10 
REMARK    2  A    between atoms: N_10  and  C_11 
REMARK    3  A    between atoms: C_19  and  C_22 
REMARK    4  A    between atoms: C_22  and  C_23 
ROOT
ATOM      1  C   UNK d   1       9.180   6.139  12.999  0.00  0.00     0.105 C 
ATOM      2  C   UNK d   1      10.686   6.278  13.109  0.00  0.00     0.152 C 
ATOM      3  N   UNK d   1      11.171   5.359  12.098  0.00  0.00    -0.335 N 
ATOM      4  C   UNK d   1      10.081   4.862  11.282  0.00  0.00     0.181 C 
ATOM      5  C   UNK d   1       9.002   5.927  11.522  0.00  0.00     0.061 C 
ATOM      6  C   UNK d   1      10.517   4.837   9.887  0.00  0.00     0.241 C 
ATOM      7  O   UNK d   1       9.860   5.389   8.992  0.00  0.00    -0.271 OA
ATOM      8  N   UNK d   1      11.724   4.156   9.582  0.00  0.00    -0.346 N 
ATOM      9  C   UNK d   1      12.747   4.032  10.595  0.00  0.00     0.181 C 
ATOM     10  C   UNK d   1      12.485   4.879  11.781  0.00  0.00     0.243 C 
ATOM     11  O   UNK d   1      13.436   5.194  12.544  0.00  0.00    -0.271 OA
ATOM     12  H   UNK d   1      11.910   3.735   8.644  0.00  0.00     0.163 HD
ENDROOT
BRANCH   1  13
ATOM     13  N   UNK d   1       8.499   7.326  13.483  0.00  0.00    -0.351 N 
ATOM     14  C   UNK d   1       7.169   7.179  13.923  0.00  0.00     0.252 C 
ATOM     15  O   UNK d   1       6.613   6.020  13.881  0.00  0.00    -0.268 OA
ATOM     16  H   UNK d   1       8.948   8.252  13.509  0.00  0.00     0.163 HD
BRANCH  14  17
ATOM     17  C   UNK d   1       6.392   8.298  14.428  0.00  0.00     0.033 A 
ATOM     18  C   UNK d   1       6.398   8.604  15.784  0.00  0.00     0.036 A 
ATOM     19  C   UNK d   1       5.672   9.659  16.263  0.00  0.00     0.011 A 
ATOM     20 Br   UNK d   1       5.689  10.070  18.132  0.00  0.00    -0.051 Br
ATOM     21  C   UNK d   1       4.922  10.445  15.435  0.00  0.00     0.019 A 
ATOM     22  C   UNK d   1       4.915  10.146  14.095  0.00  0.00     0.002 A 
ATOM     23  C   UNK d   1       5.647   9.078  13.600  0.00  0.00     0.017 A 
ENDBRANCH  14  17
ENDBRANCH   1  13
BRANCH   9  24
ATOM     24  C   UNK d   1      13.018   2.592  10.973  0.00  0.00     0.073 C 
BRANCH  24  25
ATOM     25  C   UNK d   1      12.993   1.674   9.822  0.00  0.00    -0.056 A 
ATOM     26  C   UNK d   1      11.927   0.809   9.656  0.00  0.00     0.007 A 
ATOM     27  C   UNK d   1      11.895  -0.051   8.583  0.00  0.00     0.001 A 
ATOM     28  C   UNK d   1      12.901  -0.099   7.636  0.00  0.00     0.000 A 
ATOM     29  C   UNK d   1      13.965   0.762   7.799  0.00  0.00     0.001 A 
ATOM     30  C   UNK d   1      14.013   1.633   8.870  0.00  0.00     0.007 A 
ENDBRANCH  24  25
ENDBRANCH   9  24
TORSDOF 4
ENDMDL
