MODEL 1
REMARK VINA RESULT:    -8.174      0.000      0.000
REMARK INTER + INTRA:         -13.371
REMARK INTER:                 -11.519
REMARK INTRA:                  -1.852
REMARK UNBOUND:                -1.852
REMARK  7 active torsions:
REMARK  status: ('A' for Active; 'I' for Inactive)
REMARK    1  A    between atoms: C_4  and  C_8 
REMARK    2  A    between atoms: N_9  and  C_29 
REMARK    3  A    between atoms: C_15  and  C_17 
REMARK    4  A    between atoms: N_19  and  C_22 
REMARK    5  A    between atoms: C_29  and  C_30 
REMARK    6  A    between atoms: C_30  and  C_31 
REMARK    7  A    between atoms: C_31  and  N_32 
ROOT
ATOM      1  C   UNK d   1       9.271   6.775  14.372  0.00  0.00     0.161 C 
ATOM      2  N   UNK d   1       7.862   6.652  14.343  0.00  0.00    -0.332 N 
ATOM      3  C   UNK d   1       7.448   6.187  13.068  0.00  0.00     0.295 C 
ATOM      4  O   UNK d   1       6.241   6.063  12.694  0.00  0.00    -0.264 OA
ATOM      5  C   UNK d   1       8.627   5.879  12.287  0.00  0.00     0.250 C 
ATOM      6  O   UNK d   1       8.544   5.447  11.105  0.00  0.00    -0.282 OA
ATOM      7  C   UNK d   1       9.782   6.168  13.115  0.00  0.00     0.062 C 
ATOM      8  C   UNK d   1      11.028   5.966  12.753  0.00  0.00     0.133 C 
ATOM      9  O   UNK d   1      12.042   6.345  13.603  0.00  0.00    -0.190 OA
ENDROOT
BRANCH   1  10
ATOM     10  C   UNK d   1       9.674   8.178  14.511  0.00  0.00    -0.029 A 
ATOM     11  C   UNK d   1      10.375   8.552  15.644  0.00  0.00     0.028 A 
ATOM     12  C   UNK d   1      10.836   9.804  15.914  0.00  0.00     0.011 A 
ATOM     13 Br   UNK d   1      11.801  10.265  17.496  0.00  0.00    -0.051 Br
ATOM     14  C   UNK d   1      10.569  10.792  14.953  0.00  0.00     0.019 A 
ATOM     15  C   UNK d   1       9.869  10.451  13.809  0.00  0.00     0.002 A 
ATOM     16  C   UNK d   1       9.416   9.168  13.566  0.00  0.00     0.009 A 
ENDBRANCH   1  10
BRANCH   8  17
ATOM     17  C   UNK d   1      11.350   5.350  11.490  0.00  0.00     0.045 A 
ATOM     18  C   UNK d   1      11.547   3.968  11.318  0.00  0.00     0.047 A 
ATOM     19  N   UNK d   1      11.792   3.718  10.026  0.00  0.00    -0.238 N 
ATOM     20  C   UNK d   1      11.480   2.976  12.429  0.00  0.00     0.071 C 
ATOM     21  N   UNK d   1      11.756   4.877   9.394  0.00  0.00    -0.179 NA
ATOM     22  C   UNK d   1      11.491   5.884  10.239  0.00  0.00     0.155 A 
BRANCH  19  23
ATOM     23  C   UNK d   1      12.032   2.454   9.425  0.00  0.00     0.058 A 
ATOM     24  C   UNK d   1      13.326   2.135   9.035  0.00  0.00     0.031 A 
ATOM     25  C   UNK d   1      13.634   0.921   8.454  0.00  0.00     0.002 A 
ATOM     26  C   UNK d   1      12.647  -0.042   8.236  0.00  0.00     0.000 A 
ATOM     27  C   UNK d   1      11.358   0.276   8.625  0.00  0.00     0.002 A 
ATOM     28  C   UNK d   1      11.078   1.489   9.199  0.00  0.00     0.031 A 
ENDBRANCH  19  23
ENDBRANCH   8  17
BRANCH   2  29
ATOM     29  C   UNK d   1       6.916   6.930  15.460  0.00  0.00     0.129 C 
BRANCH  29  30
ATOM     30  C   UNK d   1       6.265   8.272  15.249  0.00  0.00     0.048 C 
BRANCH  30  31
ATOM     31  C   UNK d   1       4.787   8.190  15.033  0.00  0.00     0.235 C 
BRANCH  31  32
ATOM     32  N   UNK d   1       4.330   8.417  13.702  0.00  0.00    -0.079 N 
ATOM     33  C   UNK d   1       3.026   8.977  13.564  0.00  0.00     0.269 C 
ATOM     34  C   UNK d   1       5.269   9.296  12.987  0.00  0.00     0.269 C 
ATOM     35  H   UNK d   1       4.362   7.504  13.155  0.00  0.00     0.278 HD
ENDBRANCH  31  32
ENDBRANCH  30  31
ENDBRANCH  29  30
ENDBRANCH   2  29
TORSDOF 7
ENDMDL
