MODEL 1
REMARK VINA RESULT:    -8.838      0.000      0.000
REMARK INTER + INTRA:          -9.513
REMARK INTER:                  -9.355
REMARK INTRA:                  -0.158
REMARK UNBOUND:                -0.158
REMARK  1 active torsions:
REMARK  status: ('A' for Active; 'I' for Inactive)
REMARK    1  A    between atoms: C_5  and  C_8 
ROOT
ATOM      1  C   UNK d   1      13.179   3.134  11.312  0.00  0.00     0.102 A 
ATOM      2  C   UNK d   1      12.896   2.164  10.276  0.00  0.00     0.068 A 
ATOM      3  C   UNK d   1      13.874   1.730   9.426  0.00  0.00     0.124 A 
ATOM      4  N   UNK d   1      15.229   2.187   9.526  0.00  0.00    -0.343 N 
ATOM      5  C   UNK d   1      15.494   3.120  10.566  0.00  0.00     0.048 A 
ATOM      6  C   UNK d   1      14.579   3.548  11.391  0.00  0.00     0.055 A 
ATOM      7  C   UNK d   1      15.215   4.484  12.368  0.00  0.00     0.292 A 
ATOM      8  O   UNK d   1      14.566   5.058  13.294  0.00  0.00    -0.259 OA
ATOM      9  O   UNK d   1      16.527   4.544  12.030  0.00  0.00    -0.312 OA
ATOM     10  C   UNK d   1      16.818   3.777  10.912  0.00  0.00     0.237 A 
ATOM     11  N   UNK d   1      13.564   0.818   8.450  0.00  0.00    -0.289 N 
ATOM     12  C   UNK d   1      12.316   0.353   8.324  0.00  0.00     0.332 A 
ATOM     13  O   UNK d   1      12.052  -0.486   7.417  0.00  0.00    -0.246 OA
ATOM     14  N   UNK d   1      11.361   0.786   9.164  0.00  0.00    -0.270 N 
ATOM     15  C   UNK d   1      11.580   1.668  10.137  0.00  0.00     0.262 A 
ATOM     16  O   UNK d   1      10.694   2.077  10.928  0.00  0.00    -0.267 OA
ATOM     17  C   UNK d   1      10.011   0.249   8.988  0.00  0.00     0.164 C 
ATOM     18  C   UNK d   1      14.649   0.396   7.576  0.00  0.00     0.163 C 
ATOM     19  H   UNK d   1      15.940   1.835   8.861  0.00  0.00     0.167 HD
ENDROOT
BRANCH   1  20
ATOM     20  C   UNK d   1      12.246   4.253  11.406  0.00  0.00    -0.045 A 
ATOM     21  C   UNK d   1      12.116   5.180  10.416  0.00  0.00     0.009 A 
ATOM     22  C   UNK d   1      11.213   6.250  10.537  0.00  0.00     0.019 A 
ATOM     23  C   UNK d   1      10.448   6.363  11.670  0.00  0.00     0.011 A 
ATOM     24 Br   UNK d   1       9.198   7.809  11.881  0.00  0.00    -0.051 Br
ATOM     25  C   UNK d   1      10.568   5.440  12.668  0.00  0.00     0.019 A 
ATOM     26  C   UNK d   1      11.476   4.375  12.535  0.00  0.00     0.009 A 
ENDBRANCH   1  20
TORSDOF 1
ENDMDL
