/Users/jonathanwahrer/Desktop/Msc/3_Semester/Drug_Design_Praktikum/waehrer_HTS_screening/HTS_experiment/out/docking_results/vina_output/2jam/1300_docked.pdbqt
 OpenBabel03162218183D

 22 25  0  0  1  0  0  0  0  0999 V2000
   11.5040    3.6680   10.9030 N   0  0  0  0  0  0  0  0  0  0  0  0
   11.4540    3.8580   12.3050 C   0  0  0  0  0  0  0  0  0  0  0  0
   11.6580    2.9920   13.1810 O   0  0  0  0  0  0  0  0  0  0  0  0
   11.1170    5.2610   12.6240 C   0  0  2  0  0  3  0  0  0  0  0  0
    9.6210    5.3090   12.8490 C   0  0  2  0  0  3  0  0  0  0  0  0
    9.1700    5.1900   11.5070 O   0  0  0  0  0  0  0  0  0  0  0  0
    9.8060    6.3660   11.0270 C   0  0  2  0  0  3  0  0  0  0  0  0
   11.2430    6.0150   11.3030 C   0  0  2  0  0  3  0  0  0  0  0  0
   11.6570    4.9720   10.3380 C   0  0  0  0  0  0  0  0  0  0  0  0
   12.0900    5.1970    9.1610 O   0  0  0  0  0  0  0  0  0  0  0  0
    9.2720    7.3500   11.9910 C   0  0  0  0  0  2  0  0  0  0  0  0
    9.1830    6.6950   13.1460 C   0  0  0  0  0  2  0  0  0  0  0  0
   11.4280    2.4840   10.1230 C   0  0  0  0  0  0  0  0  0  0  0  0
   12.5600    1.8310    9.6910 C   0  0  0  0  0  0  0  0  0  0  0  0
   14.2410    2.5910   10.2050 Br  0  0  0  0  0  0  0  0  0  0  0  0
   12.5140    0.6720    8.9200 C   0  0  0  0  0  3  0  0  0  0  0  0
   11.3020    0.1220    8.5510 C   0  0  0  0  0  0  0  0  0  0  0  0
   10.1630    0.7790    8.9850 C   0  0  0  0  0  3  0  0  0  0  0  0
   10.2070    1.9230    9.7460 C   0  0  0  0  0  3  0  0  0  0  0  0
   11.2240   -1.0580    7.7610 N   0  0  0  0  0  0  0  0  0  0  0  0
   12.2480   -1.4360    7.1650 O   0  0  0  0  0  0  0  0  0  0  0  0
   10.0930   -1.8130    7.6130 O   0  0  0  0  0  0  0  0  0  0  0  0
  1  2  1  0  0  0  0
  2  3  2  0  0  0  0
  4  2  1  6  0  0  0
  4  5  1  0  0  0  0
  5 12  1  6  0  0  0
  6  5  1  0  0  0  0
  7  8  1  0  0  0  0
  7  6  1  0  0  0  0
  7 11  1  1  0  0  0
  8  9  1  6  0  0  0
  8  4  1  0  0  0  0
  9  1  1  0  0  0  0
 10  9  2  0  0  0  0
 11 12  1  0  0  0  0
 13  1  1  0  0  0  0
 14 13  2  0  0  0  0
 14 15  1  0  0  0  0
 16 14  1  0  0  0  0
 17 16  2  0  0  0  0
 17 18  1  0  0  0  0
 18 19  2  0  0  0  0
 19 13  1  0  0  0  0
 20 17  1  0  0  0  0
 21 20  2  0  0  0  0
 22 20  2  0  0  0  0
M  END
>  <Pose>
1

>  <Score>
-7.181

$$$$
