MODEL 1
REMARK VINA RESULT:    -7.181      0.000      0.000
REMARK INTER + INTRA:          -8.503
REMARK INTER:                  -8.021
REMARK INTRA:                  -0.482
REMARK UNBOUND:                -0.482
REMARK  2 active torsions:
REMARK  status: ('A' for Active; 'I' for Inactive)
REMARK    1  A    between atoms: C_3  and  N_11 
REMARK    2  A    between atoms: C_6  and  N_8 
ROOT
ATOM      1  N   UNK d   1      11.504   3.668  10.903  0.00  0.00    -0.250 N 
ATOM      2  C   UNK d   1      11.454   3.858  12.305  0.00  0.00     0.239 C 
ATOM      3  O   UNK d   1      11.658   2.992  13.181  0.00  0.00    -0.272 OA
ATOM      4  C   UNK d   1      11.117   5.261  12.624  0.00  0.00     0.127 C 
ATOM      5  C   UNK d   1       9.621   5.309  12.849  0.00  0.00     0.159 C 
ATOM      6  O   UNK d   1       9.170   5.190  11.507  0.00  0.00    -0.371 OA
ATOM      7  C   UNK d   1       9.806   6.366  11.027  0.00  0.00     0.159 C 
ATOM      8  C   UNK d   1      11.243   6.015  11.303  0.00  0.00     0.127 C 
ATOM      9  C   UNK d   1      11.657   4.972  10.338  0.00  0.00     0.239 C 
ATOM     10  O   UNK d   1      12.090   5.197   9.161  0.00  0.00    -0.272 OA
ATOM     11  C   UNK d   1       9.272   7.350  11.991  0.00  0.00     0.004 C 
ATOM     12  C   UNK d   1       9.183   6.695  13.146  0.00  0.00     0.004 C 
ENDROOT
BRANCH   1  13
ATOM     13  C   UNK d   1      11.428   2.484  10.123  0.00  0.00     0.062 A 
ATOM     14  C   UNK d   1      12.560   1.831   9.691  0.00  0.00     0.040 A 
ATOM     15 Br   UNK d   1      14.241   2.591  10.205  0.00  0.00    -0.049 Br
ATOM     16  C   UNK d   1      12.514   0.672   8.920  0.00  0.00     0.057 A 
ATOM     17  C   UNK d   1      11.302   0.122   8.551  0.00  0.00     0.104 A 
ATOM     18  C   UNK d   1      10.163   0.779   8.985  0.00  0.00     0.038 A 
ATOM     19  C   UNK d   1      10.207   1.923   9.746  0.00  0.00     0.034 A 
BRANCH  17  20
ATOM     20  N   UNK d   1      11.224  -1.058   7.761  0.00  0.00    -0.116 N 
ATOM     21  O   UNK d   1      12.248  -1.436   7.165  0.00  0.00    -0.532 OA
ATOM     22  O   UNK d   1      10.093  -1.813   7.613  0.00  0.00    -0.532 OA
ENDBRANCH  17  20
ENDBRANCH   1  13
TORSDOF 2
ENDMDL
