MODEL 1
REMARK VINA RESULT:    -7.867      0.000      0.000
REMARK INTER + INTRA:          -9.656
REMARK INTER:                  -9.017
REMARK INTRA:                  -0.639
REMARK UNBOUND:                -0.639
REMARK  3 active torsions:
REMARK  status: ('A' for Active; 'I' for Inactive)
REMARK    1  A    between atoms: C_6  and  N_8 
REMARK    2  A    between atoms: C_12  and  C_21 
REMARK    3  A    between atoms: C_21  and  O_22 
ROOT
ATOM      1  N   UNK d   1       8.215   8.454  12.526  0.00  0.00    -0.252 N 
ATOM      2  C   UNK d   1       7.382   9.274  11.715  0.00  0.00     0.239 C 
ATOM      3  O   UNK d   1       7.612   9.681  10.556  0.00  0.00    -0.272 OA
ATOM      4  C   UNK d   1       6.130   9.602  12.463  0.00  0.00     0.136 C 
ATOM      5  C   UNK d   1       5.077   8.561  12.280  0.00  0.00     0.114 C 
ATOM      6  O   UNK d   1       5.495   7.527  13.154  0.00  0.00    -0.358 OA
ATOM      7  C   UNK d   1       5.533   8.322  14.327  0.00  0.00     0.089 C 
ATOM      8  C   UNK d   1       6.520   9.367  13.920  0.00  0.00     0.133 C 
ATOM      9  C   UNK d   1       7.886   8.796  13.866  0.00  0.00     0.239 C 
ATOM     10  O   UNK d   1       8.635   8.640  14.853  0.00  0.00    -0.272 OA
ATOM     11  C   UNK d   1       4.142   8.866  14.290  0.00  0.00     0.010 C 
ATOM     12  C   UNK d   1       3.846   9.006  12.986  0.00  0.00     0.013 C 
ATOM     13  C   UNK d   1       5.863   7.557  15.537  0.00  0.00     0.051 C 
ENDROOT
BRANCH   1  14
ATOM     14  C   UNK d   1       9.154   7.504  12.040  0.00  0.00     0.046 A 
ATOM     15  C   UNK d   1       8.795   6.228  11.655  0.00  0.00     0.031 A 
ATOM     16  C   UNK d   1       9.721   5.295  11.176  0.00  0.00     0.010 A 
ATOM     17  C   UNK d   1      11.053   5.619  11.069  0.00  0.00    -0.044 A 
ATOM     18  C   UNK d   1      11.427   6.887  11.450  0.00  0.00     0.019 A 
ATOM     19  C   UNK d   1      12.038   4.620  10.561  0.00  0.00     0.049 C 
ATOM     20 Br   UNK d   1      13.262   7.373  11.317  0.00  0.00    -0.051 Br
ATOM     21  C   UNK d   1      10.498   7.815  11.926  0.00  0.00     0.050 A 
ENDBRANCH   1  14
BRANCH   5  22
ATOM     22  C   UNK d   1       4.858   8.104  10.897  0.00  0.00     0.207 C 
BRANCH  22  23
ATOM     23  O   UNK d   1       3.636   7.451  10.749  0.00  0.00    -0.398 OA
ATOM     24  H   UNK d   1       2.860   8.078  10.715  0.00  0.00     0.209 HD
ENDBRANCH  22  23
ENDBRANCH   5  22
TORSDOF 3
ENDMDL
