/Users/jonathanwahrer/Desktop/Msc/3_Semester/Drug_Design_Praktikum/waehrer_HTS_screening/HTS_experiment/out/docking_results/vina_output/2jam/1310_docked.pdbqt
 OpenBabel03162218183D

 32 35  0  0  1  0  0  0  0  0999 V2000
   11.6380    5.2780   12.4250 C   0  0  1  0  0  3  0  0  0  0  0  0
   10.4880    6.1060   12.1340 N   0  0  0  0  0  0  0  0  0  0  0  0
   10.2580    6.0140   10.7390 C   0  0  0  0  0  0  0  0  0  0  0  0
    9.7090    6.8580    9.9880 O   0  0  0  0  0  0  0  0  0  0  0  0
   10.7950    4.7160   10.3270 C   0  0  0  0  0  0  0  0  0  0  0  0
   10.8210    4.2000    9.1860 O   0  0  0  0  0  0  0  0  0  0  0  0
   11.3270    4.1020   11.5540 C   0  0  0  0  0  0  0  0  0  0  0  0
   11.4900    2.8130   11.7500 C   0  0  0  0  0  0  0  0  0  0  0  0
   12.0550    2.4230   12.9700 O   0  0  0  0  0  1  0  0  0  0  0  0
   12.9280    5.9070   12.1250 C   0  0  0  0  0  0  0  0  0  0  0  0
   14.1420    5.2700   12.1480 C   0  0  0  0  0  3  0  0  0  0  0  0
   15.3420    5.9180   11.8460 C   0  0  0  0  0  0  0  0  0  0  0  0
   17.0060    4.9540   11.9020 Br  0  0  0  0  0  0  0  0  0  0  0  0
   15.3330    7.2540   11.5080 C   0  0  0  0  0  3  0  0  0  0  0  0
   14.1280    7.9190   11.4770 C   0  0  0  0  0  3  0  0  0  0  0  0
   12.9530    7.2690   11.7770 C   0  0  0  0  0  3  0  0  0  0  0  0
   11.0970    1.8010   10.7490 C   0  0  0  0  0  0  0  0  0  0  0  0
    9.9120    1.3490   10.4660 O   0  0  0  0  0  0  0  0  0  0  0  0
    9.9510    0.4500    9.5090 C   0  0  0  0  0  0  0  0  0  0  0  0
   11.2670    0.2780    9.1110 C   0  0  0  0  0  0  0  0  0  0  0  0
    8.9860   -0.3060    8.8680 C   0  0  0  0  0  3  0  0  0  0  0  0
   11.9820    1.1480    9.9110 C   0  0  0  0  0  3  0  0  0  0  0  0
   11.5820   -0.6180    8.1120 C   0  0  0  0  0  3  0  0  0  0  0  0
   10.6230   -1.3700    7.4730 C   0  0  0  0  0  3  0  0  0  0  0  0
    9.3090   -1.2110    7.8580 C   0  0  0  0  0  3  0  0  0  0  0  0
    9.6470    6.8960   13.0310 C   0  0  0  0  0  2  0  0  0  0  0  0
    8.4560    6.0800   13.4970 C   0  0  0  0  0  2  0  0  0  0  0  0
    7.2610    6.2270   12.5920 C   0  0  0  0  0  2  0  0  0  0  0  0
    6.1820    6.8220   13.3120 N   0  0  0  0  0  4  0  0  0  0  0  0
    6.2370    6.5730   14.7370 C   0  0  0  0  0  1  0  0  0  0  0  0
    6.0210    8.2320   13.1220 C   0  0  0  0  0  1  0  0  0  0  0  0
    5.2860    6.3610   12.9730 H   0  0  0  0  0  0  0  0  0  0  0  0
  1 10  1  6  0  0  0
  2  1  1  0  0  0  0
  2 26  1  0  0  0  0
  3  2  1  0  0  0  0
  4  3  2  0  0  0  0
  5  3  1  0  0  0  0
  5  7  1  0  0  0  0
  6  5  2  0  0  0  0
  7  8  2  0  0  0  0
  7  1  1  0  0  0  0
  8  9  1  0  0  0  0
 10 11  1  0  0  0  0
 12 13  1  0  0  0  0
 12 11  2  0  0  0  0
 14 12  1  0  0  0  0
 15 14  2  0  0  0  0
 15 16  1  0  0  0  0
 16 10  2  0  0  0  0
 17  8  1  0  0  0  0
 18 17  1  0  0  0  0
 19 18  1  0  0  0  0
 20 19  1  0  0  0  0
 20 22  1  0  0  0  0
 21 19  2  0  0  0  0
 22 17  2  0  0  0  0
 23 20  2  0  0  0  0
 24 25  2  0  0  0  0
 24 23  1  0  0  0  0
 25 21  1  0  0  0  0
 26 27  1  0  0  0  0
 28 29  1  0  0  0  0
 28 27  1  0  0  0  0
 29 30  1  0  0  0  0
 31 29  1  0  0  0  0
 32 29  1  0  0  0  0
M  END
>  <Pose>
1

>  <Score>
-8.782

$$$$
