MODEL 1
REMARK VINA RESULT:    -8.600      0.000      0.000
REMARK INTER + INTRA:         -13.015
REMARK INTER:                 -11.868
REMARK INTRA:                  -1.147
REMARK UNBOUND:                -1.147
REMARK  7 active torsions:
REMARK  status: ('A' for Active; 'I' for Inactive)
REMARK    1  A    between atoms: C_3  and  C_8 
REMARK    2  A    between atoms: C_8  and  N_9 
REMARK    3  A    between atoms: N_9  and  N_10 
REMARK       I    between atoms: N_10  and  C_11 
REMARK    4  A    between atoms: C_11  and  C_13 
REMARK    5  A    between atoms: N_16  and  C_24 
REMARK    6  A    between atoms: C_17  and  C_18 
REMARK    7  A    between atoms: C_28  and  N_29 
ROOT
ATOM      1  C   UNK d   1       9.218   5.739  11.232  0.00  0.00     0.176 A 
ATOM      2  N   UNK d   1       7.947   5.624  10.995  0.00  0.00    -0.124 NA
ATOM      3  N   UNK d   1       7.317   6.610  11.535  0.00  0.00    -0.058 NA
ATOM      4  N   UNK d   1       8.173   7.481  12.196  0.00  0.00    -0.191 N 
ATOM      5  C   UNK d   1       9.372   6.969  12.023  0.00  0.00     0.093 A 
ENDROOT
BRANCH   1   6
ATOM      6  C   UNK d   1      10.279   4.828  11.085  0.00  0.00     0.294 C 
ATOM      7  N   UNK d   1      11.029   4.657   9.744  0.00  0.00    -0.242 N 
ATOM      8  H   UNK d   1      10.716   5.284   9.008  0.00  0.00     0.192 HD
ATOM      9  O   UNK d   1      10.704   4.087  11.965  0.00  0.00    -0.264 OA
BRANCH   7  10
ATOM     10  N   UNK d   1      11.846   3.682   9.968  0.00  0.00    -0.183 NA
BRANCH  10  11
ATOM     11  C   UNK d   1      12.772   2.886   9.736  0.00  0.00     0.151 C 
BRANCH  11  12
ATOM     12  C   UNK d   1      12.174   1.516   9.329  0.00  0.00     0.000 A 
ATOM     13  C   UNK d   1      12.902   0.777   8.428  0.00  0.00     0.022 A 
ATOM     14 Br   UNK d   1      14.678   1.273   8.024  0.00  0.00    -0.050 Br
ATOM     15  C   UNK d   1      12.262  -0.290   7.789  0.00  0.00     0.020 A 
ATOM     16  C   UNK d   1      10.931  -0.602   8.085  0.00  0.00     0.001 A 
ATOM     17  C   UNK d   1      10.248   0.128   8.998  0.00  0.00     0.001 A 
ATOM     18  C   UNK d   1      10.905   1.231   9.627  0.00  0.00     0.014 A 
ENDBRANCH  11  12
ENDBRANCH  10  11
ENDBRANCH   7  10
ENDBRANCH   1   6
BRANCH   5  19
ATOM     19  C   UNK d   1      10.752   7.383  12.259  0.00  0.00     0.179 C 
ATOM     20  N   UNK d   1      11.479   7.437  13.380  0.00  0.00    -0.407 N 
ATOM     21  C   UNK d   1      12.866   7.751  13.065  0.00  0.00     0.117 C 
ATOM     22  C   UNK d   1      11.235   7.857  14.657  0.00  0.00     0.117 C 
ATOM     23  C   UNK d   1      13.299   8.821  14.022  0.00  0.00     0.021 C 
ATOM     24  C   UNK d   1      12.070   9.144  14.865  0.00  0.00     0.021 C 
ENDBRANCH   5  19
BRANCH   4  25
ATOM     25  C   UNK d   1       7.593   8.555  12.869  0.00  0.00     0.229 A 
ATOM     26  N   UNK d   1       8.289   9.745  13.080  0.00  0.00    -0.081 NA
ATOM     27  O   UNK d   1       7.574  10.504  13.811  0.00  0.00    -0.103 OA
ATOM     28  N   UNK d   1       6.464   9.960  14.114  0.00  0.00    -0.083 NA
ATOM     29  C   UNK d   1       6.450   8.727  13.534  0.00  0.00     0.201 A 
BRANCH  29  30
ATOM     30  N   UNK d   1       5.327   7.855  13.712  0.00  0.00    -0.379 N 
ATOM     31  H   UNK d   1       5.292   7.010  13.124  0.00  0.00     0.158 HD
ATOM     32  H   UNK d   1       4.571   8.100  14.348  0.00  0.00     0.158 HD
ENDBRANCH  29  30
ENDBRANCH   4  25
TORSDOF 7
ENDMDL
