MODEL 1
REMARK VINA RESULT:    -8.165      0.000      0.000
REMARK INTER + INTRA:         -12.380
REMARK INTER:                 -11.268
REMARK INTRA:                  -1.112
REMARK UNBOUND:                -1.112
REMARK  7 active torsions:
REMARK  status: ('A' for Active; 'I' for Inactive)
REMARK    1  A    between atoms: C_4  and  C_8 
REMARK    2  A    between atoms: C_8  and  C_10 
REMARK    3  A    between atoms: C_10  and  N_11 
REMARK    4  A    between atoms: N_18  and  C_21 
REMARK    5  A    between atoms: C_19  and  N_20 
REMARK    6  A    between atoms: C_21  and  C_22 
REMARK    7  A    between atoms: C_22  and  N_23 
ROOT
ATOM      1  N   UNK d   1      12.641   4.026  11.433  0.00  0.00    -0.175 N 
ATOM      2  C   UNK d   1      13.451   5.123  11.583  0.00  0.00     0.079 A 
ATOM      3  C   UNK d   1      12.692   6.211  11.263  0.00  0.00     0.079 A 
ATOM      4  C   UNK d   1      13.261   7.487  11.320  0.00  0.00     0.032 A 
ATOM      5  C   UNK d   1      14.580   7.625  11.698  0.00  0.00     0.002 A 
ATOM      6  C   UNK d   1      15.349   6.529  12.023  0.00  0.00     0.002 A 
ATOM      7  C   UNK d   1      14.769   5.259  11.962  0.00  0.00     0.032 A 
ATOM      8  N   UNK d   1      11.457   5.771  10.935  0.00  0.00    -0.179 N 
ATOM      9  C   UNK d   1      11.409   4.441  11.035  0.00  0.00     0.681 A 
ENDROOT
BRANCH   1  10
ATOM     10  C   UNK d   1      13.047   2.670  11.733  0.00  0.00     0.216 C 
BRANCH  10  11
ATOM     11  C   UNK d   1      13.577   1.937  10.577  0.00  0.00     0.113 C 
ATOM     12  O   UNK d   1      14.876   2.021  10.397  0.00  0.00    -0.194 OA
BRANCH  11  13
ATOM     13  C   UNK d   1      12.909   1.127   9.591  0.00  0.00    -0.001 A 
ATOM     14  C   UNK d   1      11.616   0.692   9.657  0.00  0.00     0.033 A 
ATOM     15  C   UNK d   1      11.045  -0.062   8.673  0.00  0.00     0.011 A 
ATOM     16 Br   UNK d   1       9.205  -0.647   8.808  0.00  0.00    -0.051 Br
ATOM     17  C   UNK d   1      11.784  -0.408   7.564  0.00  0.00     0.019 A 
ATOM     18  C   UNK d   1      13.091  -0.000   7.440  0.00  0.00     0.002 A 
ATOM     19  C   UNK d   1      13.629   0.755   8.446  0.00  0.00     0.014 A 
ENDBRANCH  11  13
ENDBRANCH  10  11
ENDBRANCH   1  10
BRANCH   9  20
ATOM     20  N   UNK d   1      10.338   3.695  10.877  0.00  0.00    -0.234 N 
ATOM     21  H   UNK d   1       9.448   4.057  10.545  0.00  0.00     0.174 HD
ATOM     22  H   UNK d   1      10.395   2.699  11.131  0.00  0.00     0.174 HD
ENDBRANCH   9  20
BRANCH   8  23
ATOM     23  C   UNK d   1      10.387   6.687  10.582  0.00  0.00     0.178 C 
BRANCH  23  24
ATOM     24  C   UNK d   1       9.563   7.180  11.700  0.00  0.00     0.293 C 
BRANCH  24  25
ATOM     25  N   UNK d   1       8.904   6.250  12.544  0.00  0.00     0.094 N 
ATOM     26  C   UNK d   1       7.493   6.068  12.114  0.00  0.00     0.298 C 
ATOM     27  C   UNK d   1       6.749   7.362  12.068  0.00  0.00     0.198 C 
ATOM     28  O   UNK d   1       6.623   7.807  13.385  0.00  0.00    -0.388 OA
ATOM     29  C   UNK d   1       7.845   7.960  13.991  0.00  0.00     0.198 C 
ATOM     30  C   UNK d   1       8.748   6.758  13.917  0.00  0.00     0.298 C 
ENDBRANCH  24  25
ENDBRANCH  23  24
ENDBRANCH   8  23
TORSDOF 7
ENDMDL
