/Users/jonathanwahrer/Desktop/Msc/3_Semester/Drug_Design_Praktikum/waehrer_HTS_screening/HTS_experiment/out/docking_results/vina_output/2jam/1329_docked.pdbqt
 OpenBabel03162218193D

 28 31  0  0  0  0  0  0  0  0999 V2000
   16.1130    2.7280   10.4800 C   0  0  0  0  0  3  0  0  0  0  0  0
   14.9890    2.1490   10.0540 C   0  0  0  0  0  0  0  0  0  0  0  0
   13.6900    2.4190   10.4790 O   0  0  0  0  0  0  0  0  0  0  0  0
   12.7900    1.6330    9.8130 C   0  0  0  0  0  0  0  0  0  0  0  0
   13.4490    0.8020    8.9130 C   0  0  0  0  0  0  0  0  0  0  0  0
   12.6890   -0.0630    8.1420 C   0  0  0  0  0  3  0  0  0  0  0  0
   11.3200   -0.0870    8.2730 C   0  0  0  0  0  3  0  0  0  0  0  0
   10.6920    0.7630    9.1880 C   0  0  0  0  0  0  0  0  0  0  0  0
   11.4190    1.6270    9.9640 C   0  0  0  0  0  0  0  0  0  0  0  0
    9.3110    0.6630    9.2460 O   0  0  0  0  0  1  0  0  0  0  0  0
   14.8850    1.1050    9.0380 C   0  0  0  0  0  0  0  0  0  0  0  0
   15.7970    0.5410    8.3790 O   0  0  0  0  0  0  0  0  0  0  0  0
   10.7210    2.4380   10.9630 C   0  0  0  0  0  2  0  0  0  0  0  0
   11.2060    3.7560   11.1570 N   0  0  0  0  0  4  0  0  0  0  0  0
   10.9750    4.1270   12.5440 C   0  0  0  0  0  2  0  0  0  0  0  0
   10.5590    5.5410   12.7610 C   0  0  0  0  0  2  0  0  0  0  0  0
    9.4950    5.9970   11.9370 N   0  0  0  0  0  0  0  0  0  0  0  0
    9.2550    5.1190   10.8400 C   0  0  0  0  0  2  0  0  0  0  0  0
    9.7530    7.3550   11.5070 C   0  0  0  0  0  1  0  0  0  0  0  0
   10.5520    4.6720   10.2540 C   0  0  0  0  0  2  0  0  0  0  0  0
   12.2430    3.8510   10.9360 H   0  0  0  0  0  0  0  0  0  0  0  0
   16.0840    3.7650   11.4930 C   0  0  0  0  0  0  0  0  0  0  0  0
   17.2480    4.2620   12.0340 C   0  0  0  0  0  3  0  0  0  0  0  0
   17.2050    5.2480   13.0150 C   0  0  0  0  0  0  0  0  0  0  0  0
   18.8210    5.9320   13.7730 Br  0  0  0  0  0  0  0  0  0  0  0  0
   15.9820    5.7330   13.4520 C   0  0  0  0  0  3  0  0  0  0  0  0
   14.8410    5.2090   12.8880 C   0  0  0  0  0  3  0  0  0  0  0  0
   14.8650    4.2360   11.9160 C   0  0  0  0  0  3  0  0  0  0  0  0
  1 22  1  0  0  0  0
  2  3  1  0  0  0  0
  2  1  2  0  0  0  0
  4  9  1  0  0  0  0
  4  3  1  0  0  0  0
  5 11  1  0  0  0  0
  5  4  2  0  0  0  0
  6  7  2  0  0  0  0
  6  5  1  0  0  0  0
  7  8  1  0  0  0  0
  8 10  1  0  0  0  0
  8  9  2  0  0  0  0
  9 13  1  0  0  0  0
 11  2  1  0  0  0  0
 12 11  2  0  0  0  0
 13 14  1  0  0  0  0
 14 15  1  0  0  0  0
 15 16  1  0  0  0  0
 17 16  1  0  0  0  0
 18 17  1  0  0  0  0
 19 17  1  0  0  0  0
 20 18  1  0  0  0  0
 20 14  1  0  0  0  0
 21 14  1  0  0  0  0
 22 28  2  0  0  0  0
 22 23  1  0  0  0  0
 23 24  2  0  0  0  0
 24 26  1  0  0  0  0
 24 25  1  0  0  0  0
 27 26  2  0  0  0  0
 28 27  1  0  0  0  0
M  END
>  <Pose>
1

>  <Score>
-9.610

$$$$
