MODEL 1
REMARK VINA RESULT:    -9.610      0.000      0.000
REMARK INTER + INTRA:         -11.701
REMARK INTER:                 -11.295
REMARK INTRA:                  -0.406
REMARK UNBOUND:                -0.406
REMARK  3 active torsions:
REMARK  status: ('A' for Active; 'I' for Inactive)
REMARK    1  A    between atoms: C_4  and  C_8 
REMARK    2  A    between atoms: C_16  and  C_17 
REMARK    3  A    between atoms: C_17  and  N_18 
ROOT
ATOM      1  C   UNK d   1      16.113   2.728  10.480  0.00  0.00     0.053 C 
ATOM      2  C   UNK d   1      14.989   2.149  10.054  0.00  0.00     0.127 A 
ATOM      3  O   UNK d   1      13.690   2.419  10.479  0.00  0.00    -0.305 OA
ATOM      4  C   UNK d   1      12.790   1.633   9.813  0.00  0.00     0.101 A 
ATOM      5  C   UNK d   1      13.449   0.802   8.913  0.00  0.00     0.051 A 
ATOM      6  C   UNK d   1      12.689  -0.063   8.142  0.00  0.00     0.021 A 
ATOM      7  C   UNK d   1      11.320  -0.087   8.273  0.00  0.00     0.041 A 
ATOM      8  C   UNK d   1      10.692   0.763   9.188  0.00  0.00     0.118 A 
ATOM      9  C   UNK d   1      11.419   1.627   9.964  0.00  0.00     0.039 A 
ATOM     10  O   UNK d   1       9.311   0.663   9.246  0.00  0.00    -0.191 OA
ATOM     11  C   UNK d   1      14.885   1.105   9.038  0.00  0.00     0.218 A 
ATOM     12  O   UNK d   1      15.797   0.541   8.379  0.00  0.00    -0.284 OA
ENDROOT
BRANCH   9  13
ATOM     13  C   UNK d   1      10.721   2.438  10.963  0.00  0.00     0.279 C 
BRANCH  13  14
ATOM     14  N   UNK d   1      11.206   3.756  11.157  0.00  0.00    -0.064 N 
ATOM     15  C   UNK d   1      10.975   4.127  12.544  0.00  0.00     0.265 C 
ATOM     16  C   UNK d   1      10.559   5.541  12.761  0.00  0.00     0.299 C 
ATOM     17  N   UNK d   1       9.495   5.997  11.937  0.00  0.00     0.087 N 
ATOM     18  C   UNK d   1       9.255   5.119  10.840  0.00  0.00     0.299 C 
ATOM     19  C   UNK d   1       9.753   7.355  11.507  0.00  0.00     0.310 C 
ATOM     20  C   UNK d   1      10.552   4.672  10.254  0.00  0.00     0.265 C 
ATOM     21  H   UNK d   1      12.243   3.851  10.936  0.00  0.00     0.280 HD
ENDBRANCH  13  14
ENDBRANCH   9  13
BRANCH   1  22
ATOM     22  C   UNK d   1      16.084   3.765  11.493  0.00  0.00    -0.032 A 
ATOM     23  C   UNK d   1      17.248   4.262  12.034  0.00  0.00     0.030 A 
ATOM     24  C   UNK d   1      17.205   5.248  13.015  0.00  0.00     0.011 A 
ATOM     25 Br   UNK d   1      18.821   5.932  13.773  0.00  0.00    -0.051 Br
ATOM     26  C   UNK d   1      15.982   5.733  13.452  0.00  0.00     0.019 A 
ATOM     27  C   UNK d   1      14.841   5.209  12.888  0.00  0.00     0.002 A 
ATOM     28  C   UNK d   1      14.865   4.236  11.916  0.00  0.00     0.011 A 
ENDBRANCH   1  22
TORSDOF 3
ENDMDL
