/Users/jonathanwahrer/Desktop/Msc/3_Semester/Drug_Design_Praktikum/waehrer_HTS_screening/HTS_experiment/out/docking_results/vina_output/2jam/1337_docked.pdbqt
 OpenBabel03162218203D

 32 35  0  0  1  0  0  0  0  0999 V2000
    9.2590    8.9520   12.5050 C   0  0  2  0  0  3  0  0  0  0  0  0
    9.2900    9.8480   13.5060 O   0  0  0  0  0  0  0  0  0  0  0  0
    8.1160   10.2270   14.0770 C   0  0  2  0  0  3  0  0  0  0  0  0
    8.4180   10.8650   15.2890 O   0  0  0  0  0  0  0  0  0  0  0  0
    8.4620    9.9000   16.2650 C   0  0  0  0  0  0  0  0  0  0  0  0
    7.9900    8.7140   15.7380 O   0  0  0  0  0  0  0  0  0  0  0  0
    7.2770    9.0720   14.5700 C   0  0  2  0  0  3  0  0  0  0  0  0
    7.2050    7.9630   13.5920 C   0  0  1  0  0  3  0  0  0  0  0  0
    5.9160    7.8630   13.0200 O   0  0  0  0  0  0  0  0  0  0  0  0
    6.0790    7.6380   11.6770 C   0  0  0  0  0  0  0  0  0  0  0  0
    7.2540    8.2710   11.3640 O   0  0  0  0  0  0  0  0  0  0  0  0
    8.1140    8.0120   12.4410 C   0  0  1  0  0  3  0  0  0  0  0  0
    4.8850    8.2910   10.9700 C   0  0  0  0  0  1  0  0  0  0  0  0
    6.0430    6.1790   11.3020 C   0  0  0  0  0  1  0  0  0  0  0  0
    7.5550   10.2430   17.4480 C   0  0  0  0  0  1  0  0  0  0  0  0
    9.8570    9.7140   16.8380 C   0  0  0  0  0  1  0  0  0  0  0  0
   10.5520    8.2180   12.4780 C   0  0  0  0  0  0  0  0  0  0  0  0
   10.8680    7.3800   11.3800 N   0  0  0  0  0  0  0  0  0  0  0  0
   10.1730    7.3010   10.6080 H   0  0  0  0  0  0  0  0  0  0  0  0
   11.3970    8.3090   13.4090 O   0  0  0  0  0  0  0  0  0  0  0  0
   12.0890    6.6380   11.2730 C   0  0  0  0  0  2  0  0  0  0  0  0
   11.9230    5.4630   10.3780 C   0  0  0  0  0  0  0  0  0  0  0  0
   12.1790    4.1460   10.7990 N   0  0  0  0  0  0  0  0  0  0  0  0
   12.5050    4.0520   11.8160 H   0  0  0  0  0  0  0  0  0  0  0  0
   11.5380    5.7010    9.2160 O   0  0  0  0  0  0  0  0  0  0  0  0
   12.0680    2.9620   10.0780 C   0  0  0  0  0  0  0  0  0  0  0  0
   10.8280    2.3520    9.9580 C   0  0  0  0  0  3  0  0  0  0  0  0
   10.6150    1.1820    9.2670 C   0  0  0  0  0  3  0  0  0  0  0  0
   11.6740    0.5560    8.6470 C   0  0  0  0  0  0  0  0  0  0  0  0
   11.3510   -1.0720    7.6910 Br  0  0  0  0  0  0  0  0  0  0  0  0
   12.9080    1.1180    8.7390 C   0  0  0  0  0  3  0  0  0  0  0  0
   13.1060    2.3130    9.4490 C   0  0  0  0  0  3  0  0  0  0  0  0
  1 17  1  1  0  0  0
  1  2  1  0  0  0  0
  3  2  1  1  0  0  0
  3  7  1  0  0  0  0
  3  4  1  0  0  0  0
  4  5  1  0  0  0  0
  5 16  1  0  0  0  0
  5 15  1  0  0  0  0
  6  5  1  0  0  0  0
  7  6  1  1  0  0  0
  8  9  1  6  0  0  0
  8  7  1  0  0  0  0
 10  9  1  0  0  0  0
 11 10  1  0  0  0  0
 12 11  1  6  0  0  0
 12  1  1  0  0  0  0
 12  8  1  0  0  0  0
 13 10  1  0  0  0  0
 14 10  1  0  0  0  0
 17 20  2  0  0  0  0
 18 17  1  0  0  0  0
 19 18  1  0  0  0  0
 21 18  1  0  0  0  0
 22 23  1  0  0  0  0
 22 21  1  0  0  0  0
 23 24  1  0  0  0  0
 25 22  2  0  0  0  0
 26 23  1  0  0  0  0
 27 26  1  0  0  0  0
 28 27  2  0  0  0  0
 29 31  2  0  0  0  0
 29 28  1  0  0  0  0
 30 29  1  0  0  0  0
 31 32  1  0  0  0  0
 32 26  2  0  0  0  0
M  END
>  <Pose>
1

>  <Score>
-8.841

$$$$
