MODEL 1
REMARK VINA RESULT:    -8.841      0.000      0.000
REMARK INTER + INTRA:         -11.559
REMARK INTER:                 -10.908
REMARK INTRA:                  -0.651
REMARK UNBOUND:                -0.651
REMARK  4 active torsions:
REMARK  status: ('A' for Active; 'I' for Inactive)
REMARK    1  A    between atoms: C_5  and  N_8 
REMARK       I    between atoms: N_8  and  C_9 
REMARK    2  A    between atoms: C_9  and  C_11 
REMARK    3  A    between atoms: C_11  and  N_12 
REMARK       I    between atoms: N_12  and  C_13 
REMARK    4  A    between atoms: C_13  and  C_15 
ROOT
ATOM      1  C   UNK d   1       9.259   8.952  12.505  0.00  0.00     0.248 C 
ATOM      2  O   UNK d   1       9.290   9.848  13.506  0.00  0.00    -0.341 OA
ATOM      3  C   UNK d   1       8.116  10.227  14.077  0.00  0.00     0.296 C 
ATOM      4  O   UNK d   1       8.418  10.865  15.289  0.00  0.00    -0.323 OA
ATOM      5  C   UNK d   1       8.462   9.900  16.265  0.00  0.00     0.160 C 
ATOM      6  O   UNK d   1       7.990   8.714  15.738  0.00  0.00    -0.343 OA
ATOM      7  C   UNK d   1       7.277   9.072  14.570  0.00  0.00     0.212 C 
ATOM      8  C   UNK d   1       7.205   7.963  13.592  0.00  0.00     0.191 C 
ATOM      9  O   UNK d   1       5.916   7.863  13.020  0.00  0.00    -0.345 OA
ATOM     10  C   UNK d   1       6.079   7.638  11.677  0.00  0.00     0.158 C 
ATOM     11  O   UNK d   1       7.254   8.271  11.364  0.00  0.00    -0.345 OA
ATOM     12  C   UNK d   1       8.114   8.012  12.441  0.00  0.00     0.195 C 
ATOM     13  C   UNK d   1       4.885   8.291  10.970  0.00  0.00     0.078 C 
ATOM     14  C   UNK d   1       6.043   6.179  11.302  0.00  0.00     0.078 C 
ATOM     15  C   UNK d   1       7.555  10.243  17.448  0.00  0.00     0.078 C 
ATOM     16  C   UNK d   1       9.857   9.714  16.838  0.00  0.00     0.078 C 
ENDROOT
BRANCH   1  17
ATOM     17  C   UNK d   1      10.552   8.218  12.478  0.00  0.00     0.249 C 
ATOM     18  N   UNK d   1      10.868   7.380  11.380  0.00  0.00    -0.350 N 
ATOM     19  H   UNK d   1      10.173   7.301  10.608  0.00  0.00     0.163 HD
ATOM     20  O   UNK d   1      11.397   8.309  13.409  0.00  0.00    -0.271 OA
BRANCH  18  21
ATOM     21  C   UNK d   1      12.089   6.638  11.273  0.00  0.00     0.225 C 
BRANCH  21  22
ATOM     22  C   UNK d   1      11.923   5.463  10.378  0.00  0.00     0.239 C 
ATOM     23  N   UNK d   1      12.179   4.146  10.799  0.00  0.00    -0.326 N 
ATOM     24  H   UNK d   1      12.505   4.052  11.816  0.00  0.00     0.169 HD
ATOM     25  O   UNK d   1      11.538   5.701   9.216  0.00  0.00    -0.271 OA
BRANCH  23  26
ATOM     26  C   UNK d   1      12.068   2.962  10.078  0.00  0.00     0.034 A 
ATOM     27  C   UNK d   1      10.828   2.352   9.958  0.00  0.00     0.031 A 
ATOM     28  C   UNK d   1      10.615   1.182   9.267  0.00  0.00     0.021 A 
ATOM     29  C   UNK d   1      11.674   0.556   8.647  0.00  0.00     0.011 A 
ATOM     30 Br   UNK d   1      11.351  -1.072   7.691  0.00  0.00    -0.051 Br
ATOM     31  C   UNK d   1      12.908   1.118   8.739  0.00  0.00     0.021 A 
ATOM     32  C   UNK d   1      13.106   2.313   9.449  0.00  0.00     0.031 A 
ENDBRANCH  23  26
ENDBRANCH  21  22
ENDBRANCH  18  21
ENDBRANCH   1  17
TORSDOF 4
ENDMDL
