MODEL 1
REMARK VINA RESULT:    -9.425      0.000      0.000
REMARK INTER + INTRA:         -12.695
REMARK INTER:                 -12.180
REMARK INTRA:                  -0.515
REMARK UNBOUND:                -0.515
REMARK  5 active torsions:
REMARK  status: ('A' for Active; 'I' for Inactive)
REMARK    1  A    between atoms: C_5  and  C_8 
REMARK    2  A    between atoms: N_11  and  C_13 
REMARK    3  A    between atoms: C_13  and  C_14 
REMARK       I    between atoms: C_14  and  N_16 
REMARK    4  A    between atoms: N_16  and  C_17 
REMARK    5  A    between atoms: C_20  and  C_23 
ROOT
ATOM      1  C   UNK d   1      12.073   1.645   9.878  0.00  0.00     0.061 A 
ATOM      2  N   UNK d   1      13.419   1.794   9.866  0.00  0.00    -0.335 N 
ATOM      3  C   UNK d   1      13.740   2.857  10.632  0.00  0.00     0.086 A 
ATOM      4  N   UNK d   1      12.625   3.415  11.151  0.00  0.00    -0.336 N 
ATOM      5  C   UNK d   1      11.605   2.661  10.681  0.00  0.00     0.123 A 
ATOM      6  C   UNK d   1      15.214   3.043  10.638  0.00  0.00     0.078 A 
ATOM      7  C   UNK d   1      15.766   2.019   9.707  0.00  0.00     0.028 A 
ATOM      8  C   UNK d   1      14.605   1.189   9.302  0.00  0.00     0.131 A 
ENDROOT
BRANCH   4   9
ATOM      9  C   UNK d   1      12.516   4.566  12.023  0.00  0.00     0.232 C 
BRANCH   9  10
ATOM     10  C   UNK d   1      11.328   5.381  11.641  0.00  0.00     0.240 C 
ATOM     11  O   UNK d   1      11.291   5.847  10.500  0.00  0.00    -0.271 OA
ATOM     12  N   UNK d   1      10.328   5.567  12.597  0.00  0.00    -0.326 N 
ATOM     13  H   UNK d   1      10.414   5.137  13.578  0.00  0.00     0.169 HD
BRANCH  12  14
ATOM     14  C   UNK d   1       9.135   6.307  12.388  0.00  0.00     0.034 A 
ATOM     15  C   UNK d   1       9.168   7.699  12.547  0.00  0.00     0.030 A 
ATOM     16  C   UNK d   1       8.041   8.436  12.373  0.00  0.00     0.009 A 
ATOM     17  C   UNK d   1       6.837   7.840  12.035  0.00  0.00    -0.058 A 
ATOM     18  C   UNK d   1       6.815   6.483  11.883  0.00  0.00     0.009 A 
ATOM     19  C   UNK d   1       7.960   5.696  12.056  0.00  0.00     0.030 A 
BRANCH  17  20
ATOM     20  C   UNK d   1       5.618   8.667  11.849  0.00  0.00     0.034 C 
ATOM     21  C   UNK d   1       4.969   8.265  10.521  0.00  0.00     0.010 C 
ENDBRANCH  17  20
ENDBRANCH  12  14
ENDBRANCH   9  10
ENDBRANCH   4   9
BRANCH   1  22
ATOM     22  C   UNK d   1      11.235   0.651   9.210  0.00  0.00    -0.008 A 
ATOM     23  C   UNK d   1       9.890   0.542   9.507  0.00  0.00     0.015 A 
ATOM     24  C   UNK d   1       9.075  -0.391   8.892  0.00  0.00     0.024 A 
ATOM     25  C   UNK d   1       9.573  -1.260   7.945  0.00  0.00     0.034 A 
ATOM     26 Cl   UNK d   1       8.542  -2.448   7.157  0.00  0.00    -0.084 Cl
ATOM     27  C   UNK d   1      10.914  -1.164   7.639  0.00  0.00     0.024 A 
ATOM     28  C   UNK d   1      11.736  -0.219   8.264  0.00  0.00     0.015 A 
ENDBRANCH   1  22
TORSDOF 5
ENDMDL
