MODEL 1
REMARK VINA RESULT:    -8.143      0.000      0.000
REMARK INTER + INTRA:         -14.327
REMARK INTER:                 -12.665
REMARK INTRA:                  -1.663
REMARK UNBOUND:                -1.663
REMARK  12 active torsions:
REMARK  status: ('A' for Active; 'I' for Inactive)
REMARK    1  A    between atoms: C_3  and  C_12 
REMARK    2  A    between atoms: C_5  and  O_10 
REMARK    3  A    between atoms: C_6  and  O_8 
REMARK    4  A    between atoms: N_13  and  N_14 
REMARK    5  A    between atoms: N_14  and  C_15 
REMARK    6  A    between atoms: N_16  and  C_26 
REMARK    7  A    between atoms: C_19  and  N_25 
REMARK    8  A    between atoms: C_21  and  O_24 
REMARK    9  A    between atoms: C_28  and  C_33 
REMARK   10  A    between atoms: C_29  and  O_32 
REMARK   11  A    between atoms: C_30  and  O_31 
REMARK   12  A    between atoms: C_33  and  O_34 
ROOT
ATOM      1  C   UNK d   1       8.529   7.829  12.427  0.00  0.00     0.727 A 
ATOM      2  N   UNK d   1       7.842   8.049  13.577  0.00  0.00    -0.130 N 
ATOM      3  C   UNK d   1       6.541   8.287  13.267  0.00  0.00     0.201 A 
ATOM      4  N   UNK d   1       5.446   8.558  13.986  0.00  0.00    -0.042 NA
ATOM      5  C   UNK d   1       4.244   8.757  13.414  0.00  0.00     0.724 A 
ATOM      6  N   UNK d   1       4.141   8.681  12.069  0.00  0.00    -0.036 NA
ATOM      7  C   UNK d   1       5.185   8.417  11.292  0.00  0.00     0.215 A 
ATOM      8  C   UNK d   1       6.415   8.213  11.885  0.00  0.00     0.176 A 
ATOM      9  N   UNK d   1       7.625   7.938  11.430  0.00  0.00    -0.055 NA
ENDROOT
BRANCH   1  10
ATOM     10  N   UNK d   1       9.918   7.542  12.320  0.00  0.00    -0.107 N 
ATOM     11  H   UNK d   1      10.606   8.279  12.537  0.00  0.00     0.208 HD
BRANCH  10  12
ATOM     12  N   UNK d   1      10.285   6.243  11.916  0.00  0.00    -0.172 NA
ATOM     13  C   UNK d   1      11.363   5.974  11.302  0.00  0.00     0.152 C 
BRANCH  13  14
ATOM     14  C   UNK d   1      11.769   4.641  10.872  0.00  0.00     0.003 A 
ATOM     15  C   UNK d   1      13.030   4.158  11.151  0.00  0.00     0.025 A 
ATOM     16 Br   UNK d   1      14.238   5.267  12.112  0.00  0.00    -0.050 Br
ATOM     17  C   UNK d   1      13.426   2.882  10.742  0.00  0.00     0.059 A 
ATOM     18  C   UNK d   1      12.569   2.059  10.044  0.00  0.00     0.102 A 
ATOM     19  C   UNK d   1      11.308   2.542   9.764  0.00  0.00     0.102 A 
ATOM     20  C   UNK d   1      10.927   3.803  10.173  0.00  0.00     0.054 A 
BRANCH  18  21
ATOM     21  O   UNK d   1      12.948   0.782   9.627  0.00  0.00    -0.353 OA
ATOM     22  C   UNK d   1      13.500   0.515   8.373  0.00  0.00     0.210 C 
ENDBRANCH  18  21
BRANCH  19  23
ATOM     23  O   UNK d   1      10.452   1.702   9.060  0.00  0.00    -0.353 OA
ATOM     24  C   UNK d   1       9.632   0.739   9.642  0.00  0.00     0.210 C 
ENDBRANCH  19  23
ENDBRANCH  13  14
ENDBRANCH  10  12
ENDBRANCH   1  10
BRANCH   2  25
ATOM     25  C   UNK d   1       8.399   8.032  14.894  0.00  0.00     0.279 C 
ATOM     26  O   UNK d   1       9.596   8.724  15.010  0.00  0.00    -0.353 OA
ATOM     27  C   UNK d   1      10.271   8.249  16.097  0.00  0.00     0.179 C 
ATOM     28  C   UNK d   1       9.640   6.985  16.572  0.00  0.00     0.182 C 
ATOM     29  C   UNK d   1       8.704   6.641  15.411  0.00  0.00     0.199 C 
BRANCH  27  30
ATOM     30  C   UNK d   1      11.702   7.922  15.667  0.00  0.00     0.198 C 
BRANCH  30  31
ATOM     31  O   UNK d   1      11.685   7.067  14.560  0.00  0.00    -0.398 OA
ATOM     32  H   UNK d   1      11.620   6.118  14.838  0.00  0.00     0.209 HD
ENDBRANCH  30  31
ENDBRANCH  27  30
BRANCH  28  33
ATOM     33  O   UNK d   1       8.791   7.244  17.668  0.00  0.00    -0.390 OA
ATOM     34  H   UNK d   1       8.508   8.183  17.689  0.00  0.00     0.210 HD
ENDBRANCH  28  33
BRANCH  29  35
ATOM     35  O   UNK d   1       7.559   5.997  15.878  0.00  0.00    -0.388 OA
ATOM     36  H   UNK d   1       7.292   5.281  15.245  0.00  0.00     0.210 HD
ENDBRANCH  29  35
ENDBRANCH   2  25
BRANCH   7  37
ATOM     37  O   UNK d   1       5.110   8.331   9.898  0.00  0.00    -0.343 OA
ATOM     38  H   UNK d   1       5.995   8.305   9.405  0.00  0.00     0.219 HD
ENDBRANCH   7  37
BRANCH   5  39
ATOM     39  N   UNK d   1       3.079   9.046  14.201  0.00  0.00    -0.231 N 
ATOM     40  H   UNK d   1       2.238   8.460  14.227  0.00  0.00     0.174 HD
ATOM     41  H   UNK d   1       3.114   9.914  14.776  0.00  0.00     0.174 HD
ENDBRANCH   5  39
TORSDOF 12
ENDMDL
