/Users/jonathanwahrer/Desktop/Msc/3_Semester/Drug_Design_Praktikum/waehrer_HTS_screening/HTS_experiment/out/docking_results/vina_output/2jam/1343_docked.pdbqt
 OpenBabel03162218203D

 41 44  0  0  1  0  0  0  0  0999 V2000
    8.5290    7.8290   12.4270 C   0  0  0  0  0  0  0  0  0  0  0  0
    7.8420    8.0490   13.5770 N   0  0  0  0  0  0  0  0  0  0  0  0
    6.5410    8.2870   13.2670 C   0  0  0  0  0  0  0  0  0  0  0  0
    5.4460    8.5580   13.9860 N   0  0  0  0  0  0  0  0  0  0  0  0
    4.2440    8.7570   13.4140 C   0  0  0  0  0  0  0  0  0  0  0  0
    4.1410    8.6810   12.0690 N   0  0  0  0  0  0  0  0  0  0  0  0
    5.1850    8.4170   11.2920 C   0  0  0  0  0  0  0  0  0  0  0  0
    6.4150    8.2130   11.8850 C   0  0  0  0  0  0  0  0  0  0  0  0
    7.6250    7.9380   11.4300 N   0  0  0  0  0  0  0  0  0  0  0  0
    9.9180    7.5420   12.3200 N   0  0  0  0  0  0  0  0  0  0  0  0
   10.6060    8.2790   12.5370 H   0  0  0  0  0  0  0  0  0  0  0  0
   10.2850    6.2430   11.9160 N   0  0  0  0  0  0  0  0  0  0  0  0
   11.3630    5.9740   11.3020 C   0  0  0  0  0  3  0  0  0  0  0  0
   11.7690    4.6410   10.8720 C   0  0  0  0  0  0  0  0  0  0  0  0
   13.0300    4.1580   11.1510 C   0  0  0  0  0  0  0  0  0  0  0  0
   14.2380    5.2670   12.1120 Br  0  0  0  0  0  0  0  0  0  0  0  0
   13.4260    2.8820   10.7420 C   0  0  0  0  0  3  0  0  0  0  0  0
   12.5690    2.0590   10.0440 C   0  0  0  0  0  0  0  0  0  0  0  0
   11.3080    2.5420    9.7640 C   0  0  0  0  0  0  0  0  0  0  0  0
   10.9270    3.8030   10.1730 C   0  0  0  0  0  3  0  0  0  0  0  0
   12.9480    0.7820    9.6270 O   0  0  0  0  0  0  0  0  0  0  0  0
   13.5000    0.5150    8.3730 C   0  0  0  0  0  1  0  0  0  0  0  0
   10.4520    1.7020    9.0600 O   0  0  0  0  0  0  0  0  0  0  0  0
    9.6320    0.7390    9.6420 C   0  0  0  0  0  1  0  0  0  0  0  0
    8.3990    8.0320   14.8940 C   0  0  2  0  0  3  0  0  0  0  0  0
    9.5960    8.7240   15.0100 O   0  0  0  0  0  0  0  0  0  0  0  0
   10.2710    8.2490   16.0970 C   0  0  1  0  0  3  0  0  0  0  0  0
    9.6400    6.9850   16.5720 C   0  0  2  0  0  3  0  0  0  0  0  0
    8.7040    6.6410   15.4110 C   0  0  1  0  0  3  0  0  0  0  0  0
   11.7020    7.9220   15.6670 C   0  0  0  0  0  2  0  0  0  0  0  0
   11.6850    7.0670   14.5600 O   0  0  0  0  0  0  0  0  0  0  0  0
   11.6200    6.1180   14.8380 H   0  0  0  0  0  0  0  0  0  0  0  0
    8.7910    7.2440   17.6680 O   0  0  0  0  0  0  0  0  0  0  0  0
    8.5080    8.1830   17.6890 H   0  0  0  0  0  0  0  0  0  0  0  0
    7.5590    5.9970   15.8780 O   0  0  0  0  0  0  0  0  0  0  0  0
    7.2920    5.2810   15.2450 H   0  0  0  0  0  0  0  0  0  0  0  0
    5.1100    8.3310    9.8980 O   0  0  0  0  0  0  0  0  0  0  0  0
    5.9950    8.3050    9.4050 H   0  0  0  0  0  0  0  0  0  0  0  0
    3.0790    9.0460   14.2010 N   0  0  0  0  0  0  0  0  0  0  0  0
    2.2380    8.4600   14.2270 H   0  0  0  0  0  0  0  0  0  0  0  0
    3.1140    9.9140   14.7760 H   0  0  0  0  0  0  0  0  0  0  0  0
  1  2  1  0  0  0  0
  3  2  1  0  0  0  0
  3  4  1  0  0  0  0
  5  4  2  0  0  0  0
  5 39  1  0  0  0  0
  6  5  1  0  0  0  0
  7  8  1  0  0  0  0
  7  6  2  0  0  0  0
  8  3  2  0  0  0  0
  9  8  1  0  0  0  0
  9  1  2  0  0  0  0
 10  1  1  0  0  0  0
 10 11  1  0  0  0  0
 12 10  1  0  0  0  0
 13 12  2  0  0  0  0
 14 15  1  0  0  0  0
 14 13  1  0  0  0  0
 15 16  1  0  0  0  0
 17 15  2  0  0  0  0
 18 17  1  0  0  0  0
 19 18  2  0  0  0  0
 19 20  1  0  0  0  0
 20 14  2  0  0  0  0
 21 18  1  0  0  0  0
 22 21  1  0  0  0  0
 23 24  1  0  0  0  0
 23 19  1  0  0  0  0
 25  2  1  6  0  0  0
 25 26  1  0  0  0  0
 25 29  1  0  0  0  0
 26 27  1  0  0  0  0
 27 30  1  6  0  0  0
 27 28  1  0  0  0  0
 28 33  1  1  0  0  0
 29 35  1  1  0  0  0
 29 28  1  0  0  0  0
 31 32  1  0  0  0  0
 31 30  1  0  0  0  0
 33 34  1  0  0  0  0
 36 35  1  0  0  0  0
 37  7  1  0  0  0  0
 38 37  1  0  0  0  0
 39 40  1  0  0  0  0
 39 41  1  0  0  0  0
M  END
>  <Pose>
1

>  <Score>
-8.143

$$$$
