MODEL 1
REMARK VINA RESULT:    -9.745      0.000      0.000
REMARK INTER + INTRA:         -12.866
REMARK INTER:                 -12.023
REMARK INTRA:                  -0.843
REMARK UNBOUND:                -0.843
REMARK  4 active torsions:
REMARK  status: ('A' for Active; 'I' for Inactive)
REMARK    1  A    between atoms: C_3  and  C_8 
REMARK    2  A    between atoms: C_11  and  C_13 
REMARK    3  A    between atoms: C_13  and  N_14 
REMARK       I    between atoms: N_14  and  C_15 
REMARK    4  A    between atoms: C_15  and  C_17 
ROOT
ATOM      1  N   UNK d   1       8.948   5.758  11.183  0.00  0.00    -0.353 N 
ATOM      2  C   UNK d   1       8.685   5.971  12.548  0.00  0.00     0.229 C 
ATOM      3  O   UNK d   1       9.637   6.030  13.357  0.00  0.00    -0.273 OA
ATOM      4  H   UNK d   1       8.153   5.711  10.516  0.00  0.00     0.162 HD
ENDROOT
BRANCH   1   5
ATOM      5  C   UNK d   1      10.304   5.603  10.691  0.00  0.00     0.211 C 
BRANCH   5   6
ATOM      6  C   UNK d   1      10.686   4.145  10.664  0.00  0.00     0.190 A 
ATOM      7  O   UNK d   1      11.264   3.448  11.609  0.00  0.00    -0.194 OA
ATOM      8  N   UNK d   1      11.434   2.205  11.209  0.00  0.00    -0.105 NA
ATOM      9  C   UNK d   1      10.956   2.070   9.961  0.00  0.00     0.191 A 
ATOM     10  N   UNK d   1      10.492   3.290   9.636  0.00  0.00    -0.202 NA
BRANCH   9  11
ATOM     11  C   UNK d   1      10.944   0.864   9.140  0.00  0.00     0.036 A 
ATOM     12  C   UNK d   1      12.047   0.444   8.428  0.00  0.00     0.048 A 
ATOM     13 Cl   UNK d   1      13.497   1.412   8.530  0.00  0.00    -0.083 Cl
ATOM     14  C   UNK d   1      12.040  -0.705   7.644  0.00  0.00     0.025 A 
ATOM     15  C   UNK d   1      10.906  -1.472   7.557  0.00  0.00     0.002 A 
ATOM     16  C   UNK d   1       9.775  -1.063   8.274  0.00  0.00     0.001 A 
ATOM     17  C   UNK d   1       9.819   0.080   9.039  0.00  0.00     0.017 A 
ENDBRANCH   9  11
ENDBRANCH   5   6
ENDBRANCH   1   5
BRANCH   2  18
ATOM     18  C   UNK d   1       7.302   6.124  13.025  0.00  0.00     0.151 C 
ATOM     19  C   UNK d   1       7.243   6.539  14.483  0.00  0.00     0.022 C 
ATOM     20  C   UNK d   1       5.849   6.874  14.898  0.00  0.00     0.003 C 
ATOM     21  C   UNK d   1       5.475   8.313  14.755  0.00  0.00     0.022 C 
ATOM     22  C   UNK d   1       6.246   9.001  13.632  0.00  0.00     0.154 C 
ATOM     23  N   UNK d   1       6.030   8.232  12.428  0.00  0.00    -0.234 N 
ATOM     24  N   UNK d   1       5.339   8.666  11.407  0.00  0.00    -0.044 NA
ATOM     25  C   UNK d   1       6.484   6.999  12.171  0.00  0.00     0.161 A 
ATOM     26  N   UNK d   1       5.331   7.738  10.482  0.00  0.00    -0.023 NA
ATOM     27  N   UNK d   1       6.027   6.716  10.938  0.00  0.00    -0.113 NA
ENDBRANCH   2  18
TORSDOF 4
ENDMDL
