MODEL 1
REMARK VINA RESULT:    -7.551      0.000      0.000
REMARK INTER + INTRA:          -9.646
REMARK INTER:                 -10.199
REMARK INTRA:                   0.553
REMARK UNBOUND:                 0.553
REMARK  6 active torsions:
REMARK  status: ('A' for Active; 'I' for Inactive)
REMARK    1  A    between atoms: C_5  and  C_8 
REMARK    2  A    between atoms: C_8  and  C_10 
REMARK    3  A    between atoms: C_25  and  C_31 
REMARK    4  A    between atoms: C_26  and  C_27 
REMARK    5  A    between atoms: C_27  and  O_29 
REMARK    6  A    between atoms: C_31  and  O_33 
ROOT
ATOM      1  C   UNK d   1       7.311   9.299  14.901  0.00  0.00     0.162 C 
ATOM      2  N   UNK d   1       8.409   8.641  14.241  0.00  0.00    -0.339 N 
ATOM      3  C   UNK d   1       7.698   7.614  13.446  0.00  0.00     0.203 A 
ATOM      4  N   UNK d   1       8.663   7.006  12.615  0.00  0.00    -0.347 N 
ATOM      5  C   UNK d   1       9.943   7.534  12.974  0.00  0.00     0.143 A 
ATOM      6  C   UNK d   1       9.764   8.513  13.953  0.00  0.00     0.146 A 
ATOM      7  C   UNK d   1      10.873   9.161  14.454  0.00  0.00     0.281 A 
ATOM      8  O   UNK d   1      10.687  10.039  15.335  0.00  0.00    -0.265 OA
ATOM      9  N   UNK d   1      12.089   8.841  13.996  0.00  0.00    -0.269 N 
ATOM     10  C   UNK d   1      12.230   7.910  13.068  0.00  0.00     0.332 A 
ATOM     11  O   UNK d   1      13.393   7.638  12.663  0.00  0.00    -0.246 OA
ATOM     12  N   UNK d   1      11.168   7.232  12.533  0.00  0.00    -0.287 N 
ATOM     13  C   UNK d   1      11.457   6.235  11.527  0.00  0.00     0.163 C 
ATOM     14  C   UNK d   1      13.242   9.555  14.555  0.00  0.00     0.164 C 
ATOM     15  C   UNK d   1       8.463   6.004  11.600  0.00  0.00     0.153 C 
ATOM     16  C   UNK d   1       6.537   8.320  12.884  0.00  0.00     0.144 C 
ATOM     17  C   UNK d   1       6.483   9.648  13.653  0.00  0.00     0.132 C 
ENDROOT
BRANCH   1  18
ATOM     18  C   UNK d   1       6.556   8.394  15.736  0.00  0.00     0.118 C 
ATOM     19  O   UNK d   1       6.753   7.137  15.456  0.00  0.00    -0.194 OA
BRANCH  18  20
ATOM     20  C   UNK d   1       5.628   8.649  16.815  0.00  0.00    -0.002 A 
ATOM     21  C   UNK d   1       4.527   7.863  17.058  0.00  0.00     0.015 A 
ATOM     22  C   UNK d   1       3.676   8.190  18.085  0.00  0.00     0.020 A 
ATOM     23  C   UNK d   1       3.897   9.298  18.890  0.00  0.00     0.011 A 
ATOM     24 Br   UNK d   1       2.699   9.728  20.308  0.00  0.00    -0.051 Br
ATOM     25  C   UNK d   1       5.007  10.085  18.641  0.00  0.00     0.020 A 
ATOM     26  C   UNK d   1       5.866   9.769  17.616  0.00  0.00     0.015 A 
ENDBRANCH  18  20
ENDBRANCH   1  18
BRANCH  17  27
ATOM     27  C   UNK d   1       5.113  10.042  13.964  0.00  0.00     0.266 C 
ATOM     28  O   UNK d   1       4.872  11.219  14.394  0.00  0.00    -0.265 OA
BRANCH  27  29
ATOM     29  O   UNK d   1       4.057   9.186  13.812  0.00  0.00    -0.326 OA
ATOM     30  C   UNK d   1       2.751   9.459  14.325  0.00  0.00     0.213 C 
ENDBRANCH  27  29
ENDBRANCH  17  27
BRANCH  16  31
ATOM     31  C   UNK d   1       6.472   8.542  11.446  0.00  0.00     0.267 C 
ATOM     32  O   UNK d   1       7.252   9.367  10.903  0.00  0.00    -0.265 OA
BRANCH  31  33
ATOM     33  O   UNK d   1       5.574   7.870  10.645  0.00  0.00    -0.326 OA
ATOM     34  C   UNK d   1       4.207   8.215  10.622  0.00  0.00     0.213 C 
ENDBRANCH  31  33
ENDBRANCH  16  31
TORSDOF 6
ENDMDL
