MODEL 1
REMARK VINA RESULT:    -9.306      0.000      0.000
REMARK INTER + INTRA:         -11.588
REMARK INTER:                 -10.938
REMARK INTRA:                  -0.649
REMARK UNBOUND:                -0.649
REMARK  3 active torsions:
REMARK  status: ('A' for Active; 'I' for Inactive)
REMARK    1  A    between atoms: C_4  and  C_8 
REMARK       I    between atoms: C_8  and  N_10 
REMARK    2  A    between atoms: N_10  and  C_11 
REMARK    3  A    between atoms: C_11  and  C_13 
REMARK       I    between atoms: C_13  and  N_15 
ROOT
ATOM      1  C   UNK d   1       8.789   7.670  11.864  0.00  0.00     0.242 C 
ATOM      2  O   UNK d   1       9.301   7.666  10.726  0.00  0.00    -0.271 OA
ATOM      3  N   UNK d   1       8.469   8.882  12.486  0.00  0.00    -0.350 N 
ATOM      4  C   UNK d   1       8.304  10.188  11.942  0.00  0.00     0.129 C 
ATOM      5  C   UNK d   1       7.262  10.850  12.856  0.00  0.00     0.068 C 
ATOM      6  C   UNK d   1       6.303   9.844  13.443  0.00  0.00     0.206 C 
ATOM      7  N   UNK d   1       5.339  10.478  14.301  0.00  0.00     0.099 N 
ATOM      8  C   UNK d   1       4.513   9.420  14.899  0.00  0.00     0.277 C 
ATOM      9  C   UNK d   1       3.665   8.731  13.875  0.00  0.00     0.089 C 
ATOM     10  C   UNK d   1       4.317   8.653  12.549  0.00  0.00     0.039 A 
ATOM     11  N   UNK d   1       3.889   8.112  11.404  0.00  0.00    -0.352 N 
ATOM     12  C   UNK d   1       4.841   8.286  10.465  0.00  0.00     0.207 A 
ATOM     13  N   UNK d   1       5.857   8.939  11.045  0.00  0.00    -0.244 NA
ATOM     14  C   UNK d   1       5.592   9.195  12.335  0.00  0.00     0.097 A 
ATOM     15  C   UNK d   1       7.007   8.820  14.348  0.00  0.00     0.068 C 
ATOM     16  C   UNK d   1       8.427   8.917  13.986  0.00  0.00     0.129 C 
ATOM     17  H   UNK d   1       5.837  10.931  15.104  0.00  0.00     0.317 HD
ATOM     18  H   UNK d   1       2.993   7.623  11.187  0.00  0.00     0.166 HD
ENDROOT
BRANCH   1  19
ATOM     19  C   UNK d   1       8.526   6.349  12.514  0.00  0.00     0.173 C 
ATOM     20  C   UNK d   1       7.102   5.921  12.073  0.00  0.00     0.042 C 
BRANCH  19  21
ATOM     21  N   UNK d   1       9.363   5.281  12.024  0.00  0.00    -0.344 N 
ATOM     22  C   UNK d   1      10.734   5.188  12.495  0.00  0.00     0.252 C 
ATOM     23  O   UNK d   1      11.186   5.972  13.338  0.00  0.00    -0.268 OA
ATOM     24  H   UNK d   1       8.998   4.598  11.362  0.00  0.00     0.163 HD
BRANCH  22  25
ATOM     25  C   UNK d   1      11.547   4.115  11.897  0.00  0.00     0.033 A 
ATOM     26  C   UNK d   1      10.896   3.185  11.070  0.00  0.00     0.036 A 
ATOM     27  C   UNK d   1      11.542   2.134  10.469  0.00  0.00     0.011 A 
ATOM     28 Br   UNK d   1      10.561   0.914   9.340  0.00  0.00    -0.051 Br
ATOM     29  C   UNK d   1      12.891   1.982  10.689  0.00  0.00     0.019 A 
ATOM     30  C   UNK d   1      13.549   2.887  11.505  0.00  0.00     0.002 A 
ATOM     31  C   UNK d   1      12.882   3.948  12.108  0.00  0.00     0.017 A 
ENDBRANCH  22  25
ENDBRANCH  19  21
ENDBRANCH   1  19
TORSDOF 3
ENDMDL
