MODEL 1
REMARK VINA RESULT:    -9.542      0.000      0.000
REMARK INTER + INTRA:         -13.885
REMARK INTER:                 -13.168
REMARK INTRA:                  -0.717
REMARK UNBOUND:                -0.717
REMARK  7 active torsions:
REMARK  status: ('A' for Active; 'I' for Inactive)
REMARK    1  A    between atoms: C_7  and  C_11 
REMARK    2  A    between atoms: C_11  and  O_12 
REMARK    3  A    between atoms: O_12  and  C_13 
REMARK    4  A    between atoms: C_13  and  C_15 
REMARK    5  A    between atoms: N_17  and  C_26 
REMARK    6  A    between atoms: C_26  and  C_27 
REMARK    7  A    between atoms: C_27  and  O_28 
ROOT
ATOM      1  C   UNK d   1      11.369   2.983  11.673  0.00  0.00     0.315 C 
ATOM      2  O   UNK d   1      11.317   2.832  12.887  0.00  0.00    -0.257 OA
ENDROOT
BRANCH   1   3
ATOM      3  O   UNK d   1      10.811   4.231  11.284  0.00  0.00    -0.310 OA
BRANCH   3   4
ATOM      4  C   UNK d   1      11.156   5.363  12.035  0.00  0.00     0.238 C 
BRANCH   4   5
ATOM      5  C   UNK d   1       9.917   6.128  12.277  0.00  0.00     0.066 A 
ATOM      6  N   UNK d   1       9.095   5.771  13.278  0.00  0.00    -0.233 NA
ATOM      7  C   UNK d   1       7.956   6.430  13.544  0.00  0.00     0.137 A 
ATOM      8  N   UNK d   1       7.593   7.485  12.807  0.00  0.00    -0.272 N 
ATOM      9  C   UNK d   1       7.144   6.034  14.573  0.00  0.00     0.052 A 
ATOM     10  C   UNK d   1       6.444   8.154  13.072  0.00  0.00     0.121 A 
ATOM     11  C   UNK d   1       8.361   7.912  11.783  0.00  0.00     0.255 A 
ATOM     12  C   UNK d   1       5.611   7.769  14.107  0.00  0.00     0.027 A 
ATOM     13 Br   UNK d   1       3.984   8.734  14.464  0.00  0.00    -0.050 Br
ATOM     14  C   UNK d   1       5.967   6.688  14.874  0.00  0.00     0.024 A 
ATOM     15  C   UNK d   1       9.547   7.211  11.520  0.00  0.00     0.104 A 
ATOM     16  O   UNK d   1       8.051   8.899  11.071  0.00  0.00    -0.268 OA
ENDBRANCH   4   5
ENDBRANCH   3   4
ENDBRANCH   1   3
BRANCH   1  17
ATOM     17  C   UNK d   1      11.896   2.105  10.647  0.00  0.00     0.163 A 
ATOM     18  N   UNK d   1      11.069   1.245   9.979  0.00  0.00    -0.163 NA
ATOM     19  N   UNK d   1      11.524   0.435   9.040  0.00  0.00    -0.231 N 
ATOM     20  C   UNK d   1      12.823   0.418   8.697  0.00  0.00     0.274 A 
ATOM     21  O   UNK d   1      13.251  -0.370   7.788  0.00  0.00    -0.266 OA
ATOM     22  C   UNK d   1      13.721   1.252   9.321  0.00  0.00     0.046 A 
ATOM     23  C   UNK d   1      13.214   2.099  10.310  0.00  0.00     0.016 A 
ATOM     24  C   UNK d   1      15.040   1.218   8.956  0.00  0.00     0.018 A 
ATOM     25  C   UNK d   1      14.145   2.914  10.906  0.00  0.00     0.015 A 
ATOM     26  C   UNK d   1      15.487   2.889  10.544  0.00  0.00     0.001 A 
ATOM     27  C   UNK d   1      15.952   2.042   9.566  0.00  0.00     0.001 A 
BRANCH  19  28
ATOM     28  C   UNK d   1      10.638  -0.472   8.340  0.00  0.00     0.180 C 
BRANCH  28  29
ATOM     29  C   UNK d   1       9.239  -0.456   8.898  0.00  0.00     0.186 C 
BRANCH  29  30
ATOM     30  O   UNK d   1       8.281  -0.752   7.946  0.00  0.00    -0.399 OA
ATOM     31  H   UNK d   1       8.105  -1.721   7.993  0.00  0.00     0.209 HD
ENDBRANCH  29  30
ENDBRANCH  28  29
ENDBRANCH  19  28
ENDBRANCH   1  17
TORSDOF 7
ENDMDL
