MODEL 1
REMARK VINA RESULT:   -10.224      0.000      0.000
REMARK INTER + INTRA:         -12.797
REMARK INTER:                 -12.914
REMARK INTRA:                   0.117
REMARK UNBOUND:                 0.117
REMARK  5 active torsions:
REMARK  status: ('A' for Active; 'I' for Inactive)
REMARK    1  A    between atoms: C_6  and  C_12 
REMARK    2  A    between atoms: C_12  and  C_13 
REMARK    3  A    between atoms: C_13  and  C_14 
REMARK       I    between atoms: C_14  and  N_16 
REMARK    4  A    between atoms: C_18  and  N_24 
REMARK    5  A    between atoms: C_19  and  O_22 
ROOT
ATOM      1  C   UNK d   1      10.500   5.096  10.356  0.00  0.00     0.220 C 
ATOM      2  O   UNK d   1       9.828   5.194   9.304  0.00  0.00    -0.273 OA
ATOM      3  N   UNK d   1       9.918   5.545  11.599  0.00  0.00    -0.350 N 
ATOM      4  C   UNK d   1       8.587   6.089  11.587  0.00  0.00     0.154 C 
ATOM      5  C   UNK d   1       8.703   7.562  11.919  0.00  0.00     0.146 C 
ATOM      6  C   UNK d   1       9.823   7.879  12.843  0.00  0.00     0.078 C 
ATOM      7  C   UNK d   1      10.339   6.738  13.640  0.00  0.00     0.059 C 
ATOM      8  C   UNK d   1      10.588   5.484  12.868  0.00  0.00     0.129 C 
ATOM      9  C   UNK d   1       9.312   8.935  13.832  0.00  0.00     0.048 C 
ENDROOT
BRANCH   1  10
ATOM     10  C   UNK d   1      11.859   4.542  10.375  0.00  0.00     0.110 C 
BRANCH  10  11
ATOM     11  C   UNK d   1      12.041   3.178  10.889  0.00  0.00     0.088 C 
BRANCH  11  12
ATOM     12  C   UNK d   1      11.635   2.059  10.000  0.00  0.00     0.107 A 
ATOM     13  N   UNK d   1      10.383   1.481  10.001  0.00  0.00    -0.233 NA
ATOM     14  C   UNK d   1      10.364   0.463   9.128  0.00  0.00     0.087 A 
ATOM     15  C   UNK d   1       9.391  -0.441   8.734  0.00  0.00     0.057 A 
ATOM     16  C   UNK d   1      11.607   0.365   8.546  0.00  0.00     0.064 A 
ATOM     17  C   UNK d   1       9.659  -1.405   7.791  0.00  0.00     0.036 A 
ATOM     18 Cl   UNK d   1       8.380  -2.536   7.323  0.00  0.00    -0.084 Cl
ATOM     19  C   UNK d   1      10.913  -1.489   7.217  0.00  0.00     0.026 A 
ATOM     20  C   UNK d   1      11.886  -0.598   7.599  0.00  0.00     0.034 A 
ATOM     21  N   UNK d   1      12.343   1.363   9.117  0.00  0.00    -0.338 N 
ATOM     22  C   UNK d   1      13.742   1.536   8.772  0.00  0.00     0.158 C 
ENDBRANCH  11  12
ENDBRANCH  10  11
ENDBRANCH   1  10
BRANCH   5  23
ATOM     23  N   UNK d   1       7.416   8.010  12.393  0.00  0.00    -0.300 N 
ATOM     24  C   UNK d   1       6.872   7.464  13.498  0.00  0.00     0.102 A 
ATOM     25  C   UNK d   1       5.647   7.860  13.986  0.00  0.00     0.092 A 
ATOM     26  C   UNK d   1       4.964   8.848  13.315  0.00  0.00     0.250 A 
ATOM     27  O   UNK d   1       3.825   9.259  13.716  0.00  0.00    -0.268 OA
ATOM     28  N   UNK d   1       5.529   9.373  12.217  0.00  0.00    -0.275 N 
ATOM     29  C   UNK d   1       6.718   8.971  11.765  0.00  0.00     0.329 A 
ATOM     30  H   UNK d   1       5.034  10.138  11.667  0.00  0.00     0.173 HD
ATOM     31  O   UNK d   1       7.206   9.499  10.724  0.00  0.00    -0.246 OA
ENDBRANCH   5  23
BRANCH   6  32
ATOM     32  O   UNK d   1      10.912   8.480  12.192  0.00  0.00    -0.388 OA
ATOM     33  H   UNK d   1      11.264   9.209  12.792  0.00  0.00     0.210 HD
ENDBRANCH   6  32
TORSDOF 5
ENDMDL
