MODEL 1
REMARK VINA RESULT:    -9.813      0.000      0.000
REMARK INTER + INTRA:         -11.817
REMARK INTER:                 -11.535
REMARK INTRA:                  -0.282
REMARK UNBOUND:                -0.282
REMARK  3 active torsions:
REMARK  status: ('A' for Active; 'I' for Inactive)
REMARK    1  A    between atoms: C_4  and  C_8 
REMARK       I    between atoms: C_8  and  N_10 
REMARK    2  A    between atoms: N_10  and  C_11 
REMARK    3  A    between atoms: C_11  and  C_12 
REMARK       I    between atoms: C_12  and  N_14 
ROOT
ATOM      1  C   UNK d   1      10.099   5.758  11.142  0.00  0.00     0.237 C 
ATOM      2  O   UNK d   1      10.263   6.048   9.932  0.00  0.00    -0.272 OA
ATOM      3  N   UNK d   1       9.368   6.630  11.965  0.00  0.00    -0.351 N 
ATOM      4  C   UNK d   1       9.139   6.365  13.363  0.00  0.00     0.129 C 
ATOM      5  C   UNK d   1       7.646   6.182  13.536  0.00  0.00     0.068 C 
ATOM      6  C   UNK d   1       6.915   7.341  12.901  0.00  0.00     0.206 C 
ATOM      7  N   UNK d   1       6.101   6.819  11.823  0.00  0.00     0.099 N 
ATOM      8  C   UNK d   1       5.250   7.772  11.201  0.00  0.00     0.277 C 
ATOM      9  C   UNK d   1       4.586   8.765  12.082  0.00  0.00     0.089 C 
ATOM     10  C   UNK d   1       4.827   8.567  13.527  0.00  0.00     0.039 A 
ATOM     11  N   UNK d   1       4.126   8.944  14.640  0.00  0.00    -0.352 N 
ATOM     12  C   UNK d   1       4.816   8.496  15.697  0.00  0.00     0.207 A 
ATOM     13  N   UNK d   1       5.915   7.855  15.267  0.00  0.00    -0.244 NA
ATOM     14  C   UNK d   1       5.956   7.880  13.911  0.00  0.00     0.097 A 
ATOM     15  C   UNK d   1       7.804   8.437  12.409  0.00  0.00     0.068 C 
ATOM     16  C   UNK d   1       8.814   7.843  11.422  0.00  0.00     0.129 C 
ATOM     17  H   UNK d   1       6.744   6.425  11.087  0.00  0.00     0.317 HD
ATOM     18  H   UNK d   1       3.215   9.489  14.617  0.00  0.00     0.166 HD
ENDROOT
BRANCH   1  19
ATOM     19  C   UNK d   1      10.705   4.487  11.619  0.00  0.00     0.225 C 
BRANCH  19  20
ATOM     20  N   UNK d   1      10.806   3.512  10.554  0.00  0.00    -0.348 N 
ATOM     21  C   UNK d   1      11.631   2.369  10.662  0.00  0.00     0.252 C 
ATOM     22  O   UNK d   1      12.285   2.224  11.726  0.00  0.00    -0.268 OA
ATOM     23  H   UNK d   1      10.256   3.653   9.684  0.00  0.00     0.163 HD
BRANCH  21  24
ATOM     24  C   UNK d   1      11.751   1.374   9.606  0.00  0.00     0.033 A 
ATOM     25  C   UNK d   1      10.737   0.495   9.273  0.00  0.00     0.036 A 
ATOM     26  C   UNK d   1      10.879  -0.441   8.265  0.00  0.00     0.011 A 
ATOM     27 Br   UNK d   1       9.438  -1.605   7.875  0.00  0.00    -0.051 Br
ATOM     28  C   UNK d   1      12.073  -0.521   7.546  0.00  0.00     0.019 A 
ATOM     29  C   UNK d   1      13.072   0.362   7.891  0.00  0.00     0.002 A 
ATOM     30  C   UNK d   1      12.938   1.294   8.892  0.00  0.00     0.017 A 
ENDBRANCH  21  24
ENDBRANCH  19  20
ENDBRANCH   1  19
TORSDOF 3
ENDMDL
