/Users/jonathanwahrer/Desktop/Msc/3_Semester/Drug_Design_Praktikum/waehrer_HTS_screening/HTS_experiment/out/docking_results/vina_output/2jam/1404_docked.pdbqt
 OpenBabel03162218223D

 26 29  0  0  1  0  0  0  0  0999 V2000
    7.3440   10.5940   12.2120 Br  0  0  0  0  0  0  0  0  0  0  0  0
    8.1400    8.9290   12.6950 C   0  0  0  0  0  0  0  0  0  0  0  0
    8.8640    8.1880   11.7800 C   0  0  0  0  0  3  0  0  0  0  0  0
    9.4580    6.9810   12.0810 C   0  0  0  0  0  0  0  0  0  0  0  0
    9.2880    6.5290   13.3930 C   0  0  0  0  0  0  0  0  0  0  0  0
    8.5680    7.2650   14.3020 C   0  0  0  0  0  3  0  0  0  0  0  0
    7.9800    8.4720   13.9860 C   0  0  0  0  0  0  0  0  0  0  0  0
    7.2090    9.2280   15.0140 C   0  0  0  0  0  1  0  0  0  0  0  0
    9.9000    5.3120   13.6590 O   0  0  0  0  0  0  0  0  0  0  0  0
   10.4560    4.4640   12.6720 C   0  0  0  0  0  2  0  0  0  0  0  0
   11.2700    5.3000   11.6300 C   0  0  2  0  0  0  0  0  0  0  0  0
   10.2060    6.1930   11.1110 C   0  0  0  0  0  0  0  0  0  0  0  0
    9.8680    6.3490    9.9240 O   0  0  0  0  0  0  0  0  0  0  0  0
   11.9400    4.5400   10.7210 N   0  0  0  0  0  0  0  0  0  0  0  0
   11.3240    3.6570    9.8260 C   0  0  0  0  0  2  0  0  0  0  0  0
   11.4490    2.2350   10.3290 C   0  0  0  0  0  2  0  0  0  0  0  0
   12.8310    1.9350   10.2700 O   0  0  0  0  0  0  0  0  0  0  0  0
   13.3900    2.6780   11.3250 C   0  0  0  0  0  2  0  0  0  0  0  0
   13.2590    4.1620   10.9740 C   0  0  0  0  0  2  0  0  0  0  0  0
   12.2070    6.0760   12.4850 C   0  0  0  0  0  2  0  0  0  0  0  0
   12.5290    7.4150   12.1010 N   0  0  0  0  0  0  0  0  0  0  0  0
   12.5370    8.4200   13.0950 C   0  0  0  0  0  2  0  0  0  0  0  0
   13.8020    8.3150   13.9600 C   0  0  0  0  0  2  0  0  0  0  0  0
   14.8650    8.6210   13.1050 O   0  0  0  0  0  0  0  0  0  0  0  0
   14.9840    7.5520   12.2090 C   0  0  0  0  0  2  0  0  0  0  0  0
   13.7770    7.3970   11.3350 C   0  0  0  0  0  2  0  0  0  0  0  0
  1  2  1  0  0  0  0
  2  7  1  0  0  0  0
  3  4  1  0  0  0  0
  3  2  2  0  0  0  0
  4  5  2  0  0  0  0
  5  9  1  0  0  0  0
  5  6  1  0  0  0  0
  7  6  2  0  0  0  0
  7  8  1  0  0  0  0
 10  9  1  0  0  0  0
 11 20  1  1  0  0  0
 11 10  1  0  0  0  0
 12 11  1  0  0  0  0
 12  4  1  0  0  0  0
 13 12  2  0  0  0  0
 14 19  1  0  0  0  0
 14 11  1  0  0  0  0
 15 16  1  0  0  0  0
 15 14  1  0  0  0  0
 17 16  1  0  0  0  0
 17 18  1  0  0  0  0
 19 18  1  0  0  0  0
 21 20  1  0  0  0  0
 21 22  1  0  0  0  0
 22 23  1  0  0  0  0
 24 23  1  0  0  0  0
 25 24  1  0  0  0  0
 26 21  1  0  0  0  0
 26 25  1  0  0  0  0
M  END
>  <Pose>
1

>  <Score>
-6.530

$$$$
