MODEL 1
REMARK VINA RESULT:    -6.609      0.000      0.000
REMARK INTER + INTRA:          -6.802
REMARK INTER:                  -6.802
REMARK INTRA:                   0.000
REMARK UNBOUND:                 0.000
REMARK  1 active torsions:
REMARK  status: ('A' for Active; 'I' for Inactive)
REMARK    1  A    between atoms: C_19  and  N_23 
ROOT
ATOM      1 Br   UNK d   1      12.348  11.577  14.750  0.00  0.00    -0.051 Br
ATOM      2  C   UNK d   1      11.136  10.166  14.246  0.00  0.00     0.011 A 
ATOM      3  C   UNK d   1       9.912  10.037  14.847  0.00  0.00     0.030 A 
ATOM      4  C   UNK d   1       9.061   9.020  14.469  0.00  0.00    -0.002 A 
ATOM      5  C   UNK d   1       9.488   8.166  13.489  0.00  0.00     0.045 A 
ATOM      6  C   UNK d   1      10.748   8.300  12.871  0.00  0.00     0.031 A 
ATOM      7  C   UNK d   1      11.580   9.316  13.258  0.00  0.00     0.021 A 
ATOM      8  N   UNK d   1       8.505   7.174  13.209  0.00  0.00    -0.320 N 
ATOM      9  C   UNK d   1       7.408   7.407  14.048  0.00  0.00     0.247 A 
ATOM     10  O   UNK d   1       6.346   6.713  14.071  0.00  0.00    -0.271 OA
ATOM     11  C   UNK d   1       7.704   8.608  14.906  0.00  0.00     0.145 A 
ATOM     12  C   UNK d   1       6.676   9.591  14.585  0.00  0.00     0.049 A 
ATOM     13  C   UNK d   1       5.784  10.010  15.522  0.00  0.00     0.200 A 
ATOM     14  N   UNK d   1       4.970  10.918  14.906  0.00  0.00    -0.148 NA
ATOM     15  N   UNK d   1       5.326  11.068  13.647  0.00  0.00    -0.280 N 
ATOM     16  C   UNK d   1       6.366  10.274  13.405  0.00  0.00     0.036 A 
ATOM     17  C   UNK d   1       7.133  10.080  12.135  0.00  0.00     0.070 C 
ATOM     18  O   UNK d   1       5.788   9.537  16.838  0.00  0.00    -0.272 OA
ATOM     19  C   UNK d   1       6.770   8.599  17.140  0.00  0.00     0.162 A 
ATOM     20  C   UNK d   1       7.654   8.157  16.284  0.00  0.00     0.100 A 
ATOM     21  C   UNK d   1       8.622   7.163  16.780  0.00  0.00     0.101 C 
ATOM     22  N   UNK d   1       9.398   6.374  17.152  0.00  0.00    -0.191 NA
ATOM     23  C   UNK d   1       8.610   6.090  12.220  0.00  0.00     0.159 C 
ATOM     24  H   UNK d   1       4.897  11.691  12.915  0.00  0.00     0.189 HD
ENDROOT
BRANCH  19  25
ATOM     25  N   UNK d   1       6.825   8.070  18.495  0.00  0.00    -0.379 N 
ATOM     26  H   UNK d   1       6.093   8.438  19.135  0.00  0.00     0.158 HD
ATOM     27  H   UNK d   1       7.519   7.393  18.806  0.00  0.00     0.158 HD
ENDBRANCH  19  25
TORSDOF 1
ENDMDL
