MODEL 1
REMARK VINA RESULT:    -9.338      0.000      0.000
REMARK INTER + INTRA:         -11.416
REMARK INTER:                 -10.976
REMARK INTRA:                  -0.439
REMARK UNBOUND:                -0.439
REMARK  3 active torsions:
REMARK  status: ('A' for Active; 'I' for Inactive)
REMARK    1  A    between atoms: N_9  and  C_11 
REMARK    2  A    between atoms: C_11  and  C_12 
REMARK    3  A    between atoms: C_12  and  C_14 
ROOT
ATOM      1  C   UNK d   1      11.481   5.118  11.660  0.00  0.00     0.211 C 
ENDROOT
BRANCH   1   2
ATOM      2  N   UNK d   1      10.302   5.949  11.840  0.00  0.00    -0.355 N 
ATOM      3  C   UNK d   1       9.085   5.606  11.385  0.00  0.00     0.127 A 
ATOM      4  C   UNK d   1       7.984   6.433  11.580  0.00  0.00     0.126 A 
ATOM      5  C   UNK d   1       8.107   7.632  12.246  0.00  0.00     0.104 A 
ATOM      6  N   UNK d   1       6.669   6.360  11.247  0.00  0.00    -0.128 NA
ATOM      7  C   UNK d   1       9.331   7.982  12.706  0.00  0.00     0.057 A 
ATOM      8  N   UNK d   1       6.914   8.255  12.311  0.00  0.00    -0.252 N 
ATOM      9 Br   UNK d   1       9.526   9.627  13.624  0.00  0.00    -0.047 Br
ATOM     10  C   UNK d   1      10.411   7.127  12.491  0.00  0.00     0.112 A 
ATOM     11  N   UNK d   1       6.075   7.434  11.687  0.00  0.00    -0.065 NA
ATOM     12  C   UNK d   1       6.530   9.490  12.882  0.00  0.00     0.182 C 
ENDBRANCH   1   2
BRANCH   1  13
ATOM     13  C   UNK d   1      11.669   4.629  10.297  0.00  0.00     0.177 C 
ATOM     14  O   UNK d   1      11.755   5.512   9.390  0.00  0.00    -0.291 OA
BRANCH  13  15
ATOM     15  C   UNK d   1      11.766   3.233   9.883  0.00  0.00     0.012 A 
ATOM     16  C   UNK d   1      10.630   2.476   9.834  0.00  0.00     0.027 A 
ATOM     17  C   UNK d   1      10.691   1.160   9.455  0.00  0.00    -0.025 A 
ATOM     18  C   UNK d   1      11.885   0.552   9.112  0.00  0.00    -0.026 A 
ATOM     19  C   UNK d   1       9.527   0.414   9.412  0.00  0.00     0.012 A 
ATOM     20  C   UNK d   1      13.024   1.350   9.174  0.00  0.00     0.013 A 
ATOM     21  C   UNK d   1      11.972  -0.770   8.727  0.00  0.00     0.012 A 
ATOM     22  C   UNK d   1      12.967   2.664   9.551  0.00  0.00     0.016 A 
ATOM     23  C   UNK d   1      10.804  -1.502   8.689  0.00  0.00     0.001 A 
ATOM     24  C   UNK d   1       9.608  -0.905   9.029  0.00  0.00     0.001 A 
ENDBRANCH  13  15
ENDBRANCH   1  13
TORSDOF 3
ENDMDL
