MODEL 1
REMARK VINA RESULT:    -8.056      0.000      0.000
REMARK INTER + INTRA:         -12.157
REMARK INTER:                 -10.882
REMARK INTRA:                  -1.276
REMARK UNBOUND:                -1.276
REMARK  6 active torsions:
REMARK  status: ('A' for Active; 'I' for Inactive)
REMARK    1  A    between atoms: C_13  and  C_29 
REMARK    2  A    between atoms: C_15  and  C_16 
REMARK       I    between atoms: C_16  and  N_18 
REMARK    3  A    between atoms: N_18  and  C_19 
REMARK    4  A    between atoms: C_20  and  O_27 
REMARK    5  A    between atoms: C_23  and  O_25 
REMARK    6  A    between atoms: C_29  and  C_30 
REMARK       I    between atoms: C_30  and  N_32 
ROOT
ATOM      1 Cl   UNK d   1      16.286   4.108  11.606  0.00  0.00    -0.084 Cl
ATOM      2  C   UNK d   1      15.181   5.474  11.726  0.00  0.00     0.034 A 
ATOM      3  C   UNK d   1      13.825   5.306  11.810  0.00  0.00     0.036 A 
ATOM      4  C   UNK d   1      13.006   6.409  11.903  0.00  0.00     0.019 A 
ATOM      5  C   UNK d   1      13.586   7.650  11.907  0.00  0.00     0.044 A 
ATOM      6  C   UNK d   1      14.971   7.818  11.821  0.00  0.00     0.032 A 
ATOM      7  C   UNK d   1      15.773   6.718  11.730  0.00  0.00     0.026 A 
ATOM      8  N   UNK d   1      12.627   8.695  12.020  0.00  0.00    -0.324 N 
ATOM      9  C   UNK d   1      11.376   8.069  12.092  0.00  0.00     0.267 A 
ATOM     10  O   UNK d   1      10.297   8.736  12.215  0.00  0.00    -0.270 OA
ATOM     11  C   UNK d   1      11.541   6.612  12.003  0.00  0.00     0.278 A 
ATOM     12  N   UNK d   1      10.992   6.034  13.198  0.00  0.00     0.113 N 
ATOM     13  C   UNK d   1       9.815   5.297  12.858  0.00  0.00     0.232 C 
ATOM     14  C   UNK d   1       9.440   5.674  11.461  0.00  0.00     0.053 C 
ATOM     15  C   UNK d   1      10.763   6.084  10.876  0.00  0.00     0.133 C 
ATOM     16  H   UNK d   1      12.814   9.733  12.047  0.00  0.00     0.169 HD
ATOM     17  H   UNK d   1      11.709   5.479  13.712  0.00  0.00     0.318 HD
ENDROOT
BRANCH  15  18
ATOM     18  C   UNK d   1      11.402   5.004  10.082  0.00  0.00     0.229 C 
ATOM     19  O   UNK d   1      11.947   5.359   9.009  0.00  0.00    -0.273 OA
ATOM     20  N   UNK d   1      11.416   3.658  10.468  0.00  0.00    -0.324 N 
ATOM     21  H   UNK d   1      10.936   3.465  11.400  0.00  0.00     0.169 HD
BRANCH  20  22
ATOM     22  C   UNK d   1      11.975   2.563   9.808  0.00  0.00     0.071 A 
ATOM     23  C   UNK d   1      11.175   1.469   9.512  0.00  0.00     0.095 A 
ATOM     24  C   UNK d   1      11.660   0.353   8.860  0.00  0.00     0.042 A 
ATOM     25  C   UNK d   1      12.974   0.273   8.472  0.00  0.00     0.039 A 
ATOM     26  C   UNK d   1      13.786   1.334   8.750  0.00  0.00     0.070 A 
ATOM     27  C   UNK d   1      13.283   2.455   9.408  0.00  0.00     0.069 A 
BRANCH  23  28
ATOM     28  O   UNK d   1       9.838   1.474   9.872  0.00  0.00    -0.354 OA
ATOM     29  C   UNK d   1       9.013   0.350   9.836  0.00  0.00     0.210 C 
ENDBRANCH  23  28
BRANCH  26  30
ATOM     30  O   UNK d   1      15.116   1.294   8.375  0.00  0.00    -0.356 OA
ATOM     31  C   UNK d   1      16.161   1.762   9.208  0.00  0.00     0.210 C 
ENDBRANCH  26  30
ENDBRANCH  20  22
ENDBRANCH  15  18
BRANCH  13  32
ATOM     32  C   UNK d   1       8.685   5.556  13.842  0.00  0.00     0.138 C 
BRANCH  32  33
ATOM     33  C   UNK d   1       8.880   6.807  14.588  0.00  0.00     0.217 C 
ATOM     34  O   UNK d   1       9.642   6.840  15.568  0.00  0.00    -0.274 OA
ATOM     35  N   UNK d   1       8.199   7.972  14.190  0.00  0.00    -0.370 N 
ATOM     36  H   UNK d   1       8.744   8.857  14.105  0.00  0.00     0.159 HD
ATOM     37  H   UNK d   1       7.174   8.015  13.970  0.00  0.00     0.159 HD
ENDBRANCH  32  33
ENDBRANCH  13  32
TORSDOF 6
ENDMDL
