MODEL 1
REMARK VINA RESULT:    -7.341      0.000      0.000
REMARK INTER + INTRA:          -8.501
REMARK INTER:                  -8.200
REMARK INTRA:                  -0.301
REMARK UNBOUND:                -0.301
REMARK  2 active torsions:
REMARK  status: ('A' for Active; 'I' for Inactive)
REMARK    1  A    between atoms: N_4  and  C_8 
REMARK    2  A    between atoms: C_8  and  C_9 
ROOT
ATOM      1  C   UNK d   1      10.096   6.248  11.281  0.00  0.00     0.168 A 
ATOM      2  N   UNK d   1       9.873   5.720  12.496  0.00  0.00    -0.148 NA
ATOM      3  N   UNK d   1       8.735   6.206  13.021  0.00  0.00    -0.206 N 
ATOM      4  C   UNK d   1       8.221   7.061  12.119  0.00  0.00     0.169 A 
ATOM      5  N   UNK d   1       9.056   7.081  11.064  0.00  0.00    -0.209 NA
ATOM      6  C   UNK d   1       7.035   7.694  12.438  0.00  0.00     0.079 A 
ATOM      7  C   UNK d   1       6.381   7.472  13.636  0.00  0.00     0.162 A 
ATOM      8  N   UNK d   1       5.252   8.212  13.696  0.00  0.00    -0.256 N 
ATOM      9  N   UNK d   1       5.199   8.882  12.561  0.00  0.00    -0.182 NA
ATOM     10  C   UNK d   1       6.251   8.605  11.770  0.00  0.00     0.158 A 
ATOM     11  C   UNK d   1       4.303   8.239  14.807  0.00  0.00     0.182 C 
ATOM     12  N   UNK d   1       6.952   6.604  14.488  0.00  0.00    -0.222 NA
ATOM     13  C   UNK d   1       8.105   5.983  14.189  0.00  0.00     0.239 A 
ENDROOT
BRANCH   1  14
ATOM     14  C   UNK d   1      11.230   5.993  10.351  0.00  0.00     0.232 C 
BRANCH  14  15
ATOM     15  N   UNK d   1      11.472   4.570  10.175  0.00  0.00    -0.272 N 
ATOM     16  C   UNK d   1      12.639   3.921  10.356  0.00  0.00     0.134 A 
ATOM     17  C   UNK d   1      12.437   2.570  10.082  0.00  0.00     0.054 A 
ATOM     18 Br   UNK d   1      13.707   1.151  10.161  0.00  0.00    -0.047 Br
ATOM     19  C   UNK d   1      11.109   2.447   9.733  0.00  0.00     0.069 A 
ATOM     20  N   UNK d   1      10.557   3.675   9.800  0.00  0.00    -0.176 NA
ATOM     21  C   UNK d   1      10.474   1.161   9.363  0.00  0.00     0.074 C 
ENDBRANCH  14  15
ENDBRANCH   1  14
TORSDOF 2
ENDMDL
