/Users/jonathanwahrer/Desktop/Msc/3_Semester/Drug_Design_Praktikum/waehrer_HTS_screening/HTS_experiment/out/docking_results/vina_output/2jam/1433_docked.pdbqt
 OpenBabel03162218233D

 28 31  0  0  1  0  0  0  0  0999 V2000
   11.7960    3.3890   11.9340 Br  0  0  0  0  0  0  0  0  0  0  0  0
   13.5460    3.0860   11.2710 C   0  0  0  0  0  0  0  0  0  0  0  0
   14.5860    3.9440   11.6430 C   0  0  0  0  0  0  0  0  0  0  0  0
   15.8680    3.7490   11.1920 C   0  0  0  0  0  0  0  0  0  0  0  0
   16.0930    2.6790   10.3590 C   0  0  0  0  0  3  0  0  0  0  0  0
   15.0760    1.8090    9.9710 C   0  0  0  0  0  0  0  0  0  0  0  0
   13.7760    2.0190   10.4410 C   0  0  0  0  0  0  0  0  0  0  0  0
   12.6820    1.0930   10.0380 C   0  0  0  0  0  1  0  0  0  0  0  0
   15.3660    0.6780    9.0500 C   0  0  0  0  0  1  0  0  0  0  0  0
   17.0420    4.5880   11.5680 C   0  0  2  0  0  3  0  0  0  0  0  0
   16.6990    5.8350   12.3230 C   0  0  2  0  0  0  0  0  0  0  0  0
   15.2390    6.1700   12.0750 C   0  0  0  0  0  2  0  0  0  0  0  0
   14.4150    5.0440   12.4740 O   0  0  0  0  0  0  0  0  0  0  0  0
   17.4990    6.8940   11.7450 N   0  0  0  0  0  0  0  0  0  0  0  0
   18.6870    7.1790   12.4770 C   0  0  0  0  0  2  0  0  0  0  0  0
   19.3390    8.4960   12.1660 C   0  0  0  0  0  2  0  0  0  0  0  0
   18.4780    9.5300   11.9130 O   0  0  0  0  0  0  0  0  0  0  0  0
   17.6560    9.1520   10.8440 C   0  0  0  0  0  2  0  0  0  0  0  0
   16.7310    8.0700   11.4600 C   0  0  0  0  0  2  0  0  0  0  0  0
   16.8180    5.7580   13.7980 C   0  0  0  0  0  2  0  0  0  0  0  0
   15.9430    6.3760   14.6830 N   0  0  0  0  0  0  0  0  0  0  0  0
   16.0560    5.7260   16.0340 C   0  0  0  0  0  2  0  0  0  0  0  0
   17.4560    5.7470   16.5240 C   0  0  0  0  0  2  0  0  0  0  0  0
   18.1970    6.8230   16.1140 O   0  0  0  0  0  0  0  0  0  0  0  0
   17.4940    7.9460   15.7880 C   0  0  0  0  0  2  0  0  0  0  0  0
   16.1930    7.7500   15.0790 C   0  0  0  0  0  2  0  0  0  0  0  0
   17.7200    4.9210   10.3550 O   0  0  0  0  0  0  0  0  0  0  0  0
   17.0950    4.7200    9.6150 H   0  0  0  0  0  0  0  0  0  0  0  0
  2  3  1  0  0  0  0
  2  1  1  0  0  0  0
  3 13  1  0  0  0  0
  4 10  1  0  0  0  0
  4  3  2  0  0  0  0
  5  4  1  0  0  0  0
  6  5  2  0  0  0  0
  6  7  1  0  0  0  0
  7  2  2  0  0  0  0
  8  7  1  0  0  0  0
  9  6  1  0  0  0  0
 10 27  1  6  0  0  0
 10 11  1  0  0  0  0
 11 20  1  1  0  0  0
 12 11  1  0  0  0  0
 12 13  1  0  0  0  0
 14 11  1  0  0  0  0
 14 15  1  0  0  0  0
 16 15  1  0  0  0  0
 17 16  1  0  0  0  0
 18 19  1  0  0  0  0
 18 17  1  0  0  0  0
 19 14  1  0  0  0  0
 20 21  1  0  0  0  0
 21 26  1  0  0  0  0
 21 22  1  0  0  0  0
 22 23  1  0  0  0  0
 24 23  1  0  0  0  0
 25 24  1  0  0  0  0
 26 25  1  0  0  0  0
 28 27  1  0  0  0  0
M  END
>  <Pose>
1

>  <Score>
-6.731

$$$$
