MODEL 1
REMARK VINA RESULT:    -6.731      0.000      0.000
REMARK INTER + INTRA:          -8.735
REMARK INTER:                  -8.108
REMARK INTRA:                  -0.627
REMARK UNBOUND:                -0.627
REMARK  4 active torsions:
REMARK  status: ('A' for Active; 'I' for Inactive)
REMARK    1  A    between atoms: C_10  and  O_27 
REMARK    2  A    between atoms: C_11  and  N_14 
REMARK    3  A    between atoms: C_11  and  C_20 
REMARK    4  A    between atoms: C_20  and  N_21 
ROOT
ATOM      1 Br   UNK d   1      11.796   3.389  11.934  0.00  0.00    -0.048 Br
ATOM      2  C   UNK d   1      13.546   3.086  11.271  0.00  0.00     0.051 A 
ATOM      3  C   UNK d   1      14.586   3.944  11.643  0.00  0.00     0.095 A 
ATOM      4  C   UNK d   1      15.868   3.749  11.192  0.00  0.00     0.008 A 
ATOM      5  C   UNK d   1      16.093   2.679  10.359  0.00  0.00     0.020 A 
ATOM      6  C   UNK d   1      15.076   1.809   9.971  0.00  0.00    -0.054 A 
ATOM      7  C   UNK d   1      13.776   2.019  10.441  0.00  0.00    -0.036 A 
ATOM      8  C   UNK d   1      12.682   1.093  10.038  0.00  0.00     0.050 C 
ATOM      9  C   UNK d   1      15.366   0.678   9.050  0.00  0.00     0.049 C 
ATOM     10  C   UNK d   1      17.042   4.588  11.568  0.00  0.00     0.197 C 
ATOM     11  C   UNK d   1      16.699   5.835  12.323  0.00  0.00     0.236 C 
ATOM     12  C   UNK d   1      15.239   6.170  12.075  0.00  0.00     0.222 C 
ATOM     13  O   UNK d   1      14.415   5.044  12.474  0.00  0.00    -0.346 OA
ENDROOT
BRANCH  11  14
ATOM     14  N   UNK d   1      17.499   6.894  11.745  0.00  0.00     0.109 N 
ATOM     15  C   UNK d   1      18.687   7.179  12.477  0.00  0.00     0.299 C 
ATOM     16  C   UNK d   1      19.339   8.496  12.166  0.00  0.00     0.198 C 
ATOM     17  O   UNK d   1      18.478   9.530  11.913  0.00  0.00    -0.388 OA
ATOM     18  C   UNK d   1      17.656   9.152  10.844  0.00  0.00     0.198 C 
ATOM     19  C   UNK d   1      16.731   8.070  11.460  0.00  0.00     0.299 C 
ENDBRANCH  11  14
BRANCH  11  20
ATOM     20  C   UNK d   1      16.818   5.758  13.798  0.00  0.00     0.319 C 
BRANCH  20  21
ATOM     21  N   UNK d   1      15.943   6.376  14.683  0.00  0.00     0.095 N 
ATOM     22  C   UNK d   1      16.056   5.726  16.034  0.00  0.00     0.298 C 
ATOM     23  C   UNK d   1      17.456   5.747  16.524  0.00  0.00     0.198 C 
ATOM     24  O   UNK d   1      18.197   6.823  16.114  0.00  0.00    -0.388 OA
ATOM     25  C   UNK d   1      17.494   7.946  15.788  0.00  0.00     0.198 C 
ATOM     26  C   UNK d   1      16.193   7.750  15.079  0.00  0.00     0.298 C 
ENDBRANCH  20  21
ENDBRANCH  11  20
BRANCH  10  27
ATOM     27  O   UNK d   1      17.720   4.921  10.355  0.00  0.00    -0.388 OA
ATOM     28  H   UNK d   1      17.095   4.720   9.615  0.00  0.00     0.210 HD
ENDBRANCH  10  27
TORSDOF 4
ENDMDL
