MODEL 1
REMARK VINA RESULT:    -9.305      0.000      0.000
REMARK INTER + INTRA:         -10.883
REMARK INTER:                 -10.393
REMARK INTRA:                  -0.490
REMARK UNBOUND:                -0.490
REMARK  2 active torsions:
REMARK  status: ('A' for Active; 'I' for Inactive)
REMARK    1  A    between atoms: N_5  and  C_8 
REMARK    2  A    between atoms: C_8  and  C_9 
REMARK       I    between atoms: C_9  and  N_11 
ROOT
ATOM      1  C   UNK d   1      11.650   4.541  11.623  0.00  0.00     0.171 C 
ATOM      2  O   UNK d   1      12.742   5.118  12.114  0.00  0.00    -0.175 OA
ATOM      3  N   UNK d   1      10.735   5.424  11.072  0.00  0.00    -0.361 N 
ATOM      4  C   UNK d   1       9.482   5.128  10.475  0.00  0.00     0.127 C 
ATOM      5  C   UNK d   1       8.348   5.590  11.392  0.00  0.00     0.061 C 
ATOM      6  C   UNK d   1       8.783   6.829  12.155  0.00  0.00     0.118 C 
ATOM      7  N   UNK d   1       7.586   7.640  12.300  0.00  0.00    -0.324 N 
ATOM      8  C   UNK d   1       6.956   7.218  13.527  0.00  0.00     0.323 C 
ATOM      9  O   UNK d   1       5.762   7.431  13.854  0.00  0.00    -0.247 OA
ATOM     10  N   UNK d   1       7.950   6.513  14.295  0.00  0.00    -0.277 N 
ATOM     11  C   UNK d   1       9.160   6.507  13.548  0.00  0.00     0.254 C 
ATOM     12  O   UNK d   1      10.298   6.271  14.016  0.00  0.00    -0.270 OA
ATOM     13  C   UNK d   1       9.812   7.629  11.421  0.00  0.00     0.061 C 
ATOM     14  C   UNK d   1      11.057   6.872  11.093  0.00  0.00     0.127 C 
ATOM     15  H   UNK d   1       7.240   8.381  11.655  0.00  0.00     0.165 HD
ATOM     16  H   UNK d   1       7.803   6.090  15.222  0.00  0.00     0.173 HD
ENDROOT
BRANCH   1  17
ATOM     17  C   UNK d   1      11.682   3.102  11.789  0.00  0.00     0.216 C 
BRANCH  17  18
ATOM     18  N   UNK d   1      12.088   2.272  10.709  0.00  0.00    -0.341 N 
ATOM     19  C   UNK d   1      13.392   2.126  10.328  0.00  0.00     0.046 A 
ATOM     20  C   UNK d   1      13.455   1.248   9.277  0.00  0.00     0.010 A 
ATOM     21  C   UNK d   1      14.567   2.698  10.814  0.00  0.00     0.030 A 
ATOM     22  C   UNK d   1      12.168   0.851   9.013  0.00  0.00     0.045 A 
ATOM     23  C   UNK d   1      14.683   0.937   8.711  0.00  0.00     0.015 A 
ATOM     24 Br   UNK d   1      11.721  -0.384   7.624  0.00  0.00    -0.048 Br
ATOM     25  C   UNK d   1      11.342   1.485   9.898  0.00  0.00     0.027 A 
ATOM     26  C   UNK d   1       9.870   1.342   9.970  0.00  0.00     0.070 C 
ATOM     27  C   UNK d   1      15.837   1.506   9.197  0.00  0.00     0.001 A 
ATOM     28  C   UNK d   1      15.794   2.384  10.244  0.00  0.00     0.002 A 
ENDBRANCH  17  18
ENDBRANCH   1  17
TORSDOF 2
ENDMDL
