MODEL 1
REMARK VINA RESULT:    -8.815      0.000      0.000
REMARK INTER + INTRA:         -12.078
REMARK INTER:                 -11.391
REMARK INTRA:                  -0.687
REMARK UNBOUND:                -0.687
REMARK  5 active torsions:
REMARK  status: ('A' for Active; 'I' for Inactive)
REMARK    1  A    between atoms: N_3  and  C_14 
REMARK    2  A    between atoms: C_14  and  C_15 
REMARK    3  A    between atoms: C_15  and  C_16 
REMARK    4  A    between atoms: C_16  and  C_17 
REMARK    5  A    between atoms: C_17  and  N_18 
ROOT
ATOM      1  C   UNK d   1       9.677   5.836  12.208  0.00  0.00     0.022 C 
ENDROOT
BRANCH   1   2
ATOM      2  C   UNK d   1       9.213   7.078  11.460  0.00  0.00     0.132 C 
BRANCH   2   3
ATOM      3  N   UNK d   1       8.529   7.997  12.338  0.00  0.00    -0.318 N 
ATOM      4  C   UNK d   1       9.055   8.873  13.228  0.00  0.00     0.180 A 
ATOM      5 Br   UNK d   1      10.932   9.073  13.513  0.00  0.00    -0.008 Br
ATOM      6  N   UNK d   1       8.075   9.551  13.855  0.00  0.00    -0.203 NA
ATOM      7  C   UNK d   1       6.882   9.124  13.378  0.00  0.00     0.169 A 
ATOM      8  C   UNK d   1       7.191   8.161  12.440  0.00  0.00     0.152 A 
ATOM      9  N   UNK d   1       5.610   9.477  13.669  0.00  0.00    -0.286 N 
ATOM     10  C   UNK d   1       6.144   7.543  11.777  0.00  0.00     0.280 A 
ATOM     11  N   UNK d   1       4.885   7.898  12.073  0.00  0.00    -0.273 N 
ATOM     12  O   UNK d   1       6.440   6.672  10.929  0.00  0.00    -0.265 OA
ATOM     13  C   UNK d   1       4.619   8.853  13.006  0.00  0.00     0.330 A 
ATOM     14  H   UNK d   1       4.087   7.435  11.577  0.00  0.00     0.173 HD
ATOM     15  O   UNK d   1       3.410   9.129  13.223  0.00  0.00    -0.246 OA
ATOM     16  C   UNK d   1       5.303  10.492  14.659  0.00  0.00     0.163 C 
ENDBRANCH   2   3
ENDBRANCH   1   2
BRANCH   1  17
ATOM     17  C   UNK d   1      10.305   4.841  11.267  0.00  0.00     0.022 C 
BRANCH  17  18
ATOM     18  C   UNK d   1      11.020   3.706  11.938  0.00  0.00     0.132 C 
BRANCH  18  19
ATOM     19  N   UNK d   1      12.005   3.154  11.069  0.00  0.00    -0.318 N 
ATOM     20  C   UNK d   1      11.912   2.211  10.134  0.00  0.00     0.152 A 
ATOM     21  C   UNK d   1      13.155   2.054   9.531  0.00  0.00     0.169 A 
ATOM     22  C   UNK d   1      10.895   1.410   9.684  0.00  0.00     0.280 A 
ATOM     23  N   UNK d   1      13.962   2.921  10.137  0.00  0.00    -0.203 NA
ATOM     24  N   UNK d   1      13.335   1.159   8.556  0.00  0.00    -0.286 N 
ATOM     25  C   UNK d   1      13.288   3.595  11.070  0.00  0.00     0.180 A 
ATOM     26 Br   UNK d   1      14.056   4.940  12.183  0.00  0.00    -0.008 Br
ATOM     27  C   UNK d   1      12.318   0.384   8.130  0.00  0.00     0.330 A 
ATOM     28  C   UNK d   1      14.628   0.975   7.906  0.00  0.00     0.163 C 
ATOM     29  O   UNK d   1      12.495  -0.455   7.212  0.00  0.00    -0.246 OA
ATOM     30  N   UNK d   1      11.118   0.524   8.702  0.00  0.00    -0.273 N 
ATOM     31  H   UNK d   1      10.292  -0.066   8.397  0.00  0.00     0.173 HD
ATOM     32  O   UNK d   1       9.769   1.525  10.207  0.00  0.00    -0.265 OA
ENDBRANCH  18  19
ENDBRANCH  17  18
ENDBRANCH   1  17
TORSDOF 5
ENDMDL
