MODEL 1
REMARK VINA RESULT:    -8.939      0.000      0.000
REMARK INTER + INTRA:         -12.721
REMARK INTER:                 -12.075
REMARK INTRA:                  -0.646
REMARK UNBOUND:                -0.646
REMARK  6 active torsions:
REMARK  status: ('A' for Active; 'I' for Inactive)
REMARK    1  A    between atoms: N_3  and  C_14 
REMARK    2  A    between atoms: C_14  and  C_15 
REMARK    3  A    between atoms: C_15  and  O_16 
REMARK    4  A    between atoms: O_16  and  C_17 
REMARK    5  A    between atoms: C_17  and  C_18 
REMARK    6  A    between atoms: C_18  and  N_19 
ROOT
ATOM      1  O   UNK d   1      10.759   6.028  12.023  0.00  0.00    -0.388 OA
ENDROOT
BRANCH   1   2
ATOM      2  C   UNK d   1       9.578   6.547  12.440  0.00  0.00     0.188 C 
BRANCH   2   3
ATOM      3  C   UNK d   1       9.012   7.780  11.868  0.00  0.00     0.158 C 
BRANCH   3   4
ATOM      4  N   UNK d   1       8.241   8.629  12.713  0.00  0.00    -0.316 N 
ATOM      5  C   UNK d   1       8.605   9.549  13.603  0.00  0.00     0.180 A 
ATOM      6 Br   UNK d   1      10.383  10.002  14.143  0.00  0.00    -0.008 Br
ATOM      7  N   UNK d   1       7.529  10.149  14.164  0.00  0.00    -0.203 NA
ATOM      8  C   UNK d   1       6.462   9.587  13.611  0.00  0.00     0.169 A 
ATOM      9  C   UNK d   1       6.880   8.637  12.705  0.00  0.00     0.152 A 
ATOM     10  N   UNK d   1       5.127   9.785  13.793  0.00  0.00    -0.286 N 
ATOM     11  C   UNK d   1       5.982   7.879  11.979  0.00  0.00     0.280 A 
ATOM     12  N   UNK d   1       4.660   8.125  12.206  0.00  0.00    -0.273 N 
ATOM     13  O   UNK d   1       6.342   7.006  11.150  0.00  0.00    -0.265 OA
ATOM     14  C   UNK d   1       4.265   9.053  13.091  0.00  0.00     0.330 A 
ATOM     15  H   UNK d   1       3.974   7.558  11.663  0.00  0.00     0.173 HD
ATOM     16  O   UNK d   1       3.031   9.260  13.281  0.00  0.00    -0.246 OA
ATOM     17  C   UNK d   1       4.648  10.775  14.736  0.00  0.00     0.163 C 
ENDBRANCH   3   4
ENDBRANCH   2   3
ENDBRANCH   1   2
BRANCH   1  18
ATOM     18  C   UNK d   1      10.569   4.928  11.204  0.00  0.00     0.188 C 
BRANCH  18  19
ATOM     19  C   UNK d   1      11.235   3.735  11.820  0.00  0.00     0.158 C 
BRANCH  19  20
ATOM     20  N   UNK d   1      12.251   3.190  10.976  0.00  0.00    -0.316 N 
ATOM     21  C   UNK d   1      12.082   2.212  10.076  0.00  0.00     0.152 A 
ATOM     22  C   UNK d   1      13.285   1.979   9.486  0.00  0.00     0.169 A 
ATOM     23  C   UNK d   1      10.975   1.481   9.693  0.00  0.00     0.280 A 
ATOM     24  N   UNK d   1      14.156   2.818  10.040  0.00  0.00    -0.203 NA
ATOM     25  N   UNK d   1      13.397   1.037   8.533  0.00  0.00    -0.286 N 
ATOM     26  C   UNK d   1      13.554   3.584  10.965  0.00  0.00     0.180 A 
ATOM     27 Br   UNK d   1      14.286   4.945  12.068  0.00  0.00    -0.008 Br
ATOM     28  C   UNK d   1      12.317   0.343   8.179  0.00  0.00     0.330 A 
ATOM     29  C   UNK d   1      14.669   0.773   7.894  0.00  0.00     0.163 C 
ATOM     30  O   UNK d   1      12.436  -0.536   7.285  0.00  0.00    -0.246 OA
ATOM     31  N   UNK d   1      11.134   0.556   8.742  0.00  0.00    -0.273 N 
ATOM     32  H   UNK d   1      10.300   0.002   8.451  0.00  0.00     0.173 HD
ATOM     33  O   UNK d   1       9.825   1.654  10.207  0.00  0.00    -0.265 OA
ENDBRANCH  19  20
ENDBRANCH  18  19
ENDBRANCH   1  18
TORSDOF 6
ENDMDL
