/Users/jonathanwahrer/Desktop/Msc/3_Semester/Drug_Design_Praktikum/waehrer_HTS_screening/HTS_experiment/out/docking_results/vina_output/2jam/1436_docked.pdbqt
 OpenBabel03162218243D

 33 36  0  0  0  0  0  0  0  0999 V2000
   10.7590    6.0280   12.0230 O   0  0  0  0  0  0  0  0  0  0  0  0
    9.5780    6.5470   12.4400 C   0  0  0  0  0  2  0  0  0  0  0  0
    9.0120    7.7800   11.8680 C   0  0  0  0  0  2  0  0  0  0  0  0
    8.2410    8.6290   12.7130 N   0  0  0  0  0  0  0  0  0  0  0  0
    8.6050    9.5490   13.6030 C   0  0  0  0  0  0  0  0  0  0  0  0
   10.3830   10.0020   14.1430 Br  0  0  0  0  0  0  0  0  0  0  0  0
    7.5290   10.1490   14.1640 N   0  0  0  0  0  0  0  0  0  0  0  0
    6.4620    9.5870   13.6110 C   0  0  0  0  0  0  0  0  0  0  0  0
    6.8800    8.6370   12.7050 C   0  0  0  0  0  0  0  0  0  0  0  0
    5.1270    9.7850   13.7930 N   0  0  0  0  0  0  0  0  0  0  0  0
    5.9820    7.8790   11.9790 C   0  0  0  0  0  0  0  0  0  0  0  0
    4.6600    8.1250   12.2060 N   0  0  0  0  0  0  0  0  0  0  0  0
    6.3420    7.0060   11.1500 O   0  0  0  0  0  0  0  0  0  0  0  0
    4.2650    9.0530   13.0910 C   0  0  0  0  0  0  0  0  0  0  0  0
    3.9740    7.5580   11.6630 H   0  0  0  0  0  0  0  0  0  0  0  0
    3.0310    9.2600   13.2810 O   0  0  0  0  0  0  0  0  0  0  0  0
    4.6480   10.7750   14.7360 C   0  0  0  0  0  1  0  0  0  0  0  0
   10.5690    4.9280   11.2040 C   0  0  0  0  0  2  0  0  0  0  0  0
   11.2350    3.7350   11.8200 C   0  0  0  0  0  2  0  0  0  0  0  0
   12.2510    3.1900   10.9760 N   0  0  0  0  0  0  0  0  0  0  0  0
   12.0820    2.2120   10.0760 C   0  0  0  0  0  0  0  0  0  0  0  0
   13.2850    1.9790    9.4860 C   0  0  0  0  0  0  0  0  0  0  0  0
   10.9750    1.4810    9.6930 C   0  0  0  0  0  0  0  0  0  0  0  0
   14.1560    2.8180   10.0400 N   0  0  0  0  0  0  0  0  0  0  0  0
   13.3970    1.0370    8.5330 N   0  0  0  0  0  0  0  0  0  0  0  0
   13.5540    3.5840   10.9650 C   0  0  0  0  0  0  0  0  0  0  0  0
   14.2860    4.9450   12.0680 Br  0  0  0  0  0  0  0  0  0  0  0  0
   12.3170    0.3430    8.1790 C   0  0  0  0  0  0  0  0  0  0  0  0
   14.6690    0.7730    7.8940 C   0  0  0  0  0  1  0  0  0  0  0  0
   12.4360   -0.5360    7.2850 O   0  0  0  0  0  0  0  0  0  0  0  0
   11.1340    0.5560    8.7420 N   0  0  0  0  0  0  0  0  0  0  0  0
   10.3000    0.0020    8.4510 H   0  0  0  0  0  0  0  0  0  0  0  0
    9.8250    1.6540   10.2070 O   0  0  0  0  0  0  0  0  0  0  0  0
  1  2  1  0  0  0  0
  3  2  1  0  0  0  0
  3  4  1  0  0  0  0
  4  5  1  0  0  0  0
  5  6  1  0  0  0  0
  5  7  2  0  0  0  0
  8 10  1  0  0  0  0
  8  7  1  0  0  0  0
  9  4  1  0  0  0  0
  9  8  2  0  0  0  0
 10 17  1  0  0  0  0
 11 12  1  0  0  0  0
 11  9  1  0  0  0  0
 12 14  1  0  0  0  0
 13 11  2  0  0  0  0
 14 16  2  0  0  0  0
 14 10  1  0  0  0  0
 15 12  1  0  0  0  0
 18 19  1  0  0  0  0
 18  1  1  0  0  0  0
 20 19  1  0  0  0  0
 21 20  1  0  0  0  0
 22 24  1  0  0  0  0
 22 21  2  0  0  0  0
 23 21  1  0  0  0  0
 23 33  2  0  0  0  0
 24 26  2  0  0  0  0
 25 22  1  0  0  0  0
 26 20  1  0  0  0  0
 26 27  1  0  0  0  0
 28 25  1  0  0  0  0
 28 31  1  0  0  0  0
 29 25  1  0  0  0  0
 30 28  2  0  0  0  0
 31 23  1  0  0  0  0
 32 31  1  0  0  0  0
M  END
>  <Pose>
1

>  <Score>
-8.939

$$$$
