MODEL 1
REMARK VINA RESULT:    -8.907      0.000      0.000
REMARK INTER + INTRA:         -12.568
REMARK INTER:                 -11.511
REMARK INTRA:                  -1.057
REMARK UNBOUND:                -1.057
REMARK  5 active torsions:
REMARK  status: ('A' for Active; 'I' for Inactive)
REMARK    1  A    between atoms: C_3  and  C_8 
REMARK    2  A    between atoms: C_8  and  N_9 
REMARK    3  A    between atoms: C_13  and  N_14 
REMARK    4  A    between atoms: C_15  and  C_17 
REMARK    5  A    between atoms: C_17  and  N_18 
ROOT
ATOM      1  N   UNK d   1       9.274   5.298  13.022  0.00  0.00    -0.322 N 
ATOM      2  C   UNK d   1       8.661   6.068  13.958  0.00  0.00     0.174 C 
ATOM      3  O   UNK d   1       7.954   5.230  14.788  0.00  0.00    -0.175 OA
ATOM      4  H   UNK d   1       9.064   4.204  13.174  0.00  0.00     0.169 HD
ENDROOT
BRANCH   2   5
ATOM      5  C   UNK d   1       8.493   7.447  14.387  0.00  0.00     0.210 C 
BRANCH   5   6
ATOM      6  N   UNK d   1       7.993   8.502  13.616  0.00  0.00    -0.373 N 
ATOM      7  C   UNK d   1       8.808   9.692  13.252  0.00  0.00     0.123 C 
ATOM      8  C   UNK d   1       7.799  10.704  12.751  0.00  0.00     0.020 C 
ATOM      9  C   UNK d   1       7.159  10.167  11.499  0.00  0.00     0.008 C 
ATOM     10  C   UNK d   1       6.288   8.979  11.850  0.00  0.00     0.061 C 
ATOM     11  C   UNK d   1       6.613   8.501  13.226  0.00  0.00     0.053 C 
ATOM     12  C   UNK d   1       5.634   8.186  14.076  0.00  0.00     0.146 A 
ATOM     13  N   UNK d   1       4.257   8.179  13.662  0.00  0.00    -0.280 N 
ATOM     14  N   UNK d   1       5.625   7.887  15.435  0.00  0.00    -0.291 N 
ATOM     15  N   UNK d   1       3.440   7.877  14.766  0.00  0.00    -0.250 N 
ATOM     16  H   UNK d   1       3.816   8.347  12.737  0.00  0.00     0.188 HD
ATOM     17  C   UNK d   1       4.274   7.689  15.888  0.00  0.00     0.340 A 
ATOM     18  H   UNK d   1       2.393   7.796  14.791  0.00  0.00     0.192 HD
ATOM     19  O   UNK d   1       3.969   7.406  17.069  0.00  0.00    -0.245 OA
ATOM     20  H   UNK d   1       6.453   7.835  16.051  0.00  0.00     0.172 HD
ENDBRANCH   5   6
ENDBRANCH   2   5
BRANCH   1  21
ATOM     21  C   UNK d   1      10.022   5.470  11.863  0.00  0.00     0.127 A 
ATOM     22  N   UNK d   1      10.844   4.549  11.275  0.00  0.00    -0.250 N 
ATOM     23  N   UNK d   1      11.329   5.071  10.156  0.00  0.00    -0.183 NA
ATOM     24  C   UNK d   1      10.876   6.298   9.961  0.00  0.00     0.142 A 
ATOM     25  C   UNK d   1      10.032   6.577  11.046  0.00  0.00     0.071 A 
BRANCH  22  26
ATOM     26  C   UNK d   1      11.120   3.256  11.796  0.00  0.00     0.193 C 
BRANCH  26  27
ATOM     27  C   UNK d   1      11.400   2.232  10.772  0.00  0.00    -0.017 A 
ATOM     28  C   UNK d   1      12.654   1.814  10.440  0.00  0.00     0.042 A 
ATOM     29 Cl   UNK d   1      14.044   2.502  11.248  0.00  0.00    -0.084 Cl
ATOM     30  C   UNK d   1      12.855   0.854   9.474  0.00  0.00     0.024 A 
ATOM     31  C   UNK d   1      11.793   0.284   8.810  0.00  0.00     0.002 A 
ATOM     32  C   UNK d   1      10.520   0.700   9.138  0.00  0.00     0.001 A 
ATOM     33  C   UNK d   1      10.342   1.657  10.104  0.00  0.00     0.010 A 
ENDBRANCH  26  27
ENDBRANCH  22  26
ENDBRANCH   1  21
TORSDOF 5
ENDMDL
