/Users/jonathanwahrer/Desktop/Msc/3_Semester/Drug_Design_Praktikum/waehrer_HTS_screening/HTS_experiment/out/docking_results/vina_output/2jam/1471_docked.pdbqt
 OpenBabel03162218263D

 31 34  0  0  0  0  0  0  0  0999 V2000
   11.4370    2.0590   10.6200 C   0  0  0  0  0  0  0  0  0  0  0  0
   10.3990    1.2710   10.2050 C   0  0  0  0  0  2  0  0  0  0  0  0
   10.4600    0.4200    9.1350 N   0  0  0  0  0  0  0  0  0  0  0  0
   11.6060    0.3630    8.4650 C   0  0  0  0  0  3  0  0  0  0  0  0
   12.7010    1.1130    8.8060 C   0  0  0  0  0  0  0  0  0  0  0  0
   12.6200    2.0100    9.9430 C   0  0  0  0  0  0  0  0  0  0  0  0
   13.8250    2.6030   10.0360 N   0  0  0  0  0  2  0  0  0  0  0  0
   14.6220    2.1600    9.0790 N   0  0  0  0  0  0  0  0  0  0  0  0
   13.9860    1.2610    8.3150 C   0  0  0  0  0  0  0  0  0  0  0  0
   14.4110    0.6170    7.3080 O   0  0  0  0  0  0  0  0  0  0  0  0
   15.6260    2.4360    8.8910 H   0  0  0  0  0  0  0  0  0  0  0  0
   11.2880    2.9370   11.7700 C   0  0  0  0  0  0  0  0  0  0  0  0
   11.1250    4.3330   11.6340 N   0  0  0  0  0  0  0  0  0  0  0  0
   10.9750    5.2280   12.7500 C   0  0  0  0  0  2  0  0  0  0  0  0
   11.1060    4.9060   10.3130 C   0  0  0  0  0  2  0  0  0  0  0  0
   11.8300    6.4440   12.4960 C   0  0  0  0  0  2  0  0  0  0  0  0
   12.7990    6.2500   11.4500 N   0  0  0  0  0  0  0  0  0  0  0  0
   12.4370    5.6540   10.1560 C   0  0  0  0  0  2  0  0  0  0  0  0
   11.3110    2.3860   12.9090 O   0  0  0  0  0  0  0  0  0  0  0  0
   14.1460    6.6240   11.6180 C   0  0  0  0  0  0  0  0  0  0  0  0
   15.0730    5.7750   12.1830 C   0  0  0  0  0  0  0  0  0  0  0  0
   14.5670    4.1690   12.7170 Cl  0  0  0  0  0  0  0  0  0  0  0  0
   16.3900    6.1530   12.3420 C   0  0  0  0  0  3  0  0  0  0  0  0
   16.7870    7.4000   11.9290 C   0  0  0  0  0  3  0  0  0  0  0  0
   15.8770    8.2910   11.3500 C   0  0  0  0  0  3  0  0  0  0  0  0
   14.5660    7.8620   11.2130 C   0  0  0  0  0  3  0  0  0  0  0  0
    9.2810   -0.3450    8.7570 C   0  0  0  0  0  3  0  0  0  0  0  0
    9.5190   -1.5280    7.9290 C   0  0  0  0  0  3  0  0  0  0  0  0
    8.4670   -2.2860    7.2490 C   0  0  0  0  0  2  0  0  0  0  0  0
    7.2940   -1.7300    6.9050 O   0  0  0  0  0  0  0  0  0  0  0  0
    6.6100   -2.0590    5.8080 C   0  0  0  0  0  1  0  0  0  0  0  0
  1 12  1  0  0  0  0
  2  1  1  0  0  0  0
  3  2  1  0  0  0  0
  4  5  2  0  0  0  0
  4  3  1  0  0  0  0
  5  6  1  0  0  0  0
  6  7  1  0  0  0  0
  6  1  2  0  0  0  0
  8  7  1  0  0  0  0
  9  5  1  0  0  0  0
  9  8  1  0  0  0  0
 10  9  2  0  0  0  0
 11  8  1  0  0  0  0
 12 19  2  0  0  0  0
 13 12  1  0  0  0  0
 13 14  1  0  0  0  0
 15 13  1  0  0  0  0
 16 14  1  0  0  0  0
 17 20  1  0  0  0  0
 17 16  1  0  0  0  0
 18 15  1  0  0  0  0
 18 17  1  0  0  0  0
 20 21  1  0  0  0  0
 21 23  2  0  0  0  0
 21 22  1  0  0  0  0
 24 23  1  0  0  0  0
 25 24  2  0  0  0  0
 26 25  1  0  0  0  0
 26 20  2  0  0  0  0
 27  3  1  0  0  0  0
 28 27  2  0  0  0  0
 29 28  1  0  0  0  0
 30 29  1  0  0  0  0
 31 30  1  0  0  0  0
M  END
>  <Pose>
1

>  <Score>
-8.282

$$$$
