MODEL 1
REMARK VINA RESULT:    -8.037      0.000      0.000
REMARK INTER + INTRA:         -13.019
REMARK INTER:                 -10.856
REMARK INTRA:                  -2.162
REMARK UNBOUND:                -2.162
REMARK  6 active torsions:
REMARK  status: ('A' for Active; 'I' for Inactive)
REMARK    1  A    between atoms: C_4  and  C_8 
REMARK    2  A    between atoms: N_9  and  C_27 
REMARK    3  A    between atoms: C_14  and  C_15 
REMARK    4  A    between atoms: C_15  and  C_17 
REMARK    5  A    between atoms: C_27  and  C_28 
REMARK    6  A    between atoms: C_28  and  N_29 
ROOT
ATOM      1  C   UNK d   1       7.639   8.035  14.102  0.00  0.00     0.161 C 
ATOM      2  N   UNK d   1       7.953   6.903  13.348  0.00  0.00    -0.331 N 
ATOM      3  C   UNK d   1       7.165   6.974  12.121  0.00  0.00     0.295 C 
ATOM      4  O   UNK d   1       7.247   6.230  11.112  0.00  0.00    -0.264 OA
ATOM      5  C   UNK d   1       6.215   8.072  12.214  0.00  0.00     0.251 C 
ATOM      6  O   UNK d   1       5.376   8.425  11.319  0.00  0.00    -0.282 OA
ATOM      7  C   UNK d   1       6.421   8.673  13.504  0.00  0.00     0.064 C 
ENDROOT
BRANCH   7   8
ATOM      8  C   UNK d   1       5.692   9.640  14.023  0.00  0.00     0.149 C 
ATOM      9  O   UNK d   1       5.945  10.930  13.500  0.00  0.00    -0.189 OA
BRANCH   8  10
ATOM     10  C   UNK d   1       4.687   9.497  15.059  0.00  0.00     0.102 A 
ATOM     11  N   UNK d   1       4.741   9.577  16.397  0.00  0.00    -0.302 N 
ATOM     12  C   UNK d   1       3.558   9.328  16.978  0.00  0.00     0.134 A 
ATOM     13  C   UNK d   1       5.812   9.884  17.178  0.00  0.00     0.099 A 
ATOM     14  N   UNK d   1       2.697   9.075  15.968  0.00  0.00    -0.233 NA
ATOM     15  C   UNK d   1       3.382   9.372  18.348  0.00  0.00     0.051 A 
ATOM     16  C   UNK d   1       3.338   9.168  14.800  0.00  0.00     0.063 A 
ATOM     17  C   UNK d   1       2.768   8.968  13.461  0.00  0.00     0.073 C 
ATOM     18  C   UNK d   1       4.453   9.678  19.143  0.00  0.00     0.005 A 
ATOM     19  C   UNK d   1       5.672   9.936  18.545  0.00  0.00     0.018 A 
ENDBRANCH   8  10
ENDBRANCH   7   8
BRANCH   1  20
ATOM     20  C   UNK d   1       8.623   9.018  14.510  0.00  0.00    -0.029 A 
ATOM     21  C   UNK d   1       8.774   9.353  15.863  0.00  0.00     0.028 A 
ATOM     22  C   UNK d   1       9.742  10.246  16.267  0.00  0.00     0.011 A 
ATOM     23 Br   UNK d   1       9.944  10.692  18.100  0.00  0.00    -0.051 Br
ATOM     24  C   UNK d   1      10.591  10.839  15.355  0.00  0.00     0.019 A 
ATOM     25  C   UNK d   1      10.472  10.534  14.011  0.00  0.00     0.002 A 
ATOM     26  C   UNK d   1       9.501   9.644  13.654  0.00  0.00     0.009 A 
ENDBRANCH   1  20
BRANCH   2  27
ATOM     27  C   UNK d   1       8.778   5.799  13.679  0.00  0.00     0.155 C 
BRANCH  27  28
ATOM     28  C   UNK d   1      10.110   5.638  13.101  0.00  0.00     0.255 C 
BRANCH  28  29
ATOM     29  N   UNK d   1      10.274   5.236  11.735  0.00  0.00    -0.066 N 
ATOM     30  C   UNK d   1      10.835   6.384  11.024  0.00  0.00     0.261 C 
ATOM     31  C   UNK d   1      12.330   6.405  11.045  0.00  0.00     0.195 C 
ATOM     32  O   UNK d   1      12.833   5.480  11.971  0.00  0.00    -0.388 OA
ATOM     33  C   UNK d   1      12.480   4.242  11.481  0.00  0.00     0.195 C 
ATOM     34  C   UNK d   1      11.015   4.030  11.575  0.00  0.00     0.261 C 
ATOM     35  H   UNK d   1       9.337   5.102  11.251  0.00  0.00     0.280 HD
ENDBRANCH  28  29
ENDBRANCH  27  28
ENDBRANCH   2  27
TORSDOF 6
ENDMDL
