MODEL 1
REMARK VINA RESULT:    -8.991      0.000      0.000
REMARK INTER + INTRA:         -13.516
REMARK INTER:                 -12.670
REMARK INTRA:                  -0.845
REMARK UNBOUND:                -0.845
REMARK  7 active torsions:
REMARK  status: ('A' for Active; 'I' for Inactive)
REMARK    1  A    between atoms: C_5  and  C_8 
REMARK    2  A    between atoms: C_8  and  C_10 
REMARK    3  A    between atoms: C_10  and  N_11 
REMARK    4  A    between atoms: C_13  and  C_21 
REMARK    5  A    between atoms: C_21  and  N_22 
REMARK    6  A    between atoms: N_22  and  C_23 
REMARK    7  A    between atoms: C_26  and  O_29 
ROOT
ATOM      1  N   UNK d   1      13.179   2.731  11.247  0.00  0.00    -0.249 N 
ATOM      2  N   UNK d   1      11.983   3.102  11.646  0.00  0.00    -0.155 NA
ATOM      3  C   UNK d   1      11.997   4.380  12.052  0.00  0.00     0.145 A 
ATOM      4  N   UNK d   1      13.254   4.824  11.901  0.00  0.00    -0.321 N 
ATOM      5  C   UNK d   1      13.986   3.786  11.398  0.00  0.00     0.104 A 
ATOM      6  C   UNK d   1      15.411   3.816  11.074  0.00  0.00     0.078 C 
ATOM      7  C   UNK d   1      16.279   4.172  12.258  0.00  0.00     0.008 C 
ATOM      8  C   UNK d   1      16.157   5.634  12.629  0.00  0.00     0.002 C 
ATOM      9  C   UNK d   1      14.839   5.977  13.252  0.00  0.00     0.020 C 
ATOM     10  C   UNK d   1      13.739   6.153  12.215  0.00  0.00     0.132 C 
ENDROOT
BRANCH   3  11
ATOM     11  C   UNK d   1      10.874   5.174  12.569  0.00  0.00     0.200 C 
BRANCH  11  12
ATOM     12  N   UNK d   1      10.325   6.055  11.585  0.00  0.00    -0.383 N 
ATOM     13  H   UNK d   1      10.843   6.247  10.715  0.00  0.00     0.160 HD
BRANCH  12  14
ATOM     14  C   UNK d   1       9.066   6.704  11.741  0.00  0.00     0.028 A 
ATOM     15  C   UNK d   1       8.947   8.074  11.794  0.00  0.00     0.032 A 
ATOM     16  C   UNK d   1       7.730   8.688  11.939  0.00  0.00     0.039 A 
ATOM     17  C   UNK d   1       6.604   7.932  12.035  0.00  0.00     0.068 A 
ATOM     18  C   UNK d   1       6.719   6.560  11.983  0.00  0.00     0.039 A 
ATOM     19  C   UNK d   1       7.938   5.932  11.836  0.00  0.00     0.032 A 
BRANCH  17  20
ATOM     20  O   UNK d   1       5.370   8.520  12.183  0.00  0.00    -0.356 OA
ATOM     21  C   UNK d   1       5.077   9.435  13.209  0.00  0.00     0.210 C 
ENDBRANCH  17  20
ENDBRANCH  12  14
ENDBRANCH  11  12
ENDBRANCH   3  11
BRANCH   1  22
ATOM     22  C   UNK d   1      13.556   1.443  10.746  0.00  0.00     0.236 C 
BRANCH  22  23
ATOM     23  C   UNK d   1      13.230   1.294   9.302  0.00  0.00     0.179 C 
ATOM     24  O   UNK d   1      13.940   1.927   8.477  0.00  0.00    -0.290 OA
BRANCH  23  25
ATOM     25  C   UNK d   1      12.149   0.463   8.818  0.00  0.00     0.011 A 
ATOM     26  C   UNK d   1      12.296  -0.364   7.729  0.00  0.00     0.016 A 
ATOM     27  C   UNK d   1      11.247  -1.157   7.274  0.00  0.00     0.020 A 
ATOM     28  C   UNK d   1      10.023  -1.126   7.919  0.00  0.00     0.011 A 
ATOM     29 Br   UNK d   1       8.578  -2.226   7.283  0.00  0.00    -0.051 Br
ATOM     30  C   UNK d   1       9.866  -0.303   9.009  0.00  0.00     0.020 A 
ATOM     31  C   UNK d   1      10.918   0.469   9.436  0.00  0.00     0.016 A 
ENDBRANCH  23  25
ENDBRANCH  22  23
ENDBRANCH   1  22
TORSDOF 7
ENDMDL
