MODEL 1
REMARK VINA RESULT:    -7.820      0.000      0.000
REMARK INTER + INTRA:         -10.297
REMARK INTER:                  -9.420
REMARK INTRA:                  -0.877
REMARK UNBOUND:                -0.877
REMARK  4 active torsions:
REMARK  status: ('A' for Active; 'I' for Inactive)
REMARK    1  A    between atoms: C_4  and  N_8 
REMARK    2  A    between atoms: C_10  and  O_18 
REMARK    3  A    between atoms: C_10  and  C_19 
REMARK    4  A    between atoms: C_21  and  N_25 
ROOT
ATOM      1  N   UNK d   1       5.329   7.275  14.623  0.00  0.00     0.009 N 
ATOM      2  C   UNK d   1       6.126   6.151  14.198  0.00  0.00     0.316 C 
ATOM      3  C   UNK d   1       6.744   6.392  12.885  0.00  0.00     0.189 C 
ATOM      4  N   UNK d   1       6.254   7.690  12.517  0.00  0.00    -0.324 N 
ATOM      5  C   UNK d   1       6.108   8.350  11.241  0.00  0.00     0.128 C 
ATOM      6  C   UNK d   1       6.882   9.620  11.092  0.00  0.00     0.020 C 
ATOM      7  C   UNK d   1       7.492  10.143  12.346  0.00  0.00     0.005 C 
ATOM      8  C   UNK d   1       6.365  10.765  13.200  0.00  0.00     0.031 C 
ATOM      9  C   UNK d   1       5.868   9.608  14.049  0.00  0.00     0.030 C 
ATOM     10  C   UNK d   1       5.823   8.330  13.749  0.00  0.00     0.208 C 
ATOM     11  H   UNK d   1       4.327   7.224  14.472  0.00  0.00     0.295 HD
ENDROOT
BRANCH   3  12
ATOM     12  O   UNK d   1       6.207   5.479  11.935  0.00  0.00    -0.365 OA
ATOM     13  H   UNK d   1       5.454   5.003  12.418  0.00  0.00     0.213 HD
ENDBRANCH   3  12
BRANCH   3  14
ATOM     14  C   UNK d   1       8.175   6.243  12.786  0.00  0.00     0.001 A 
ATOM     15  C   UNK d   1       8.830   5.878  11.610  0.00  0.00     0.048 A 
ATOM     16  C   UNK d   1      10.210   5.759  11.515  0.00  0.00     0.103 A 
ATOM     17  C   UNK d   1      10.982   6.019  12.647  0.00  0.00     0.036 A 
ATOM     18  C   UNK d   1      10.380   6.378  13.819  0.00  0.00     0.003 A 
ATOM     19  C   UNK d   1       8.982   6.487  13.875  0.00  0.00     0.012 A 
BRANCH  16  20
ATOM     20  N   UNK d   1      10.806   5.384  10.289  0.00  0.00    -0.116 N 
ATOM     21  O   UNK d   1      10.183   5.589   9.200  0.00  0.00    -0.532 OA
ATOM     22  O   UNK d   1      12.016   4.806  10.198  0.00  0.00    -0.532 OA
ENDBRANCH  16  20
ENDBRANCH   3  14
BRANCH   1  23
ATOM     23  C   UNK d   1       5.584   7.741  15.940  0.00  0.00     0.143 A 
ATOM     24  C   UNK d   1       4.616   8.313  16.727  0.00  0.00     0.061 A 
ATOM     25  C   UNK d   1       4.897   8.868  17.974  0.00  0.00     0.036 A 
ATOM     26 Cl   UNK d   1       3.612   9.557  18.955  0.00  0.00    -0.084 Cl
ATOM     27  C   UNK d   1       6.189   8.854  18.460  0.00  0.00     0.024 A 
ATOM     28  C   UNK d   1       7.184   8.296  17.703  0.00  0.00     0.004 A 
ATOM     29  C   UNK d   1       6.883   7.748  16.461  0.00  0.00     0.038 A 
ENDBRANCH   1  23
TORSDOF 4
ENDMDL
