MODEL 1
REMARK VINA RESULT:   -10.002      0.000      0.000
REMARK INTER + INTRA:         -12.438
REMARK INTER:                 -12.341
REMARK INTRA:                  -0.097
REMARK UNBOUND:                -0.097
REMARK  4 active torsions:
REMARK  status: ('A' for Active; 'I' for Inactive)
REMARK    1  A    between atoms: C_7  and  N_8 
REMARK    2  A    between atoms: C_14  and  C_16 
REMARK    3  A    between atoms: N_23  and  C_31 
REMARK    4  A    between atoms: C_25  and  C_28 
ROOT
ATOM      1  F   UNK d   1       8.169   5.222  10.724  0.00  0.00    -0.204 F 
ATOM      2  C   UNK d   1       8.461   6.182  11.620  0.00  0.00     0.151 A 
ATOM      3  C   UNK d   1       7.346   6.835  12.137  0.00  0.00     0.062 A 
ATOM      4  C   UNK d   1       7.493   7.837  13.071  0.00  0.00     0.045 A 
ATOM      5  C   UNK d   1       8.767   8.164  13.472  0.00  0.00     0.051 A 
ATOM      6  C   UNK d   1       9.868   7.498  12.945  0.00  0.00     0.071 A 
ATOM      7  C   UNK d   1       9.735   6.502  12.015  0.00  0.00     0.175 A 
ATOM      8  N   UNK d   1       8.886   9.146  14.388  0.00  0.00    -0.350 N 
ATOM      9  C   UNK d   1       7.824   9.793  14.902  0.00  0.00     0.114 A 
ATOM     10  C   UNK d   1       6.536   9.489  14.520  0.00  0.00     0.107 A 
ATOM     11  C   UNK d   1       6.367   8.492  13.588  0.00  0.00     0.202 A 
ATOM     12  O   UNK d   1       5.222   8.165  13.197  0.00  0.00    -0.286 OA
ENDROOT
BRANCH   7  13
ATOM     13  N   UNK d   1      10.865   5.865  11.502  0.00  0.00    -0.035 N 
ATOM     14  C   UNK d   1      10.679   5.179  10.249  0.00  0.00     0.261 C 
ATOM     15  C   UNK d   1      12.039   4.653   9.733  0.00  0.00     0.153 C 
ATOM     16  N   UNK d   1      12.466   3.710  10.691  0.00  0.00    -0.356 N 
ATOM     17  C   UNK d   1      12.822   4.408  11.987  0.00  0.00     0.153 C 
ATOM     18  C   UNK d   1      12.564   2.360  10.690  0.00  0.00     0.187 C 
ATOM     19  C   UNK d   1      11.510   4.986  12.421  0.00  0.00     0.261 C 
ATOM     20  O   UNK d   1      13.090   1.835  11.771  0.00  0.00    -0.171 OA
ATOM     21  H   UNK d   1      11.571   6.636  11.294  0.00  0.00     0.287 HD
BRANCH  18  22
ATOM     22  C   UNK d   1      12.193   1.382   9.706  0.00  0.00     0.019 A 
ATOM     23  C   UNK d   1      10.958   0.826   9.606  0.00  0.00     0.039 A 
ATOM     24  C   UNK d   1      10.628  -0.076   8.603  0.00  0.00     0.035 A 
ATOM     25  C   UNK d   1      11.578  -0.425   7.677  0.00  0.00     0.024 A 
ATOM     26 Cl   UNK d   1       9.008  -0.772   8.512  0.00  0.00    -0.084 Cl
ATOM     27  C   UNK d   1      12.836   0.104   7.733  0.00  0.00     0.003 A 
ATOM     28  C   UNK d   1      13.129   0.987   8.728  0.00  0.00     0.016 A 
ENDBRANCH  18  22
ENDBRANCH   7  13
BRANCH   8  29
ATOM     29  C   UNK d   1      10.253   9.482  14.804  0.00  0.00     0.090 A 
ATOM     30  C   UNK d   1      10.517  10.633  15.673  0.00  0.00     0.028 A 
ATOM     31  C   UNK d   1      10.755  10.855  14.246  0.00  0.00     0.028 A 
ENDBRANCH   8  29
BRANCH  10  32
ATOM     32  C   UNK d   1       5.383  10.208  15.093  0.00  0.00     0.214 C 
ATOM     33  O   UNK d   1       4.881   9.901  16.186  0.00  0.00    -0.644 OA
ATOM     34  O   UNK d   1       4.855  11.258  14.376  0.00  0.00    -0.644 OA
ENDBRANCH  10  32
TORSDOF 4
ENDMDL
