/Users/jonathanwahrer/Desktop/Msc/3_Semester/Drug_Design_Praktikum/waehrer_HTS_screening/HTS_experiment/out/docking_results/vina_output/2jam/1491_docked.pdbqt
 OpenBabel03162218273D

 34 38  0  0  0  0  0  0  0  0999 V2000
    8.1690    5.2220   10.7240 F   0  0  0  0  0  0  0  0  0  0  0  0
    8.4610    6.1820   11.6200 C   0  0  0  0  0  0  0  0  0  0  0  0
    7.3460    6.8350   12.1370 C   0  0  0  0  0  3  0  0  0  0  0  0
    7.4930    7.8370   13.0710 C   0  0  0  0  0  0  0  0  0  0  0  0
    8.7670    8.1640   13.4720 C   0  0  0  0  0  0  0  0  0  0  0  0
    9.8680    7.4980   12.9450 C   0  0  0  0  0  3  0  0  0  0  0  0
    9.7350    6.5020   12.0150 C   0  0  0  0  0  0  0  0  0  0  0  0
    8.8860    9.1460   14.3880 N   0  0  0  0  0  0  0  0  0  0  0  0
    7.8240    9.7930   14.9020 C   0  0  0  0  0  3  0  0  0  0  0  0
    6.5360    9.4890   14.5200 C   0  0  0  0  0  0  0  0  0  0  0  0
    6.3670    8.4920   13.5880 C   0  0  0  0  0  0  0  0  0  0  0  0
    5.2220    8.1650   13.1970 O   0  0  0  0  0  0  0  0  0  0  0  0
   10.8650    5.8650   11.5020 N   0  0  0  0  0  4  0  0  0  0  0  0
   10.6790    5.1790   10.2490 C   0  0  0  0  0  2  0  0  0  0  0  0
   12.0390    4.6530    9.7330 C   0  0  0  0  0  2  0  0  0  0  0  0
   12.4660    3.7100   10.6910 N   0  0  0  0  0  0  0  0  0  0  0  0
   12.8220    4.4080   11.9870 C   0  0  0  0  0  2  0  0  0  0  0  0
   12.5640    2.3600   10.6900 C   0  0  0  0  0  0  0  0  0  0  0  0
   11.5100    4.9860   12.4210 C   0  0  0  0  0  2  0  0  0  0  0  0
   13.0900    1.8350   11.7710 O   0  0  0  0  0  0  0  0  0  0  0  0
   11.5710    6.6360   11.2940 H   0  0  0  0  0  0  0  0  0  0  0  0
   12.1930    1.3820    9.7060 C   0  0  0  0  0  0  0  0  0  0  0  0
   10.9580    0.8260    9.6060 C   0  0  0  0  0  3  0  0  0  0  0  0
   10.6280   -0.0760    8.6030 C   0  0  0  0  0  0  0  0  0  0  0  0
   11.5780   -0.4250    7.6770 C   0  0  0  0  0  3  0  0  0  0  0  0
    9.0080   -0.7720    8.5120 Cl  0  0  0  0  0  0  0  0  0  0  0  0
   12.8360    0.1040    7.7330 C   0  0  0  0  0  3  0  0  0  0  0  0
   13.1290    0.9870    8.7280 C   0  0  0  0  0  3  0  0  0  0  0  0
   10.2530    9.4820   14.8040 C   0  0  0  0  0  3  0  0  0  0  0  0
   10.5170   10.6330   15.6730 C   0  0  0  0  0  2  0  0  0  0  0  0
   10.7550   10.8550   14.2460 C   0  0  0  0  0  2  0  0  0  0  0  0
    5.3830   10.2080   15.0930 C   0  0  0  0  0  0  0  0  0  0  0  0
    4.8810    9.9010   16.1860 O   0  0  0  0  0  1  0  0  0  0  0  0
    4.8550   11.2580   14.3760 O   0  0  0  0  0  0  0  0  0  0  0  0
  1  2  1  0  0  0  0
  2  7  2  0  0  0  0
  2  3  1  0  0  0  0
  3  4  2  0  0  0  0
  4  5  1  0  0  0  0
  4 11  1  0  0  0  0
  5  8  1  0  0  0  0
  6  5  2  0  0  0  0
  7  6  1  0  0  0  0
  8 29  1  0  0  0  0
  8  9  1  0  0  0  0
 10  9  2  0  0  0  0
 10 32  1  0  0  0  0
 11 10  1  0  0  0  0
 12 11  2  0  0  0  0
 13  7  1  0  0  0  0
 13 19  1  0  0  0  0
 14 13  1  0  0  0  0
 15 14  1  0  0  0  0
 15 16  1  0  0  0  0
 16 17  1  0  0  0  0
 17 19  1  0  0  0  0
 18 16  1  0  0  0  0
 18 20  2  0  0  0  0
 21 13  1  0  0  0  0
 22 18  1  0  0  0  0
 23 22  1  0  0  0  0
 24 23  2  0  0  0  0
 25 27  2  0  0  0  0
 25 24  1  0  0  0  0
 26 24  1  0  0  0  0
 27 28  1  0  0  0  0
 28 22  2  0  0  0  0
 29 30  1  0  0  0  0
 31 29  1  0  0  0  0
 31 30  1  0  0  0  0
 32 33  1  0  0  0  0
 34 32  2  0  0  0  0
M  END
>  <Pose>
1

>  <Score>
-10.002

$$$$
