MODEL 1
REMARK VINA RESULT:    -9.420      0.000      0.000
REMARK INTER + INTRA:         -13.743
REMARK INTER:                 -12.724
REMARK INTRA:                  -1.018
REMARK UNBOUND:                -1.018
REMARK  6 active torsions:
REMARK  status: ('A' for Active; 'I' for Inactive)
REMARK    1  A    between atoms: C_5  and  C_8 
REMARK       I    between atoms: C_8  and  N_10 
REMARK    2  A    between atoms: N_10  and  C_11 
REMARK    3  A    between atoms: C_11  and  C_12 
REMARK    4  A    between atoms: C_12  and  N_13 
REMARK       I    between atoms: N_13  and  C_14 
REMARK    5  A    between atoms: C_14  and  C_16 
REMARK    6  A    between atoms: N_19  and  C_22 
ROOT
ATOM      1  N   UNK d   1      12.635   5.304  11.246  0.00  0.00    -0.359 N 
ATOM      2  C   UNK d   1      11.250   5.052  11.557  0.00  0.00     0.222 C 
ATOM      3  O   UNK d   1      10.970   4.263  12.472  0.00  0.00    -0.273 OA
ATOM      4  H   UNK d   1      12.789   5.983  10.505  0.00  0.00     0.162 HD
ENDROOT
BRANCH   2   5
ATOM      5  C   UNK d   1      10.155   5.715  10.810  0.00  0.00     0.081 C 
ATOM      6  C   UNK d   1      10.265   7.206  11.041  0.00  0.00     0.034 C 
ATOM      7  C   UNK d   1       9.853   7.468  12.472  0.00  0.00     0.125 C 
ATOM      8  N   UNK d   1       8.414   7.225  12.517  0.00  0.00    -0.364 N 
ATOM      9  C   UNK d   1       7.841   6.195  11.719  0.00  0.00     0.125 C 
ATOM     10  C   UNK d   1       8.803   5.212  11.158  0.00  0.00     0.034 C 
BRANCH   8  11
ATOM     11  C   UNK d   1       7.641   8.044  13.371  0.00  0.00     0.148 A 
ATOM     12  N   UNK d   1       6.867   9.050  12.919  0.00  0.00    -0.129 NA
ATOM     13  N   UNK d   1       6.141   9.825  13.703  0.00  0.00    -0.108 N 
ATOM     14  N   UNK d   1       5.333  10.846  13.440  0.00  0.00    -0.021 NA
ATOM     15  C   UNK d   1       6.112   9.673  15.031  0.00  0.00     0.196 A 
ATOM     16  N   UNK d   1       4.817  11.319  14.542  0.00  0.00    -0.021 NA
ATOM     17  N   UNK d   1       5.285  10.607  15.546  0.00  0.00    -0.107 NA
ATOM     18  C   UNK d   1       6.888   8.656  15.559  0.00  0.00     0.060 A 
ATOM     19  C   UNK d   1       7.647   7.845  14.741  0.00  0.00     0.056 A 
ENDBRANCH   8  11
ENDBRANCH   2   5
BRANCH   1  20
ATOM     20  C   UNK d   1      13.601   4.626  12.016  0.00  0.00     0.142 C 
BRANCH  20  21
ATOM     21  C   UNK d   1      14.122   3.305  11.630  0.00  0.00     0.142 C 
BRANCH  21  22
ATOM     22  N   UNK d   1      13.259   2.401  10.972  0.00  0.00    -0.355 N 
ATOM     23  C   UNK d   1      13.119   2.075   9.631  0.00  0.00     0.251 C 
ATOM     24  O   UNK d   1      13.832   2.595   8.747  0.00  0.00    -0.268 OA
ATOM     25  H   UNK d   1      12.545   1.836  11.610  0.00  0.00     0.162 HD
BRANCH  23  26
ATOM     26  C   UNK d   1      12.119   1.093   9.150  0.00  0.00     0.032 A 
ATOM     27  C   UNK d   1      12.506   0.094   8.283  0.00  0.00     0.018 A 
ATOM     28  C   UNK d   1      11.616  -0.845   7.817  0.00  0.00     0.025 A 
ATOM     29  C   UNK d   1      10.294  -0.789   8.227  0.00  0.00     0.034 A 
ATOM     30 Cl   UNK d   1       9.148  -1.982   7.637  0.00  0.00    -0.084 Cl
ATOM     31  C   UNK d   1       9.876   0.190   9.089  0.00  0.00     0.025 A 
ATOM     32  C   UNK d   1      10.807   1.127   9.543  0.00  0.00     0.018 A 
ENDBRANCH  23  26
ENDBRANCH  21  22
ENDBRANCH  20  21
ENDBRANCH   1  20
TORSDOF 6
ENDMDL
