/Users/jonathanwahrer/Desktop/Msc/3_Semester/Drug_Design_Praktikum/waehrer_HTS_screening/HTS_experiment/out/docking_results/vina_output/2jam/1506_docked.pdbqt
 OpenBabel03162218273D

 32 35  0  0  1  0  0  0  0  0999 V2000
   12.6350    5.3040   11.2460 N   0  0  0  0  0  0  0  0  0  0  0  0
   11.2500    5.0520   11.5570 C   0  0  0  0  0  0  0  0  0  0  0  0
   10.9700    4.2630   12.4720 O   0  0  0  0  0  0  0  0  0  0  0  0
   12.7890    5.9830   10.5050 H   0  0  0  0  0  0  0  0  0  0  0  0
   10.1550    5.7150   10.8100 C   0  0  2  0  0  3  0  0  0  0  0  0
   10.2650    7.2060   11.0410 C   0  0  0  0  0  2  0  0  0  0  0  0
    9.8530    7.4680   12.4720 C   0  0  0  0  0  2  0  0  0  0  0  0
    8.4140    7.2250   12.5170 N   0  0  0  0  0  0  0  0  0  0  0  0
    7.8410    6.1950   11.7190 C   0  0  0  0  0  2  0  0  0  0  0  0
    8.8030    5.2120   11.1580 C   0  0  0  0  0  2  0  0  0  0  0  0
    7.6410    8.0440   13.3710 C   0  0  0  0  0  0  0  0  0  0  0  0
    6.8670    9.0500   12.9190 N   0  0  0  0  0  0  0  0  0  0  0  0
    6.1410    9.8250   13.7030 N   0  0  0  0  0  0  0  0  0  0  0  0
    5.3330   10.8460   13.4400 N   0  0  0  0  0  0  0  0  0  0  0  0
    6.1120    9.6730   15.0310 C   0  0  0  0  0  0  0  0  0  0  0  0
    4.8170   11.3190   14.5420 N   0  0  0  0  0  0  0  0  0  0  0  0
    5.2850   10.6070   15.5460 N   0  0  0  0  0  0  0  0  0  0  0  0
    6.8880    8.6560   15.5590 C   0  0  0  0  0  3  0  0  0  0  0  0
    7.6470    7.8450   14.7410 C   0  0  0  0  0  3  0  0  0  0  0  0
   13.6010    4.6260   12.0160 C   0  0  0  0  0  2  0  0  0  0  0  0
   14.1220    3.3050   11.6300 C   0  0  0  0  0  2  0  0  0  0  0  0
   13.2590    2.4010   10.9720 N   0  0  0  0  0  0  0  0  0  0  0  0
   13.1190    2.0750    9.6310 C   0  0  0  0  0  0  0  0  0  0  0  0
   13.8320    2.5950    8.7470 O   0  0  0  0  0  0  0  0  0  0  0  0
   12.5450    1.8360   11.6100 H   0  0  0  0  0  0  0  0  0  0  0  0
   12.1190    1.0930    9.1500 C   0  0  0  0  0  0  0  0  0  0  0  0
   12.5060    0.0940    8.2830 C   0  0  0  0  0  3  0  0  0  0  0  0
   11.6160   -0.8450    7.8170 C   0  0  0  0  0  3  0  0  0  0  0  0
   10.2940   -0.7890    8.2270 C   0  0  0  0  0  0  0  0  0  0  0  0
    9.1480   -1.9820    7.6370 Cl  0  0  0  0  0  0  0  0  0  0  0  0
    9.8760    0.1900    9.0890 C   0  0  0  0  0  3  0  0  0  0  0  0
   10.8070    1.1270    9.5430 C   0  0  0  0  0  3  0  0  0  0  0  0
  1  2  1  0  0  0  0
  1 20  1  0  0  0  0
  2  3  2  0  0  0  0
  4  1  1  0  0  0  0
  5  6  1  0  0  0  0
  5 10  1  0  0  0  0
  5  2  1  1  0  0  0
  6  7  1  0  0  0  0
  7  8  1  0  0  0  0
  8 11  1  0  0  0  0
  9  8  1  0  0  0  0
 10  9  1  0  0  0  0
 11 19  1  0  0  0  0
 12 11  2  0  0  0  0
 12 13  1  0  0  0  0
 13 15  1  0  0  0  0
 14 13  1  0  0  0  0
 14 16  2  0  0  0  0
 15 17  2  0  0  0  0
 15 18  1  0  0  0  0
 16 17  1  0  0  0  0
 19 18  2  0  0  0  0
 21 20  1  0  0  0  0
 22 25  1  0  0  0  0
 22 21  1  0  0  0  0
 23 22  1  0  0  0  0
 24 23  2  0  0  0  0
 26 32  1  0  0  0  0
 26 23  1  0  0  0  0
 27 26  2  0  0  0  0
 28 29  2  0  0  0  0
 28 27  1  0  0  0  0
 29 31  1  0  0  0  0
 30 29  1  0  0  0  0
 31 32  2  0  0  0  0
M  END
>  <Pose>
1

>  <Score>
-9.420

$$$$
