/Users/jonathanwahrer/Desktop/Msc/3_Semester/Drug_Design_Praktikum/waehrer_HTS_screening/HTS_experiment/out/docking_results/vina_output/2jam/1511_docked.pdbqt
 OpenBabel03162218283D

 34 37  0  0  0  0  0  0  0  0999 V2000
   15.5170    5.6410   11.8670 N   0  0  0  0  0  0  0  0  0  0  0  0
   14.2470    5.2210   11.9800 C   0  0  0  0  0  0  0  0  0  0  0  0
   13.9520    4.0500   12.3320 O   0  0  0  0  0  0  0  0  0  0  0  0
   13.3550    6.2330   11.6660 C   0  0  0  0  0  0  0  0  0  0  0  0
   14.0990    7.2870   11.3550 C   0  0  0  0  0  0  0  0  0  0  0  0
   13.2350    8.2670   11.0500 N   0  0  0  0  0  0  0  0  0  0  0  0
   11.9970    7.8230   11.1700 N   0  0  0  0  0  0  0  0  0  0  0  0
   12.0490    6.5740   11.5490 N   0  0  0  0  0  0  0  0  0  0  0  0
   15.4260    6.9320   11.4750 C   0  0  0  0  0  0  0  0  0  0  0  0
   16.4190    7.7010   11.2540 O   0  0  0  0  0  0  0  0  0  0  0  0
   13.4660    9.2380   10.7580 H   0  0  0  0  0  0  0  0  0  0  0  0
   11.0980    8.3650   10.9970 H   0  0  0  0  0  0  0  0  0  0  0  0
   10.9430    5.6830   11.8060 C   0  0  0  0  0  2  0  0  0  0  0  0
   10.9260    4.5990   10.7540 C   0  0  0  0  0  0  0  0  0  0  0  0
   10.6020    4.8910    9.5810 O   0  0  0  0  0  0  0  0  0  0  0  0
   11.2700    3.2830   11.0940 N   0  0  0  0  0  0  0  0  0  0  0  0
   11.5380    3.1060   12.1170 H   0  0  0  0  0  0  0  0  0  0  0  0
   11.3020    2.1830   10.2130 C   0  0  0  0  0  0  0  0  0  0  0  0
   12.4080    1.7100    9.5550 C   0  0  0  0  0  3  0  0  0  0  0  0
   12.3690    0.6360    8.6890 C   0  0  0  0  0  0  0  0  0  0  0  0
   11.1560    0.0140    8.4830 C   0  0  0  0  0  0  0  0  0  0  0  0
   10.0150    0.4600    9.1300 C   0  0  0  0  0  3  0  0  0  0  0  0
   10.0770    1.5280    9.9830 C   0  0  0  0  0  3  0  0  0  0  0  0
   13.5100    0.1780    8.0340 O   0  0  0  0  0  0  0  0  0  0  0  0
   14.5880    1.1050    7.8540 C   0  0  0  0  0  1  0  0  0  0  0  0
   11.0940   -1.0720    7.6140 O   0  0  0  0  0  0  0  0  0  0  0  0
    9.8950   -1.8140    7.5210 C   0  0  0  0  0  1  0  0  0  0  0  0
   16.7360    4.9420   12.0910 C   0  0  0  0  0  0  0  0  0  0  0  0
   17.5960    5.2460   13.1260 C   0  0  0  0  0  3  0  0  0  0  0  0
   18.7810    4.5410   13.3160 C   0  0  0  0  0  3  0  0  0  0  0  0
   19.1400    3.5100   12.4690 C   0  0  0  0  0  0  0  0  0  0  0  0
   20.7690    2.5360   12.7230 Br  0  0  0  0  0  0  0  0  0  0  0  0
   18.2740    3.2140   11.4350 C   0  0  0  0  0  3  0  0  0  0  0  0
   17.1000    3.9130   11.2500 C   0  0  0  0  0  3  0  0  0  0  0  0
  1  2  1  0  0  0  0
  1 28  1  0  0  0  0
  2  3  2  0  0  0  0
  4  2  1  0  0  0  0
  5  9  1  0  0  0  0
  5  4  2  0  0  0  0
  6  7  1  0  0  0  0
  6  5  1  0  0  0  0
  7  8  1  0  0  0  0
  8  4  1  0  0  0  0
  8 13  1  0  0  0  0
  9  1  1  0  0  0  0
 10  9  2  0  0  0  0
 11  6  1  0  0  0  0
 12  7  1  0  0  0  0
 14 16  1  0  0  0  0
 14 13  1  0  0  0  0
 15 14  2  0  0  0  0
 16 17  1  0  0  0  0
 18 16  1  0  0  0  0
 19 18  2  0  0  0  0
 20 19  1  0  0  0  0
 21 20  2  0  0  0  0
 21 22  1  0  0  0  0
 22 23  2  0  0  0  0
 23 18  1  0  0  0  0
 24 20  1  0  0  0  0
 25 24  1  0  0  0  0
 26 21  1  0  0  0  0
 27 26  1  0  0  0  0
 28 29  1  0  0  0  0
 29 30  2  0  0  0  0
 31 32  1  0  0  0  0
 31 30  1  0  0  0  0
 33 31  2  0  0  0  0
 34 33  1  0  0  0  0
 34 28  2  0  0  0  0
M  END
>  <Pose>
1

>  <Score>
-9.033

$$$$
