MODEL 1
REMARK VINA RESULT:    -9.865      0.000      0.000
REMARK INTER + INTRA:         -12.810
REMARK INTER:                 -12.172
REMARK INTRA:                  -0.638
REMARK UNBOUND:                -0.638
REMARK  4 active torsions:
REMARK  status: ('A' for Active; 'I' for Inactive)
REMARK    1  A    between atoms: C_5  and  C_8 
REMARK       I    between atoms: C_8  and  N_10 
REMARK    2  A    between atoms: N_10  and  C_11 
REMARK    3  A    between atoms: C_11  and  C_12 
REMARK    4  A    between atoms: C_12  and  C_13 
REMARK       I    between atoms: C_13  and  N_15 
ROOT
ATOM      1  C   UNK d   1      10.789   5.114  11.832  0.00  0.00     0.221 C 
ATOM      2  O   UNK d   1      11.168   4.171  12.568  0.00  0.00    -0.273 OA
ATOM      3  N   UNK d   1       9.660   5.889  12.186  0.00  0.00    -0.352 N 
ATOM      4  C   UNK d   1       9.173   6.988  11.378  0.00  0.00     0.129 C 
ATOM      5  C   UNK d   1       8.583   8.028  12.320  0.00  0.00     0.068 C 
ATOM      6  C   UNK d   1       7.375   7.452  13.057  0.00  0.00     0.206 C 
ATOM      7  N   UNK d   1       7.373   8.036  14.367  0.00  0.00     0.099 N 
ATOM      8  C   UNK d   1       6.069   7.967  14.991  0.00  0.00     0.277 C 
ATOM      9  C   UNK d   1       5.138   8.945  14.278  0.00  0.00     0.089 C 
ATOM     10  C   UNK d   1       5.076   8.500  12.856  0.00  0.00     0.039 A 
ATOM     11  N   UNK d   1       4.112   8.648  11.899  0.00  0.00    -0.352 N 
ATOM     12  C   UNK d   1       4.554   8.058  10.774  0.00  0.00     0.207 A 
ATOM     13  N   UNK d   1       5.773   7.550  11.025  0.00  0.00    -0.244 NA
ATOM     14  C   UNK d   1       6.135   7.806  12.317  0.00  0.00     0.097 A 
ATOM     15  C   UNK d   1       7.492   5.948  13.184  0.00  0.00     0.068 C 
ATOM     16  C   UNK d   1       8.934   5.599  13.407  0.00  0.00     0.129 C 
ATOM     17  H   UNK d   1       8.089   7.603  14.983  0.00  0.00     0.317 HD
ATOM     18  H   UNK d   1       3.215   9.148  12.093  0.00  0.00     0.166 HD
ENDROOT
BRANCH   1  19
ATOM     19  C   UNK d   1      11.553   5.383  10.593  0.00  0.00     0.122 C 
BRANCH  19  20
ATOM     20  C   UNK d   1      12.434   4.242  10.195  0.00  0.00     0.132 C 
BRANCH  20  21
ATOM     21  N   UNK d   1      11.628   3.180   9.625  0.00  0.00    -0.356 N 
ATOM     22  C   UNK d   1      11.899   1.822   9.790  0.00  0.00     0.251 C 
ATOM     23  O   UNK d   1      12.893   1.455  10.467  0.00  0.00    -0.268 OA
ATOM     24  H   UNK d   1      10.802   3.502   9.066  0.00  0.00     0.162 HD
BRANCH  22  25
ATOM     25  C   UNK d   1      11.065   0.778   9.200  0.00  0.00     0.032 A 
ATOM     26  C   UNK d   1       9.742   0.611   9.545  0.00  0.00     0.018 A 
ATOM     27  C   UNK d   1       9.001  -0.399   8.950  0.00  0.00     0.025 A 
ATOM     28  C   UNK d   1       9.559  -1.254   8.010  0.00  0.00     0.034 A 
ATOM     29 Cl   UNK d   1       8.551  -2.504   7.309  0.00  0.00    -0.084 Cl
ATOM     30  C   UNK d   1      10.883  -1.097   7.657  0.00  0.00     0.025 A 
ATOM     31  C   UNK d   1      11.599  -0.095   8.253  0.00  0.00     0.018 A 
ENDBRANCH  22  25
ENDBRANCH  20  21
ENDBRANCH  19  20
ENDBRANCH   1  19
TORSDOF 4
ENDMDL
