MODEL 1
REMARK VINA RESULT:    -7.983      0.000      0.000
REMARK INTER + INTRA:          -9.615
REMARK INTER:                  -9.149
REMARK INTRA:                  -0.465
REMARK UNBOUND:                -0.465
REMARK  3 active torsions:
REMARK  status: ('A' for Active; 'I' for Inactive)
REMARK    1  A    between atoms: N_12  and  C_15 
REMARK    2  A    between atoms: C_15  and  C_16 
REMARK    3  A    between atoms: C_16  and  O_21 
ROOT
ATOM      1 Cl   UNK d   1      12.489  -1.012   7.252  0.00  0.00    -0.082 Cl
ATOM      2  C   UNK d   1      11.596  -0.099   8.450  0.00  0.00     0.061 A 
ATOM      3  C   UNK d   1      12.270   0.756   9.287  0.00  0.00     0.065 A 
ATOM      4  N   UNK d   1      13.557   1.108   9.440  0.00  0.00    -0.357 N 
ATOM      5  C   UNK d   1      13.710   2.010  10.428  0.00  0.00     0.020 A 
ATOM      6  C   UNK d   1      12.442   2.234  10.921  0.00  0.00    -0.006 A 
ATOM      7  C   UNK d   1      11.536   1.464  10.225  0.00  0.00     0.002 A 
ATOM      8  C   UNK d   1      10.169   1.289  10.287  0.00  0.00     0.014 A 
ATOM      9  C   UNK d   1       9.472   0.441   9.462  0.00  0.00     0.003 A 
ATOM     10  C   UNK d   1      10.213  -0.269   8.522  0.00  0.00     0.026 A 
ATOM     11  C   UNK d   1      12.349   3.210  12.035  0.00  0.00     0.158 C 
ATOM     12  N   UNK d   1      13.061   4.377  11.563  0.00  0.00    -0.405 N 
ATOM     13  C   UNK d   1      14.450   4.198  11.400  0.00  0.00     0.123 C 
ATOM     14  C   UNK d   1      14.803   2.764  11.077  0.00  0.00     0.077 C 
ATOM     15  H   UNK d   1      14.381   0.749   8.879  0.00  0.00     0.166 HD
ENDROOT
BRANCH  12  16
ATOM     16  C   UNK d   1      12.586   5.599  12.057  0.00  0.00     0.156 C 
BRANCH  16  17
ATOM     17  C   UNK d   1      11.506   6.199  11.209  0.00  0.00     0.101 A 
ATOM     18  C   UNK d   1      11.472   5.662   9.820  0.00  0.00     0.308 A 
ATOM     19  N   UNK d   1      10.187   5.128   9.525  0.00  0.00     0.086 N 
ATOM     20  C   UNK d   1       9.361   5.225  10.684  0.00  0.00     0.272 A 
ATOM     21  H   UNK d   1       9.739   5.544   8.675  0.00  0.00     0.315 HD
ATOM     22  C   UNK d   1      10.172   5.813  11.789  0.00  0.00     0.071 A 
BRANCH  17  23
ATOM     23  O   UNK d   1      11.566   7.598  11.233  0.00  0.00    -0.386 OA
ATOM     24  H   UNK d   1      10.642   7.906  11.429  0.00  0.00     0.210 HD
ENDBRANCH  17  23
ENDBRANCH  16  17
ENDBRANCH  12  16
TORSDOF 3
ENDMDL
