MODEL 1
REMARK VINA RESULT:    -8.499      0.000      0.000
REMARK INTER + INTRA:         -10.421
REMARK INTER:                  -9.989
REMARK INTRA:                  -0.432
REMARK UNBOUND:                -0.432
REMARK  3 active torsions:
REMARK  status: ('A' for Active; 'I' for Inactive)
REMARK    1  A    between atoms: C_4  and  N_8 
REMARK    2  A    between atoms: C_11  and  C_13 
REMARK       I    between atoms: C_13  and  N_15 
REMARK       I    between atoms: N_18  and  C_21 
REMARK    3  A    between atoms: C_21  and  C_23 
ROOT
ATOM      1  C   UNK d   1      10.475   7.189  12.190  0.00  0.00     0.275 C 
ATOM      2  O   UNK d   1      11.121   8.232  11.821  0.00  0.00    -0.266 OA
ATOM      3  N   UNK d   1       9.815   7.162  13.419  0.00  0.00    -0.344 N 
ATOM      4  C   UNK d   1       9.865   8.312  14.280  0.00  0.00     0.146 C 
ATOM      5  C   UNK d   1       8.482   8.894  14.377  0.00  0.00     0.145 C 
ATOM      6  N   UNK d   1       7.532   7.837  14.578  0.00  0.00    -0.349 N 
ATOM      7  C   UNK d   1       8.100   6.545  15.009  0.00  0.00     0.145 C 
ATOM      8  C   UNK d   1       9.055   6.044  13.934  0.00  0.00     0.146 C 
ATOM      9  C   UNK d   1       6.148   7.887  14.409  0.00  0.00     0.224 C 
ATOM     10  O   UNK d   1       5.522   6.788  14.699  0.00  0.00    -0.273 OA
ENDROOT
BRANCH   1  11
ATOM     11  C   UNK d   1      10.496   6.064  11.227  0.00  0.00     0.166 A 
ATOM     12  N   UNK d   1       9.881   5.993  10.038  0.00  0.00    -0.125 NA
ATOM     13  N   UNK d   1      10.143   4.831   9.483  0.00  0.00    -0.060 NA
ATOM     14  N   UNK d   1      10.932   4.100  10.278  0.00  0.00    -0.224 N 
ATOM     15  C   UNK d   1      11.153   4.863  11.361  0.00  0.00     0.159 A 
BRANCH  14  16
ATOM     16  C   UNK d   1      11.416   2.797  10.003  0.00  0.00     0.060 A 
ATOM     17  C   UNK d   1      10.554   1.797   9.622  0.00  0.00     0.050 A 
ATOM     18  C   UNK d   1      11.053   0.514   9.354  0.00  0.00     0.013 A 
ATOM     19 Br   UNK d   1       9.871  -0.886   8.826  0.00  0.00    -0.051 Br
ATOM     20  C   UNK d   1      12.391   0.244   9.466  0.00  0.00     0.019 A 
ATOM     21  C   UNK d   1      13.261   1.237   9.845  0.00  0.00     0.004 A 
ATOM     22  C   UNK d   1      12.753   2.515  10.110  0.00  0.00     0.032 A 
ENDBRANCH  14  16
ENDBRANCH   1  11
BRANCH   9  23
ATOM     23  C   UNK d   1       5.289   8.975  13.960  0.00  0.00     0.078 A 
ATOM     24  C   UNK d   1       4.587   8.999  12.676  0.00  0.00     0.015 A 
ATOM     25  C   UNK d   1       3.806   8.938  13.986  0.00  0.00     0.015 A 
ENDBRANCH   9  23
TORSDOF 3
ENDMDL
