MODEL 1
REMARK VINA RESULT:    -8.415      0.000      0.000
REMARK INTER + INTRA:         -11.506
REMARK INTER:                 -10.383
REMARK INTRA:                  -1.123
REMARK UNBOUND:                -1.123
REMARK  4 active torsions:
REMARK  status: ('A' for Active; 'I' for Inactive)
REMARK    1  A    between atoms: C_6  and  C_8 
REMARK    2  A    between atoms: N_11  and  C_13 
REMARK    3  A    between atoms: C_14  and  C_16 
REMARK    4  A    between atoms: C_18  and  N_22 
ROOT
ATOM      1  C   UNK d   1      11.264   5.007  12.103  0.00  0.00     0.061 A 
ATOM      2  N   UNK d   1      11.780   6.253  11.937  0.00  0.00    -0.335 N 
ATOM      3  C   UNK d   1      11.333   7.051  12.912  0.00  0.00     0.086 A 
ATOM      4  N   UNK d   1      10.511   6.349  13.750  0.00  0.00    -0.338 N 
ATOM      5  C   UNK d   1      10.479   5.105  13.243  0.00  0.00     0.123 A 
ATOM      6  C   UNK d   1      11.865   8.424  12.759  0.00  0.00     0.078 C 
ATOM      7  C   UNK d   1      13.083   8.184  11.912  0.00  0.00     0.028 C 
ATOM      8  C   UNK d   1      12.667   7.011  11.055  0.00  0.00     0.131 C 
ENDROOT
BRANCH   4   9
ATOM      9  C   UNK d   1       9.801   6.860  14.887  0.00  0.00     0.198 C 
ATOM     10  C   UNK d   1       8.749   7.832  14.769  0.00  0.00     0.113 C 
ATOM     11  O   UNK d   1       8.213   8.165  15.940  0.00  0.00    -0.194 OA
BRANCH  10  12
ATOM     12  C   UNK d   1       8.145   8.529  13.662  0.00  0.00     0.000 A 
ATOM     13  C   UNK d   1       7.265   7.840  12.797  0.00  0.00     0.050 A 
ATOM     14  C   UNK d   1       6.642   8.417  11.721  0.00  0.00     0.103 A 
ATOM     15  C   UNK d   1       6.911   9.751  11.493  0.00  0.00     0.036 A 
ATOM     16  C   UNK d   1       7.765  10.445  12.321  0.00  0.00     0.003 A 
ATOM     17  C   UNK d   1       8.396   9.852  13.416  0.00  0.00     0.014 A 
BRANCH  14  18
ATOM     18  N   UNK d   1       5.764   7.708  10.866  0.00  0.00    -0.116 N 
ATOM     19  O   UNK d   1       5.831   6.476  10.818  0.00  0.00    -0.532 OA
ATOM     20  O   UNK d   1       4.842   8.348  10.091  0.00  0.00    -0.532 OA
ENDBRANCH  14  18
ENDBRANCH  10  12
ENDBRANCH   4   9
BRANCH   1  21
ATOM     21  C   UNK d   1      11.449   3.793  11.309  0.00  0.00    -0.006 A 
ATOM     22  C   UNK d   1      10.386   3.319  10.574  0.00  0.00     0.015 A 
ATOM     23  C   UNK d   1      10.498   2.174   9.781  0.00  0.00     0.026 A 
ATOM     24  C   UNK d   1      11.701   1.507   9.737  0.00  0.00     0.055 A 
ATOM     25  C   UNK d   1      12.758   1.971  10.464  0.00  0.00     0.056 A 
ATOM     26 Cl   UNK d   1      11.822   0.064   8.730  0.00  0.00    -0.083 Cl
ATOM     27 Cl   UNK d   1      14.273   1.097  10.385  0.00  0.00    -0.083 Cl
ATOM     28  C   UNK d   1      12.630   3.112  11.248  0.00  0.00     0.039 A 
ENDBRANCH   1  21
TORSDOF 4
ENDMDL
