MODEL 1
REMARK VINA RESULT:    -9.421      0.000      0.000
REMARK INTER + INTRA:         -12.893
REMARK INTER:                 -12.174
REMARK INTRA:                  -0.719
REMARK UNBOUND:                -0.719
REMARK  5 active torsions:
REMARK  status: ('A' for Active; 'I' for Inactive)
REMARK    1  A    between atoms: C_6  and  C_8 
REMARK    2  A    between atoms: N_11  and  C_13 
REMARK    3  A    between atoms: C_13  and  C_14 
REMARK    4  A    between atoms: C_14  and  C_16 
REMARK    5  A    between atoms: C_18  and  N_22 
ROOT
ATOM      1  C   UNK d   1      10.420   6.064  11.953  0.00  0.00     0.061 A 
ATOM      2  N   UNK d   1      11.657   6.585  11.931  0.00  0.00    -0.335 N 
ATOM      3  C   UNK d   1      12.566   5.587  11.951  0.00  0.00     0.086 A 
ATOM      4  N   UNK d   1      11.900   4.419  11.984  0.00  0.00    -0.338 N 
ATOM      5  C   UNK d   1      10.559   4.668  11.986  0.00  0.00     0.123 A 
ATOM      6  C   UNK d   1      13.936   6.149  11.939  0.00  0.00     0.078 C 
ATOM      7  C   UNK d   1      13.678   7.428  11.184  0.00  0.00     0.028 C 
ATOM      8  C   UNK d   1      12.377   7.863  11.880  0.00  0.00     0.131 C 
ENDROOT
BRANCH   4   9
ATOM      9  C   UNK d   1      12.481   3.130  12.052  0.00  0.00     0.198 C 
BRANCH   9  10
ATOM     10  C   UNK d   1      13.236   2.545  10.981  0.00  0.00     0.113 C 
ATOM     11  O   UNK d   1      14.508   2.883  11.036  0.00  0.00    -0.194 OA
BRANCH  10  12
ATOM     12  C   UNK d   1      12.874   1.681   9.882  0.00  0.00     0.000 A 
ATOM     13  C   UNK d   1      11.682   1.019   9.760  0.00  0.00     0.050 A 
ATOM     14  C   UNK d   1      11.401   0.198   8.664  0.00  0.00     0.103 A 
ATOM     15  C   UNK d   1      12.322   0.036   7.679  0.00  0.00     0.036 A 
ATOM     16  C   UNK d   1      13.530   0.690   7.776  0.00  0.00     0.003 A 
ATOM     17  C   UNK d   1      13.816   1.496   8.844  0.00  0.00     0.014 A 
BRANCH  14  18
ATOM     18  N   UNK d   1      10.137  -0.465   8.597  0.00  0.00    -0.116 N 
ATOM     19  O   UNK d   1      10.039  -1.532   7.967  0.00  0.00    -0.532 OA
ATOM     20  O   UNK d   1       9.030   0.037   9.202  0.00  0.00    -0.532 OA
ENDBRANCH  14  18
ENDBRANCH  10  12
ENDBRANCH   9  10
ENDBRANCH   4   9
BRANCH   1  21
ATOM     21  C   UNK d   1       9.110   6.718  11.945  0.00  0.00    -0.006 A 
ATOM     22  C   UNK d   1       7.942   5.957  11.842  0.00  0.00     0.015 A 
ATOM     23  C   UNK d   1       6.691   6.515  11.848  0.00  0.00     0.026 A 
ATOM     24  C   UNK d   1       6.532   7.876  11.958  0.00  0.00     0.055 A 
ATOM     25  C   UNK d   1       7.655   8.651  12.061  0.00  0.00     0.056 A 
ATOM     26 Cl   UNK d   1       4.929   8.578  11.964  0.00  0.00    -0.083 Cl
ATOM     27 Cl   UNK d   1       7.532  10.376  12.204  0.00  0.00    -0.083 Cl
ATOM     28  C   UNK d   1       8.933   8.058  12.054  0.00  0.00     0.039 A 
ENDBRANCH   1  21
TORSDOF 5
ENDMDL
