MODEL 1
REMARK VINA RESULT:   -10.143      0.000      0.000
REMARK INTER + INTRA:         -12.680
REMARK INTER:                 -11.922
REMARK INTRA:                  -0.758
REMARK UNBOUND:                -0.758
REMARK  3 active torsions:
REMARK  status: ('A' for Active; 'I' for Inactive)
REMARK    1  A    between atoms: S_1  and  N_4 
REMARK    2  A    between atoms: S_1  and  C_19 
REMARK    3  A    between atoms: C_7  and  C_10 
REMARK       I    between atoms: C_10  and  N_12 
ROOT
ATOM      1  S   UNK d   1       9.816   5.939  11.194  0.00  0.00     0.262 S 
ATOM      2  O   UNK d   1       8.730   4.893  10.923  0.00  0.00    -0.200 OA
ATOM      3  O   UNK d   1      10.255   6.355   9.789  0.00  0.00    -0.200 OA
ENDROOT
BRANCH   1   4
ATOM      4  N   UNK d   1      11.070   5.196  11.974  0.00  0.00    -0.307 N 
ATOM      5  C   UNK d   1      12.394   5.238  11.552  0.00  0.00     0.136 C 
ATOM      6  C   UNK d   1      12.851   4.127  10.662  0.00  0.00     0.034 C 
ATOM      7  C   UNK d   1      11.939   2.919  10.865  0.00  0.00     0.081 C 
ATOM      8  C   UNK d   1      11.731   2.878  12.388  0.00  0.00     0.034 C 
ATOM      9  C   UNK d   1      10.712   3.970  12.676  0.00  0.00     0.136 C 
BRANCH   7  10
ATOM     10  C   UNK d   1      12.530   1.690  10.365  0.00  0.00     0.224 C 
ATOM     11  O   UNK d   1      13.707   1.388  10.695  0.00  0.00    -0.273 OA
ATOM     12  N   UNK d   1      11.823   0.826   9.523  0.00  0.00    -0.348 N 
ATOM     13  C   UNK d   1      12.377  -0.441   9.031  0.00  0.00     0.156 C 
ATOM     14  C   UNK d   1      10.501   1.148   9.066  0.00  0.00     0.156 C 
ATOM     15  C   UNK d   1      11.397  -0.963   8.001  0.00  0.00     0.291 C 
ATOM     16  N   UNK d   1      10.111  -1.229   8.618  0.00  0.00     0.087 N 
ATOM     17  C   UNK d   1       9.551  -0.028   9.213  0.00  0.00     0.291 C 
ATOM     18  C   UNK d   1       9.188  -1.807   7.665  0.00  0.00     0.310 C 
ENDBRANCH   7  10
ENDBRANCH   1   4
BRANCH   1  19
ATOM     19  C   UNK d   1       9.003   7.260  11.982  0.00  0.00     0.104 A 
ATOM     20  C   UNK d   1       7.606   7.212  12.133  0.00  0.00     0.066 A 
ATOM     21  C   UNK d   1       6.891   8.236  12.697  0.00  0.00     0.097 A 
ATOM     22  C   UNK d   1       7.539   9.350  13.135  0.00  0.00     0.070 A 
ATOM     23  O   UNK d   1       5.499   8.153  12.831  0.00  0.00    -0.340 OA
ATOM     24  C   UNK d   1       8.901   9.452  13.015  0.00  0.00     0.058 A 
ATOM     25  N   UNK d   1       6.770  10.416  13.719  0.00  0.00    -0.323 N 
ATOM     26  C   UNK d   1       9.607   8.395  12.438  0.00  0.00     0.059 A 
ATOM     27 Cl   UNK d   1      11.355   8.546  12.381  0.00  0.00    -0.083 Cl
ATOM     28  C   UNK d   1       5.363  10.285  13.826  0.00  0.00     0.246 C 
ATOM     29  H   UNK d   1       7.257  11.269  14.057  0.00  0.00     0.169 HD
ATOM     30  O   UNK d   1       4.701  10.967  14.635  0.00  0.00    -0.271 OA
ATOM     31  C   UNK d   1       4.697   9.299  12.935  0.00  0.00     0.278 C 
ENDBRANCH   1  19
TORSDOF 3
ENDMDL
