MODEL 1
REMARK VINA RESULT:    -8.943      0.000      0.000
REMARK INTER + INTRA:         -12.444
REMARK INTER:                 -12.080
REMARK INTRA:                  -0.365
REMARK UNBOUND:                -0.365
REMARK  6 active torsions:
REMARK  status: ('A' for Active; 'I' for Inactive)
REMARK    1  A    between atoms: C_5  and  C_8 
REMARK    2  A    between atoms: N_9  and  C_26 
REMARK    3  A    between atoms: C_15  and  C_17 
REMARK    4  A    between atoms: C_20  and  O_23 
REMARK    5  A    between atoms: C_26  and  C_27 
REMARK    6  A    between atoms: C_27  and  N_28 
ROOT
ATOM      1  C   UNK d   1       9.135   7.190  11.388  0.00  0.00     0.161 C 
ATOM      2  N   UNK d   1       8.048   6.758  12.275  0.00  0.00    -0.331 N 
ATOM      3  C   UNK d   1       8.659   5.867  13.196  0.00  0.00     0.295 C 
ATOM      4  O   UNK d   1       8.291   5.629  14.359  0.00  0.00    -0.264 OA
ATOM      5  C   UNK d   1       9.804   5.285  12.503  0.00  0.00     0.250 C 
ATOM      6  O   UNK d   1      10.662   4.442  12.898  0.00  0.00    -0.282 OA
ATOM      7  C   UNK d   1       9.814   5.882  11.159  0.00  0.00     0.062 C 
ATOM      8  C   UNK d   1      10.336   5.357  10.068  0.00  0.00     0.130 C 
ATOM      9  O   UNK d   1      10.284   6.098   8.884  0.00  0.00    -0.190 OA
ENDROOT
BRANCH   1  10
ATOM     10  C   UNK d   1       9.986   8.094  12.200  0.00  0.00    -0.030 A 
ATOM     11  C   UNK d   1      11.361   8.068  12.108  0.00  0.00     0.011 A 
ATOM     12  C   UNK d   1      12.175   8.896  12.851  0.00  0.00     0.024 A 
ATOM     13  C   UNK d   1      11.629   9.806  13.738  0.00  0.00     0.034 A 
ATOM     14 Cl   UNK d   1      12.652  10.873  14.698  0.00  0.00    -0.084 Cl
ATOM     15  C   UNK d   1      10.261   9.848  13.847  0.00  0.00     0.024 A 
ATOM     16  C   UNK d   1       9.451   9.021  13.103  0.00  0.00     0.011 A 
ENDBRANCH   1  10
BRANCH   8  17
ATOM     17  C   UNK d   1      10.956   4.040  10.040  0.00  0.00     0.002 A 
ATOM     18  C   UNK d   1      12.328   3.869  10.122  0.00  0.00     0.024 A 
ATOM     19  C   UNK d   1      12.914   2.621  10.069  0.00  0.00    -0.028 A 
ATOM     20  C   UNK d   1      12.138   1.479   9.929  0.00  0.00     0.074 A 
ATOM     21  C   UNK d   1      14.385   2.487  10.160  0.00  0.00     0.051 C 
ATOM     22  C   UNK d   1      10.774   1.636   9.846  0.00  0.00     0.038 A 
ATOM     23  C   UNK d   1      10.191   2.906   9.901  0.00  0.00     0.017 A 
BRANCH  20  24
ATOM     24  O   UNK d   1      12.714   0.212   9.875  0.00  0.00    -0.355 OA
ATOM     25  C   UNK d   1      12.085  -0.789   9.125  0.00  0.00     0.210 C 
ENDBRANCH  20  24
ENDBRANCH   8  17
BRANCH   2  26
ATOM     26  C   UNK d   1       6.644   7.169  12.215  0.00  0.00     0.155 C 
BRANCH  26  27
ATOM     27  C   UNK d   1       6.444   8.177  13.323  0.00  0.00     0.255 C 
BRANCH  27  28
ATOM     28  N   UNK d   1       5.738   9.350  12.881  0.00  0.00    -0.066 N 
ATOM     29  C   UNK d   1       5.825  10.395  13.848  0.00  0.00     0.261 C 
ATOM     30  C   UNK d   1       4.673  10.517  14.788  0.00  0.00     0.195 C 
ATOM     31  O   UNK d   1       3.455  10.167  14.269  0.00  0.00    -0.388 OA
ATOM     32  C   UNK d   1       3.450   8.908  13.683  0.00  0.00     0.195 C 
ATOM     33  C   UNK d   1       4.402   8.968  12.517  0.00  0.00     0.261 C 
ATOM     34  H   UNK d   1       6.251   9.678  12.013  0.00  0.00     0.280 HD
ENDBRANCH  27  28
ENDBRANCH  26  27
ENDBRANCH   2  26
TORSDOF 6
ENDMDL
