MODEL 1
REMARK VINA RESULT:    -8.533      0.000      0.000
REMARK INTER + INTRA:          -9.280
REMARK INTER:                  -9.032
REMARK INTRA:                  -0.248
REMARK UNBOUND:                -0.248
REMARK  1 active torsions:
REMARK  status: ('A' for Active; 'I' for Inactive)
REMARK       I    between atoms: N_10  and  C_13 
REMARK    1  A    between atoms: C_13  and  C_15 
ROOT
ATOM      1 Cl   UNK d   1      11.851   1.194   9.058  0.00  0.00    -0.083 Cl
ATOM      2  C   UNK d   1      11.490   2.414  10.271  0.00  0.00     0.050 A 
ATOM      3  C   UNK d   1      10.926   3.628   9.946  0.00  0.00     0.125 A 
ATOM      4  N   UNK d   1      10.647   4.573  10.890  0.00  0.00    -0.271 N 
ATOM      5  C   UNK d   1      10.911   4.363  12.193  0.00  0.00     0.137 A 
ATOM      6  N   UNK d   1      10.636   5.301  13.133  0.00  0.00    -0.234 NA
ATOM      7  C   UNK d   1      10.082   6.488  12.807  0.00  0.00     0.051 A 
ATOM      8  C   UNK d   1       9.800   6.735  11.495  0.00  0.00     0.053 A 
ATOM      9  C   UNK d   1       9.184   8.036  11.077  0.00  0.00     0.172 C 
ATOM     10  N   UNK d   1       8.427   8.490  12.256  0.00  0.00    -0.342 N 
ATOM     11  C   UNK d   1       9.240   8.731  13.413  0.00  0.00     0.132 C 
ATOM     12  C   UNK d   1       9.828   7.429  13.929  0.00  0.00     0.080 C 
ATOM     13  C   UNK d   1       7.048   8.631  12.126  0.00  0.00     0.274 C 
ATOM     14  O   UNK d   1       6.510   8.368  10.994  0.00  0.00    -0.266 OA
ATOM     15  C   UNK d   1      10.095   5.754  10.558  0.00  0.00     0.263 A 
ATOM     16  O   UNK d   1       9.841   5.970   9.356  0.00  0.00    -0.267 OA
ATOM     17  C   UNK d   1      11.480   3.144  12.529  0.00  0.00     0.053 A 
ATOM     18  C   UNK d   1      11.773   2.171  11.598  0.00  0.00     0.029 A 
ENDROOT
BRANCH  13  19
ATOM     19  C   UNK d   1       6.126   9.062  13.182  0.00  0.00     0.141 A 
ATOM     20  N   UNK d   1       5.600   8.209  14.066  0.00  0.00    -0.253 NA
ATOM     21  C   UNK d   1       4.761   8.610  15.026  0.00  0.00     0.136 A 
ATOM     22  C   UNK d   1       4.387   9.932  15.158  0.00  0.00     0.135 A 
ATOM     23  N   UNK d   1       4.926  10.776  14.261  0.00  0.00    -0.269 NA
ATOM     24  C   UNK d   1       5.764  10.401  13.295  0.00  0.00     0.153 A 
ENDBRANCH  13  19
TORSDOF 1
ENDMDL
