/Users/jonathanwahrer/Desktop/Msc/3_Semester/Drug_Design_Praktikum/waehrer_HTS_screening/HTS_experiment/out/docking_results/vina_output/2jam/1553_docked.pdbqt
 OpenBabel03162218303D

 29 32  0  0  1  0  0  0  0  0999 V2000
   11.9110    6.7460   11.0890 C   0  0  1  0  0  3  0  0  0  0  0  0
   13.0340    7.4760   11.5430 N   0  0  0  0  0  4  0  0  0  0  0  0
   14.3160    6.8500   11.3980 C   0  0  2  0  0  3  0  0  0  0  0  0
   14.2740    5.4650   12.0650 C   0  0  0  0  0  2  0  0  0  0  0  0
   13.2960    4.7140   11.2550 C   0  0  0  0  0  0  0  0  0  0  0  0
   13.2810    3.3980   10.8210 C   0  0  0  0  0  0  0  0  0  0  0  0
   12.1250    3.2430   10.0890 C   0  0  0  0  0  0  0  0  0  0  0  0
   11.4500    4.4020   10.0650 N   0  0  0  0  0  0  0  0  0  0  0  0
   12.1730    5.3200   10.7880 C   0  0  0  0  0  0  0  0  0  0  0  0
   11.8730    2.0000    9.5360 C   0  0  0  0  0  3  0  0  0  0  0  0
   12.7760    0.9860    9.7410 C   0  0  0  0  0  3  0  0  0  0  0  0
   13.9310    1.1440   10.4730 C   0  0  0  0  0  3  0  0  0  0  0  0
   14.1970    2.3910   11.0350 C   0  0  0  0  0  3  0  0  0  0  0  0
   13.0710    8.3880   10.9850 H   0  0  0  0  0  0  0  0  0  0  0  0
   12.9700    7.7910   12.5430 H   0  0  0  0  0  0  0  0  0  0  0  0
   10.5340    4.6270    9.5980 H   0  0  0  0  0  0  0  0  0  0  0  0
   10.8420    6.7720   12.1530 C   0  0  0  0  0  0  0  0  0  0  0  0
    9.5130    6.5250   11.8600 C   0  0  0  0  0  0  0  0  0  0  0  0
    8.5430    6.5470   12.8670 C   0  0  0  0  0  0  0  0  0  0  0  0
    6.7090    6.2080   12.4420 Br  0  0  0  0  0  0  0  0  0  0  0  0
    8.8800    6.8150   14.1660 C   0  0  0  0  0  3  0  0  0  0  0  0
   10.2010    7.0600   14.4610 C   0  0  0  0  0  0  0  0  0  0  0  0
   11.1710    7.0390   13.4670 C   0  0  0  0  0  3  0  0  0  0  0  0
   10.7170    7.4420   16.2760 Br  0  0  0  0  0  0  0  0  0  0  0  0
    9.0650    6.2490   10.5950 O   0  0  0  0  0  0  0  0  0  0  0  0
    9.3110    6.7170    9.7660 H   0  0  0  0  0  0  0  0  0  0  0  0
   15.3590    7.6970   12.0110 C   0  0  0  0  0  0  0  0  0  0  0  0
   15.2700    7.9850   13.2330 O   0  0  0  0  0  1  0  0  0  0  0  0
   16.4090    8.1580   11.2340 O   0  0  0  0  0  0  0  0  0  0  0  0
  1  2  1  0  0  0  0
  1 17  1  1  0  0  0
  2 15  1  0  0  0  0
  3  2  1  0  0  0  0
  3 27  1  1  0  0  0
  3  4  1  0  0  0  0
  5  4  1  0  0  0  0
  6 13  1  0  0  0  0
  6  5  1  0  0  0  0
  7  6  2  0  0  0  0
  8  7  1  0  0  0  0
  8  9  1  0  0  0  0
  9  1  1  0  0  0  0
  9  5  2  0  0  0  0
 10 11  2  0  0  0  0
 10  7  1  0  0  0  0
 11 12  1  0  0  0  0
 12 13  2  0  0  0  0
 14  2  1  0  0  0  0
 16  8  1  0  0  0  0
 17 23  1  0  0  0  0
 18 17  2  0  0  0  0
 18 19  1  0  0  0  0
 19 21  2  0  0  0  0
 20 19  1  0  0  0  0
 21 22  1  0  0  0  0
 22 24  1  0  0  0  0
 23 22  2  0  0  0  0
 25 18  1  0  0  0  0
 26 25  1  0  0  0  0
 27 28  1  0  0  0  0
 29 27  2  0  0  0  0
M  END
>  <Pose>
1

>  <Score>
-7.452

$$$$
