MODEL 1
REMARK VINA RESULT:    -7.452      0.000      0.000
REMARK INTER + INTRA:          -9.343
REMARK INTER:                  -8.541
REMARK INTRA:                  -0.802
REMARK UNBOUND:                -0.802
REMARK  3 active torsions:
REMARK  status: ('A' for Active; 'I' for Inactive)
REMARK    1  A    between atoms: C_3  and  O_25 
REMARK    2  A    between atoms: C_4  and  C_9 
REMARK    3  A    between atoms: C_11  and  C_22 
ROOT
ATOM      1  C   UNK d   1      11.911   6.746  11.089  0.00  0.00     0.272 C 
ATOM      2  N   UNK d   1      13.034   7.476  11.543  0.00  0.00    -0.047 N 
ATOM      3  C   UNK d   1      14.316   6.850  11.398  0.00  0.00     0.291 C 
ATOM      4  C   UNK d   1      14.274   5.465  12.065  0.00  0.00     0.086 C 
ATOM      5  C   UNK d   1      13.296   4.714  11.255  0.00  0.00    -0.018 A 
ATOM      6  C   UNK d   1      13.281   3.398  10.821  0.00  0.00    -0.001 A 
ATOM      7  C   UNK d   1      12.125   3.243  10.089  0.00  0.00     0.043 A 
ATOM      8  N   UNK d   1      11.450   4.402  10.065  0.00  0.00    -0.356 N 
ATOM      9  C   UNK d   1      12.173   5.320  10.788  0.00  0.00     0.052 A 
ATOM     10  C   UNK d   1      11.873   2.000   9.536  0.00  0.00     0.030 A 
ATOM     11  C   UNK d   1      12.776   0.986   9.741  0.00  0.00     0.002 A 
ATOM     12  C   UNK d   1      13.931   1.144  10.473  0.00  0.00     0.001 A 
ATOM     13  C   UNK d   1      14.197   2.391  11.035  0.00  0.00     0.014 A 
ATOM     14  H   UNK d   1      13.071   8.388  10.985  0.00  0.00     0.279 HD
ATOM     15  H   UNK d   1      12.970   7.791  12.543  0.00  0.00     0.279 HD
ATOM     16  H   UNK d   1      10.534   4.627   9.598  0.00  0.00     0.166 HD
ENDROOT
BRANCH   1  17
ATOM     17  C   UNK d   1      10.842   6.772  12.153  0.00  0.00     0.014 A 
ATOM     18  C   UNK d   1       9.513   6.525  11.860  0.00  0.00     0.091 A 
ATOM     19  C   UNK d   1       8.543   6.547  12.867  0.00  0.00     0.046 A 
ATOM     20 Br   UNK d   1       6.709   6.208  12.442  0.00  0.00    -0.048 Br
ATOM     21  C   UNK d   1       8.880   6.815  14.166  0.00  0.00     0.041 A 
ATOM     22  C   UNK d   1      10.201   7.060  14.461  0.00  0.00     0.013 A 
ATOM     23  C   UNK d   1      11.171   7.039  13.467  0.00  0.00     0.031 A 
ATOM     24 Br   UNK d   1      10.717   7.442  16.276  0.00  0.00    -0.051 Br
BRANCH  18  25
ATOM     25  O   UNK d   1       9.065   6.249  10.595  0.00  0.00    -0.359 OA
ATOM     26  H   UNK d   1       9.311   6.717   9.766  0.00  0.00     0.217 HD
ENDBRANCH  18  25
ENDBRANCH   1  17
BRANCH   3  27
ATOM     27  C   UNK d   1      15.359   7.697  12.011  0.00  0.00     0.205 C 
ATOM     28  O   UNK d   1      15.270   7.985  13.233  0.00  0.00    -0.646 OA
ATOM     29  O   UNK d   1      16.409   8.158  11.234  0.00  0.00    -0.646 OA
ENDBRANCH   3  27
TORSDOF 3
ENDMDL
