MODEL 1
REMARK VINA RESULT:    -9.052      0.000      0.000
REMARK INTER + INTRA:         -12.245
REMARK INTER:                 -11.698
REMARK INTRA:                  -0.547
REMARK UNBOUND:                -0.547
REMARK  5 active torsions:
REMARK  status: ('A' for Active; 'I' for Inactive)
REMARK    1  A    between atoms: C_7  and  C_11 
REMARK    2  A    between atoms: C_11  and  O_12 
REMARK    3  A    between atoms: O_12  and  C_13 
REMARK    4  A    between atoms: C_13  and  C_15 
REMARK    5  A    between atoms: C_15  and  N_16 
ROOT
ATOM      1  O   UNK d   1      11.060   5.661  11.724  0.00  0.00    -0.314 OA
ENDROOT
BRANCH   1   2
ATOM      2  C   UNK d   1       9.974   6.251  11.066  0.00  0.00     0.238 C 
BRANCH   2   3
ATOM      3  C   UNK d   1       8.846   6.557  11.977  0.00  0.00     0.066 A 
ATOM      4  N   UNK d   1       7.898   7.472  11.695  0.00  0.00    -0.233 NA
ATOM      5  C   UNK d   1       6.892   7.729  12.534  0.00  0.00     0.137 A 
ATOM      6  N   UNK d   1       6.741   7.098  13.727  0.00  0.00    -0.272 N 
ATOM      7  C   UNK d   1       5.951   8.689  12.169  0.00  0.00     0.052 A 
ATOM      8  C   UNK d   1       5.712   7.391  14.534  0.00  0.00     0.121 A 
ATOM      9  C   UNK d   1       7.681   6.170  14.041  0.00  0.00     0.255 A 
ATOM     10  C   UNK d   1       4.765   8.333  14.208  0.00  0.00     0.027 A 
ATOM     11 Br   UNK d   1       3.301   8.722  15.400  0.00  0.00    -0.050 Br
ATOM     12  C   UNK d   1       4.898   8.983  13.008  0.00  0.00     0.024 A 
ATOM     13  C   UNK d   1       8.726   5.895  13.182  0.00  0.00     0.104 A 
ATOM     14  O   UNK d   1       7.533   5.587  15.152  0.00  0.00    -0.268 OA
ENDBRANCH   2   3
ENDBRANCH   1   2
BRANCH   1  15
ATOM     15  C   UNK d   1      11.596   4.428  11.435  0.00  0.00     0.277 C 
ATOM     16  O   UNK d   1      11.569   3.580  12.372  0.00  0.00    -0.263 OA
BRANCH  15  17
ATOM     17  C   UNK d   1      12.178   4.093  10.107  0.00  0.00     0.245 C 
BRANCH  17  18
ATOM     18  N   UNK d   1      12.463   2.662   9.991  0.00  0.00    -0.278 N 
ATOM     19  C   UNK d   1      11.557   1.627   9.618  0.00  0.00     0.232 C 
ATOM     20  O   UNK d   1      10.402   1.784   9.149  0.00  0.00    -0.273 OA
ATOM     21  C   UNK d   1      12.220   0.329   9.879  0.00  0.00     0.091 C 
ATOM     22  C   UNK d   1      13.663   0.703   9.632  0.00  0.00     0.091 C 
ATOM     23  C   UNK d   1      11.720  -0.797   9.069  0.00  0.00     0.015 C 
ATOM     24  C   UNK d   1      13.995   0.829   8.158  0.00  0.00     0.015 C 
ATOM     25  C   UNK d   1      13.715   2.050  10.247  0.00  0.00     0.232 C 
ATOM     26  C   UNK d   1      12.874   0.379   7.259  0.00  0.00     0.001 C 
ATOM     27  C   UNK d   1      12.312  -0.939   7.712  0.00  0.00     0.001 C 
ATOM     28  O   UNK d   1      14.681   2.575  10.884  0.00  0.00    -0.273 OA
ENDBRANCH  17  18
ENDBRANCH  15  17
ENDBRANCH   1  15
TORSDOF 5
ENDMDL
