MODEL 1
REMARK VINA RESULT:    -8.923      0.000      0.000
REMARK INTER + INTRA:         -11.861
REMARK INTER:                 -11.009
REMARK INTRA:                  -0.851
REMARK UNBOUND:                -0.851
REMARK  4 active torsions:
REMARK  status: ('A' for Active; 'I' for Inactive)
REMARK    1  A    between atoms: C_3  and  N_8 
REMARK       I    between atoms: N_11  and  C_14 
REMARK    2  A    between atoms: C_14  and  C_16 
REMARK    3  A    between atoms: C_16  and  N_17 
REMARK    4  A    between atoms: C_19  and  C_23 
REMARK       I    between atoms: C_23  and  N_25 
ROOT
ATOM      1  N   UNK d   1      11.751   4.116  11.064  0.00  0.00    -0.376 N 
ATOM      2  C   UNK d   1      12.017   5.388  10.428  0.00  0.00     0.143 C 
ATOM      3  C   UNK d   1      11.450   6.497  11.311  0.00  0.00     0.145 C 
ATOM      4  N   UNK d   1      10.160   6.082  11.839  0.00  0.00    -0.348 N 
ATOM      5  C   UNK d   1      10.091   4.860  12.606  0.00  0.00     0.145 C 
ATOM      6  C   UNK d   1      11.428   4.165  12.498  0.00  0.00     0.143 C 
ATOM      7  C   UNK d   1       8.982   6.847  11.618  0.00  0.00     0.239 C 
ATOM      8  O   UNK d   1       9.080   7.919  10.944  0.00  0.00    -0.271 OA
ENDROOT
BRANCH   7   9
ATOM      9  C   UNK d   1       7.654   6.476  12.123  0.00  0.00     0.254 C 
BRANCH   9  10
ATOM     10  N   UNK d   1       6.977   7.561  12.831  0.00  0.00    -0.265 N 
ATOM     11  N   UNK d   1       7.206   8.044  14.035  0.00  0.00    -0.167 NA
ATOM     12  C   UNK d   1       6.385   9.046  14.358  0.00  0.00     0.146 A 
ATOM     13  C   UNK d   1       5.552   9.228  13.269  0.00  0.00     0.065 A 
ATOM     14  C   UNK d   1       5.941   8.293  12.336  0.00  0.00     0.029 A 
ATOM     15  C   UNK d   1       5.322   8.121  11.006  0.00  0.00     0.070 C 
BRANCH  12  16
ATOM     16  C   UNK d   1       6.371   9.807  15.621  0.00  0.00     0.274 C 
ATOM     17  O   UNK d   1       7.031  10.860  15.724  0.00  0.00    -0.266 OA
ATOM     18  N   UNK d   1       5.600   9.324  16.700  0.00  0.00    -0.343 N 
ATOM     19  C   UNK d   1       4.817   8.121  16.652  0.00  0.00     0.152 C 
ATOM     20  C   UNK d   1       5.577  10.072  17.960  0.00  0.00     0.152 C 
ATOM     21  C   UNK d   1       4.275   7.902  18.070  0.00  0.00     0.187 C 
ATOM     22  O   UNK d   1       5.292   7.921  18.999  0.00  0.00    -0.388 OA
ATOM     23  C   UNK d   1       5.970   9.115  19.066  0.00  0.00     0.187 C 
ENDBRANCH  12  16
ENDBRANCH   9  10
ENDBRANCH   7   9
BRANCH   1  24
ATOM     24  C   UNK d   1      11.774   2.868  10.438  0.00  0.00     0.052 A 
ATOM     25  C   UNK d   1      12.894   2.075  10.311  0.00  0.00     0.060 A 
ATOM     26 Cl   UNK d   1      14.392   2.641  10.958  0.00  0.00    -0.082 Cl
ATOM     27  C   UNK d   1      12.874   0.844   9.685  0.00  0.00     0.026 A 
ATOM     28  C   UNK d   1      11.711   0.370   9.163  0.00  0.00     0.002 A 
ATOM     29  C   UNK d   1      10.571   1.124   9.266  0.00  0.00     0.002 A 
ATOM     30  C   UNK d   1      10.599   2.354   9.893  0.00  0.00     0.031 A 
ENDBRANCH   1  24
TORSDOF 4
ENDMDL
