/Users/jonathanwahrer/Desktop/Msc/3_Semester/Drug_Design_Praktikum/waehrer_HTS_screening/HTS_experiment/out/docking_results/vina_output/2jam/1576_docked.pdbqt
 OpenBabel03162218313D

 30 33  0  0  0  0  0  0  0  0999 V2000
   11.7510    4.1160   11.0640 N   0  0  0  0  0  0  0  0  0  0  0  0
   12.0170    5.3880   10.4280 C   0  0  0  0  0  2  0  0  0  0  0  0
   11.4500    6.4970   11.3110 C   0  0  0  0  0  2  0  0  0  0  0  0
   10.1600    6.0820   11.8390 N   0  0  0  0  0  0  0  0  0  0  0  0
   10.0910    4.8600   12.6060 C   0  0  0  0  0  2  0  0  0  0  0  0
   11.4280    4.1650   12.4980 C   0  0  0  0  0  2  0  0  0  0  0  0
    8.9820    6.8470   11.6180 C   0  0  0  0  0  0  0  0  0  0  0  0
    9.0800    7.9190   10.9440 O   0  0  0  0  0  0  0  0  0  0  0  0
    7.6540    6.4760   12.1230 C   0  0  0  0  0  2  0  0  0  0  0  0
    6.9770    7.5610   12.8310 N   0  0  0  0  0  0  0  0  0  0  0  0
    7.2060    8.0440   14.0350 N   0  0  0  0  0  0  0  0  0  0  0  0
    6.3850    9.0460   14.3580 C   0  0  0  0  0  0  0  0  0  0  0  0
    5.5520    9.2280   13.2690 C   0  0  0  0  0  3  0  0  0  0  0  0
    5.9410    8.2930   12.3360 C   0  0  0  0  0  0  0  0  0  0  0  0
    5.3220    8.1210   11.0060 C   0  0  0  0  0  1  0  0  0  0  0  0
    6.3710    9.8070   15.6210 C   0  0  0  0  0  0  0  0  0  0  0  0
    7.0310   10.8600   15.7240 O   0  0  0  0  0  0  0  0  0  0  0  0
    5.6000    9.3240   16.7000 N   0  0  0  0  0  0  0  0  0  0  0  0
    4.8170    8.1210   16.6520 C   0  0  0  0  0  2  0  0  0  0  0  0
    5.5770   10.0720   17.9600 C   0  0  0  0  0  2  0  0  0  0  0  0
    4.2750    7.9020   18.0700 C   0  0  0  0  0  2  0  0  0  0  0  0
    5.2920    7.9210   18.9990 O   0  0  0  0  0  0  0  0  0  0  0  0
    5.9700    9.1150   19.0660 C   0  0  0  0  0  2  0  0  0  0  0  0
   11.7740    2.8680   10.4380 C   0  0  0  0  0  0  0  0  0  0  0  0
   12.8940    2.0750   10.3110 C   0  0  0  0  0  0  0  0  0  0  0  0
   14.3920    2.6410   10.9580 Cl  0  0  0  0  0  0  0  0  0  0  0  0
   12.8740    0.8440    9.6850 C   0  0  0  0  0  3  0  0  0  0  0  0
   11.7110    0.3700    9.1630 C   0  0  0  0  0  3  0  0  0  0  0  0
   10.5710    1.1240    9.2660 C   0  0  0  0  0  3  0  0  0  0  0  0
   10.5990    2.3540    9.8930 C   0  0  0  0  0  3  0  0  0  0  0  0
  1  6  1  0  0  0  0
  2  1  1  0  0  0  0
  2  3  1  0  0  0  0
  3  4  1  0  0  0  0
  4  5  1  0  0  0  0
  6  5  1  0  0  0  0
  7  4  1  0  0  0  0
  7  9  1  0  0  0  0
  8  7  2  0  0  0  0
  9 10  1  0  0  0  0
 10 11  1  0  0  0  0
 11 12  2  0  0  0  0
 12 16  1  0  0  0  0
 13 12  1  0  0  0  0
 14 10  1  0  0  0  0
 14 13  2  0  0  0  0
 15 14  1  0  0  0  0
 16 17  2  0  0  0  0
 16 18  1  0  0  0  0
 18 20  1  0  0  0  0
 19 18  1  0  0  0  0
 19 21  1  0  0  0  0
 20 23  1  0  0  0  0
 21 22  1  0  0  0  0
 22 23  1  0  0  0  0
 24  1  1  0  0  0  0
 25 24  1  0  0  0  0
 25 26  1  0  0  0  0
 27 25  2  0  0  0  0
 28 29  2  0  0  0  0
 28 27  1  0  0  0  0
 29 30  1  0  0  0  0
 30 24  2  0  0  0  0
M  END
>  <Pose>
1

>  <Score>
-8.923

$$$$
