/Users/jonathanwahrer/Desktop/Msc/3_Semester/Drug_Design_Praktikum/waehrer_HTS_screening/HTS_experiment/out/docking_results/vina_output/2jam/1581_docked.pdbqt
 OpenBabel03162218313D

 27 30  0  0  1  0  0  0  0  0999 V2000
   12.7440    5.7730   11.6970 N   0  0  0  0  0  0  0  0  0  0  0  0
   12.4300    6.0080   10.3500 C   0  0  0  0  0  2  0  0  0  0  0  0
   10.9910    5.8570    9.9800 C   0  0  0  0  0  2  0  0  0  0  0  0
   10.1050    6.1360   11.1000 N   0  0  0  0  0  0  0  0  0  0  0  0
    8.7730    6.1460   11.0640 N   0  0  0  0  0  0  0  0  0  0  0  0
    8.3020    6.4410   12.2790 C   0  0  0  0  0  0  0  0  0  0  0  0
    9.3890    6.6210   13.0980 C   0  0  0  0  0  3  0  0  0  0  0  0
   10.5440    6.4230   12.3350 C   0  0  0  0  0  0  0  0  0  0  0  0
   11.9890    6.4820   12.6680 C   0  0  0  0  0  2  0  0  0  0  0  0
   13.2410    4.5130   12.0620 C   0  0  0  0  0  2  0  0  0  0  0  0
   12.9470    3.4030   11.1450 C   0  0  0  0  0  0  0  0  0  0  0  0
   11.7250    2.8680   10.9710 N   0  0  0  0  0  0  0  0  0  0  0  0
   11.4940    1.8490   10.1220 C   0  0  0  0  0  0  0  0  0  0  0  0
   12.4660    1.2890    9.3850 N   0  0  0  0  0  0  0  0  0  0  0  0
   10.1770    1.3850   10.0340 C   0  0  0  0  0  3  0  0  0  0  0  0
   12.2240    0.2620    8.5310 C   0  0  0  0  0  3  0  0  0  0  0  0
   13.7130    1.7830    9.5180 C   0  0  0  0  0  0  0  0  0  0  0  0
   10.9300   -0.1990    8.4410 C   0  0  0  0  0  0  0  0  0  0  0  0
   10.6120   -1.5280    7.3360 Cl  0  0  0  0  0  0  0  0  0  0  0  0
    9.9010    0.3470    9.1790 C   0  0  0  0  0  3  0  0  0  0  0  0
   13.9500    2.8260   10.3850 C   0  0  0  0  0  3  0  0  0  0  0  0
   14.6640    1.2850    8.8400 O   0  0  0  0  0  0  0  0  0  0  0  0
    6.8600    6.5530   12.6640 C   0  0  1  0  0  3  0  0  0  0  0  0
    6.1270    5.7020   11.8210 O   0  0  0  0  0  0  0  0  0  0  0  0
    5.1470    5.7780   12.0100 H   0  0  0  0  0  0  0  0  0  0  0  0
    6.6550    6.0140   14.0770 C   0  0  0  0  0  2  0  0  0  0  0  0
    6.0310    7.1140   14.9220 C   0  0  0  0  0  1  0  0  0  0  0  0
  1 10  1  0  0  0  0
  1  9  1  0  0  0  0
  2  1  1  0  0  0  0
  3  2  1  0  0  0  0
  3  4  1  0  0  0  0
  4  8  1  0  0  0  0
  5  4  1  0  0  0  0
  5  6  2  0  0  0  0
  6 23  1  0  0  0  0
  6  7  1  0  0  0  0
  8  9  1  0  0  0  0
  8  7  2  0  0  0  0
 11 10  1  0  0  0  0
 12 11  1  0  0  0  0
 13 12  2  0  0  0  0
 14 17  1  0  0  0  0
 14 13  1  0  0  0  0
 15 13  1  0  0  0  0
 16 14  1  0  0  0  0
 17 21  1  0  0  0  0
 18 16  2  0  0  0  0
 18 20  1  0  0  0  0
 19 18  1  0  0  0  0
 20 15  2  0  0  0  0
 21 11  2  0  0  0  0
 22 17  2  0  0  0  0
 23 26  1  1  0  0  0
 24 25  1  0  0  0  0
 24 23  1  0  0  0  0
 26 27  1  0  0  0  0
M  END
>  <Pose>
1

>  <Score>
-8.310

$$$$
