MODEL 1
REMARK VINA RESULT:    -8.606      0.000      0.000
REMARK INTER + INTRA:         -10.883
REMARK INTER:                 -10.115
REMARK INTRA:                  -0.768
REMARK UNBOUND:                -0.768
REMARK  3 active torsions:
REMARK  status: ('A' for Active; 'I' for Inactive)
REMARK    1  A    between atoms: C_5  and  C_8 
REMARK       I    between atoms: C_8  and  N_10 
REMARK    2  A    between atoms: C_18  and  C_22 
REMARK    3  A    between atoms: C_22  and  C_23 
ROOT
ATOM      1  C   UNK d   1       9.358   8.836  13.107  0.00  0.00     0.187 C 
ATOM      2  O   UNK d   1       9.951   9.826  13.755  0.00  0.00    -0.171 OA
ATOM      3  N   UNK d   1      10.206   8.014  12.346  0.00  0.00    -0.355 N 
ATOM      4  C   UNK d   1       9.775   6.916  11.556  0.00  0.00     0.160 C 
ATOM      5  C   UNK d   1      10.959   6.419  10.709  0.00  0.00     0.197 C 
ATOM      6  N   UNK d   1      11.985   6.062  11.653  0.00  0.00    -0.334 N 
ATOM      7  C   UNK d   1      12.484   7.092  12.502  0.00  0.00     0.147 C 
ATOM      8  C   UNK d   1      11.630   8.340  12.411  0.00  0.00     0.145 C 
ATOM      9  C   UNK d   1      12.472   4.746  11.730  0.00  0.00     0.243 C 
ATOM     10  O   UNK d   1      13.583   4.545  12.250  0.00  0.00    -0.271 OA
ATOM     11  C   UNK d   1      11.644   3.647  11.191  0.00  0.00     0.182 C 
ATOM     12  N   UNK d   1      11.189   4.066   9.898  0.00  0.00    -0.346 N 
ATOM     13  C   UNK d   1      10.584   5.342   9.794  0.00  0.00     0.243 C 
ATOM     14  O   UNK d   1       9.706   5.592   8.910  0.00  0.00    -0.271 OA
ATOM     15  H   UNK d   1      11.287   3.466   9.041  0.00  0.00     0.163 HD
ENDROOT
BRANCH   1  16
ATOM     16  C   UNK d   1       7.938   8.812  13.323  0.00  0.00     0.018 A 
ATOM     17  C   UNK d   1       7.212   7.874  14.014  0.00  0.00     0.017 A 
ATOM     18  C   UNK d   1       5.824   7.902  14.152  0.00  0.00     0.025 A 
ATOM     19  C   UNK d   1       5.114   8.908  13.581  0.00  0.00     0.034 A 
ATOM     20 Cl   UNK d   1       3.352   8.980  13.732  0.00  0.00    -0.084 Cl
ATOM     21  C   UNK d   1       5.779   9.879  12.878  0.00  0.00     0.025 A 
ATOM     22  C   UNK d   1       7.152   9.830  12.755  0.00  0.00     0.017 A 
ENDBRANCH   1  16
BRANCH  11  23
ATOM     23  C   UNK d   1      12.301   2.320  11.229  0.00  0.00     0.095 C 
BRANCH  23  24
ATOM     24  C   UNK d   1      11.791   1.472  10.139  0.00  0.00     0.053 A 
ATOM     25  N   UNK d   1      10.525   1.197   9.818  0.00  0.00    -0.247 NA
ATOM     26  C   UNK d   1      10.506   0.365   8.735  0.00  0.00     0.207 A 
ATOM     27  N   UNK d   1      11.765   0.112   8.369  0.00  0.00    -0.359 N 
ATOM     28  C   UNK d   1      12.566   0.775   9.210  0.00  0.00     0.116 A 
ATOM     29  H   UNK d   1      12.066  -0.480   7.591  0.00  0.00     0.166 HD
ENDBRANCH  23  24
ENDBRANCH  11  23
TORSDOF 3
ENDMDL
