/Users/jonathanwahrer/Desktop/Msc/3_Semester/Drug_Design_Praktikum/waehrer_HTS_screening/HTS_experiment/out/docking_results/vina_output/2jam/1586_docked.pdbqt
 OpenBabel03162218313D

 29 32  0  0  1  0  0  0  0  0999 V2000
    9.3580    8.8360   13.1070 C   0  0  0  0  0  0  0  0  0  0  0  0
    9.9510    9.8260   13.7550 O   0  0  0  0  0  0  0  0  0  0  0  0
   10.2060    8.0140   12.3460 N   0  0  0  0  0  0  0  0  0  0  0  0
    9.7750    6.9160   11.5560 C   0  0  0  0  0  2  0  0  0  0  0  0
   10.9590    6.4190   10.7090 C   0  0  1  0  0  3  0  0  0  0  0  0
   11.9850    6.0620   11.6530 N   0  0  0  0  0  0  0  0  0  0  0  0
   12.4840    7.0920   12.5020 C   0  0  0  0  0  2  0  0  0  0  0  0
   11.6300    8.3400   12.4110 C   0  0  0  0  0  2  0  0  0  0  0  0
   12.4720    4.7460   11.7300 C   0  0  0  0  0  0  0  0  0  0  0  0
   13.5830    4.5450   12.2500 O   0  0  0  0  0  0  0  0  0  0  0  0
   11.6440    3.6470   11.1910 C   0  0  1  0  0  3  0  0  0  0  0  0
   11.1890    4.0660    9.8980 N   0  0  0  0  0  0  0  0  0  0  0  0
   10.5840    5.3420    9.7940 C   0  0  0  0  0  0  0  0  0  0  0  0
    9.7060    5.5920    8.9100 O   0  0  0  0  0  0  0  0  0  0  0  0
   11.2870    3.4660    9.0410 H   0  0  0  0  0  0  0  0  0  0  0  0
    7.9380    8.8120   13.3230 C   0  0  0  0  0  0  0  0  0  0  0  0
    7.2120    7.8740   14.0140 C   0  0  0  0  0  3  0  0  0  0  0  0
    5.8240    7.9020   14.1520 C   0  0  0  0  0  3  0  0  0  0  0  0
    5.1140    8.9080   13.5810 C   0  0  0  0  0  0  0  0  0  0  0  0
    3.3520    8.9800   13.7320 Cl  0  0  0  0  0  0  0  0  0  0  0  0
    5.7790    9.8790   12.8780 C   0  0  0  0  0  3  0  0  0  0  0  0
    7.1520    9.8300   12.7550 C   0  0  0  0  0  3  0  0  0  0  0  0
   12.3010    2.3200   11.2290 C   0  0  0  0  0  2  0  0  0  0  0  0
   11.7910    1.4720   10.1390 C   0  0  0  0  0  0  0  0  0  0  0  0
   10.5250    1.1970    9.8180 N   0  0  0  0  0  0  0  0  0  0  0  0
   10.5060    0.3650    8.7350 C   0  0  0  0  0  3  0  0  0  0  0  0
   11.7650    0.1120    8.3690 N   0  0  0  0  0  0  0  0  0  0  0  0
   12.5660    0.7750    9.2100 C   0  0  0  0  0  3  0  0  0  0  0  0
   12.0660   -0.4800    7.5910 H   0  0  0  0  0  0  0  0  0  0  0  0
  1 16  1  0  0  0  0
  1  2  2  0  0  0  0
  3  8  1  0  0  0  0
  3  1  1  0  0  0  0
  4  3  1  0  0  0  0
  5  4  1  1  0  0  0
  5  6  1  0  0  0  0
  6  9  1  0  0  0  0
  6  7  1  0  0  0  0
  8  7  1  0  0  0  0
  9 10  2  0  0  0  0
 11 23  1  6  0  0  0
 11  9  1  0  0  0  0
 12 11  1  0  0  0  0
 13 12  1  0  0  0  0
 13  5  1  0  0  0  0
 14 13  2  0  0  0  0
 15 12  1  0  0  0  0
 16 17  1  0  0  0  0
 17 18  2  0  0  0  0
 19 20  1  0  0  0  0
 19 18  1  0  0  0  0
 21 19  2  0  0  0  0
 22 21  1  0  0  0  0
 22 16  2  0  0  0  0
 24 23  1  0  0  0  0
 25 24  1  0  0  0  0
 26 25  2  0  0  0  0
 27 26  1  0  0  0  0
 27 28  1  0  0  0  0
 28 24  2  0  0  0  0
 29 27  1  0  0  0  0
M  END
>  <Pose>
1

>  <Score>
-8.606

$$$$
