MODEL 1
REMARK VINA RESULT:    -8.783      0.000      0.000
REMARK INTER + INTRA:         -10.680
REMARK INTER:                 -10.324
REMARK INTRA:                  -0.356
REMARK UNBOUND:                -0.356
REMARK  3 active torsions:
REMARK  status: ('A' for Active; 'I' for Inactive)
REMARK    1  A    between atoms: C_3  and  N_15 
REMARK    2  A    between atoms: N_6  and  C_9 
REMARK    3  A    between atoms: N_18  and  C_21 
ROOT
ATOM      1 Cl   UNK d   1      13.717   4.771  12.507  0.00  0.00    -0.076 Cl
ATOM      2  C   UNK d   1      12.428   4.132  11.513  0.00  0.00     0.131 A 
ATOM      3  C   UNK d   1      11.214   4.758  11.472  0.00  0.00     0.077 A 
ATOM      4  C   UNK d   1      10.256   4.149  10.656  0.00  0.00     0.170 A 
ATOM      5  N   UNK d   1      10.545   3.030   9.974  0.00  0.00    -0.174 NA
ATOM      6  N   UNK d   1      11.704   2.412   9.999  0.00  0.00    -0.197 N 
ATOM      7  C   UNK d   1      12.654   2.961  10.769  0.00  0.00     0.292 A 
ATOM      8  O   UNK d   1      13.797   2.444  10.858  0.00  0.00    -0.264 OA
ENDROOT
BRANCH   3   9
ATOM      9  N   UNK d   1      10.926   5.950  12.177  0.00  0.00    -0.375 N 
ATOM     10  C   UNK d   1      10.491   5.961  13.564  0.00  0.00     0.143 C 
ATOM     11  C   UNK d   1       9.102   6.526  13.707  0.00  0.00     0.146 C 
ATOM     12  N   UNK d   1       9.017   7.653  12.811  0.00  0.00    -0.341 N 
ATOM     13  C   UNK d   1      10.243   8.299  12.420  0.00  0.00     0.146 C 
ATOM     14  C   UNK d   1      11.016   7.271  11.564  0.00  0.00     0.143 C 
BRANCH  12  15
ATOM     15  C   UNK d   1       7.769   8.116  12.328  0.00  0.00     0.270 A 
ATOM     16  N   UNK d   1       7.506   8.671  11.111  0.00  0.00    -0.103 NA
ATOM     17  N   UNK d   1       6.225   8.972  11.036  0.00  0.00    -0.126 NA
ATOM     18  C   UNK d   1       5.659   8.621  12.184  0.00  0.00     0.167 A 
ATOM     19  O   UNK d   1       6.598   8.113  12.938  0.00  0.00    -0.260 OA
ATOM     20  C   UNK d   1       4.226   8.751  12.606  0.00  0.00     0.102 C 
ENDBRANCH  12  15
ENDBRANCH   3   9
BRANCH   6  21
ATOM     21  C   UNK d   1      11.927   1.226   9.244  0.00  0.00     0.062 A 
ATOM     22  C   UNK d   1      12.966   1.100   8.343  0.00  0.00     0.032 A 
ATOM     23  C   UNK d   1      13.173  -0.054   7.617  0.00  0.00     0.002 A 
ATOM     24  C   UNK d   1      12.334  -1.139   7.768  0.00  0.00     0.000 A 
ATOM     25  C   UNK d   1      11.294  -1.019   8.667  0.00  0.00     0.002 A 
ATOM     26  C   UNK d   1      11.091   0.139   9.392  0.00  0.00     0.032 A 
ENDBRANCH   6  21
TORSDOF 3
ENDMDL
