MODEL 1
REMARK VINA RESULT:    -8.251      0.000      0.000
REMARK INTER + INTRA:         -10.465
REMARK INTER:                  -9.940
REMARK INTRA:                  -0.525
REMARK UNBOUND:                -0.525
REMARK  4 active torsions:
REMARK  status: ('A' for Active; 'I' for Inactive)
REMARK    1  A    between atoms: C_7  and  C_9 
REMARK       I    between atoms: C_9  and  N_11 
REMARK    2  A    between atoms: N_17  and  C_20 
REMARK    3  A    between atoms: C_20  and  C_21 
REMARK    4  A    between atoms: C_21  and  O_22 
ROOT
ATOM      1  C   UNK d   1      12.469   3.929  11.214  0.00  0.00     0.274 C 
ATOM      2  O   UNK d   1      13.077   3.693  12.323  0.00  0.00    -0.266 OA
ATOM      3  N   UNK d   1      12.190   5.252  10.931  0.00  0.00    -0.341 N 
ATOM      4  C   UNK d   1      11.523   5.696   9.731  0.00  0.00     0.131 C 
ATOM      5  C   UNK d   1      10.141   6.229  10.046  0.00  0.00     0.066 C 
ATOM      6  C   UNK d   1      10.178   6.966  11.355  0.00  0.00     0.039 A 
ATOM      7  C   UNK d   1      11.263   7.028  12.185  0.00  0.00     0.056 A 
ATOM      8  N   UNK d   1      10.868   7.785  13.241  0.00  0.00    -0.297 N 
ATOM      9  N   UNK d   1       9.623   8.178  13.097  0.00  0.00    -0.255 N 
ATOM     10  C   UNK d   1       9.137   7.701  11.944  0.00  0.00     0.270 A 
ATOM     11  O   UNK d   1       7.975   7.862  11.450  0.00  0.00    -0.266 OA
ATOM     12  C   UNK d   1      12.551   6.351  11.860  0.00  0.00     0.185 C 
ATOM     13  H   UNK d   1      11.512   7.999  14.041  0.00  0.00     0.187 HD
ENDROOT
BRANCH   1  14
ATOM     14  C   UNK d   1      12.142   2.780  10.387  0.00  0.00     0.142 A 
ATOM     15  N   UNK d   1      12.915   2.133   9.514  0.00  0.00    -0.224 NA
ATOM     16  C   UNK d   1      12.217   1.126   8.965  0.00  0.00     0.134 A 
ATOM     17  N   UNK d   1      10.985   1.124   9.486  0.00  0.00    -0.313 N 
ATOM     18  C   UNK d   1      12.632   0.190   8.002  0.00  0.00     0.052 A 
ATOM     19  C   UNK d   1      10.086   0.185   9.079  0.00  0.00     0.122 A 
ATOM     20  C   UNK d   1      10.899   2.129  10.368  0.00  0.00     0.135 A 
ATOM     21  C   UNK d   1      10.466  -0.744   8.137  0.00  0.00     0.050 A 
ATOM     22 Cl   UNK d   1       9.343  -1.972   7.582  0.00  0.00    -0.083 Cl
ATOM     23  C   UNK d   1      11.738  -0.750   7.592  0.00  0.00     0.029 A 
ENDBRANCH   1  14
BRANCH   9  24
ATOM     24  C   UNK d   1       8.828   9.007  14.014  0.00  0.00     0.178 C 
BRANCH  24  25
ATOM     25  C   UNK d   1       8.869  10.459  13.596  0.00  0.00     0.186 C 
BRANCH  25  26
ATOM     26  O   UNK d   1       7.723  10.842  12.910  0.00  0.00    -0.399 OA
ATOM     27  H   UNK d   1       7.424  10.142  12.256  0.00  0.00     0.209 HD
ENDBRANCH  25  26
ENDBRANCH  24  25
ENDBRANCH   9  24
TORSDOF 4
ENDMDL
