/Users/jonathanwahrer/Desktop/Msc/3_Semester/Drug_Design_Praktikum/waehrer_HTS_screening/HTS_experiment/out/docking_results/vina_output/2jam/1594_docked.pdbqt
 OpenBabel03162218313D

 27 30  0  0  0  0  0  0  0  0999 V2000
   12.4690    3.9290   11.2140 C   0  0  0  0  0  0  0  0  0  0  0  0
   13.0770    3.6930   12.3230 O   0  0  0  0  0  0  0  0  0  0  0  0
   12.1900    5.2520   10.9310 N   0  0  0  0  0  0  0  0  0  0  0  0
   11.5230    5.6960    9.7310 C   0  0  0  0  0  2  0  0  0  0  0  0
   10.1410    6.2290   10.0460 C   0  0  0  0  0  2  0  0  0  0  0  0
   10.1780    6.9660   11.3550 C   0  0  0  0  0  0  0  0  0  0  0  0
   11.2630    7.0280   12.1850 C   0  0  0  0  0  0  0  0  0  0  0  0
   10.8680    7.7850   13.2410 N   0  0  0  0  0  0  0  0  0  0  0  0
    9.6230    8.1780   13.0970 N   0  0  0  0  0  0  0  0  0  0  0  0
    9.1370    7.7010   11.9440 C   0  0  0  0  0  0  0  0  0  0  0  0
    7.9750    7.8620   11.4500 O   0  0  0  0  0  0  0  0  0  0  0  0
   12.5510    6.3510   11.8600 C   0  0  0  0  0  2  0  0  0  0  0  0
   11.5120    7.9990   14.0410 H   0  0  0  0  0  0  0  0  0  0  0  0
   12.1420    2.7800   10.3870 C   0  0  0  0  0  0  0  0  0  0  0  0
   12.9150    2.1330    9.5140 N   0  0  0  0  0  0  0  0  0  0  0  0
   12.2170    1.1260    8.9650 C   0  0  0  0  0  0  0  0  0  0  0  0
   10.9850    1.1240    9.4860 N   0  0  0  0  0  0  0  0  0  0  0  0
   12.6320    0.1900    8.0020 C   0  0  0  0  0  3  0  0  0  0  0  0
   10.0860    0.1850    9.0790 C   0  0  0  0  0  3  0  0  0  0  0  0
   10.8990    2.1290   10.3680 C   0  0  0  0  0  3  0  0  0  0  0  0
   10.4660   -0.7440    8.1370 C   0  0  0  0  0  0  0  0  0  0  0  0
    9.3430   -1.9720    7.5820 Cl  0  0  0  0  0  0  0  0  0  0  0  0
   11.7380   -0.7500    7.5920 C   0  0  0  0  0  3  0  0  0  0  0  0
    8.8280    9.0070   14.0140 C   0  0  0  0  0  2  0  0  0  0  0  0
    8.8690   10.4590   13.5960 C   0  0  0  0  0  2  0  0  0  0  0  0
    7.7230   10.8420   12.9100 O   0  0  0  0  0  0  0  0  0  0  0  0
    7.4240   10.1420   12.2560 H   0  0  0  0  0  0  0  0  0  0  0  0
  1  2  2  0  0  0  0
  3  1  1  0  0  0  0
  3 12  1  0  0  0  0
  4  5  1  0  0  0  0
  4  3  1  0  0  0  0
  5  6  1  0  0  0  0
  6 10  1  0  0  0  0
  6  7  2  0  0  0  0
  7  8  1  0  0  0  0
  8 13  1  0  0  0  0
  9  8  1  0  0  0  0
  9 24  1  0  0  0  0
 10  9  1  0  0  0  0
 11 10  2  0  0  0  0
 12  7  1  0  0  0  0
 14  1  1  0  0  0  0
 15 14  1  0  0  0  0
 16 17  1  0  0  0  0
 16 15  2  0  0  0  0
 17 20  1  0  0  0  0
 18 16  1  0  0  0  0
 19 17  1  0  0  0  0
 20 14  2  0  0  0  0
 21 19  2  0  0  0  0
 22 21  1  0  0  0  0
 23 18  2  0  0  0  0
 23 21  1  0  0  0  0
 25 24  1  0  0  0  0
 26 25  1  0  0  0  0
 27 26  1  0  0  0  0
M  END
>  <Pose>
1

>  <Score>
-8.251

$$$$
