/Users/jonathanwahrer/Desktop/Msc/3_Semester/Drug_Design_Praktikum/waehrer_HTS_screening/HTS_experiment/out/docking_results/vina_output/2jam/1612_docked.pdbqt
 OpenBabel03162218323D

 31 34  0  0  0  0  0  0  0  0999 V2000
   10.7950    7.0800   11.8420 N   0  0  0  0  0  0  0  0  0  0  0  0
   11.2480    6.0320   11.1240 C   0  0  0  0  0  0  0  0  0  0  0  0
   12.3750    5.5680   11.7600 C   0  0  0  0  0  0  0  0  0  0  0  0
   12.5690    6.3280   12.8200 N   0  0  0  0  0  0  0  0  0  0  0  0
   11.5990    7.2730   12.8920 C   0  0  0  0  0  0  0  0  0  0  0  0
   13.0180    4.4970   11.2150 N   0  0  0  0  0  0  0  0  0  0  0  0
   12.5790    3.9050   10.0980 C   0  0  0  0  0  0  0  0  0  0  0  0
   13.2100    2.9150    9.6340 O   0  0  0  0  0  0  0  0  0  0  0  0
   11.4870    4.3260    9.4480 N   0  0  0  0  0  0  0  0  0  0  0  0
   10.8260    5.3890    9.9650 C   0  0  0  0  0  0  0  0  0  0  0  0
    9.8040    5.7850    9.3630 O   0  0  0  0  0  0  0  0  0  0  0  0
   14.2140    3.9840   11.8800 C   0  0  0  0  0  1  0  0  0  0  0  0
   11.1780    3.8350    8.5790 H   0  0  0  0  0  0  0  0  0  0  0  0
   11.4720    8.2230   13.9610 N   0  0  0  0  0  0  0  0  0  0  0  0
   11.6860    9.6500   13.6420 C   0  0  0  0  0  2  0  0  0  0  0  0
   10.5080   10.4870   14.0220 C   0  0  0  0  0  2  0  0  0  0  0  0
    9.7250    9.8510   15.0560 N   0  0  0  0  0  0  0  0  0  0  0  0
   10.4330    9.0350   16.0200 C   0  0  0  0  0  2  0  0  0  0  0  0
    8.3170   10.0310   15.1190 C   0  0  0  0  0  0  0  0  0  0  0  0
   11.1460    7.9030   15.3030 C   0  0  0  0  0  2  0  0  0  0  0  0
    7.7340   10.7590   14.2860 O   0  0  0  0  0  0  0  0  0  0  0  0
    7.5020    9.3680   16.1650 C   0  0  0  0  0  2  0  0  0  0  0  0
    6.0910    9.9430   16.0690 C   0  0  0  0  0  1  0  0  0  0  0  0
    9.6020    7.7900   11.5070 C   0  0  0  0  0  2  0  0  0  0  0  0
    8.3960    7.4430   12.2970 C   0  0  0  0  0  0  0  0  0  0  0  0
    7.2300    8.1460   12.1900 C   0  0  0  0  0  3  0  0  0  0  0  0
    6.1590    7.7860   12.9970 C   0  0  0  0  0  0  0  0  0  0  0  0
    4.6670    8.7100   12.8330 Cl  0  0  0  0  0  0  0  0  0  0  0  0
    6.2120    6.7500   13.9040 C   0  0  0  0  0  3  0  0  0  0  0  0
    7.4010    6.0480   14.0000 C   0  0  0  0  0  3  0  0  0  0  0  0
    8.4700    6.3800   13.2190 C   0  0  0  0  0  3  0  0  0  0  0  0
  1  5  1  0  0  0  0
  2  3  2  0  0  0  0
  2  1  1  0  0  0  0
  3  4  1  0  0  0  0
  4  5  2  0  0  0  0
  5 14  1  0  0  0  0
  6  3  1  0  0  0  0
  6 12  1  0  0  0  0
  7  6  1  0  0  0  0
  8  7  2  0  0  0  0
  9 10  1  0  0  0  0
  9  7  1  0  0  0  0
 10  2  1  0  0  0  0
 11 10  2  0  0  0  0
 13  9  1  0  0  0  0
 14 20  1  0  0  0  0
 15 14  1  0  0  0  0
 15 16  1  0  0  0  0
 16 17  1  0  0  0  0
 17 19  1  0  0  0  0
 17 18  1  0  0  0  0
 19 22  1  0  0  0  0
 20 18  1  0  0  0  0
 21 19  2  0  0  0  0
 23 22  1  0  0  0  0
 24  1  1  0  0  0  0
 24 25  1  0  0  0  0
 25 31  1  0  0  0  0
 26 25  2  0  0  0  0
 26 27  1  0  0  0  0
 27 29  2  0  0  0  0
 28 27  1  0  0  0  0
 29 30  1  0  0  0  0
 31 30  2  0  0  0  0
M  END
>  <Pose>
1

>  <Score>
-7.500

$$$$
