MODEL 1
REMARK VINA RESULT:    -7.500      0.000      0.000
REMARK INTER + INTRA:         -10.960
REMARK INTER:                  -9.254
REMARK INTRA:                  -1.706
REMARK UNBOUND:                -1.706
REMARK  4 active torsions:
REMARK  status: ('A' for Active; 'I' for Inactive)
REMARK    1  A    between atoms: C_4  and  C_8 
REMARK    2  A    between atoms: C_8  and  N_9 
REMARK    3  A    between atoms: C_13  and  N_14 
REMARK       I    between atoms: N_17  and  C_20 
REMARK    4  A    between atoms: C_20  and  C_22 
ROOT
ATOM      1  N   UNK d   1      10.795   7.080  11.842  0.00  0.00    -0.168 N 
ATOM      2  C   UNK d   1      11.248   6.032  11.124  0.00  0.00     0.167 A 
ATOM      3  C   UNK d   1      12.375   5.568  11.760  0.00  0.00     0.185 A 
ATOM      4  N   UNK d   1      12.569   6.328  12.820  0.00  0.00    -0.044 NA
ATOM      5  C   UNK d   1      11.599   7.273  12.892  0.00  0.00     0.707 A 
ATOM      6  N   UNK d   1      13.018   4.497  11.215  0.00  0.00    -0.286 N 
ATOM      7  C   UNK d   1      12.579   3.905  10.098  0.00  0.00     0.330 A 
ATOM      8  O   UNK d   1      13.210   2.915   9.634  0.00  0.00    -0.246 OA
ATOM      9  N   UNK d   1      11.487   4.326   9.448  0.00  0.00    -0.273 N 
ATOM     10  C   UNK d   1      10.826   5.389   9.965  0.00  0.00     0.280 A 
ATOM     11  O   UNK d   1       9.804   5.785   9.363  0.00  0.00    -0.265 OA
ATOM     12  C   UNK d   1      14.214   3.984  11.880  0.00  0.00     0.163 C 
ATOM     13  H   UNK d   1      11.178   3.835   8.579  0.00  0.00     0.173 HD
ENDROOT
BRANCH   5  14
ATOM     14  N   UNK d   1      11.472   8.223  13.961  0.00  0.00    -0.212 N 
ATOM     15  C   UNK d   1      11.686   9.650  13.642  0.00  0.00     0.161 C 
ATOM     16  C   UNK d   1      10.508  10.487  14.022  0.00  0.00     0.146 C 
ATOM     17  N   UNK d   1       9.725   9.851  15.056  0.00  0.00    -0.349 N 
ATOM     18  C   UNK d   1      10.433   9.035  16.020  0.00  0.00     0.146 C 
ATOM     19  C   UNK d   1       8.317  10.031  15.119  0.00  0.00     0.219 C 
ATOM     20  C   UNK d   1      11.146   7.903  15.303  0.00  0.00     0.161 C 
ATOM     21  O   UNK d   1       7.734  10.759  14.286  0.00  0.00    -0.273 OA
BRANCH  19  22
ATOM     22  C   UNK d   1       7.502   9.368  16.165  0.00  0.00     0.098 C 
ATOM     23  C   UNK d   1       6.091   9.943  16.069  0.00  0.00     0.014 C 
ENDBRANCH  19  22
ENDBRANCH   5  14
BRANCH   1  24
ATOM     24  C   UNK d   1       9.602   7.790  11.507  0.00  0.00     0.186 C 
BRANCH  24  25
ATOM     25  C   UNK d   1       8.396   7.443  12.297  0.00  0.00    -0.038 A 
ATOM     26  C   UNK d   1       7.230   8.146  12.190  0.00  0.00     0.032 A 
ATOM     27  C   UNK d   1       6.159   7.786  12.997  0.00  0.00     0.034 A 
ATOM     28 Cl   UNK d   1       4.667   8.710  12.833  0.00  0.00    -0.084 Cl
ATOM     29  C   UNK d   1       6.212   6.750  13.904  0.00  0.00     0.024 A 
ATOM     30  C   UNK d   1       7.401   6.048  14.000  0.00  0.00     0.002 A 
ATOM     31  C   UNK d   1       8.470   6.380  13.219  0.00  0.00     0.009 A 
ENDBRANCH  24  25
ENDBRANCH   1  24
TORSDOF 4
ENDMDL
