MODEL 1
REMARK VINA RESULT:    -9.374      0.000      0.000
REMARK INTER + INTRA:         -10.841
REMARK INTER:                 -10.470
REMARK INTRA:                  -0.370
REMARK UNBOUND:                -0.370
REMARK  2 active torsions:
REMARK  status: ('A' for Active; 'I' for Inactive)
REMARK    1  A    between atoms: C_3  and  C_13 
REMARK    2  A    between atoms: C_5  and  N_8 
REMARK       I    between atoms: C_13  and  N_15 
ROOT
ATOM      1  C   UNK d   1      11.354   5.499  10.270  0.00  0.00     0.255 C 
ATOM      2  O   UNK d   1      11.247   5.980   9.113  0.00  0.00    -0.267 OA
ATOM      3  N   UNK d   1      10.994   6.230  11.434  0.00  0.00    -0.348 N 
ATOM      4  C   UNK d   1      10.485   7.575  11.279  0.00  0.00     0.129 C 
ATOM      5  C   UNK d   1       9.599   7.852  12.480  0.00  0.00     0.061 C 
ATOM      6  C   UNK d   1       8.848   6.617  12.926  0.00  0.00     0.119 C 
ATOM      7  N   UNK d   1       7.883   7.040  13.915  0.00  0.00    -0.324 N 
ATOM      8  C   UNK d   1       6.703   7.448  13.240  0.00  0.00     0.325 C 
ATOM      9  O   UNK d   1       5.769   8.191  13.677  0.00  0.00    -0.247 OA
ATOM     10  N   UNK d   1       6.766   6.848  11.943  0.00  0.00    -0.272 N 
ATOM     11  C   UNK d   1       7.973   6.090  11.848  0.00  0.00     0.256 C 
ATOM     12  O   UNK d   1       8.204   5.177  11.011  0.00  0.00    -0.270 OA
ATOM     13  C   UNK d   1       5.787   6.959  10.860  0.00  0.00     0.164 C 
ATOM     14  C   UNK d   1       9.767   5.547  13.437  0.00  0.00     0.061 C 
ATOM     15  C   UNK d   1      11.103   5.714  12.779  0.00  0.00     0.129 C 
ATOM     16  H   UNK d   1       8.049   7.037  14.939  0.00  0.00     0.165 HD
ENDROOT
BRANCH   1  17
ATOM     17  C   UNK d   1      11.877   4.132  10.353  0.00  0.00     0.056 A 
ATOM     18  C   UNK d   1      13.131   3.893  10.871  0.00  0.00     0.050 A 
ATOM     19 Cl   UNK d   1      14.093   5.268  11.432  0.00  0.00    -0.083 Cl
ATOM     20  C   UNK d   1      13.650   2.617  10.960  0.00  0.00     0.027 A 
ATOM     21  C   UNK d   1      12.861   1.585  10.510  0.00  0.00     0.033 A 
ATOM     22  C   UNK d   1      11.594   1.777   9.982  0.00  0.00     0.059 A 
ATOM     23  C   UNK d   1      11.118   3.069   9.912  0.00  0.00     0.050 A 
BRANCH  22  24
ATOM     24  N   UNK d   1      10.828   0.661   9.532  0.00  0.00    -0.245 N 
ATOM     25  N   UNK d   1       9.539   0.592   9.307  0.00  0.00    -0.180 NA
ATOM     26  C   UNK d   1       9.213  -0.665   8.886  0.00  0.00     0.140 A 
ATOM     27  C   UNK d   1      10.369  -1.413   8.848  0.00  0.00     0.040 A 
ATOM     28  C   UNK d   1      11.375  -0.537   9.266  0.00  0.00     0.120 A 
ENDBRANCH  22  24
ENDBRANCH   1  17
TORSDOF 2
ENDMDL
