MODEL 1
REMARK VINA RESULT:    -9.112      0.000      0.000
REMARK INTER + INTRA:         -12.410
REMARK INTER:                 -11.776
REMARK INTRA:                  -0.635
REMARK UNBOUND:                -0.635
REMARK  5 active torsions:
REMARK  status: ('A' for Active; 'I' for Inactive)
REMARK    1  A    between atoms: C_5  and  C_8 
REMARK    2  A    between atoms: N_9  and  C_24 
REMARK    3  A    between atoms: C_15  and  C_17 
REMARK    4  A    between atoms: C_24  and  C_25 
REMARK    5  A    between atoms: C_25  and  N_26 
ROOT
ATOM      1  C   UNK d   1      11.731   5.107  12.395  0.00  0.00     0.161 C 
ATOM      2  N   UNK d   1      10.561   5.992  12.250  0.00  0.00    -0.331 N 
ATOM      3  C   UNK d   1      10.122   5.930  10.899  0.00  0.00     0.295 C 
ATOM      4  O   UNK d   1       9.430   6.754  10.298  0.00  0.00    -0.264 OA
ATOM      5  C   UNK d   1      10.649   4.676  10.326  0.00  0.00     0.250 C 
ATOM      6  O   UNK d   1      10.496   4.232   9.143  0.00  0.00    -0.282 OA
ATOM      7  C   UNK d   1      11.393   4.038  11.399  0.00  0.00     0.062 C 
ATOM      8  C   UNK d   1      11.709   2.767  11.421  0.00  0.00     0.130 C 
ATOM      9  O   UNK d   1      12.466   2.301  12.492  0.00  0.00    -0.190 OA
ENDROOT
BRANCH   2  10
ATOM     10  C   UNK d   1      10.036   6.734  13.367  0.00  0.00     0.155 C 
BRANCH  10  11
ATOM     11  C   UNK d   1       8.568   6.676  13.551  0.00  0.00     0.255 C 
BRANCH  11  12
ATOM     12  N   UNK d   1       7.755   7.619  12.876  0.00  0.00    -0.066 N 
ATOM     13  C   UNK d   1       7.160   8.613  13.744  0.00  0.00     0.261 C 
ATOM     14  C   UNK d   1       5.655   8.684  13.642  0.00  0.00     0.195 C 
ATOM     15  O   UNK d   1       5.167   8.748  12.363  0.00  0.00    -0.388 OA
ATOM     16  C   UNK d   1       5.735   7.825  11.505  0.00  0.00     0.195 C 
ATOM     17  C   UNK d   1       6.610   6.893  12.288  0.00  0.00     0.261 C 
ATOM     18  H   UNK d   1       8.216   8.053  12.060  0.00  0.00     0.280 HD
ENDBRANCH  11  12
ENDBRANCH  10  11
ENDBRANCH   2  10
BRANCH   1  19
ATOM     19  C   UNK d   1      12.946   5.838  12.057  0.00  0.00    -0.030 A 
ATOM     20  C   UNK d   1      12.940   7.120  11.610  0.00  0.00     0.011 A 
ATOM     21  C   UNK d   1      14.094   7.822  11.294  0.00  0.00     0.024 A 
ATOM     22  C   UNK d   1      15.305   7.211  11.433  0.00  0.00     0.034 A 
ATOM     23 Cl   UNK d   1      16.792   8.036  11.055  0.00  0.00    -0.084 Cl
ATOM     24  C   UNK d   1      15.345   5.892  11.891  0.00  0.00     0.024 A 
ATOM     25  C   UNK d   1      14.186   5.216  12.197  0.00  0.00     0.011 A 
ENDBRANCH   1  19
BRANCH   8  26
ATOM     26  C   UNK d   1      11.337   1.775  10.418  0.00  0.00     0.001 A 
ATOM     27  C   UNK d   1      12.374   1.266   9.645  0.00  0.00     0.016 A 
ATOM     28  C   UNK d   1      12.103   0.313   8.703  0.00  0.00     0.024 A 
ATOM     29  C   UNK d   1      10.818  -0.153   8.503  0.00  0.00     0.034 A 
ATOM     30  C   UNK d   1       9.794   0.355   9.273  0.00  0.00     0.024 A 
ATOM     31 Cl   UNK d   1      10.523  -1.361   7.296  0.00  0.00    -0.084 Cl
ATOM     32  C   UNK d   1      10.080   1.316  10.222  0.00  0.00     0.016 A 
ENDBRANCH   8  26
TORSDOF 5
ENDMDL
