MODEL 1
REMARK VINA RESULT:    -8.208      0.000      0.000
REMARK INTER + INTRA:         -12.577
REMARK INTER:                 -11.087
REMARK INTRA:                  -1.490
REMARK UNBOUND:                -1.490
REMARK  6 active torsions:
REMARK  status: ('A' for Active; 'I' for Inactive)
REMARK    1  A    between atoms: C_10  and  C_27 
REMARK    2  A    between atoms: N_15  and  C_18 
REMARK    3  A    between atoms: C_18  and  C_19 
REMARK    4  A    between atoms: C_20  and  O_25 
REMARK    5  A    between atoms: C_27  and  C_28 
REMARK    6  A    between atoms: C_28  and  C_29 
REMARK       I    between atoms: C_29  and  N_31 
ROOT
ATOM      1 Cl   UNK d   1      13.517  11.673  16.318  0.00  0.00    -0.084 Cl
ATOM      2  C   UNK d   1      12.166  10.714  15.692  0.00  0.00     0.042 A 
ATOM      3  C   UNK d   1      11.251  10.167  16.558  0.00  0.00    -0.013 A 
ATOM      4  C   UNK d   1      10.191   9.416  16.070  0.00  0.00     0.051 A 
ATOM      5  C   UNK d   1       9.992   9.176  14.737  0.00  0.00     0.018 A 
ATOM      6  C   UNK d   1      10.942   9.747  13.876  0.00  0.00     0.014 A 
ATOM      7  C   UNK d   1      11.997  10.495  14.349  0.00  0.00     0.025 A 
ATOM      8  C   UNK d   1       8.802   8.359  14.563  0.00  0.00     0.279 A 
ATOM      9  N   UNK d   1       7.832   9.139  13.799  0.00  0.00     0.113 N 
ATOM     10  C   UNK d   1       7.909   8.559  12.486  0.00  0.00     0.237 C 
ATOM     11  C   UNK d   1       7.937   7.080  12.799  0.00  0.00     0.128 C 
ATOM     12  C   UNK d   1       8.997   7.052  13.878  0.00  0.00     0.147 C 
ATOM     13  C   UNK d   1      10.242   6.852  13.164  0.00  0.00     0.235 C 
ATOM     14  O   UNK d   1      11.397   7.036  13.605  0.00  0.00    -0.272 OA
ATOM     15  N   UNK d   1       9.954   6.403  11.847  0.00  0.00    -0.283 N 
ATOM     16  C   UNK d   1       8.538   6.298  11.689  0.00  0.00     0.234 C 
ATOM     17  O   UNK d   1       7.871   5.689  10.818  0.00  0.00    -0.272 OA
ATOM     18  C   UNK d   1       8.287   8.132  15.934  0.00  0.00     0.267 A 
ATOM     19  O   UNK d   1       7.260   7.477  16.280  0.00  0.00    -0.270 OA
ATOM     20  N   UNK d   1       9.162   8.788  16.825  0.00  0.00    -0.323 N 
ATOM     21  C   UNK d   1      11.424  10.399  18.019  0.00  0.00     0.052 C 
ATOM     22  H   UNK d   1       8.082  10.150  13.843  0.00  0.00     0.318 HD
ATOM     23  H   UNK d   1       9.054   8.799  17.875  0.00  0.00     0.169 HD
ENDROOT
BRANCH  10  24
ATOM     24  C   UNK d   1       6.713   8.939  11.642  0.00  0.00     0.045 C 
BRANCH  24  25
ATOM     25  C   UNK d   1       5.529   8.174  12.193  0.00  0.00     0.105 C 
BRANCH  25  26
ATOM     26  C   UNK d   1       4.529   9.079  12.813  0.00  0.00     0.215 C 
ATOM     27  O   UNK d   1       4.914  10.164  13.335  0.00  0.00    -0.274 OA
ATOM     28  N   UNK d   1       3.170   8.667  12.784  0.00  0.00    -0.370 N 
ATOM     29  H   UNK d   1       2.827   8.172  11.944  0.00  0.00     0.159 HD
ATOM     30  H   UNK d   1       2.584   8.893  13.628  0.00  0.00     0.159 HD
ENDBRANCH  25  26
ENDBRANCH  24  25
ENDBRANCH  10  24
BRANCH  15  31
ATOM     31  C   UNK d   1      10.877   6.077  10.775  0.00  0.00     0.176 C 
BRANCH  31  32
ATOM     32  C   UNK d   1      11.482   4.744  10.948  0.00  0.00    -0.006 A 
ATOM     33  C   UNK d   1      12.803   4.682  11.339  0.00  0.00     0.076 A 
ATOM     34  C   UNK d   1      13.367   3.424  11.499  0.00  0.00     0.037 A 
ATOM     35  C   UNK d   1      12.647   2.283  11.280  0.00  0.00     0.003 A 
ATOM     36  C   UNK d   1      11.332   2.388  10.892  0.00  0.00     0.001 A 
ATOM     37  C   UNK d   1      10.715   3.606  10.715  0.00  0.00     0.011 A 
BRANCH  33  38
ATOM     38  O   UNK d   1      13.509   5.846  11.554  0.00  0.00    -0.355 OA
ATOM     39  C   UNK d   1      14.818   5.910  12.027  0.00  0.00     0.210 C 
ENDBRANCH  33  38
ENDBRANCH  31  32
ENDBRANCH  15  31
TORSDOF 6
ENDMDL
