MODEL 1
REMARK VINA RESULT:    -9.108      0.000      0.000
REMARK INTER + INTRA:         -11.254
REMARK INTER:                 -10.705
REMARK INTRA:                  -0.549
REMARK UNBOUND:                -0.549
REMARK  3 active torsions:
REMARK  status: ('A' for Active; 'I' for Inactive)
REMARK    1  A    between atoms: C_4  and  C_8 
REMARK    2  A    between atoms: N_9  and  C_23 
REMARK    3  A    between atoms: C_15  and  C_17 
ROOT
ATOM      1  C   UNK d   1      11.767   4.511  12.272  0.00  0.00     0.185 C 
ATOM      2  N   UNK d   1      10.475   5.135  12.303  0.00  0.00    -0.128 N 
ATOM      3  C   UNK d   1       9.822   5.001  11.045  0.00  0.00     0.314 C 
ATOM      4  O   UNK d   1       8.818   5.648  10.627  0.00  0.00    -0.263 OA
ATOM      5  C   UNK d   1      10.532   3.951  10.284  0.00  0.00     0.251 C 
ATOM      6  O   UNK d   1      10.231   3.572   9.129  0.00  0.00    -0.282 OA
ATOM      7  C   UNK d   1      11.602   3.505  11.166  0.00  0.00     0.063 C 
ATOM      8  C   UNK d   1      12.309   2.413  10.967  0.00  0.00     0.130 C 
ATOM      9  O   UNK d   1      13.345   2.146  11.885  0.00  0.00    -0.190 OA
ENDROOT
BRANCH   1  10
ATOM     10  C   UNK d   1      12.881   5.453  11.999  0.00  0.00    -0.028 A 
ATOM     11  C   UNK d   1      14.177   5.194  12.426  0.00  0.00     0.033 A 
ATOM     12  C   UNK d   1      15.237   6.038  12.194  0.00  0.00     0.034 A 
ATOM     13 Cl   UNK d   1      16.858   5.677  12.746  0.00  0.00    -0.084 Cl
ATOM     14  C   UNK d   1      14.991   7.202  11.499  0.00  0.00     0.024 A 
ATOM     15  C   UNK d   1      13.721   7.503  11.054  0.00  0.00     0.002 A 
ATOM     16  C   UNK d   1      12.678   6.639  11.301  0.00  0.00     0.010 A 
ENDBRANCH   1  10
BRANCH   8  17
ATOM     17  C   UNK d   1      12.085   1.474   9.876  0.00  0.00     0.001 A 
ATOM     18  C   UNK d   1      13.049   1.345   8.866  0.00  0.00     0.014 A 
ATOM     19  C   UNK d   1      12.878   0.445   7.838  0.00  0.00     0.001 A 
ATOM     20  C   UNK d   1      11.768  -0.368   7.748  0.00  0.00     0.000 A 
ATOM     21  C   UNK d   1      10.810  -0.258   8.730  0.00  0.00     0.001 A 
ATOM     22  C   UNK d   1      10.985   0.655   9.770  0.00  0.00     0.014 A 
ENDBRANCH   8  17
BRANCH   2  23
ATOM     23  C   UNK d   1       9.914   5.798  13.416  0.00  0.00     0.710 A 
ATOM     24  N   UNK d   1       8.600   5.548  13.657  0.00  0.00    -0.200 N 
ATOM     25  C   UNK d   1       7.954   6.111  14.678  0.00  0.00     0.107 A 
ATOM     26  H   UNK d   1       8.053   4.892  13.034  0.00  0.00     0.183 HD
ATOM     27  C   UNK d   1       8.657   6.963  15.499  0.00  0.00     0.037 A 
ATOM     28  C   UNK d   1       9.989   7.201  15.236  0.00  0.00     0.138 A 
ATOM     29  N   UNK d   1      10.633   6.630  14.202  0.00  0.00    -0.077 NA
ENDBRANCH   2  23
TORSDOF 3
ENDMDL
