/Users/jonathanwahrer/Desktop/Msc/3_Semester/Drug_Design_Praktikum/waehrer_HTS_screening/HTS_experiment/out/docking_results/vina_output/2jam/1637_docked.pdbqt
 OpenBabel03162218333D

 29 32  0  0  0  0  0  0  0  0999 V2000
    9.1010    6.4010   12.6800 C   0  0  0  0  0  0  0  0  0  0  0  0
   10.2860    6.5650   13.2790 N   0  0  0  0  0  0  0  0  0  0  0  0
   11.4530    6.5870   12.6420 C   0  0  0  0  0  0  0  0  0  0  0  0
   11.4240    6.4170   11.2490 C   0  0  0  0  0  0  0  0  0  0  0  0
   10.2260    6.2520   10.6490 C   0  0  0  0  0  0  0  0  0  0  0  0
    9.0690    6.2480   11.3690 N   0  0  0  0  0  0  0  0  0  0  0  0
   12.7390    6.3070   10.6120 C   0  0  0  0  0  2  0  0  0  0  0  0
   13.4510    5.3230   11.3680 N   0  0  0  0  0  0  0  0  0  0  0  0
   13.9260    6.1180   12.5860 C   0  0  0  0  0  2  0  0  0  0  0  0
   12.7790    6.7500   13.2940 C   0  0  0  0  0  2  0  0  0  0  0  0
   12.6300    4.2640   12.0580 C   0  0  0  0  0  2  0  0  0  0  0  0
   12.8080    3.1270   11.0480 C   0  0  0  0  0  0  0  0  0  0  0  0
   11.8200    2.4690   10.4250 C   0  0  0  0  0  0  0  0  0  0  0  0
   12.0330    1.4190    9.4910 C   0  0  0  0  0  0  0  0  0  0  0  0
   10.1890    2.9620   10.7290 Cl  0  0  0  0  0  0  0  0  0  0  0  0
   13.3780    1.1190    9.2570 C   0  0  0  0  0  0  0  0  0  0  0  0
   11.0700    0.7260    8.8400 C   0  0  0  0  0  3  0  0  0  0  0  0
   13.6440    0.1190    8.3680 C   0  0  0  0  0  3  0  0  0  0  0  0
   14.3340    1.7540    9.8430 O   0  0  0  0  0  0  0  0  0  0  0  0
   12.6560   -0.6200    7.6820 C   0  0  0  0  0  3  0  0  0  0  0  0
   11.3170   -0.2760    7.9460 C   0  0  0  0  0  3  0  0  0  0  0  0
   14.1060    2.7390   10.7240 C   0  0  0  0  0  0  0  0  0  0  0  0
   15.0740    3.3580   11.3110 O   0  0  0  0  0  0  0  0  0  0  0  0
   10.1930    6.0970    9.2710 O   0  0  0  0  0  0  0  0  0  0  0  0
   10.9950    5.7890    8.7120 H   0  0  0  0  0  0  0  0  0  0  0  0
    7.6510    6.2950   13.6950 S   0  0  0  0  0  0  0  0  0  0  0  0
    7.7840    5.3100   14.7450 O   0  0  0  0  0  0  0  0  0  0  0  0
    6.5100    5.9860   12.7740 O   0  0  0  0  0  0  0  0  0  0  0  0
    7.3890    7.9700   14.3300 C   0  0  0  0  0  1  0  0  0  0  0  0
  1  2  2  0  0  0  0
  1 26  1  0  0  0  0
  3  2  1  0  0  0  0
  3 10  1  0  0  0  0
  4  3  2  0  0  0  0
  5  4  1  0  0  0  0
  5  6  2  0  0  0  0
  6  1  1  0  0  0  0
  7  4  1  0  0  0  0
  7  8  1  0  0  0  0
  8 11  1  0  0  0  0
  8  9  1  0  0  0  0
  9 10  1  0  0  0  0
 12 11  1  0  0  0  0
 13 15  1  0  0  0  0
 13 12  2  0  0  0  0
 14 13  1  0  0  0  0
 16 14  1  0  0  0  0
 16 19  1  0  0  0  0
 17 14  2  0  0  0  0
 18 16  2  0  0  0  0
 19 22  1  0  0  0  0
 20 21  2  0  0  0  0
 20 18  1  0  0  0  0
 21 17  1  0  0  0  0
 22 12  1  0  0  0  0
 22 23  2  0  0  0  0
 24  5  1  0  0  0  0
 25 24  1  0  0  0  0
 26 29  1  0  0  0  0
 26 27  2  0  0  0  0
 28 26  2  0  0  0  0
M  END
>  <Pose>
1

>  <Score>
-8.856

$$$$
