MODEL 1
REMARK VINA RESULT:    -8.856      0.000      0.000
REMARK INTER + INTRA:         -10.793
REMARK INTER:                 -10.668
REMARK INTRA:                  -0.125
REMARK UNBOUND:                -0.125
REMARK  4 active torsions:
REMARK  status: ('A' for Active; 'I' for Inactive)
REMARK    1  A    between atoms: S_1  and  C_5 
REMARK    2  A    between atoms: C_9  and  O_11 
REMARK    3  A    between atoms: N_13  and  C_16 
REMARK    4  A    between atoms: C_16  and  C_17 
ROOT
ATOM      1  C   UNK d   1       9.101   6.401  12.680  0.00  0.00     0.249 A 
ATOM      2  N   UNK d   1      10.286   6.565  13.279  0.00  0.00    -0.223 NA
ATOM      3  C   UNK d   1      11.453   6.587  12.642  0.00  0.00     0.051 A 
ATOM      4  C   UNK d   1      11.424   6.417  11.249  0.00  0.00     0.048 A 
ATOM      5  C   UNK d   1      10.226   6.252  10.649  0.00  0.00     0.175 A 
ATOM      6  N   UNK d   1       9.069   6.248  11.369  0.00  0.00    -0.194 NA
ATOM      7  C   UNK d   1      12.739   6.307  10.612  0.00  0.00     0.318 C 
ATOM      8  N   UNK d   1      13.451   5.323  11.368  0.00  0.00     0.097 N 
ATOM      9  C   UNK d   1      13.926   6.118  12.586  0.00  0.00     0.279 C 
ATOM     10  C   UNK d   1      12.779   6.750  13.294  0.00  0.00     0.090 C 
ENDROOT
BRANCH   8  11
ATOM     11  C   UNK d   1      12.630   4.264  12.058  0.00  0.00     0.319 C 
BRANCH  11  12
ATOM     12  C   UNK d   1      12.808   3.127  11.048  0.00  0.00     0.068 A 
ATOM     13  C   UNK d   1      11.820   2.469  10.425  0.00  0.00     0.061 A 
ATOM     14  C   UNK d   1      12.033   1.419   9.491  0.00  0.00     0.020 A 
ATOM     15 Cl   UNK d   1      10.189   2.962  10.729  0.00  0.00    -0.083 Cl
ATOM     16  C   UNK d   1      13.378   1.119   9.257  0.00  0.00     0.091 A 
ATOM     17  C   UNK d   1      11.070   0.726   8.840  0.00  0.00     0.016 A 
ATOM     18  C   UNK d   1      13.644   0.119   8.368  0.00  0.00     0.038 A 
ATOM     19  O   UNK d   1      14.334   1.754   9.843  0.00  0.00    -0.274 OA
ATOM     20  C   UNK d   1      12.656  -0.620   7.682  0.00  0.00     0.003 A 
ATOM     21  C   UNK d   1      11.317  -0.276   7.946  0.00  0.00     0.001 A 
ATOM     22  C   UNK d   1      14.106   2.739  10.724  0.00  0.00     0.298 A 
ATOM     23  O   UNK d   1      15.074   3.358  11.311  0.00  0.00    -0.259 OA
ENDBRANCH  11  12
ENDBRANCH   8  11
BRANCH   5  24
ATOM     24  O   UNK d   1      10.193   6.097   9.271  0.00  0.00    -0.344 OA
ATOM     25  H   UNK d   1      10.995   5.789   8.712  0.00  0.00     0.219 HD
ENDBRANCH   5  24
BRANCH   1  26
ATOM     26  S   UNK d   1       7.651   6.295  13.695  0.00  0.00     0.207 S 
ATOM     27  O   UNK d   1       7.784   5.310  14.745  0.00  0.00    -0.220 OA
ATOM     28  O   UNK d   1       6.510   5.986  12.774  0.00  0.00    -0.220 OA
ATOM     29  C   UNK d   1       7.389   7.970  14.330  0.00  0.00     0.170 C 
ENDBRANCH   1  26
TORSDOF 4
ENDMDL
