/Users/jonathanwahrer/Desktop/Msc/3_Semester/Drug_Design_Praktikum/waehrer_HTS_screening/HTS_experiment/out/docking_results/vina_output/2jam/1638_docked.pdbqt
 OpenBabel03162218343D

 38 41  0  0  1  0  0  0  0  0999 V2000
   10.8130    5.1910   11.3440 C   0  0  0  0  0  0  0  0  0  0  0  0
   10.5610    6.1340   10.3560 C   0  0  0  0  0  0  0  0  0  0  0  0
    9.7200    7.1710   10.6130 N   0  0  0  0  0  0  0  0  0  0  0  0
    9.1100    7.3340   11.7950 C   0  0  0  0  0  0  0  0  0  0  0  0
    9.3480    6.4240   12.7560 N   0  0  0  0  0  0  0  0  0  0  0  0
   10.1710    5.3820   12.5490 C   0  0  0  0  0  3  0  0  0  0  0  0
    8.2320    8.4240   12.0640 N   0  0  0  0  0  0  0  0  0  0  0  0
    7.0340    8.6560   11.2940 C   0  0  0  0  0  2  0  0  0  0  0  0
    5.7790    8.7550   12.1150 C   0  0  0  0  0  2  0  0  0  0  0  0
    6.0600    9.1870   13.5450 C   0  0  2  0  0  0  0  0  0  0  0  0
    7.2620   10.1370   13.4030 C   0  0  0  0  0  2  0  0  0  0  0  0
    8.5090    9.3640   13.1360 C   0  0  0  0  0  2  0  0  0  0  0  0
    6.3940    8.1640   14.4160 N   0  0  0  0  0  0  0  0  0  0  0  0
    5.8150    6.8810   14.3200 C   0  0  0  0  0  2  0  0  0  0  0  0
    6.8740    5.8680   14.7850 C   0  0  0  0  0  2  0  0  0  0  0  0
    7.8440    6.5900   15.6810 C   0  0  0  0  0  2  0  0  0  0  0  0
    7.1620    7.5800   16.5920 C   0  0  0  0  0  2  0  0  0  0  0  0
    6.3130    8.5570   15.7960 C   0  0  0  0  0  2  0  0  0  0  0  0
    4.9310   10.0340   13.9910 C   0  0  0  0  0  0  0  0  0  0  0  0
    5.0970   11.2820   14.2070 O   0  0  0  0  0  0  0  0  0  0  0  0
    3.6370    9.5450   14.2020 N   0  0  0  0  0  0  0  0  0  0  0  0
    3.3080    9.4190   15.1990 H   0  0  0  0  0  0  0  0  0  0  0  0
    2.9400    9.2920   13.4740 H   0  0  0  0  0  0  0  0  0  0  0  0
   11.2050    5.9590    9.1180 N   0  0  0  0  0  0  0  0  0  0  0  0
   12.2240    6.1130    8.9710 H   0  0  0  0  0  0  0  0  0  0  0  0
   10.6450    5.6600    8.2940 H   0  0  0  0  0  0  0  0  0  0  0  0
   11.8890    3.8390   11.0610 S   0  0  0  0  0  0  0  0  0  0  0  0
   11.5600    2.6750   11.9380 O   0  0  0  0  0  0  0  0  0  0  0  0
   11.7960    3.4850    9.5990 O   0  0  0  0  0  0  0  0  0  0  0  0
   13.5410    4.3930   11.3730 C   0  0  0  0  0  0  0  0  0  0  0  0
   14.5940    3.5050   11.2920 C   0  0  0  0  0  0  0  0  0  0  0  0
   15.8640    3.9810   11.5430 C   0  0  0  0  0  3  0  0  0  0  0  0
   16.0940    5.3140   11.8680 C   0  0  0  0  0  3  0  0  0  0  0  0
   15.0160    6.1700   11.9380 C   0  0  0  0  0  0  0  0  0  0  0  0
   13.7330    5.7240   11.6930 C   0  0  0  0  0  3  0  0  0  0  0  0
   15.2880    7.8680   12.3510 Cl  0  0  0  0  0  0  0  0  0  0  0  0
   14.3310    2.2030   10.9700 O   0  0  0  0  0  0  0  0  0  0  0  0
   14.8480    1.5190    9.8640 C   0  0  0  0  0  1  0  0  0  0  0  0
  1  6  1  0  0  0  0
  2  3  1  0  0  0  0
  2  1  2  0  0  0  0
  3  4  2  0  0  0  0
  4  7  1  0  0  0  0
  4  5  1  0  0  0  0
  6  5  2  0  0  0  0
  7 12  1  0  0  0  0
  8  7  1  0  0  0  0
  8  9  1  0  0  0  0
  9 10  1  0  0  0  0
 10 19  1  1  0  0  0
 10 13  1  0  0  0  0
 11 10  1  0  0  0  0
 12 11  1  0  0  0  0
 13 18  1  0  0  0  0
 14 13  1  0  0  0  0
 14 15  1  0  0  0  0
 15 16  1  0  0  0  0
 16 17  1  0  0  0  0
 18 17  1  0  0  0  0
 19 21  1  0  0  0  0
 19 20  2  0  0  0  0
 21 22  1  0  0  0  0
 23 21  1  0  0  0  0
 24  2  1  0  0  0  0
 25 24  1  0  0  0  0
 26 24  1  0  0  0  0
 27  1  1  0  0  0  0
 27 30  1  0  0  0  0
 27 28  2  0  0  0  0
 29 27  2  0  0  0  0
 30 35  1  0  0  0  0
 31 30  2  0  0  0  0
 31 32  1  0  0  0  0
 32 33  2  0  0  0  0
 33 34  1  0  0  0  0
 34 36  1  0  0  0  0
 35 34  2  0  0  0  0
 37 31  1  0  0  0  0
 38 37  1  0  0  0  0
M  END
>  <Pose>
1

>  <Score>
-9.037

$$$$
