MODEL 1
REMARK VINA RESULT:    -9.037      0.000      0.000
REMARK INTER + INTRA:         -13.342
REMARK INTER:                 -12.472
REMARK INTRA:                  -0.870
REMARK UNBOUND:                -0.870
REMARK  7 active torsions:
REMARK  status: ('A' for Active; 'I' for Inactive)
REMARK    1  A    between atoms: S_1  and  C_4 
REMARK    2  A    between atoms: S_1  and  C_26 
REMARK    3  A    between atoms: C_5  and  N_25 
REMARK    4  A    between atoms: C_7  and  N_10 
REMARK    5  A    between atoms: C_13  and  N_16 
REMARK    6  A    between atoms: C_13  and  C_22 
REMARK       I    between atoms: C_22  and  N_24 
REMARK    7  A    between atoms: C_27  and  O_33 
ROOT
ATOM      1  C   UNK d   1      10.813   5.191  11.344  0.00  0.00     0.128 A 
ATOM      2  C   UNK d   1      10.561   6.134  10.356  0.00  0.00     0.164 A 
ATOM      3  N   UNK d   1       9.720   7.171  10.613  0.00  0.00    -0.044 NA
ATOM      4  C   UNK d   1       9.110   7.334  11.795  0.00  0.00     0.726 A 
ATOM      5  N   UNK d   1       9.348   6.424  12.756  0.00  0.00    -0.073 NA
ATOM      6  C   UNK d   1      10.171   5.382  12.549  0.00  0.00     0.164 A 
ENDROOT
BRANCH   4   7
ATOM      7  N   UNK d   1       8.232   8.424  12.064  0.00  0.00    -0.214 N 
ATOM      8  C   UNK d   1       7.034   8.656  11.294  0.00  0.00     0.144 C 
ATOM      9  C   UNK d   1       5.779   8.755  12.115  0.00  0.00     0.072 C 
ATOM     10  C   UNK d   1       6.060   9.187  13.545  0.00  0.00     0.241 C 
ATOM     11  C   UNK d   1       7.262  10.137  13.403  0.00  0.00     0.072 C 
ATOM     12  C   UNK d   1       8.509   9.364  13.136  0.00  0.00     0.144 C 
BRANCH  10  13
ATOM     13  N   UNK d   1       6.394   8.164  14.416  0.00  0.00     0.107 N 
ATOM     14  C   UNK d   1       5.815   6.881  14.320  0.00  0.00     0.274 C 
ATOM     15  C   UNK d   1       6.874   5.868  14.785  0.00  0.00     0.030 C 
ATOM     16  C   UNK d   1       7.844   6.590  15.681  0.00  0.00     0.003 C 
ATOM     17  C   UNK d   1       7.162   7.580  16.592  0.00  0.00     0.030 C 
ATOM     18  C   UNK d   1       6.313   8.557  15.796  0.00  0.00     0.274 C 
ENDBRANCH  10  13
BRANCH  10  19
ATOM     19  C   UNK d   1       4.931  10.034  13.991  0.00  0.00     0.255 C 
ATOM     20  O   UNK d   1       5.097  11.282  14.207  0.00  0.00    -0.271 OA
ATOM     21  N   UNK d   1       3.637   9.545  14.202  0.00  0.00    -0.368 N 
ATOM     22  H   UNK d   1       3.308   9.419  15.199  0.00  0.00     0.159 HD
ATOM     23  H   UNK d   1       2.940   9.292  13.474  0.00  0.00     0.159 HD
ENDBRANCH  10  19
ENDBRANCH   4   7
BRANCH   2  24
ATOM     24  N   UNK d   1      11.205   5.959   9.118  0.00  0.00    -0.382 N 
ATOM     25  H   UNK d   1      12.224   6.113   8.971  0.00  0.00     0.157 HD
ATOM     26  H   UNK d   1      10.645   5.660   8.294  0.00  0.00     0.157 HD
ENDBRANCH   2  24
BRANCH   1  27
ATOM     27  S   UNK d   1      11.889   3.839  11.061  0.00  0.00     0.214 S 
ATOM     28  O   UNK d   1      11.560   2.675  11.938  0.00  0.00    -0.217 OA
ATOM     29  O   UNK d   1      11.796   3.485   9.599  0.00  0.00    -0.217 OA
BRANCH  27  30
ATOM     30  C   UNK d   1      13.541   4.393  11.373  0.00  0.00     0.099 A 
ATOM     31  C   UNK d   1      14.594   3.505  11.292  0.00  0.00     0.090 A 
ATOM     32  C   UNK d   1      15.864   3.981  11.543  0.00  0.00     0.040 A 
ATOM     33  C   UNK d   1      16.094   5.314  11.868  0.00  0.00     0.026 A 
ATOM     34  C   UNK d   1      15.016   6.170  11.938  0.00  0.00     0.035 A 
ATOM     35  C   UNK d   1      13.733   5.724  11.693  0.00  0.00     0.050 A 
ATOM     36 Cl   UNK d   1      15.288   7.868  12.351  0.00  0.00    -0.084 Cl
BRANCH  31  37
ATOM     37  O   UNK d   1      14.331   2.203  10.970  0.00  0.00    -0.354 OA
ATOM     38  C   UNK d   1      14.848   1.519   9.864  0.00  0.00     0.210 C 
ENDBRANCH  31  37
ENDBRANCH  27  30
ENDBRANCH   1  27
TORSDOF 7
ENDMDL
