/Users/jonathanwahrer/Desktop/Msc/3_Semester/Drug_Design_Praktikum/waehrer_HTS_screening/HTS_experiment/out/docking_results/vina_output/2jam/1651_docked.pdbqt
 OpenBabel03162218343D

 23 26  0  0  1  0  0  0  0  0999 V2000
   10.5530    6.0740    9.8830 Cl  0  0  0  0  0  0  0  0  0  0  0  0
   10.3560    7.2090   11.2220 C   0  0  0  0  0  0  0  0  0  0  0  0
    9.1160    7.5290   11.7200 C   0  0  0  0  0  3  0  0  0  0  0  0
    8.9860    8.4340   12.7850 C   0  0  0  0  0  0  0  0  0  0  0  0
   10.0770    9.0220   13.3590 C   0  0  0  0  0  0  0  0  0  0  0  0
   11.3500    8.6990   12.8540 C   0  0  0  0  0  3  0  0  0  0  0  0
   11.4420    7.8100   11.8120 C   0  0  0  0  0  3  0  0  0  0  0  0
    9.7210    9.8990   14.4150 N   0  0  0  0  0  0  0  0  0  0  0  0
    8.3070    9.8580   14.5090 C   0  0  0  0  0  0  0  0  0  0  0  0
    7.6390   10.5250   15.3520 O   0  0  0  0  0  0  0  0  0  0  0  0
    7.7770    8.9310   13.4860 C   0  0  1  0  0  0  0  0  0  0  0  0
    6.9000    9.7530   12.5650 C   0  0  0  0  0  2  0  0  0  0  0  0
    5.6810   10.0830   13.3790 C   0  0  0  0  0  0  0  0  0  0  0  0
    5.2660   11.2450   13.5440 O   0  0  0  0  0  0  0  0  0  0  0  0
    5.0000    8.9730   13.9740 N   0  0  0  0  0  0  0  0  0  0  0  0
    5.7350    7.8080   14.3250 C   0  0  0  0  0  0  0  0  0  0  0  0
    5.3770    6.6200   14.8830 N   0  0  0  0  0  0  0  0  0  0  0  0
    6.4520    5.8770   14.9890 N   0  0  0  0  0  0  0  0  0  0  0  0
    7.5320    6.5210   14.5200 C   0  0  0  0  0  3  0  0  0  0  0  0
    7.0850    7.7760   14.0860 C   0  0  0  0  0  0  0  0  0  0  0  0
   10.6490   10.6850   15.2340 C   0  0  0  0  0  1  0  0  0  0  0  0
    3.9720    9.0050   14.1540 H   0  0  0  0  0  0  0  0  0  0  0  0
    4.3930    6.3950   15.1600 H   0  0  0  0  0  0  0  0  0  0  0  0
  1  2  1  0  0  0  0
  2  3  2  0  0  0  0
  2  7  1  0  0  0  0
  3  4  1  0  0  0  0
  4  5  2  0  0  0  0
  4 11  1  0  0  0  0
  5  8  1  0  0  0  0
  6  5  1  0  0  0  0
  7  6  2  0  0  0  0
  8  9  1  0  0  0  0
  8 21  1  0  0  0  0
  9 10  2  0  0  0  0
 11 12  1  6  0  0  0
 11 20  1  0  0  0  0
 11  9  1  0  0  0  0
 12 13  1  0  0  0  0
 13 14  2  0  0  0  0
 13 15  1  0  0  0  0
 15 22  1  0  0  0  0
 15 16  1  0  0  0  0
 16 17  1  0  0  0  0
 17 18  1  0  0  0  0
 17 23  1  0  0  0  0
 19 18  2  0  0  0  0
 20 16  2  0  0  0  0
 20 19  1  0  0  0  0
M  END
>  <Pose>
1

>  <Score>
-7.443

$$$$
