MODEL 1
REMARK VINA RESULT:    -7.443      0.000      0.000
REMARK INTER + INTRA:          -7.443
REMARK INTER:                  -7.443
REMARK INTRA:                   0.000
REMARK UNBOUND:                 0.000
REMARK  0 active torsions:
REMARK  status: ('A' for Active; 'I' for Inactive)
ROOT
ATOM      1 Cl   UNK d   1      10.553   6.074   9.883  0.00  0.00    -0.084 Cl
ATOM      2  C   UNK d   1      10.356   7.209  11.222  0.00  0.00     0.034 A 
ATOM      3  C   UNK d   1       9.116   7.529  11.720  0.00  0.00     0.034 A 
ATOM      4  C   UNK d   1       8.986   8.434  12.785  0.00  0.00    -0.006 A 
ATOM      5  C   UNK d   1      10.077   9.022  13.359  0.00  0.00     0.044 A 
ATOM      6  C   UNK d   1      11.350   8.699  12.854  0.00  0.00     0.032 A 
ATOM      7  C   UNK d   1      11.442   7.810  11.812  0.00  0.00     0.026 A 
ATOM      8  N   UNK d   1       9.721   9.899  14.415  0.00  0.00    -0.321 N 
ATOM      9  C   UNK d   1       8.307   9.858  14.509  0.00  0.00     0.242 A 
ATOM     10  O   UNK d   1       7.639  10.525  15.352  0.00  0.00    -0.271 OA
ATOM     11  C   UNK d   1       7.777   8.931  13.486  0.00  0.00     0.111 A 
ATOM     12  C   UNK d   1       6.900   9.753  12.565  0.00  0.00     0.132 C 
ATOM     13  C   UNK d   1       5.681  10.083  13.379  0.00  0.00     0.225 C 
ATOM     14  O   UNK d   1       5.266  11.245  13.544  0.00  0.00    -0.273 OA
ATOM     15  N   UNK d   1       5.000   8.973  13.974  0.00  0.00    -0.311 N 
ATOM     16  C   UNK d   1       5.735   7.808  14.325  0.00  0.00     0.133 A 
ATOM     17  N   UNK d   1       5.377   6.620  14.883  0.00  0.00    -0.262 N 
ATOM     18  N   UNK d   1       6.452   5.877  14.989  0.00  0.00    -0.185 NA
ATOM     19  C   UNK d   1       7.532   6.521  14.520  0.00  0.00     0.151 A 
ATOM     20  C   UNK d   1       7.085   7.776  14.086  0.00  0.00     0.030 A 
ATOM     21  C   UNK d   1      10.649  10.685  15.234  0.00  0.00     0.159 C 
ATOM     22  H   UNK d   1       3.972   9.005  14.154  0.00  0.00     0.170 HD
ATOM     23  H   UNK d   1       4.393   6.395  15.160  0.00  0.00     0.191 HD
ENDROOT
TORSDOF 0
ENDMDL
