MODEL 1
REMARK VINA RESULT:    -9.143      0.000      0.000
REMARK INTER + INTRA:         -10.139
REMARK INTER:                 -10.212
REMARK INTRA:                   0.072
REMARK UNBOUND:                 0.072
REMARK  2 active torsions:
REMARK  status: ('A' for Active; 'I' for Inactive)
REMARK    1  A    between atoms: N_15  and  C_20 
REMARK       I    between atoms: C_21  and  N_23 
REMARK    2  A    between atoms: N_26  and  C_29 
ROOT
ATOM      1 Cl   UNK d   1      15.071   0.684   8.195  0.00  0.00    -0.084 Cl
ATOM      2  C   UNK d   1      14.075   1.713   9.231  0.00  0.00     0.035 A 
ATOM      3  C   UNK d   1      14.666   2.555  10.148  0.00  0.00     0.043 A 
ATOM      4  C   UNK d   1      13.898   3.345  10.940  0.00  0.00     0.060 A 
ATOM      5  C   UNK d   1      12.501   3.311  10.835  0.00  0.00     0.045 A 
ATOM      6  C   UNK d   1      11.933   2.464   9.914  0.00  0.00     0.032 A 
ATOM      7  C   UNK d   1      12.704   1.650   9.095  0.00  0.00     0.026 A 
ATOM      8  N   UNK d   1      11.689   4.138  11.662  0.00  0.00    -0.363 N 
ATOM      9  C   UNK d   1      12.244   5.380  12.177  0.00  0.00     0.108 C 
ATOM     10  N   UNK d   1      13.541   5.052  12.721  0.00  0.00    -0.330 N 
ATOM     11  C   UNK d   1      14.429   4.268  11.941  0.00  0.00     0.255 C 
ATOM     12  O   UNK d   1      15.680   4.322  12.061  0.00  0.00    -0.268 OA
ATOM     13  C   UNK d   1      11.346   5.889  13.254  0.00  0.00     0.074 C 
ATOM     14  C   UNK d   1      10.214   6.746  12.737  0.00  0.00     0.130 C 
ATOM     15  N   UNK d   1       9.538   6.133  11.613  0.00  0.00    -0.344 N 
ATOM     16  C   UNK d   1      10.205   5.826  10.363  0.00  0.00     0.220 C 
ATOM     17  O   UNK d   1       9.523   5.170   9.542  0.00  0.00    -0.273 OA
ATOM     18  C   UNK d   1      11.563   6.164   9.906  0.00  0.00     0.107 C 
ATOM     19  C   UNK d   1      12.494   6.376  11.062  0.00  0.00     0.063 C 
ATOM     20  H   UNK d   1      10.722   3.805  11.859  0.00  0.00     0.162 HD
ATOM     21  H   UNK d   1      13.860   5.362  13.660  0.00  0.00     0.165 HD
ENDROOT
BRANCH  15  22
ATOM     22  C   UNK d   1       8.180   5.777  11.687  0.00  0.00     0.212 C 
ATOM     23  C   UNK d   1       7.125   6.763  11.748  0.00  0.00     0.171 C 
ATOM     24  O   UNK d   1       5.926   6.180  11.779  0.00  0.00    -0.175 OA
ATOM     25  N   UNK d   1       7.171   8.138  11.782  0.00  0.00    -0.359 N 
ATOM     26  C   UNK d   1       5.891   8.889  11.843  0.00  0.00     0.144 C 
ATOM     27  C   UNK d   1       8.319   8.957  11.786  0.00  0.00     0.144 C 
ATOM     28  C   UNK d   1       6.137   9.957  12.920  0.00  0.00     0.137 C 
ATOM     29  N   UNK d   1       7.200   9.582  13.792  0.00  0.00    -0.406 N 
ATOM     30  C   UNK d   1       8.508   9.558  13.208  0.00  0.00     0.137 C 
BRANCH  29  31
ATOM     31  C   UNK d   1       7.145  10.110  15.112  0.00  0.00     0.071 C 
ATOM     32  C   UNK d   1       5.754  10.107  15.714  0.00  0.00     0.031 C 
ATOM     33  C   UNK d   1       8.097   9.444  16.068  0.00  0.00     0.031 C 
ENDBRANCH  29  31
ENDBRANCH  15  22
TORSDOF 2
ENDMDL
