MODEL 1
REMARK VINA RESULT:    -9.350      0.000      0.000
REMARK INTER + INTRA:         -12.417
REMARK INTER:                 -12.083
REMARK INTRA:                  -0.333
REMARK UNBOUND:                -0.333
REMARK  5 active torsions:
REMARK  status: ('A' for Active; 'I' for Inactive)
REMARK    1  A    between atoms: C_5  and  N_8 
REMARK    2  A    between atoms: N_15  and  C_18 
REMARK    3  A    between atoms: C_18  and  C_19 
REMARK       I    between atoms: C_19  and  N_21 
REMARK       I    between atoms: N_24  and  C_27 
REMARK    4  A    between atoms: C_27  and  O_29 
REMARK    5  A    between atoms: O_29  and  C_30 
ROOT
ATOM      1  N   UNK d   1      11.918   1.670  10.107  0.00  0.00    -0.215 N 
ATOM      2  N   UNK d   1      13.163   1.653  10.500  0.00  0.00    -0.177 NA
ATOM      3  C   UNK d   1      13.501   2.750  11.187  0.00  0.00     0.160 A 
ATOM      4  C   UNK d   1      12.368   3.550  11.243  0.00  0.00     0.099 A 
ATOM      5  C   UNK d   1      11.395   2.836  10.551  0.00  0.00     0.169 A 
ATOM      6  N   UNK d   1      10.193   3.411  10.459  0.00  0.00    -0.223 NA
ATOM      7  C   UNK d   1       9.940   4.619  11.009  0.00  0.00     0.215 A 
ATOM      8  N   UNK d   1      10.858   5.331  11.681  0.00  0.00    -0.299 N 
ATOM      9  C   UNK d   1      12.094   4.779  11.795  0.00  0.00     0.264 A 
ATOM     10  O   UNK d   1      12.986   5.410  12.415  0.00  0.00    -0.267 OA
ENDROOT
BRANCH   8  11
ATOM     11  C   UNK d   1      10.584   6.636  12.292  0.00  0.00     0.236 C 
BRANCH  11  12
ATOM     12  C   UNK d   1       9.328   7.226  11.797  0.00  0.00     0.238 C 
ATOM     13  O   UNK d   1       9.430   7.832  10.673  0.00  0.00    -0.272 OA
ATOM     14  N   UNK d   1       8.081   7.188  12.416  0.00  0.00    -0.348 N 
ATOM     15  C   UNK d   1       6.922   7.880  11.831  0.00  0.00     0.145 C 
ATOM     16  C   UNK d   1       7.825   6.456  13.636  0.00  0.00     0.145 C 
ATOM     17  C   UNK d   1       6.582   8.972  12.854  0.00  0.00     0.148 C 
ATOM     18  N   UNK d   1       6.440   8.401  14.167  0.00  0.00    -0.325 N 
ATOM     19  C   UNK d   1       6.563   6.960  14.287  0.00  0.00     0.148 C 
ATOM     20  C   UNK d   1       6.217   9.211  15.302  0.00  0.00     0.362 C 
ATOM     21  O   UNK d   1       6.178  10.485  15.122  0.00  0.00    -0.238 OA
BRANCH  20  22
ATOM     22  O   UNK d   1       6.032   8.771  16.593  0.00  0.00    -0.304 OA
BRANCH  22  23
ATOM     23  C   UNK d   1       5.256   9.541  17.532  0.00  0.00     0.176 C 
ATOM     24  C   UNK d   1       3.842   8.994  17.461  0.00  0.00     0.034 C 
ENDBRANCH  22  23
ENDBRANCH  20  22
ENDBRANCH  11  12
ENDBRANCH   8  11
BRANCH   1  25
ATOM     25  C   UNK d   1      11.232   0.666   9.377  0.00  0.00     0.060 A 
ATOM     26  C   UNK d   1      11.804  -0.172   8.455  0.00  0.00     0.033 A 
ATOM     27  C   UNK d   1      11.033  -1.095   7.776  0.00  0.00     0.026 A 
ATOM     28  C   UNK d   1       9.678  -1.234   7.973  0.00  0.00     0.034 A 
ATOM     29 Cl   UNK d   1       8.688  -2.381   7.130  0.00  0.00    -0.084 Cl
ATOM     30  C   UNK d   1       9.082  -0.398   8.899  0.00  0.00     0.026 A 
ATOM     31  C   UNK d   1       9.868   0.517   9.566  0.00  0.00     0.033 A 
ENDBRANCH   1  25
TORSDOF 5
ENDMDL
