MODEL 1
REMARK VINA RESULT:    -8.480      0.000      0.000
REMARK INTER + INTRA:         -13.147
REMARK INTER:                 -11.951
REMARK INTRA:                  -1.196
REMARK UNBOUND:                -1.196
REMARK  7 active torsions:
REMARK  status: ('A' for Active; 'I' for Inactive)
REMARK    1  A    between atoms: C_5  and  C_8 
REMARK    2  A    between atoms: C_8  and  C_10 
REMARK    3  A    between atoms: N_12  and  C_17 
REMARK    4  A    between atoms: C_17  and  C_18 
REMARK    5  A    between atoms: C_18  and  N_19 
REMARK    6  A    between atoms: C_27  and  O_32 
REMARK    7  A    between atoms: O_32  and  C_33 
ROOT
ATOM      1  C   UNK d   1      11.975   5.602  10.463  0.00  0.00     0.167 C 
ATOM      2  C   UNK d   1      12.428   6.655  11.438  0.00  0.00     0.140 C 
ATOM      3  N   UNK d   1      11.298   7.082  12.135  0.00  0.00    -0.334 N 
ATOM      4  C   UNK d   1      10.277   7.121  11.060  0.00  0.00     0.291 C 
ATOM      5  O   UNK d   1       9.307   7.920  10.961  0.00  0.00    -0.264 OA
ATOM      6  C   UNK d   1      10.605   6.051  10.131  0.00  0.00     0.230 C 
ATOM      7  O   UNK d   1       9.847   5.608   9.222  0.00  0.00    -0.286 OA
ATOM      8  C   UNK d   1      13.756   6.490  11.972  0.00  0.00    -0.031 A 
ATOM      9  C   UNK d   1      14.059   6.099  13.239  0.00  0.00     0.049 A 
ATOM     10  C   UNK d   1      15.374   5.950  13.650  0.00  0.00     0.105 A 
ATOM     11  C   UNK d   1      16.409   6.212  12.740  0.00  0.00     0.140 A 
ATOM     12  C   UNK d   1      16.103   6.605  11.468  0.00  0.00     0.043 A 
ATOM     13  C   UNK d   1      14.812   6.749  11.065  0.00  0.00     0.012 A 
ATOM     14  O   UNK d   1      17.736   6.081  13.098  0.00  0.00    -0.189 OA
ENDROOT
BRANCH   1  15
ATOM     15  C   UNK d   1      11.973   4.236  10.987  0.00  0.00     0.173 C 
ATOM     16  O   UNK d   1      11.818   4.044  12.243  0.00  0.00    -0.291 OA
BRANCH  15  17
ATOM     17  C   UNK d   1      12.133   3.020  10.203  0.00  0.00     0.011 A 
ATOM     18  C   UNK d   1      13.362   2.609   9.737  0.00  0.00     0.016 A 
ATOM     19  C   UNK d   1      13.422   1.452   8.968  0.00  0.00     0.020 A 
ATOM     20  C   UNK d   1      12.325   0.696   8.648  0.00  0.00     0.011 A 
ATOM     21 Br   UNK d   1      12.485  -0.899   7.576  0.00  0.00    -0.051 Br
ATOM     22  C   UNK d   1      11.092   1.103   9.112  0.00  0.00     0.020 A 
ATOM     23  C   UNK d   1      11.031   2.247   9.872  0.00  0.00     0.016 A 
ENDBRANCH  15  17
ENDBRANCH   1  15
BRANCH   3  24
ATOM     24  C   UNK d   1      10.881   7.573  13.411  0.00  0.00     0.154 C 
BRANCH  24  25
ATOM     25  C   UNK d   1       9.669   6.968  14.010  0.00  0.00     0.255 C 
BRANCH  25  26
ATOM     26  N   UNK d   1       8.399   7.543  13.880  0.00  0.00    -0.066 N 
ATOM     27  C   UNK d   1       7.354   6.559  13.568  0.00  0.00     0.261 C 
ATOM     28  C   UNK d   1       7.162   5.556  14.656  0.00  0.00     0.195 C 
ATOM     29  O   UNK d   1       7.891   5.924  15.763  0.00  0.00    -0.388 OA
ATOM     30  C   UNK d   1       7.503   7.227  16.116  0.00  0.00     0.195 C 
ATOM     31  C   UNK d   1       8.038   8.241  15.127  0.00  0.00     0.261 C 
ATOM     32  H   UNK d   1       8.357   8.247  13.147  0.00  0.00     0.280 HD
ENDBRANCH  25  26
ENDBRANCH  24  25
ENDBRANCH   3  24
BRANCH  10  33
ATOM     33  O   UNK d   1      15.709   5.559  14.907  0.00  0.00    -0.349 OA
BRANCH  33  34
ATOM     34  C   UNK d   1      15.647   6.381  16.026  0.00  0.00     0.171 C 
ATOM     35  C   UNK d   1      15.934   5.660  17.331  0.00  0.00     0.034 C 
ENDBRANCH  33  34
ENDBRANCH  10  33
TORSDOF 7
ENDMDL
