MODEL 1
REMARK VINA RESULT:    -8.895      0.000      0.000
REMARK INTER + INTRA:         -11.638
REMARK INTER:                 -11.495
REMARK INTRA:                  -0.143
REMARK UNBOUND:                -0.143
REMARK  5 active torsions:
REMARK  status: ('A' for Active; 'I' for Inactive)
REMARK    1  A    between atoms: N_7  and  C_11 
REMARK    2  A    between atoms: C_11  and  C_12 
REMARK    3  A    between atoms: C_12  and  N_13 
REMARK    4  A    between atoms: C_21  and  C_23 
REMARK    5  A    between atoms: C_23  and  O_25 
ROOT
ATOM      1  N   UNK d   1      11.718   2.736  10.363  0.00  0.00    -0.363 N 
ATOM      2  C   UNK d   1      12.946   2.578   9.821  0.00  0.00     0.110 A 
ATOM      3  C   UNK d   1      13.248   1.528   8.982  0.00  0.00     0.080 A 
ATOM      4  C   UNK d   1      12.218   0.548   8.659  0.00  0.00     0.111 A 
ATOM      5  N   UNK d   1      12.792  -0.342   7.836  0.00  0.00    -0.170 NA
ATOM      6  N   UNK d   1      14.074  -0.013   7.614  0.00  0.00    -0.242 N 
ATOM      7  C   UNK d   1      14.366   1.108   8.294  0.00  0.00     0.275 A 
ATOM      8  O   UNK d   1      15.488   1.661   8.286  0.00  0.00    -0.266 OA
ATOM      9  C   UNK d   1      10.972   0.740   9.232  0.00  0.00     0.086 A 
ATOM     10  C   UNK d   1      10.790   1.820  10.050  0.00  0.00     0.110 A 
ATOM     11  H   UNK d   1      14.703  -0.584   6.994  0.00  0.00     0.192 HD
ENDROOT
BRANCH   1  12
ATOM     12  C   UNK d   1      11.433   3.860  11.248  0.00  0.00     0.148 C 
BRANCH  12  13
ATOM     13  C   UNK d   1      10.044   4.366  10.926  0.00  0.00     0.150 C 
BRANCH  13  14
ATOM     14  N   UNK d   1       9.889   5.764  11.266  0.00  0.00    -0.338 N 
ATOM     15  C   UNK d   1      10.881   6.679  11.307  0.00  0.00     0.210 A 
ATOM     16  N   UNK d   1      10.387   7.880  11.657  0.00  0.00    -0.242 NA
ATOM     17  C   UNK d   1       9.045   7.766  11.854  0.00  0.00     0.086 A 
ATOM     18  C   UNK d   1       8.063   8.665  12.218  0.00  0.00     0.057 A 
ATOM     19  C   UNK d   1       8.773   6.436  11.600  0.00  0.00     0.064 A 
ATOM     20  C   UNK d   1       6.758   8.237  12.336  0.00  0.00     0.036 A 
ATOM     21 Cl   UNK d   1       5.452   9.329  12.797  0.00  0.00    -0.084 Cl
ATOM     22  C   UNK d   1       6.499   6.904  12.081  0.00  0.00     0.026 A 
ATOM     23  C   UNK d   1       7.475   5.999  11.717  0.00  0.00     0.034 A 
ENDBRANCH  13  14
ENDBRANCH  12  13
ENDBRANCH   1  12
BRANCH   9  24
ATOM     24  C   UNK d   1       9.917  -0.221   8.932  0.00  0.00     0.296 C 
ATOM     25  O   UNK d   1       8.764  -0.026   9.394  0.00  0.00    -0.259 OA
BRANCH  24  26
ATOM     26  O   UNK d   1      10.149  -1.330   8.161  0.00  0.00    -0.322 OA
ATOM     27  C   UNK d   1       9.122  -1.921   7.381  0.00  0.00     0.213 C 
ENDBRANCH  24  26
ENDBRANCH   9  24
TORSDOF 5
ENDMDL
