/Users/jonathanwahrer/Desktop/Msc/3_Semester/Drug_Design_Praktikum/waehrer_HTS_screening/HTS_experiment/out/docking_results/vina_output/2jam/1687_docked.pdbqt
 OpenBabel03162218353D

 27 30  0  0  0  0  0  0  0  0999 V2000
   11.7180    2.7360   10.3630 N   0  0  0  0  0  0  0  0  0  0  0  0
   12.9460    2.5780    9.8210 C   0  0  0  0  0  2  0  0  0  0  0  0
   13.2480    1.5280    8.9820 C   0  0  0  0  0  0  0  0  0  0  0  0
   12.2180    0.5480    8.6590 C   0  0  0  0  0  0  0  0  0  0  0  0
   12.7920   -0.3420    7.8360 N   0  0  0  0  0  2  0  0  0  0  0  0
   14.0740   -0.0130    7.6140 N   0  0  0  0  0  0  0  0  0  0  0  0
   14.3660    1.1080    8.2940 C   0  0  0  0  0  0  0  0  0  0  0  0
   15.4880    1.6610    8.2860 O   0  0  0  0  0  0  0  0  0  0  0  0
   10.9720    0.7400    9.2320 C   0  0  0  0  0  0  0  0  0  0  0  0
   10.7900    1.8200   10.0500 C   0  0  0  0  0  3  0  0  0  0  0  0
   14.7030   -0.5840    6.9940 H   0  0  0  0  0  0  0  0  0  0  0  0
   11.4330    3.8600   11.2480 C   0  0  0  0  0  2  0  0  0  0  0  0
   10.0440    4.3660   10.9260 C   0  0  0  0  0  2  0  0  0  0  0  0
    9.8890    5.7640   11.2660 N   0  0  0  0  0  0  0  0  0  0  0  0
   10.8810    6.6790   11.3070 C   0  0  0  0  0  3  0  0  0  0  0  0
   10.3870    7.8800   11.6570 N   0  0  0  0  0  0  0  0  0  0  0  0
    9.0450    7.7660   11.8540 C   0  0  0  0  0  0  0  0  0  0  0  0
    8.0630    8.6650   12.2180 C   0  0  0  0  0  3  0  0  0  0  0  0
    8.7730    6.4360   11.6000 C   0  0  0  0  0  0  0  0  0  0  0  0
    6.7580    8.2370   12.3360 C   0  0  0  0  0  0  0  0  0  0  0  0
    5.4520    9.3290   12.7970 Cl  0  0  0  0  0  0  0  0  0  0  0  0
    6.4990    6.9040   12.0810 C   0  0  0  0  0  3  0  0  0  0  0  0
    7.4750    5.9990   11.7170 C   0  0  0  0  0  3  0  0  0  0  0  0
    9.9170   -0.2210    8.9320 C   0  0  0  0  0  0  0  0  0  0  0  0
    8.7640   -0.0260    9.3940 O   0  0  0  0  0  0  0  0  0  0  0  0
   10.1490   -1.3300    8.1610 O   0  0  0  0  0  0  0  0  0  0  0  0
    9.1220   -1.9210    7.3810 C   0  0  0  0  0  1  0  0  0  0  0  0
  1 12  1  0  0  0  0
  2  1  1  0  0  0  0
  3  2  1  0  0  0  0
  4  3  2  0  0  0  0
  4  9  1  0  0  0  0
  5  4  1  0  0  0  0
  6  5  1  0  0  0  0
  6  7  1  0  0  0  0
  7  3  1  0  0  0  0
  8  7  2  0  0  0  0
  9 10  2  0  0  0  0
 10  1  1  0  0  0  0
 11  6  1  0  0  0  0
 13 12  1  0  0  0  0
 13 14  1  0  0  0  0
 14 15  1  0  0  0  0
 14 19  1  0  0  0  0
 15 16  2  0  0  0  0
 16 17  1  0  0  0  0
 17 18  1  0  0  0  0
 18 20  2  0  0  0  0
 19 23  1  0  0  0  0
 19 17  2  0  0  0  0
 20 21  1  0  0  0  0
 22 20  1  0  0  0  0
 23 22  2  0  0  0  0
 24  9  1  0  0  0  0
 24 25  2  0  0  0  0
 26 24  1  0  0  0  0
 27 26  1  0  0  0  0
M  END
>  <Pose>
1

>  <Score>
-8.895

$$$$
