MODEL 1
REMARK VINA RESULT:    -8.803      0.000      0.000
REMARK INTER + INTRA:         -12.115
REMARK INTER:                 -11.118
REMARK INTRA:                  -0.997
REMARK UNBOUND:                -0.997
REMARK  5 active torsions:
REMARK  status: ('A' for Active; 'I' for Inactive)
REMARK    1  A    between atoms: C_6  and  C_11 
REMARK    2  A    between atoms: C_11  and  C_12 
REMARK    3  A    between atoms: C_12  and  C_13 
REMARK       I    between atoms: C_13  and  N_15 
REMARK    4  A    between atoms: C_17  and  N_21 
REMARK    5  A    between atoms: C_18  and  O_20 
ROOT
ATOM      1  C   UNK d   1      14.923   5.173  12.023  0.00  0.00     0.220 C 
ATOM      2  O   UNK d   1      15.944   5.672  12.556  0.00  0.00    -0.273 OA
ATOM      3  N   UNK d   1      13.984   6.041  11.427  0.00  0.00    -0.348 N 
ATOM      4  C   UNK d   1      12.731   5.762  10.757  0.00  0.00     0.154 C 
ATOM      5  C   UNK d   1      11.852   6.837  11.219  0.00  0.00     0.142 C 
ATOM      6  C   UNK d   1      12.732   7.872  11.922  0.00  0.00     0.161 C 
ATOM      7  C   UNK d   1      14.116   7.474  11.367  0.00  0.00     0.159 C 
ENDROOT
BRANCH   1   8
ATOM      8  C   UNK d   1      14.764   3.704  12.054  0.00  0.00     0.110 C 
BRANCH   8   9
ATOM      9  C   UNK d   1      15.328   3.091  10.808  0.00  0.00     0.087 C 
BRANCH   9  10
ATOM     10  C   UNK d   1      14.329   2.249  10.122  0.00  0.00     0.105 A 
ATOM     11  N   UNK d   1      13.029   2.098  10.498  0.00  0.00    -0.343 N 
ATOM     12  C   UNK d   1      12.380   1.257   9.677  0.00  0.00     0.064 A 
ATOM     13  H   UNK d   1      12.545   2.553  11.311  0.00  0.00     0.167 HD
ATOM     14  C   UNK d   1      11.086   0.770   9.606  0.00  0.00     0.055 A 
ATOM     15  C   UNK d   1      13.298   0.854   8.738  0.00  0.00     0.085 A 
ATOM     16  C   UNK d   1      10.714  -0.114   8.603  0.00  0.00     0.036 A 
ATOM     17 Cl   UNK d   1       9.077  -0.719   8.533  0.00  0.00    -0.084 Cl
ATOM     18  C   UNK d   1      11.631  -0.522   7.658  0.00  0.00     0.026 A 
ATOM     19  C   UNK d   1      12.924  -0.024   7.744  0.00  0.00     0.036 A 
ATOM     20  N   UNK d   1      14.458   1.459   9.023  0.00  0.00    -0.233 NA
ENDBRANCH   9  10
ENDBRANCH   8   9
ENDBRANCH   1   8
BRANCH   5  21
ATOM     21  N   UNK d   1      10.679   6.570  11.957  0.00  0.00    -0.300 N 
ATOM     22  C   UNK d   1      10.723   6.779  13.301  0.00  0.00     0.108 A 
ATOM     23  C   UNK d   1       9.631   6.550  14.108  0.00  0.00     0.022 A 
ATOM     24  C   UNK d   1       8.451   6.099  13.565  0.00  0.00     0.256 A 
ATOM     25  C   UNK d   1       9.694   6.787  15.587  0.00  0.00     0.056 C 
ATOM     26  O   UNK d   1       7.430   5.881  14.285  0.00  0.00    -0.267 OA
ATOM     27  N   UNK d   1       8.408   5.893  12.240  0.00  0.00    -0.275 N 
ATOM     28  C   UNK d   1       9.498   6.132  11.508  0.00  0.00     0.329 A 
ATOM     29  H   UNK d   1       7.505   5.541  11.794  0.00  0.00     0.173 HD
ATOM     30  O   UNK d   1       9.401   5.926  10.281  0.00  0.00    -0.246 OA
ENDBRANCH   5  21
BRANCH   6  31
ATOM     31  O   UNK d   1      12.422   9.165  11.581  0.00  0.00    -0.392 OA
ATOM     32  H   UNK d   1      12.594   9.280  10.613  0.00  0.00     0.210 HD
ENDBRANCH   6  31
TORSDOF 5
ENDMDL
