MODEL 1
REMARK VINA RESULT:    -9.929      0.000      0.000
REMARK INTER + INTRA:         -13.243
REMARK INTER:                 -12.541
REMARK INTRA:                  -0.702
REMARK UNBOUND:                -0.702
REMARK  5 active torsions:
REMARK  status: ('A' for Active; 'I' for Inactive)
REMARK    1  A    between atoms: C_6  and  C_11 
REMARK    2  A    between atoms: C_11  and  C_12 
REMARK    3  A    between atoms: C_12  and  C_13 
REMARK       I    between atoms: C_13  and  N_15 
REMARK    4  A    between atoms: C_17  and  O_30 
REMARK    5  A    between atoms: C_18  and  N_21 
ROOT
ATOM      1  C   UNK d   1      10.769   5.138  11.379  0.00  0.00     0.220 C 
ATOM      2  O   UNK d   1      10.529   5.043  10.148  0.00  0.00    -0.273 OA
ATOM      3  N   UNK d   1      10.450   6.329  12.098  0.00  0.00    -0.349 N 
ATOM      4  C   UNK d   1      10.698   6.509  13.511  0.00  0.00     0.165 C 
ATOM      5  C   UNK d   1       9.561   7.322  14.154  0.00  0.00     0.091 C 
ATOM      6  C   UNK d   1       8.351   7.088  13.315  0.00  0.00     0.131 C 
ATOM      7  C   UNK d   1       8.510   7.814  11.998  0.00  0.00     0.049 C 
ATOM      8  C   UNK d   1       9.842   7.432  11.385  0.00  0.00     0.128 C 
ATOM      9  C   UNK d   1      10.028   8.741  14.226  0.00  0.00     0.050 C 
ENDROOT
BRANCH   1  10
ATOM     10  C   UNK d   1      11.389   4.021  12.112  0.00  0.00     0.110 C 
BRANCH  10  11
ATOM     11  C   UNK d   1      12.617   3.561  11.381  0.00  0.00     0.087 C 
BRANCH  11  12
ATOM     12  C   UNK d   1      12.245   2.454  10.467  0.00  0.00     0.105 A 
ATOM     13  N   UNK d   1      11.017   1.869  10.417  0.00  0.00    -0.343 N 
ATOM     14  C   UNK d   1      10.997   0.893   9.501  0.00  0.00     0.064 A 
ATOM     15  H   UNK d   1      10.212   2.170  11.032  0.00  0.00     0.167 HD
ATOM     16  C   UNK d   1      10.027   0.019   9.072  0.00  0.00     0.055 A 
ATOM     17  C   UNK d   1      12.255   0.857   8.951  0.00  0.00     0.085 A 
ATOM     18  C   UNK d   1      10.271  -0.919   8.084  0.00  0.00     0.036 A 
ATOM     19 Cl   UNK d   1       9.044  -2.035   7.530  0.00  0.00    -0.084 Cl
ATOM     20  C   UNK d   1      11.540  -0.950   7.535  0.00  0.00     0.026 A 
ATOM     21  C   UNK d   1      12.523  -0.068   7.966  0.00  0.00     0.036 A 
ATOM     22  N   UNK d   1      12.966   1.809   9.562  0.00  0.00    -0.233 NA
ENDBRANCH  11  12
ENDBRANCH  10  11
ENDBRANCH   1  10
BRANCH   5  23
ATOM     23  O   UNK d   1       9.424   6.799  15.448  0.00  0.00    -0.386 OA
ATOM     24  H   UNK d   1      10.343   6.615  15.824  0.00  0.00     0.210 HD
ENDBRANCH   5  23
BRANCH   6  25
ATOM     25  N   UNK d   1       7.099   7.324  13.943  0.00  0.00    -0.301 N 
ATOM     26  C   UNK d   1       6.458   8.501  13.907  0.00  0.00     0.108 A 
ATOM     27  C   UNK d   1       5.233   8.695  14.534  0.00  0.00     0.022 A 
ATOM     28  C   UNK d   1       4.658   7.648  15.214  0.00  0.00     0.256 A 
ATOM     29  C   UNK d   1       4.561  10.038  14.457  0.00  0.00     0.056 C 
ATOM     30  O   UNK d   1       3.538   7.820  15.789  0.00  0.00    -0.267 OA
ATOM     31  N   UNK d   1       5.302   6.472  15.250  0.00  0.00    -0.275 N 
ATOM     32  C   UNK d   1       6.484   6.335  14.626  0.00  0.00     0.329 A 
ATOM     33  H   UNK d   1       4.876   5.671  15.761  0.00  0.00     0.173 HD
ATOM     34  O   UNK d   1       7.096   5.210  14.663  0.00  0.00    -0.246 OA
ENDBRANCH   6  25
TORSDOF 5
ENDMDL
