/Users/jonathanwahrer/Desktop/Msc/3_Semester/Drug_Design_Praktikum/waehrer_HTS_screening/HTS_experiment/out/docking_results/vina_output/2jam/1691_docked.pdbqt
 OpenBabel03162218363D

 35 39  0  0  1  0  0  0  0  0999 V2000
   10.7970    5.9910   12.3960 C   0  0  0  0  0  0  0  0  0  0  0  0
   11.5490    6.8300   12.9260 O   0  0  0  0  0  0  0  0  0  0  0  0
    9.4990    6.3560   12.0020 N   0  0  0  0  0  0  0  0  0  0  0  0
    8.7900    7.5930   12.0960 C   0  0  0  0  0  2  0  0  0  0  0  0
    7.3570    7.1850   12.5150 C   0  0  1  0  0  3  0  0  0  0  0  0
    7.2390    5.8950   11.7840 C   0  0  2  0  0  3  0  0  0  0  0  0
    8.5890    5.4370   11.3470 C   0  0  0  0  0  2  0  0  0  0  0  0
   11.2800    4.6180   12.1880 C   0  0  0  0  0  2  0  0  0  0  0  0
   12.2210    4.5610   11.0050 C   0  0  0  0  0  2  0  0  0  0  0  0
   12.0120    3.2660   10.2780 C   0  0  0  0  0  0  0  0  0  0  0  0
   10.8410    2.6090   10.2100 N   0  0  0  0  0  0  0  0  0  0  0  0
   10.9640    1.4820    9.4900 C   0  0  0  0  0  0  0  0  0  0  0  0
    9.9300    2.9100   10.6500 H   0  0  0  0  0  0  0  0  0  0  0  0
   10.0700    0.4720    9.1300 C   0  0  0  0  0  3  0  0  0  0  0  0
   12.2810    1.4320    9.0880 C   0  0  0  0  0  0  0  0  0  0  0  0
   10.5020   -0.5860    8.3650 C   0  0  0  0  0  0  0  0  0  0  0  0
    9.4150   -1.8840    7.8840 Cl  0  0  0  0  0  0  0  0  0  0  0  0
   11.8090   -0.6310    7.9670 C   0  0  0  0  0  3  0  0  0  0  0  0
   12.7130    0.3710    8.3200 C   0  0  0  0  0  3  0  0  0  0  0  0
   12.8830    2.5320    9.5850 N   0  0  0  0  0  0  0  0  0  0  0  0
    7.3140    7.0650   13.9450 N   0  0  0  0  0  0  0  0  0  0  0  0
    6.8230    7.9420   14.8360 C   0  0  0  0  0  0  0  0  0  0  0  0
    6.9890    7.4090   16.1300 C   0  0  0  0  0  0  0  0  0  0  0  0
    6.2440    9.1510   14.6890 N   0  0  0  0  0  0  0  0  0  0  0  0
    7.5840    6.2160   15.9660 N   0  0  0  0  0  0  0  0  0  0  0  0
    6.5730    8.1000   17.2460 C   0  0  0  0  0  0  0  0  0  0  0  0
    7.7840    5.9950   14.6690 C   0  0  0  0  0  3  0  0  0  0  0  0
    6.7350    7.5980   18.3900 O   0  0  0  0  0  0  0  0  0  0  0  0
    6.0030    9.2960   17.0590 N   0  0  0  0  0  0  0  0  0  0  0  0
    5.8490    9.7930   15.8310 C   0  0  0  0  0  0  0  0  0  0  0  0
    5.5490   10.0550   18.2270 C   0  0  0  0  0  1  0  0  0  0  0  0
    5.3110   10.9200   15.6720 O   0  0  0  0  0  0  0  0  0  0  0  0
    6.0490    9.7440   13.4050 C   0  0  0  0  0  1  0  0  0  0  0  0
    6.4490    5.9800   10.6380 O   0  0  0  0  0  0  0  0  0  0  0  0
    6.9950    6.1980    9.8310 H   0  0  0  0  0  0  0  0  0  0  0  0
  1  2  2  0  0  0  0
  3  4  1  0  0  0  0
  3  1  1  0  0  0  0
  5  4  1  1  0  0  0
  5 21  1  0  0  0  0
  6 34  1  6  0  0  0
  6  5  1  0  0  0  0
  7  6  1  0  0  0  0
  7  3  1  0  0  0  0
  8  1  1  0  0  0  0
  9  8  1  0  0  0  0
 10  9  1  0  0  0  0
 11 10  1  0  0  0  0
 11 13  1  0  0  0  0
 12 11  1  0  0  0  0
 14 12  1  0  0  0  0
 15 12  2  0  0  0  0
 15 20  1  0  0  0  0
 16 14  2  0  0  0  0
 17 16  1  0  0  0  0
 18 19  2  0  0  0  0
 18 16  1  0  0  0  0
 19 15  1  0  0  0  0
 20 10  2  0  0  0  0
 21 27  1  0  0  0  0
 21 22  1  0  0  0  0
 22 23  2  0  0  0  0
 23 26  1  0  0  0  0
 24 22  1  0  0  0  0
 24 30  1  0  0  0  0
 25 23  1  0  0  0  0
 26 28  2  0  0  0  0
 27 25  2  0  0  0  0
 29 26  1  0  0  0  0
 29 31  1  0  0  0  0
 30 29  1  0  0  0  0
 32 30  2  0  0  0  0
 33 24  1  0  0  0  0
 35 34  1  0  0  0  0
M  END
>  <Pose>
1

>  <Score>
-10.108

$$$$
