MODEL 1
REMARK VINA RESULT:    -8.078      0.000      0.000
REMARK INTER + INTRA:          -8.078
REMARK INTER:                  -8.078
REMARK INTRA:                   0.000
REMARK UNBOUND:                 0.000
REMARK  0 active torsions:
REMARK  status: ('A' for Active; 'I' for Inactive)
ROOT
ATOM      1  F   UNK d   1      12.486  -1.407   9.051  0.00  0.00    -0.202 F 
ATOM      2  C   UNK d   1      11.730  -0.291   9.323  0.00  0.00     0.165 A 
ATOM      3  C   UNK d   1      12.378   0.860   9.788  0.00  0.00     0.086 A 
ATOM      4  C   UNK d   1      11.647   1.976  10.063  0.00  0.00     0.030 A 
ATOM      5  C   UNK d   1      10.257   1.973   9.883  0.00  0.00     0.016 A 
ATOM      6  C   UNK d   1       9.650   0.835   9.428  0.00  0.00     0.028 A 
ATOM      7  C   UNK d   1      10.368  -0.302   9.144  0.00  0.00     0.074 A 
ATOM      8 Cl   UNK d   1       9.577  -1.771   8.556  0.00  0.00    -0.081 Cl
ATOM      9  C   UNK d   1      12.570   3.043  10.534  0.00  0.00     0.222 A 
ATOM     10  N   UNK d   1      12.185   3.455  11.847  0.00  0.00    -0.336 N 
ATOM     11  C   UNK d   1      11.216   4.462  12.039  0.00  0.00     0.141 A 
ATOM     12  N   UNK d   1      10.593   4.644  13.233  0.00  0.00    -0.243 NA
ATOM     13  C   UNK d   1       9.669   5.582  13.468  0.00  0.00     0.119 A 
ATOM     14  C   UNK d   1       9.303   6.444  12.440  0.00  0.00     0.020 A 
ATOM     15  C   UNK d   1       9.882   6.327  11.208  0.00  0.00     0.022 A 
ATOM     16  C   UNK d   1      10.827   5.339  11.036  0.00  0.00     0.077 A 
ATOM     17  C   UNK d   1      11.506   5.131   9.754  0.00  0.00     0.258 C 
ATOM     18  O   UNK d   1      11.179   5.917   8.800  0.00  0.00    -0.267 OA
ATOM     19  N   UNK d   1      12.472   4.125   9.570  0.00  0.00    -0.318 N 
ATOM     20  C   UNK d   1      13.898   2.420  10.501  0.00  0.00     0.277 A 
ATOM     21  O   UNK d   1      15.018   2.963  10.826  0.00  0.00    -0.268 OA
ATOM     22  N   UNK d   1      13.768   1.098  10.046  0.00  0.00    -0.320 N 
ATOM     23  H   UNK d   1      12.612   3.021  12.702  0.00  0.00     0.164 HD
ATOM     24  H   UNK d   1      13.091   4.199   8.730  0.00  0.00     0.166 HD
ATOM     25  H   UNK d   1      14.513   0.367   9.900  0.00  0.00     0.169 HD
ENDROOT
TORSDOF 0
ENDMDL
