/Users/jonathanwahrer/Desktop/Msc/3_Semester/Drug_Design_Praktikum/waehrer_HTS_screening/HTS_experiment/out/docking_results/vina_output/2jam/1711_docked.pdbqt
 OpenBabel03162218373D

 30 33  0  0  0  0  0  0  0  0999 V2000
   10.3650    7.4950   13.1830 N   0  0  0  0  0  0  0  0  0  0  0  0
   10.0140    7.8470   11.8520 C   0  0  0  0  0  2  0  0  0  0  0  0
    9.9200    6.6620   10.9240 C   0  0  0  0  0  2  0  0  0  0  0  0
   10.8490    5.6170   11.2680 N   0  0  0  0  0  0  0  0  0  0  0  0
   10.9160    5.1540   12.6330 C   0  0  0  0  0  2  0  0  0  0  0  0
   10.1860    6.1270   13.5050 C   0  0  0  0  0  2  0  0  0  0  0  0
   11.7060    5.0210   10.3100 C   0  0  0  0  0  0  0  0  0  0  0  0
   11.6540    5.4160    9.1290 O   0  0  0  0  0  0  0  0  0  0  0  0
   12.6580    3.9470   10.6720 C   0  0  0  0  0  2  0  0  0  0  0  0
   12.3920    2.7470    9.9340 N   0  0  0  0  0  0  0  0  0  0  0  0
   13.2290    2.0250    9.0410 C   0  0  0  0  0  0  0  0  0  0  0  0
   14.4000    2.3560    8.7530 O   0  0  0  0  0  0  0  0  0  0  0  0
   12.4910    0.8730    8.5500 C   0  0  0  0  0  0  0  0  0  0  0  0
   11.2360    0.8710    9.1120 C   0  0  0  0  0  0  0  0  0  0  0  0
   12.8280   -0.1330    7.6800 C   0  0  0  0  0  3  0  0  0  0  0  0
   10.3450   -0.1430    8.7870 C   0  0  0  0  0  3  0  0  0  0  0  0
   11.1490    2.0360    9.9830 C   0  0  0  0  0  0  0  0  0  0  0  0
   10.6840   -1.1440    7.9190 C   0  0  0  0  0  3  0  0  0  0  0  0
   11.9530   -1.1540    7.3420 C   0  0  0  0  0  3  0  0  0  0  0  0
   10.1140    2.3100   10.6450 O   0  0  0  0  0  0  0  0  0  0  0  0
   11.6870    8.2850   13.8510 S   0  0  0  0  0  0  0  0  0  0  0  0
   11.4770    9.7860   13.7090 O   0  0  0  0  0  0  0  0  0  0  0  0
   11.6950    8.0290   15.3460 O   0  0  0  0  0  0  0  0  0  0  0  0
   13.2270    7.8230   13.2350 C   0  0  0  0  0  0  0  0  0  0  0  0
   13.4860    7.9240   11.8780 C   0  0  0  0  0  3  0  0  0  0  0  0
   14.7020    7.5680   11.3320 C   0  0  0  0  0  3  0  0  0  0  0  0
   15.6820    7.0980   12.1870 C   0  0  0  0  0  0  0  0  0  0  0  0
   15.4110    7.0020   13.5360 C   0  0  0  0  0  3  0  0  0  0  0  0
   17.4040    6.5840   11.4910 Br  0  0  0  0  0  0  0  0  0  0  0  0
   14.2000    7.3540   14.0950 C   0  0  0  0  0  3  0  0  0  0  0  0
  1  6  1  0  0  0  0
  1 21  1  0  0  0  0
  2  1  1  0  0  0  0
  3  4  1  0  0  0  0
  3  2  1  0  0  0  0
  4  5  1  0  0  0  0
  5  6  1  0  0  0  0
  7  9  1  0  0  0  0
  7  4  1  0  0  0  0
  8  7  2  0  0  0  0
 10 17  1  0  0  0  0
 10  9  1  0  0  0  0
 11 10  1  0  0  0  0
 12 11  2  0  0  0  0
 13 11  1  0  0  0  0
 13 14  1  0  0  0  0
 14 17  1  0  0  0  0
 15 13  2  0  0  0  0
 16 14  2  0  0  0  0
 17 20  2  0  0  0  0
 18 16  1  0  0  0  0
 19 15  1  0  0  0  0
 19 18  2  0  0  0  0
 21 23  2  0  0  0  0
 22 21  2  0  0  0  0
 24 21  1  0  0  0  0
 24 30  1  0  0  0  0
 25 24  2  0  0  0  0
 26 25  1  0  0  0  0
 26 27  2  0  0  0  0
 27 28  1  0  0  0  0
 28 30  2  0  0  0  0
 29 27  1  0  0  0  0
M  END
>  <Pose>
1

>  <Score>
-8.992

$$$$
