MODEL 1
REMARK VINA RESULT:    -9.479      0.000      0.000
REMARK INTER + INTRA:         -12.544
REMARK INTER:                 -11.695
REMARK INTRA:                  -0.849
REMARK UNBOUND:                -0.849
REMARK  4 active torsions:
REMARK  status: ('A' for Active; 'I' for Inactive)
REMARK    1  A    between atoms: C_10  and  C_24 
REMARK    2  A    between atoms: N_15  and  C_18 
REMARK    3  A    between atoms: C_18  and  C_19 
REMARK    4  A    between atoms: C_24  and  C_25 
REMARK       I    between atoms: C_25  and  N_27 
ROOT
ATOM      1 Cl   UNK d   1      10.994  -0.918   8.536  0.00  0.00    -0.082 Cl
ATOM      2  C   UNK d   1      12.300   0.245   8.568  0.00  0.00     0.061 A 
ATOM      3  C   UNK d   1      12.259   1.222   9.564  0.00  0.00     0.066 A 
ATOM      4  C   UNK d   1      13.269   2.156   9.622  0.00  0.00     0.019 A 
ATOM      5  C   UNK d   1      14.290   2.078   8.673  0.00  0.00     0.013 A 
ATOM      6  C   UNK d   1      14.321   1.110   7.692  0.00  0.00     0.002 A 
ATOM      7  C   UNK d   1      13.310   0.175   7.635  0.00  0.00     0.026 A 
ATOM      8  C   UNK d   1      13.050   3.090  10.726  0.00  0.00     0.279 A 
ATOM      9  N   UNK d   1      14.159   3.132  11.660  0.00  0.00     0.114 N 
ATOM     10  C   UNK d   1      14.034   4.412  12.344  0.00  0.00     0.245 C 
ATOM     11  C   UNK d   1      13.463   5.373  11.338  0.00  0.00     0.128 C 
ATOM     12  C   UNK d   1      12.843   4.515  10.263  0.00  0.00     0.147 C 
ATOM     13  C   UNK d   1      11.403   4.878  10.234  0.00  0.00     0.235 C 
ATOM     14  O   UNK d   1      10.574   4.238   9.528  0.00  0.00    -0.272 OA
ATOM     15  N   UNK d   1      11.177   5.989  11.085  0.00  0.00    -0.285 N 
ATOM     16  C   UNK d   1      12.290   6.079  11.961  0.00  0.00     0.233 C 
ATOM     17  O   UNK d   1      12.358   6.642  13.090  0.00  0.00    -0.272 OA
ATOM     18  C   UNK d   1      11.800   2.635  11.356  0.00  0.00     0.267 A 
ATOM     19  O   UNK d   1      11.210   3.145  12.377  0.00  0.00    -0.270 OA
ATOM     20  N   UNK d   1      11.355   1.507  10.623  0.00  0.00    -0.323 N 
ATOM     21  H   UNK d   1      15.081   3.045  11.177  0.00  0.00     0.318 HD
ATOM     22  H   UNK d   1      10.480   0.951  10.824  0.00  0.00     0.169 HD
ENDROOT
BRANCH  10  23
ATOM     23  C   UNK d   1      15.386   4.836  12.836  0.00  0.00     0.139 C 
BRANCH  23  24
ATOM     24  C   UNK d   1      16.204   5.183  11.630  0.00  0.00     0.217 C 
ATOM     25  O   UNK d   1      16.630   4.220  10.943  0.00  0.00    -0.274 OA
ATOM     26  N   UNK d   1      16.495   6.522  11.264  0.00  0.00    -0.370 N 
ATOM     27  H   UNK d   1      15.732   7.092  10.849  0.00  0.00     0.159 HD
ATOM     28  H   UNK d   1      17.425   6.970  11.384  0.00  0.00     0.159 HD
ENDBRANCH  23  24
ENDBRANCH  10  23
BRANCH  15  29
ATOM     29  C   UNK d   1      10.052   6.851  11.061  0.00  0.00     0.166 C 
BRANCH  29  30
ATOM     30  C   UNK d   1       8.827   6.388  11.746  0.00  0.00     0.140 C 
ATOM     31  O   UNK d   1       7.669   7.075  11.417  0.00  0.00    -0.384 OA
ATOM     32  C   UNK d   1       6.714   6.342  12.122  0.00  0.00     0.168 C 
ATOM     33  C   UNK d   1       7.333   6.127  13.509  0.00  0.00     0.029 C 
ATOM     34  C   UNK d   1       8.818   6.413  13.230  0.00  0.00     0.035 C 
ENDBRANCH  29  30
ENDBRANCH  15  29
TORSDOF 4
ENDMDL
