MODEL 1
REMARK VINA RESULT:    -8.732      0.000      0.000
REMARK INTER + INTRA:         -12.002
REMARK INTER:                 -11.539
REMARK INTRA:                  -0.463
REMARK UNBOUND:                -0.463
REMARK  6 active torsions:
REMARK  status: ('A' for Active; 'I' for Inactive)
REMARK    1  A    between atoms: C_3  and  O_10 
REMARK    2  A    between atoms: O_10  and  C_11 
REMARK    3  A    between atoms: C_11  and  C_12 
REMARK    4  A    between atoms: C_12  and  O_13 
REMARK    5  A    between atoms: C_12  and  C_14 
REMARK    6  A    between atoms: C_14  and  N_15 
ROOT
ATOM      1  N   UNK d   1      12.532   4.608  10.730  0.00  0.00    -0.068 N 
ATOM      2  C   UNK d   1      11.743   4.036  11.770  0.00  0.00     0.241 C 
ATOM      3  C   UNK d   1      11.621   2.545  11.734  0.00  0.00     0.031 C 
ATOM      4  C   UNK d   1      10.746   2.023  10.651  0.00  0.00     0.138 C 
ATOM      5  N   UNK d   1      11.424   1.272   9.632  0.00  0.00    -0.317 N 
ATOM      6  C   UNK d   1      12.736   1.379   9.349  0.00  0.00     0.020 A 
ATOM      7  C   UNK d   1      13.381   0.666   8.380  0.00  0.00     0.026 A 
ATOM      8  C   UNK d   1      12.655  -0.234   7.627  0.00  0.00     0.007 A 
ATOM      9  C   UNK d   1      11.315  -0.349   7.909  0.00  0.00     0.074 A 
ATOM     10  C   UNK d   1      10.697   0.386   8.893  0.00  0.00     0.247 A 
ATOM     11  O   UNK d   1       9.467   0.253   9.123  0.00  0.00    -0.268 OA
ATOM     12  C   UNK d   1      13.473   2.382  10.208  0.00  0.00     0.062 C 
ATOM     13  C   UNK d   1      13.054   3.725   9.759  0.00  0.00     0.245 C 
ATOM     14  C   UNK d   1      13.059   2.028  11.616  0.00  0.00     0.020 C 
ATOM     15  H   UNK d   1      13.355   5.101  11.193  0.00  0.00     0.280 HD
ENDROOT
BRANCH   1  16
ATOM     16  C   UNK d   1      11.747   5.670  10.132  0.00  0.00     0.268 C 
BRANCH  16  17
ATOM     17  C   UNK d   1      10.363   5.787  10.686  0.00  0.00     0.168 C 
BRANCH  17  18
ATOM     18  C   UNK d   1      10.212   7.222  11.189  0.00  0.00     0.209 C 
BRANCH  18  19
ATOM     19  O   UNK d   1       9.494   7.153  12.387  0.00  0.00    -0.346 OA
BRANCH  19  20
ATOM     20  C   UNK d   1       8.517   7.984  12.820  0.00  0.00     0.103 A 
ATOM     21  C   UNK d   1       7.192   7.645  12.656  0.00  0.00     0.046 A 
ATOM     22 Br   UNK d   1       6.778   5.989  11.812  0.00  0.00    -0.048 Br
ATOM     23  C   UNK d   1       6.159   8.474  13.087  0.00  0.00     0.028 A 
ATOM     24  C   UNK d   1       6.455   9.660  13.691  0.00  0.00    -0.059 A 
ATOM     25  C   UNK d   1       7.774  10.029  13.871  0.00  0.00     0.028 A 
ATOM     26  C   UNK d   1       5.340  10.545  14.152  0.00  0.00     0.048 C 
ATOM     27  C   UNK d   1       8.799   9.185  13.432  0.00  0.00     0.046 A 
ATOM     28 Br   UNK d   1      10.620   9.683  13.674  0.00  0.00    -0.048 Br
ENDBRANCH  19  20
ENDBRANCH  18  19
ENDBRANCH  17  18
BRANCH  17  29
ATOM     29  O   UNK d   1       9.430   5.497   9.692  0.00  0.00    -0.392 OA
ATOM     30  H   UNK d   1       8.712   4.964  10.138  0.00  0.00     0.210 HD
ENDBRANCH  17  29
ENDBRANCH  16  17
ENDBRANCH   1  16
TORSDOF 6
ENDMDL
