MODEL 1
REMARK VINA RESULT:    -9.167      0.000      0.000
REMARK INTER + INTRA:         -11.942
REMARK INTER:                 -11.311
REMARK INTRA:                  -0.631
REMARK UNBOUND:                -0.631
REMARK  4 active torsions:
REMARK  status: ('A' for Active; 'I' for Inactive)
REMARK    1  A    between atoms: N_6  and  C_9 
REMARK    2  A    between atoms: C_9  and  C_10 
REMARK       I    between atoms: C_10  and  N_12 
REMARK    3  A    between atoms: N_15  and  C_18 
REMARK    4  A    between atoms: C_18  and  C_19 
REMARK       I    between atoms: C_19  and  N_21 
ROOT
ATOM      1  C   UNK d   1      10.460   4.778  10.518  0.00  0.00     0.238 C 
ATOM      2  O   UNK d   1      10.453   5.010   9.294  0.00  0.00    -0.272 OA
ATOM      3  N   UNK d   1      10.353   5.830  11.440  0.00  0.00    -0.348 N 
ATOM      4  C   UNK d   1      10.225   7.217  11.053  0.00  0.00     0.145 C 
ATOM      5  C   UNK d   1       9.013   7.770  11.783  0.00  0.00     0.137 C 
ATOM      6  N   UNK d   1       8.308   6.761  12.458  0.00  0.00    -0.401 N 
ATOM      7  C   UNK d   1       8.965   5.952  13.400  0.00  0.00     0.137 C 
ATOM      8  C   UNK d   1      10.359   5.601  12.893  0.00  0.00     0.145 C 
ENDROOT
BRANCH   1   9
ATOM      9  C   UNK d   1      10.584   3.354  10.981  0.00  0.00     0.231 C 
BRANCH   9  10
ATOM     10  N   UNK d   1      11.772   2.719  10.450  0.00  0.00    -0.347 N 
ATOM     11  C   UNK d   1      13.052   3.011  10.818  0.00  0.00     0.045 A 
ATOM     12  C   UNK d   1      13.941   2.228  10.119  0.00  0.00    -0.007 A 
ATOM     13  C   UNK d   1      13.525   3.922  11.733  0.00  0.00     0.032 A 
ATOM     14  C   UNK d   1      15.316   2.326  10.306  0.00  0.00     0.032 A 
ATOM     15  C   UNK d   1      13.192   1.422   9.288  0.00  0.00     0.031 A 
ATOM     16  C   UNK d   1      15.803   3.250  11.234  0.00  0.00     0.011 A 
ATOM     17 Br   UNK d   1      17.693   3.410  11.517  0.00  0.00    -0.051 Br
ATOM     18  C   UNK d   1      14.899   4.026  11.926  0.00  0.00     0.021 A 
ATOM     19  C   UNK d   1      11.874   1.757   9.525  0.00  0.00     0.092 A 
ENDBRANCH   9  10
ENDBRANCH   1   9
BRANCH   6  20
ATOM     20  C   UNK d   1       6.996   6.448  12.068  0.00  0.00     0.220 C 
BRANCH  20  21
ATOM     21  C   UNK d   1       6.070   7.611  12.039  0.00  0.00     0.237 C 
ATOM     22  O   UNK d   1       5.832   8.111  10.911  0.00  0.00    -0.272 OA
ATOM     23  N   UNK d   1       5.467   8.159  13.181  0.00  0.00    -0.347 N 
ATOM     24  C   UNK d   1       4.582   9.301  13.066  0.00  0.00     0.152 C 
ATOM     25  C   UNK d   1       5.669   7.654  14.525  0.00  0.00     0.152 C 
ATOM     26  C   UNK d   1       3.280   8.925  13.742  0.00  0.00     0.187 C 
ATOM     27  O   UNK d   1       3.594   8.771  15.100  0.00  0.00    -0.388 OA
ATOM     28  C   UNK d   1       4.407   7.684  15.314  0.00  0.00     0.187 C 
ENDBRANCH  20  21
ENDBRANCH   6  20
TORSDOF 4
ENDMDL
