MODEL 1
REMARK VINA RESULT:    -9.162      0.000      0.000
REMARK INTER + INTRA:         -12.352
REMARK INTER:                 -11.572
REMARK INTRA:                  -0.780
REMARK UNBOUND:                -0.780
REMARK  5 active torsions:
REMARK  status: ('A' for Active; 'I' for Inactive)
REMARK    1  A    between atoms: C_4  and  N_8 
REMARK    2  A    between atoms: C_14  and  C_17 
REMARK    3  A    between atoms: C_19  and  C_22 
REMARK    4  A    between atoms: C_24  and  O_29 
REMARK    5  A    between atoms: C_25  and  O_28 
ROOT
ATOM      1  N   UNK d   1      10.855   4.644  10.725  0.00  0.00    -0.233 N 
ATOM      2  C   UNK d   1      10.236   5.696  10.003  0.00  0.00     0.336 C 
ATOM      3  O   UNK d   1       9.962   5.581   8.801  0.00  0.00    -0.246 OA
ATOM      4  N   UNK d   1       9.917   6.928  10.665  0.00  0.00    -0.277 N 
ATOM      5  C   UNK d   1      10.209   7.115  12.049  0.00  0.00     0.244 C 
ATOM      6  O   UNK d   1       9.601   7.940  12.751  0.00  0.00    -0.272 OA
ATOM      7  C   UNK d   1      11.297   6.276  12.666  0.00  0.00     0.221 C 
ATOM      8  C   UNK d   1      11.124   4.914  12.118  0.00  0.00     0.251 C 
ATOM      9  O   UNK d   1      11.208   3.882  12.876  0.00  0.00    -0.271 OA
ATOM     10  H   UNK d   1       9.469   7.678  10.123  0.00  0.00     0.173 HD
ENDROOT
BRANCH   7  11
ATOM     11  C   UNK d   1      12.625   6.877  12.339  0.00  0.00     0.041 C 
ATOM     12  C   UNK d   1      13.585   7.263  13.154  0.00  0.00     0.026 C 
ATOM     13  C   UNK d   1      14.712   7.797  12.341  0.00  0.00     0.134 C 
ATOM     14  N   UNK d   1      13.994   8.185  11.100  0.00  0.00    -0.228 NA
ATOM     15  N   UNK d   1      13.051   7.155  10.998  0.00  0.00    -0.323 N 
ATOM     16  H   UNK d   1      13.558   9.119  11.225  0.00  0.00     0.147 HD
ATOM     17  H   UNK d   1      12.718   6.685  10.162  0.00  0.00     0.180 HD
BRANCH  13  18
ATOM     18  C   UNK d   1      15.603   6.671  11.950  0.00  0.00    -0.032 A 
ATOM     19  C   UNK d   1      16.667   6.855  11.041  0.00  0.00     0.048 A 
ATOM     20  C   UNK d   1      17.528   5.865  10.681  0.00  0.00     0.101 A 
ATOM     21  C   UNK d   1      17.375   4.601  11.219  0.00  0.00     0.099 A 
ATOM     22  C   UNK d   1      16.347   4.385  12.109  0.00  0.00     0.040 A 
ATOM     23  C   UNK d   1      15.483   5.397  12.465  0.00  0.00     0.012 A 
BRANCH  20  24
ATOM     24  O   UNK d   1      18.567   6.101   9.769  0.00  0.00    -0.353 OA
ATOM     25  C   UNK d   1      19.775   6.668  10.227  0.00  0.00     0.210 C 
ENDBRANCH  20  24
BRANCH  21  26
ATOM     26  O   UNK d   1      18.247   3.577  10.863  0.00  0.00    -0.358 OA
ATOM     27  H   UNK d   1      19.243   3.737  10.929  0.00  0.00     0.217 HD
ENDBRANCH  21  26
ENDBRANCH  13  18
ENDBRANCH   7  11
BRANCH   1  28
ATOM     28  C   UNK d   1      11.183   3.373  10.180  0.00  0.00     0.048 A 
ATOM     29  C   UNK d   1      12.500   3.170   9.751  0.00  0.00     0.054 A 
ATOM     30  C   UNK d   1      12.913   1.979   9.195  0.00  0.00     0.036 A 
ATOM     31 Cl   UNK d   1      14.572   1.819   8.685  0.00  0.00    -0.084 Cl
ATOM     32  C   UNK d   1      12.047   0.930   9.035  0.00  0.00     0.024 A 
ATOM     33  C   UNK d   1      10.730   1.123   9.462  0.00  0.00     0.004 A 
ATOM     34  C   UNK d   1      10.324   2.318  10.016  0.00  0.00     0.030 A 
ENDBRANCH   1  28
TORSDOF 5
ENDMDL
