MODEL 1
REMARK VINA RESULT:    -9.151      0.000      0.000
REMARK INTER + INTRA:         -11.094
REMARK INTER:                 -10.756
REMARK INTRA:                  -0.339
REMARK UNBOUND:                -0.339
REMARK  3 active torsions:
REMARK  status: ('A' for Active; 'I' for Inactive)
REMARK    1  A    between atoms: S_1  and  N_4 
REMARK    2  A    between atoms: S_1  and  N_22 
REMARK       I    between atoms: N_7  and  C_10 
REMARK    3  A    between atoms: C_10  and  C_12 
ROOT
ATOM      1  N   UNK d   1      10.131   7.021  11.690  0.00  0.00    -0.295 N 
ATOM      2  C   UNK d   1      10.426   6.740  10.318  0.00  0.00     0.156 C 
ATOM      3  C   UNK d   1      10.988   5.346  10.116  0.00  0.00     0.147 C 
ATOM      4  N   UNK d   1      12.037   5.121  11.074  0.00  0.00    -0.344 N 
ATOM      5  C   UNK d   1      12.442   6.229  11.916  0.00  0.00     0.147 C 
ATOM      6  C   UNK d   1      11.196   6.755  12.596  0.00  0.00     0.156 C 
ATOM      7  C   UNK d   1      12.688   3.863  11.227  0.00  0.00     0.274 C 
ATOM      8  O   UNK d   1      13.599   3.693  12.070  0.00  0.00    -0.266 OA
ENDROOT
BRANCH   7   9
ATOM      9  C   UNK d   1      12.308   2.721  10.393  0.00  0.00     0.142 A 
ATOM     10  N   UNK d   1      13.084   2.113   9.454  0.00  0.00    -0.224 NA
ATOM     11  C   UNK d   1      12.390   1.107   8.900  0.00  0.00     0.134 A 
ATOM     12  N   UNK d   1      11.193   1.085   9.485  0.00  0.00    -0.313 N 
ATOM     13  C   UNK d   1      12.689   0.179   7.915  0.00  0.00     0.052 A 
ATOM     14  C   UNK d   1      11.117   2.061  10.400  0.00  0.00     0.135 A 
ATOM     15  C   UNK d   1      10.299   0.154   9.098  0.00  0.00     0.122 A 
ATOM     16  C   UNK d   1      10.541  -0.785   8.133  0.00  0.00     0.050 A 
ATOM     17  C   UNK d   1      11.784  -0.778   7.512  0.00  0.00     0.029 A 
ATOM     18 Cl   UNK d   1       9.348  -1.988   7.653  0.00  0.00    -0.083 Cl
ENDBRANCH   7   9
BRANCH   1  19
ATOM     19  S   UNK d   1       8.600   6.541  12.221  0.00  0.00     0.301 S 
ATOM     20  O   UNK d   1       7.933   5.709  11.175  0.00  0.00    -0.188 OA
ATOM     21  O   UNK d   1       8.762   5.705  13.460  0.00  0.00    -0.188 OA
BRANCH  19  22
ATOM     22  N   UNK d   1       7.560   7.849  12.619  0.00  0.00    -0.189 NA
ATOM     23  C   UNK d   1       6.161   7.523  12.415  0.00  0.00     0.135 C 
ATOM     24  C   UNK d   1       5.422   8.826  12.224  0.00  0.00     0.183 C 
ATOM     25  O   UNK d   1       5.982   9.851  12.979  0.00  0.00    -0.389 OA
ATOM     26  C   UNK d   1       7.252  10.213  12.535  0.00  0.00     0.183 C 
ATOM     27  C   UNK d   1       7.831   9.018  11.804  0.00  0.00     0.135 C 
ENDBRANCH  19  22
ENDBRANCH   1  19
TORSDOF 3
ENDMDL
