MODEL 1
REMARK VINA RESULT:    -8.144      0.000      0.000
REMARK INTER + INTRA:         -11.024
REMARK INTER:                 -10.049
REMARK INTRA:                  -0.975
REMARK UNBOUND:                -0.975
REMARK  4 active torsions:
REMARK  status: ('A' for Active; 'I' for Inactive)
REMARK    1  A    between atoms: C_5  and  N_8 
REMARK    2  A    between atoms: C_12  and  C_13 
REMARK    3  A    between atoms: C_13  and  N_14 
REMARK    4  A    between atoms: N_14  and  C_15 
ROOT
ATOM      1  N   UNK d   1      10.676   4.652  11.417  0.00  0.00    -0.220 N 
ATOM      2  N   UNK d   1      10.839   4.834  12.715  0.00  0.00    -0.291 N 
ATOM      3  C   UNK d   1      10.267   5.980  13.136  0.00  0.00     0.056 A 
ATOM      4  C   UNK d   1      10.223   6.490  14.343  0.00  0.00     0.045 C 
ATOM      5  C   UNK d   1       9.701   6.565  12.020  0.00  0.00     0.076 A 
ATOM      6  C   UNK d   1       9.975   5.710  10.975  0.00  0.00     0.280 A 
ATOM      7  O   UNK d   1       9.627   5.888   9.780  0.00  0.00    -0.265 OA
ATOM      8  H   UNK d   1      11.347   4.182  13.358  0.00  0.00     0.187 HD
ENDROOT
BRANCH   5   9
ATOM      9  C   UNK d   1       9.026   7.725  11.990  0.00  0.00     0.103 C 
BRANCH   9  10
ATOM     10  N   UNK d   1       7.619   7.633  11.809  0.00  0.00    -0.384 N 
ATOM     11  H   UNK d   1       7.165   7.152  11.008  0.00  0.00     0.159 HD
BRANCH  10  12
ATOM     12  C   UNK d   1       6.748   8.247  12.798  0.00  0.00     0.109 C 
ATOM     13  C   UNK d   1       6.543   7.298  13.969  0.00  0.00     0.311 C 
ATOM     14  N   UNK d   1       5.730   7.944  14.962  0.00  0.00     0.147 N 
ATOM     15  C   UNK d   1       4.446   8.251  14.340  0.00  0.00     0.547 C 
ATOM     16  C   UNK d   1       6.401   9.148  15.394  0.00  0.00     0.547 C 
ATOM     17  N   UNK d   1       4.594   9.181  13.256  0.00  0.00     0.147 N 
ATOM     18  C   UNK d   1       5.260  10.384  13.704  0.00  0.00     0.547 C 
ATOM     19  C   UNK d   1       5.397   8.565  12.230  0.00  0.00     0.311 C 
ATOM     20  N   UNK d   1       6.538  10.106  14.301  0.00  0.00     0.147 N 
ATOM     21  C   UNK d   1       7.404   9.511  13.309  0.00  0.00     0.311 C 
ENDBRANCH  10  12
ENDBRANCH   9  10
ENDBRANCH   5   9
BRANCH   1  22
ATOM     22  C   UNK d   1      11.154   3.539  10.636  0.00  0.00     0.060 A 
ATOM     23  C   UNK d   1      12.439   3.419  10.213  0.00  0.00     0.033 A 
ATOM     24  C   UNK d   1      12.805   2.302   9.460  0.00  0.00     0.020 A 
ATOM     25  C   UNK d   1      11.897   1.316   9.133  0.00  0.00     0.006 A 
ATOM     26  I   UNK d   1      12.454  -0.367   7.997  0.00  0.00    -0.045 I 
ATOM     27  C   UNK d   1      10.594   1.434   9.560  0.00  0.00     0.020 A 
ATOM     28  C   UNK d   1      10.253   2.544  10.302  0.00  0.00     0.033 A 
ENDBRANCH   1  22
TORSDOF 4
ENDMDL
