/Users/jonathanwahrer/Desktop/Msc/3_Semester/Drug_Design_Praktikum/waehrer_HTS_screening/HTS_experiment/out/docking_results/vina_output/2jam/1764_docked.pdbqt
 OpenBabel03162218403D

 34 37  0  0  1  0  0  0  0  0999 V2000
    8.5250    7.2140   12.0040 N   0  0  0  0  0  0  0  0  0  0  0  0
    9.6620    7.6700   11.3640 C   0  0  1  0  0  3  0  0  0  0  0  0
   10.6430    8.0410   12.4850 C   0  0  0  0  0  2  0  0  0  0  0  0
   10.3550    6.9650   13.5090 C   0  0  0  0  0  2  0  0  0  0  0  0
    8.9050    6.6120   13.2790 C   0  0  0  0  0  2  0  0  0  0  0  0
    7.0540    7.9830   12.0290 S   0  0  0  0  0  0  0  0  0  0  0  0
    5.9420    7.1500   11.3970 O   0  0  0  0  0  0  0  0  0  0  0  0
    7.1380    9.2130   11.1230 O   0  0  0  0  0  0  0  0  0  0  0  0
    6.5310    8.5370   13.5920 C   0  0  0  0  0  0  0  0  0  0  0  0
    5.4810    7.8570   14.2320 C   0  0  0  0  0  3  0  0  0  0  0  0
    4.9480    8.2390   15.4300 C   0  0  0  0  0  0  0  0  0  0  0  0
    5.4870    9.3620   16.0320 C   0  0  0  0  0  0  0  0  0  0  0  0
    3.9120    7.5640   16.0580 O   0  0  0  0  0  0  0  0  0  0  0  0
    6.5060   10.0670   15.4680 C   0  0  0  0  0  3  0  0  0  0  0  0
    4.9390    9.7710   17.2950 N   0  0  0  0  0  0  0  0  0  0  0  0
    7.0120    9.6350   14.2470 C   0  0  0  0  0  0  0  0  0  0  0  0
    8.3870   10.5300   13.6400 Cl  0  0  0  0  0  0  0  0  0  0  0  0
    3.8780    9.0180   17.8770 C   0  0  0  0  0  0  0  0  0  0  0  0
    5.3380   10.6210   17.7630 H   0  0  0  0  0  0  0  0  0  0  0  0
    3.1040    9.5570   18.6880 O   0  0  0  0  0  0  0  0  0  0  0  0
    3.7510    7.5960   17.4740 C   0  0  0  0  0  2  0  0  0  0  0  0
   10.2610    6.5220   10.5700 C   0  0  0  0  0  0  0  0  0  0  0  0
    9.4490    5.7200   10.0890 O   0  0  0  0  0  0  0  0  0  0  0  0
   11.6560    6.4330   10.4250 N   0  0  0  0  0  0  0  0  0  0  0  0
   12.3110    7.1170   10.8540 H   0  0  0  0  0  0  0  0  0  0  0  0
   12.2410    5.3550    9.6640 C   0  0  0  0  0  2  0  0  0  0  0  0
   12.6080    4.1470   10.4380 C   0  0  0  0  0  2  0  0  0  0  0  0
   12.1570    2.9030    9.9240 N   0  0  0  0  0  0  0  0  0  0  0  0
   11.3060    2.1490   10.7860 C   0  0  0  0  0  2  0  0  0  0  0  0
   10.2290    1.5100    9.9320 C   0  0  0  0  0  2  0  0  0  0  0  0
   10.8890    0.7680    8.7880 C   0  0  0  0  0  2  0  0  0  0  0  0
   12.0230   -0.0490    9.3450 C   0  0  0  0  0  2  0  0  0  0  0  0
   13.2670    0.7160    9.6060 C   0  0  0  0  0  2  0  0  0  0  0  0
   13.2140    2.1680    9.3120 C   0  0  0  0  0  2  0  0  0  0  0  0
  1  6  1  0  0  0  0
  1  5  1  0  0  0  0
  2 22  1  6  0  0  0
  2  1  1  0  0  0  0
  2  3  1  0  0  0  0
  3  4  1  0  0  0  0
  5  4  1  0  0  0  0
  6  9  1  0  0  0  0
  7  6  2  0  0  0  0
  8  6  2  0  0  0  0
  9 10  2  0  0  0  0
  9 16  1  0  0  0  0
 10 11  1  0  0  0  0
 11 12  2  0  0  0  0
 11 13  1  0  0  0  0
 12 15  1  0  0  0  0
 13 21  1  0  0  0  0
 14 12  1  0  0  0  0
 15 19  1  0  0  0  0
 15 18  1  0  0  0  0
 16 14  2  0  0  0  0
 17 16  1  0  0  0  0
 18 20  2  0  0  0  0
 21 18  1  0  0  0  0
 23 22  2  0  0  0  0
 24 22  1  0  0  0  0
 24 25  1  0  0  0  0
 26 24  1  0  0  0  0
 26 27  1  0  0  0  0
 28 27  1  0  0  0  0
 28 29  1  0  0  0  0
 30 29  1  0  0  0  0
 31 32  1  0  0  0  0
 31 30  1  0  0  0  0
 32 33  1  0  0  0  0
 34 33  1  0  0  0  0
 34 28  1  0  0  0  0
M  END
>  <Pose>
1

>  <Score>
-8.755

$$$$
