MODEL 1
REMARK VINA RESULT:    -8.951      0.000      0.000
REMARK INTER + INTRA:         -10.466
REMARK INTER:                  -9.998
REMARK INTRA:                  -0.468
REMARK UNBOUND:                -0.468
REMARK  2 active torsions:
REMARK  status: ('A' for Active; 'I' for Inactive)
REMARK    1  A    between atoms: C_5  and  C_8 
REMARK       I    between atoms: C_8  and  N_10 
REMARK    2  A    between atoms: N_13  and  C_16 
ROOT
ATOM      1  C   UNK d   1      13.002   1.982   9.500  0.00  0.00     0.187 C 
ATOM      2  O   UNK d   1      13.681   2.625   8.583  0.00  0.00    -0.171 OA
ATOM      3  N   UNK d   1      13.277   2.367  10.804  0.00  0.00    -0.356 N 
ATOM      4  C   UNK d   1      12.799   1.876  12.053  0.00  0.00     0.145 C 
ATOM      5  C   UNK d   1      11.716   2.884  12.489  0.00  0.00     0.144 C 
ATOM      6  N   UNK d   1      12.226   4.230  12.169  0.00  0.00    -0.361 N 
ATOM      7  C   UNK d   1      13.648   4.407  12.098  0.00  0.00     0.144 C 
ATOM      8  C   UNK d   1      14.196   3.542  10.978  0.00  0.00     0.145 C 
ENDROOT
BRANCH   1   9
ATOM      9  C   UNK d   1      12.101   1.000   8.968  0.00  0.00     0.018 A 
ATOM     10  C   UNK d   1      10.781   0.948   9.432  0.00  0.00     0.017 A 
ATOM     11  C   UNK d   1       9.864   0.015   9.006  0.00  0.00     0.025 A 
ATOM     12  C   UNK d   1      10.209  -0.937   8.078  0.00  0.00     0.034 A 
ATOM     13 Cl   UNK d   1       9.033  -2.138   7.527  0.00  0.00    -0.084 Cl
ATOM     14  C   UNK d   1      11.491  -0.925   7.595  0.00  0.00     0.025 A 
ATOM     15  C   UNK d   1      12.419   0.035   8.039  0.00  0.00     0.017 A 
ENDBRANCH   1   9
BRANCH   6  16
ATOM     16  C   UNK d   1      11.304   5.294  11.948  0.00  0.00     0.146 A 
ATOM     17  N   UNK d   1       9.970   5.078  11.969  0.00  0.00    -0.147 NA
ATOM     18  N   UNK d   1       9.086   6.039  11.766  0.00  0.00    -0.204 N 
ATOM     19  C   UNK d   1       9.446   7.307  11.524  0.00  0.00     0.174 A 
ATOM     20  C   UNK d   1       7.723   6.045  11.743  0.00  0.00     0.261 A 
ATOM     21  N   UNK d   1       8.347   8.083  11.354  0.00  0.00    -0.129 NA
ATOM     22  C   UNK d   1      10.797   7.608  11.486  0.00  0.00     0.058 A 
ATOM     23  N   UNK d   1       7.296   7.296  11.493  0.00  0.00    -0.141 NA
ATOM     24  C   UNK d   1      11.696   6.590  11.700  0.00  0.00     0.056 A 
ENDBRANCH   6  16
TORSDOF 2
ENDMDL
