/Users/jonathanwahrer/Desktop/Msc/3_Semester/Drug_Design_Praktikum/waehrer_HTS_screening/HTS_experiment/out/docking_results/vina_output/2jam/1781_docked.pdbqt
 OpenBabel03162218403D

 24 27  0  0  0  0  0  0  0  0999 V2000
   13.0020    1.9820    9.5000 C   0  0  0  0  0  0  0  0  0  0  0  0
   13.6810    2.6250    8.5830 O   0  0  0  0  0  0  0  0  0  0  0  0
   13.2770    2.3670   10.8040 N   0  0  0  0  0  0  0  0  0  0  0  0
   12.7990    1.8760   12.0530 C   0  0  0  0  0  2  0  0  0  0  0  0
   11.7160    2.8840   12.4890 C   0  0  0  0  0  2  0  0  0  0  0  0
   12.2260    4.2300   12.1690 N   0  0  0  0  0  0  0  0  0  0  0  0
   13.6480    4.4070   12.0980 C   0  0  0  0  0  2  0  0  0  0  0  0
   14.1960    3.5420   10.9780 C   0  0  0  0  0  2  0  0  0  0  0  0
   12.1010    1.0000    8.9680 C   0  0  0  0  0  0  0  0  0  0  0  0
   10.7810    0.9480    9.4320 C   0  0  0  0  0  3  0  0  0  0  0  0
    9.8640    0.0150    9.0060 C   0  0  0  0  0  3  0  0  0  0  0  0
   10.2090   -0.9370    8.0780 C   0  0  0  0  0  0  0  0  0  0  0  0
    9.0330   -2.1380    7.5270 Cl  0  0  0  0  0  0  0  0  0  0  0  0
   11.4910   -0.9250    7.5950 C   0  0  0  0  0  3  0  0  0  0  0  0
   12.4190    0.0350    8.0390 C   0  0  0  0  0  3  0  0  0  0  0  0
   11.3040    5.2940   11.9480 C   0  0  0  0  0  0  0  0  0  0  0  0
    9.9700    5.0780   11.9690 N   0  0  0  0  0  0  0  0  0  0  0  0
    9.0860    6.0390   11.7660 N   0  0  0  0  0  0  0  0  0  0  0  0
    9.4460    7.3070   11.5240 C   0  0  0  0  0  0  0  0  0  0  0  0
    7.7230    6.0450   11.7430 C   0  0  0  0  0  3  0  0  0  0  0  0
    8.3470    8.0830   11.3540 N   0  0  0  0  0  0  0  0  0  0  0  0
   10.7970    7.6080   11.4860 C   0  0  0  0  0  3  0  0  0  0  0  0
    7.2960    7.2960   11.4930 N   0  0  0  0  0  0  0  0  0  0  0  0
   11.6960    6.5900   11.7000 C   0  0  0  0  0  3  0  0  0  0  0  0
  1  3  1  0  0  0  0
  2  1  2  0  0  0  0
  3  8  1  0  0  0  0
  3  4  1  0  0  0  0
  4  5  1  0  0  0  0
  6  5  1  0  0  0  0
  7  6  1  0  0  0  0
  8  7  1  0  0  0  0
  9 10  1  0  0  0  0
  9  1  1  0  0  0  0
 11 10  2  0  0  0  0
 12 11  1  0  0  0  0
 13 12  1  0  0  0  0
 14 15  1  0  0  0  0
 14 12  2  0  0  0  0
 15  9  2  0  0  0  0
 16 17  2  0  0  0  0
 16  6  1  0  0  0  0
 18 17  1  0  0  0  0
 19 18  1  0  0  0  0
 20 18  1  0  0  0  0
 21 23  1  0  0  0  0
 21 19  2  0  0  0  0
 22 19  1  0  0  0  0
 22 24  2  0  0  0  0
 23 20  2  0  0  0  0
 24 16  1  0  0  0  0
M  END
>  <Pose>
1

>  <Score>
-8.951

$$$$
