/Users/jonathanwahrer/Desktop/Msc/3_Semester/Drug_Design_Praktikum/waehrer_HTS_screening/HTS_experiment/out/docking_results/vina_output/2jam/1788_docked.pdbqt
 OpenBabel03162218403D

 30 33  0  0  0  0  0  0  0  0999 V2000
   11.7790    2.1940    9.7610 N   0  0  0  0  0  0  0  0  0  0  0  0
   12.9860    2.1850   10.2060 N   0  0  0  0  0  0  0  0  0  0  0  0
   13.3790    3.4440   10.6330 C   0  0  0  0  0  0  0  0  0  0  0  0
   12.3460    4.2380   10.4260 N   0  0  0  0  0  0  0  0  0  0  0  0
   11.3520    3.4530    9.8860 C   0  0  0  0  0  0  0  0  0  0  0  0
   10.2270    3.8950    9.5710 O   0  0  0  0  0  0  0  0  0  0  0  0
   12.2390    5.6530   10.5930 C   0  0  0  0  0  2  0  0  0  0  0  0
   11.6650    6.0970   11.8780 C   0  0  0  0  0  0  0  0  0  0  0  0
   12.5670    6.3370   12.7840 O   0  0  0  0  0  0  0  0  0  0  0  0
   10.3610    6.2960   12.2720 N   0  0  0  0  0  0  0  0  0  0  0  0
    9.1960    6.0560   11.4630 C   0  0  0  0  0  2  0  0  0  0  0  0
   10.0910    6.8090   13.6260 C   0  0  0  0  0  2  0  0  0  0  0  0
    7.8890    6.3300   12.2280 C   0  0  0  0  0  2  0  0  0  0  0  0
    7.9410    7.6820   12.7920 N   0  0  0  0  0  0  0  0  0  0  0  0
    9.1890    7.9740   13.4570 C   0  0  0  0  0  0  0  0  0  0  0  0
    7.1740    8.3560   12.7230 H   0  0  0  0  0  0  0  0  0  0  0  0
    9.4440    9.1390   13.8410 O   0  0  0  0  0  0  0  0  0  0  0  0
   14.7300    3.6530   11.1500 C   0  0  0  0  0  0  0  0  0  0  0  0
   15.7800    2.9440   10.5540 C   0  0  0  0  0  3  0  0  0  0  0  0
   17.0790    3.0010   10.9800 C   0  0  0  0  0  3  0  0  0  0  0  0
   17.4310    3.7940   12.0630 C   0  0  0  0  0  3  0  0  0  0  0  0
   16.4140    4.4900   12.6540 C   0  0  0  0  0  3  0  0  0  0  0  0
   15.0880    4.4270   12.2160 C   0  0  0  0  0  3  0  0  0  0  0  0
   11.0750    1.0680    9.2470 C   0  0  0  0  0  0  0  0  0  0  0  0
   11.6840    0.2260    8.3390 C   0  0  0  0  0  3  0  0  0  0  0  0
   11.0150   -0.8740    7.8280 C   0  0  0  0  0  3  0  0  0  0  0  0
    9.7190   -1.1850    8.1930 C   0  0  0  0  0  0  0  0  0  0  0  0
    8.8610   -2.5720    7.5510 Cl  0  0  0  0  0  0  0  0  0  0  0  0
    9.1090   -0.3370    9.1040 C   0  0  0  0  0  3  0  0  0  0  0  0
    9.7810    0.7680    9.6190 C   0  0  0  0  0  3  0  0  0  0  0  0
  1  5  1  0  0  0  0
  1  2  1  0  0  0  0
  2  3  2  0  0  0  0
  3 18  1  0  0  0  0
  4  7  1  0  0  0  0
  4  3  1  0  0  0  0
  5  4  1  0  0  0  0
  6  5  2  0  0  0  0
  7  8  1  0  0  0  0
  8 10  1  0  0  0  0
  8  9  2  0  0  0  0
 10 12  1  0  0  0  0
 11 13  1  0  0  0  0
 11 10  1  0  0  0  0
 13 14  1  0  0  0  0
 14 15  1  0  0  0  0
 15 12  1  0  0  0  0
 15 17  2  0  0  0  0
 16 14  1  0  0  0  0
 18 23  1  0  0  0  0
 19 20  1  0  0  0  0
 19 18  2  0  0  0  0
 20 21  2  0  0  0  0
 21 22  1  0  0  0  0
 23 22  2  0  0  0  0
 24 30  1  0  0  0  0
 24  1  1  0  0  0  0
 25 24  2  0  0  0  0
 26 27  2  0  0  0  0
 26 25  1  0  0  0  0
 27 29  1  0  0  0  0
 28 27  1  0  0  0  0
 29 30  2  0  0  0  0
M  END
>  <Pose>
1

>  <Score>
-9.494

$$$$
