MODEL 1
REMARK VINA RESULT:    -9.494      0.000      0.000
REMARK INTER + INTRA:         -12.222
REMARK INTER:                 -11.714
REMARK INTRA:                  -0.507
REMARK UNBOUND:                -0.507
REMARK  4 active torsions:
REMARK  status: ('A' for Active; 'I' for Inactive)
REMARK    1  A    between atoms: C_5  and  N_8 
REMARK    2  A    between atoms: C_10  and  C_24 
REMARK    3  A    between atoms: N_11  and  C_14 
REMARK    4  A    between atoms: C_14  and  C_15 
REMARK       I    between atoms: C_15  and  N_17 
ROOT
ATOM      1  N   UNK d   1      11.779   2.194   9.761  0.00  0.00    -0.181 N 
ATOM      2  N   UNK d   1      12.986   2.185  10.206  0.00  0.00    -0.144 NA
ATOM      3  C   UNK d   1      13.379   3.444  10.633  0.00  0.00     0.165 A 
ATOM      4  N   UNK d   1      12.346   4.238  10.426  0.00  0.00    -0.272 N 
ATOM      5  C   UNK d   1      11.352   3.453   9.886  0.00  0.00     0.352 A 
ATOM      6  O   UNK d   1      10.227   3.895   9.571  0.00  0.00    -0.244 OA
ENDROOT
BRANCH   4   7
ATOM      7  C   UNK d   1      12.239   5.653  10.593  0.00  0.00     0.222 C 
BRANCH   7   8
ATOM      8  C   UNK d   1      11.665   6.097  11.878  0.00  0.00     0.172 C 
ATOM      9  O   UNK d   1      12.567   6.337  12.784  0.00  0.00    -0.175 OA
ATOM     10  N   UNK d   1      10.361   6.296  12.272  0.00  0.00    -0.351 N 
ATOM     11  C   UNK d   1       9.196   6.056  11.463  0.00  0.00     0.145 C 
ATOM     12  C   UNK d   1      10.091   6.809  13.626  0.00  0.00     0.227 C 
ATOM     13  C   UNK d   1       7.889   6.330  12.228  0.00  0.00     0.142 C 
ATOM     14  N   UNK d   1       7.941   7.682  12.792  0.00  0.00    -0.358 N 
ATOM     15  C   UNK d   1       9.189   7.974  13.457  0.00  0.00     0.235 C 
ATOM     16  H   UNK d   1       7.174   8.356  12.723  0.00  0.00     0.162 HD
ATOM     17  O   UNK d   1       9.444   9.139  13.841  0.00  0.00    -0.272 OA
ENDBRANCH   7   8
ENDBRANCH   4   7
BRANCH   3  18
ATOM     18  C   UNK d   1      14.730   3.653  11.150  0.00  0.00     0.012 A 
ATOM     19  C   UNK d   1      15.780   2.944  10.554  0.00  0.00     0.015 A 
ATOM     20  C   UNK d   1      17.079   3.001  10.980  0.00  0.00     0.001 A 
ATOM     21  C   UNK d   1      17.431   3.794  12.063  0.00  0.00     0.000 A 
ATOM     22  C   UNK d   1      16.414   4.490  12.654  0.00  0.00     0.001 A 
ATOM     23  C   UNK d   1      15.088   4.427  12.216  0.00  0.00     0.015 A 
ENDBRANCH   3  18
BRANCH   1  24
ATOM     24  C   UNK d   1      11.075   1.068   9.247  0.00  0.00     0.063 A 
ATOM     25  C   UNK d   1      11.684   0.226   8.339  0.00  0.00     0.033 A 
ATOM     26  C   UNK d   1      11.015  -0.874   7.828  0.00  0.00     0.026 A 
ATOM     27  C   UNK d   1       9.719  -1.185   8.193  0.00  0.00     0.034 A 
ATOM     28 Cl   UNK d   1       8.861  -2.572   7.551  0.00  0.00    -0.084 Cl
ATOM     29  C   UNK d   1       9.109  -0.337   9.104  0.00  0.00     0.026 A 
ATOM     30  C   UNK d   1       9.781   0.768   9.619  0.00  0.00     0.033 A 
ENDBRANCH   1  24
TORSDOF 4
ENDMDL
