MODEL 1
REMARK VINA RESULT:    -8.894      0.000      0.000
REMARK INTER + INTRA:         -10.080
REMARK INTER:                  -9.934
REMARK INTRA:                  -0.146
REMARK UNBOUND:                -0.146
REMARK  2 active torsions:
REMARK  status: ('A' for Active; 'I' for Inactive)
REMARK    1  A    between atoms: N_15  and  C_19 
REMARK    2  A    between atoms: C_19  and  C_20 
REMARK       I    between atoms: C_20  and  N_22 
ROOT
ATOM      1 Cl   UNK d   1       9.525   0.191   9.111  0.00  0.00    -0.084 Cl
ATOM      2  C   UNK d   1      10.785   1.244   9.716  0.00  0.00     0.036 A 
ATOM      3  C   UNK d   1      10.569   2.576  10.029  0.00  0.00     0.055 A 
ATOM      4  C   UNK d   1      11.568   3.392  10.505  0.00  0.00     0.077 A 
ATOM      5  C   UNK d   1      12.809   2.823  10.659  0.00  0.00     0.038 A 
ATOM      6  C   UNK d   1      13.080   1.507  10.364  0.00  0.00     0.019 A 
ATOM      7  C   UNK d   1      12.043   0.704   9.883  0.00  0.00     0.025 A 
ATOM      8  C   UNK d   1      13.906   3.669  11.166  0.00  0.00     0.153 A 
ATOM      9  N   UNK d   1      15.140   3.410  11.404  0.00  0.00    -0.270 NA
ATOM     10  C   UNK d   1      15.849   4.560  11.899  0.00  0.00     0.172 A 
ATOM     11  C   UNK d   1      14.818   5.643  11.939  0.00  0.00     0.171 A 
ATOM     12  N   UNK d   1      13.612   5.018  11.464  0.00  0.00    -0.160 N 
ATOM     13  C   UNK d   1      12.288   5.562  11.282  0.00  0.00     0.736 A 
ATOM     14  N   UNK d   1      11.779   6.791  11.492  0.00  0.00     0.025 NA
ATOM     15  N   UNK d   1      10.496   6.795  11.172  0.00  0.00    -0.194 N 
ATOM     16  C   UNK d   1      10.225   5.545  10.760  0.00  0.00     0.365 A 
ATOM     17  O   UNK d   1       9.076   5.187  10.373  0.00  0.00    -0.244 OA
ATOM     18  N   UNK d   1      11.319   4.756  10.817  0.00  0.00    -0.090 N 
ENDROOT
BRANCH  15  19
ATOM     19  C   UNK d   1       9.555   7.922  11.246  0.00  0.00     0.259 C 
BRANCH  19  20
ATOM     20  C   UNK d   1       8.697   7.730  12.445  0.00  0.00     0.239 C 
ATOM     21  O   UNK d   1       9.195   7.073  13.394  0.00  0.00    -0.271 OA
ATOM     22  N   UNK d   1       7.380   8.256  12.522  0.00  0.00    -0.351 N 
ATOM     23  C   UNK d   1       6.497   8.100  13.662  0.00  0.00     0.126 C 
ATOM     24  C   UNK d   1       6.693   9.025  11.511  0.00  0.00     0.126 C 
ATOM     25  C   UNK d   1       5.157   8.638  13.238  0.00  0.00     0.021 C 
ATOM     26  C   UNK d   1       5.250   8.558  11.728  0.00  0.00     0.021 C 
ENDBRANCH  19  20
ENDBRANCH  15  19
TORSDOF 2
ENDMDL
