MODEL 1
REMARK VINA RESULT:    -8.897      0.000      0.000
REMARK INTER + INTRA:         -11.222
REMARK INTER:                 -10.458
REMARK INTRA:                  -0.764
REMARK UNBOUND:                -0.764
REMARK  3 active torsions:
REMARK  status: ('A' for Active; 'I' for Inactive)
REMARK    1  A    between atoms: C_10  and  N_11 
REMARK    2  A    between atoms: N_14  and  C_17 
REMARK    3  A    between atoms: C_22  and  C_23 
REMARK       I    between atoms: C_23  and  N_25 
ROOT
ATOM      1  N   UNK d   1      11.480   4.695  11.468  0.00  0.00    -0.384 N 
ATOM      2  C   UNK d   1      10.307   4.611  10.622  0.00  0.00     0.142 C 
ATOM      3  C   UNK d   1      10.271   3.190  10.036  0.00  0.00     0.144 C 
ATOM      4  N   UNK d   1      11.451   2.455  10.341  0.00  0.00    -0.362 N 
ATOM      5  C   UNK d   1      11.672   2.236  11.770  0.00  0.00     0.144 C 
ATOM      6  C   UNK d   1      11.717   3.608  12.398  0.00  0.00     0.142 C 
ENDROOT
BRANCH   1   7
ATOM      7  C   UNK d   1      12.381   5.794  11.449  0.00  0.00     0.134 C 
ATOM      8  C   UNK d   1      13.692   5.740  11.448  0.00  0.00     0.124 A 
ATOM      9  N   UNK d   1      14.409   4.522  11.468  0.00  0.00    -0.340 N 
ATOM     10  N   UNK d   1      14.453   6.969  11.427  0.00  0.00    -0.308 N 
ATOM     11  C   UNK d   1      15.855   4.508  11.466  0.00  0.00     0.049 A 
ATOM     12  H   UNK d   1      13.902   3.620  11.483  0.00  0.00     0.167 HD
ATOM     13  C   UNK d   1      16.596   5.662  11.447  0.00  0.00     0.060 A 
ATOM     14  C   UNK d   1      16.511   3.304  11.487  0.00  0.00     0.032 A 
ATOM     15  C   UNK d   1      17.976   5.611  11.446  0.00  0.00     0.043 A 
ATOM     16  C   UNK d   1      15.868   6.923  11.427  0.00  0.00     0.259 A 
ATOM     17  C   UNK d   1      18.626   4.416  11.466  0.00  0.00     0.035 A 
ATOM     18 Cl   UNK d   1      20.384   4.289  11.467  0.00  0.00    -0.084 Cl
ATOM     19  C   UNK d   1      17.894   3.250  11.486  0.00  0.00     0.026 A 
ATOM     20  O   UNK d   1      16.563   7.996  11.408  0.00  0.00    -0.267 OA
ATOM     21  H   UNK d   1      13.959   7.883  11.412  0.00  0.00     0.170 HD
ENDBRANCH   1   7
BRANCH   4  22
ATOM     22  C   UNK d   1      12.433   1.933   9.464  0.00  0.00     0.141 A 
ATOM     23  N   UNK d   1      13.607   2.647   9.301  0.00  0.00    -0.242 NA
ATOM     24  C   UNK d   1      14.600   2.272   8.497  0.00  0.00     0.119 A 
ATOM     25  C   UNK d   1      14.453   1.112   7.789  0.00  0.00     0.020 A 
ATOM     26  C   UNK d   1      13.308   0.379   7.925  0.00  0.00     0.022 A 
ATOM     27  C   UNK d   1      12.254   0.770   8.775  0.00  0.00     0.077 A 
BRANCH  27  28
ATOM     28  C   UNK d   1      11.081  -0.037   8.917  0.00  0.00     0.253 C 
ATOM     29  O   UNK d   1       9.936   0.304   8.631  0.00  0.00    -0.268 OA
ATOM     30  N   UNK d   1      11.225  -1.355   9.432  0.00  0.00    -0.366 N 
ATOM     31  H   UNK d   1      11.713  -2.095   8.878  0.00  0.00     0.159 HD
ATOM     32  H   UNK d   1      10.863  -1.653  10.364  0.00  0.00     0.159 HD
ENDBRANCH  27  28
ENDBRANCH   4  22
TORSDOF 3
ENDMDL
