MODEL 1
REMARK VINA RESULT:    -8.215      0.000      0.000
REMARK INTER + INTRA:          -9.909
REMARK INTER:                  -9.176
REMARK INTRA:                  -0.734
REMARK UNBOUND:                -0.734
REMARK  2 active torsions:
REMARK  status: ('A' for Active; 'I' for Inactive)
REMARK    1  A    between atoms: C_5  and  N_8 
REMARK    2  A    between atoms: C_12  and  C_20 
ROOT
ATOM      1  N   UNK d   1      10.694   6.068  11.230  0.00  0.00    -0.252 N 
ATOM      2  C   UNK d   1      10.927   5.469   9.966  0.00  0.00     0.239 C 
ATOM      3  O   UNK d   1      10.210   5.658   8.954  0.00  0.00    -0.272 OA
ATOM      4  C   UNK d   1      12.134   4.604  10.052  0.00  0.00     0.138 C 
ATOM      5  C   UNK d   1      11.789   3.176  10.343  0.00  0.00     0.142 C 
ATOM      6  O   UNK d   1      12.926   2.784  11.084  0.00  0.00    -0.360 OA
ATOM      7  C   UNK d   1      12.781   3.730  12.130  0.00  0.00     0.160 C 
ATOM      8  C   UNK d   1      12.805   5.009  11.366  0.00  0.00     0.128 C 
ATOM      9  C   UNK d   1      11.897   6.005  11.995  0.00  0.00     0.239 C 
ATOM     10  O   UNK d   1      12.162   6.656  13.009  0.00  0.00    -0.272 OA
ATOM     11  C   UNK d   1      11.377   3.443  12.523  0.00  0.00     0.005 C 
ATOM     12  C   UNK d   1      10.750   3.159  11.385  0.00  0.00     0.015 C 
ENDROOT
BRANCH   1  13
ATOM     13  C   UNK d   1       9.427   6.624  11.605  0.00  0.00     0.045 A 
ATOM     14  C   UNK d   1       8.339   5.825  11.875  0.00  0.00     0.031 A 
ATOM     15  C   UNK d   1       7.115   6.347  12.234  0.00  0.00     0.021 A 
ATOM     16  C   UNK d   1       6.990   7.713  12.319  0.00  0.00     0.011 A 
ATOM     17 Br   UNK d   1       5.321   8.470  12.809  0.00  0.00    -0.051 Br
ATOM     18  C   UNK d   1       8.060   8.530  12.053  0.00  0.00     0.021 A 
ATOM     19  C   UNK d   1       9.302   8.004  11.690  0.00  0.00     0.031 A 
ENDBRANCH   1  13
BRANCH   5  20
ATOM     20  C   UNK d   1      11.551   2.329   9.168  0.00  0.00     0.298 C 
ATOM     21  O   UNK d   1      10.331   1.710   9.164  0.00  0.00    -0.356 OA
ATOM     22  C   UNK d   1      10.519   0.363   9.352  0.00  0.00     0.197 C 
ATOM     23  C   UNK d   1      11.993   0.154   9.471  0.00  0.00     0.197 C 
ATOM     24  O   UNK d   1      12.527   1.358   9.027  0.00  0.00    -0.356 OA
ENDBRANCH   5  20
TORSDOF 2
ENDMDL
