/Users/jonathanwahrer/Desktop/Msc/3_Semester/Drug_Design_Praktikum/waehrer_HTS_screening/HTS_experiment/out/docking_results/vina_output/2jam/1808_docked.pdbqt
 OpenBabel03162218413D

 24 28  0  0  1  0  0  0  0  0999 V2000
   10.6940    6.0680   11.2300 N   0  0  0  0  0  0  0  0  0  0  0  0
   10.9270    5.4690    9.9660 C   0  0  0  0  0  0  0  0  0  0  0  0
   10.2100    5.6580    8.9540 O   0  0  0  0  0  0  0  0  0  0  0  0
   12.1340    4.6040   10.0520 C   0  0  2  0  0  3  0  0  0  0  0  0
   11.7890    3.1760   10.3430 C   0  0  1  0  0  0  0  0  0  0  0  0
   12.9260    2.7840   11.0840 O   0  0  0  0  0  0  0  0  0  0  0  0
   12.7810    3.7300   12.1300 C   0  0  1  0  0  3  0  0  0  0  0  0
   12.8050    5.0090   11.3660 C   0  0  2  0  0  3  0  0  0  0  0  0
   11.8970    6.0050   11.9950 C   0  0  0  0  0  0  0  0  0  0  0  0
   12.1620    6.6560   13.0090 O   0  0  0  0  0  0  0  0  0  0  0  0
   11.3770    3.4430   12.5230 C   0  0  0  0  0  2  0  0  0  0  0  0
   10.7500    3.1590   11.3850 C   0  0  0  0  0  2  0  0  0  0  0  0
    9.4270    6.6240   11.6050 C   0  0  0  0  0  0  0  0  0  0  0  0
    8.3390    5.8250   11.8750 C   0  0  0  0  0  3  0  0  0  0  0  0
    7.1150    6.3470   12.2340 C   0  0  0  0  0  3  0  0  0  0  0  0
    6.9900    7.7130   12.3190 C   0  0  0  0  0  0  0  0  0  0  0  0
    5.3210    8.4700   12.8090 Br  0  0  0  0  0  0  0  0  0  0  0  0
    8.0600    8.5300   12.0530 C   0  0  0  0  0  3  0  0  0  0  0  0
    9.3020    8.0040   11.6900 C   0  0  0  0  0  3  0  0  0  0  0  0
   11.5510    2.3290    9.1680 C   0  0  0  0  0  3  0  0  0  0  0  0
   10.3310    1.7100    9.1640 O   0  0  0  0  0  0  0  0  0  0  0  0
   10.5190    0.3630    9.3520 C   0  0  0  0  0  2  0  0  0  0  0  0
   11.9930    0.1540    9.4710 C   0  0  0  0  0  2  0  0  0  0  0  0
   12.5270    1.3580    9.0270 O   0  0  0  0  0  0  0  0  0  0  0  0
  1 13  1  0  0  0  0
  1  9  1  0  0  0  0
  2  1  1  0  0  0  0
  3  2  2  0  0  0  0
  4  2  1  1  0  0  0
  4  5  1  0  0  0  0
  4  8  1  0  0  0  0
  5 20  1  6  0  0  0
  5  6  1  0  0  0  0
  5 12  1  0  0  0  0
  6  7  1  0  0  0  0
  7 11  1  6  0  0  0
  8  9  1  1  0  0  0
  8  7  1  0  0  0  0
  9 10  2  0  0  0  0
 12 11  1  0  0  0  0
 13 19  2  0  0  0  0
 13 14  1  0  0  0  0
 14 15  2  0  0  0  0
 15 16  1  0  0  0  0
 16 17  1  0  0  0  0
 18 16  2  0  0  0  0
 19 18  1  0  0  0  0
 21 20  1  0  0  0  0
 21 22  1  0  0  0  0
 22 23  1  0  0  0  0
 24 20  1  0  0  0  0
 24 23  1  0  0  0  0
M  END
>  <Pose>
1

>  <Score>
-8.215

$$$$
