MODEL 1
REMARK VINA RESULT:    -8.210      0.000      0.000
REMARK INTER + INTRA:          -9.894
REMARK INTER:                  -9.169
REMARK INTRA:                  -0.724
REMARK UNBOUND:                -0.724
REMARK  2 active torsions:
REMARK  status: ('A' for Active; 'I' for Inactive)
REMARK    1  A    between atoms: C_5  and  N_8 
REMARK    2  A    between atoms: C_12  and  C_20 
ROOT
ATOM      1  N   UNK d   1      10.669   6.006  11.210  0.00  0.00    -0.252 N 
ATOM      2  C   UNK d   1      10.875   5.404   9.941  0.00  0.00     0.239 C 
ATOM      3  O   UNK d   1      10.143   5.601   8.941  0.00  0.00    -0.272 OA
ATOM      4  C   UNK d   1      12.075   4.528  10.008  0.00  0.00     0.138 C 
ATOM      5  C   UNK d   1      11.720   3.104  10.303  0.00  0.00     0.142 C 
ATOM      6  O   UNK d   1      12.865   2.700  11.025  0.00  0.00    -0.360 OA
ATOM      7  C   UNK d   1      12.747   3.646  12.074  0.00  0.00     0.160 C 
ATOM      8  C   UNK d   1      12.772   4.925  11.310  0.00  0.00     0.128 C 
ATOM      9  C   UNK d   1      11.884   5.930  11.955  0.00  0.00     0.239 C 
ATOM     10  O   UNK d   1      12.172   6.578  12.965  0.00  0.00    -0.272 OA
ATOM     11  C   UNK d   1      11.347   3.373  12.490  0.00  0.00     0.005 C 
ATOM     12  C   UNK d   1      10.699   3.096  11.362  0.00  0.00     0.015 C 
ENDROOT
BRANCH   1  13
ATOM     13  C   UNK d   1       9.414   6.574  11.606  0.00  0.00     0.045 A 
ATOM     14  C   UNK d   1       8.316   5.787  11.871  0.00  0.00     0.031 A 
ATOM     15  C   UNK d   1       7.104   6.321  12.250  0.00  0.00     0.021 A 
ATOM     16  C   UNK d   1       7.001   7.687  12.362  0.00  0.00     0.011 A 
ATOM     17 Br   UNK d   1       5.348   8.460  12.880  0.00  0.00    -0.051 Br
ATOM     18  C   UNK d   1       8.081   8.492  12.101  0.00  0.00     0.021 A 
ATOM     19  C   UNK d   1       9.311   7.954  11.718  0.00  0.00     0.031 A 
ENDBRANCH   1  13
BRANCH   5  20
ATOM     20  C   UNK d   1      11.455   2.259   9.132  0.00  0.00     0.298 C 
ATOM     21  O   UNK d   1      10.221   1.668   9.138  0.00  0.00    -0.356 OA
ATOM     22  C   UNK d   1      10.379   0.318   9.328  0.00  0.00     0.197 C 
ATOM     23  C   UNK d   1      11.848   0.076   9.437  0.00  0.00     0.197 C 
ATOM     24  O   UNK d   1      12.407   1.266   8.986  0.00  0.00    -0.356 OA
ENDBRANCH   5  20
TORSDOF 2
ENDMDL
