MODEL 1
REMARK VINA RESULT:    -9.922      0.000      0.000
REMARK INTER + INTRA:         -13.191
REMARK INTER:                 -12.822
REMARK INTRA:                  -0.369
REMARK UNBOUND:                -0.369
REMARK  5 active torsions:
REMARK  status: ('A' for Active; 'I' for Inactive)
REMARK    1  A    between atoms: S_1  and  N_4 
REMARK    2  A    between atoms: S_1  and  C_26 
REMARK       I    between atoms: N_7  and  C_10 
REMARK    3  A    between atoms: C_10  and  C_12 
REMARK    4  A    between atoms: N_14  and  C_18 
REMARK    5  A    between atoms: C_18  and  C_19 
ROOT
ATOM      1  N   UNK d   1       8.497   8.246  12.639  0.00  0.00    -0.203 NA
ATOM      2  C   UNK d   1       7.822   7.163  13.308  0.00  0.00     0.127 C 
ATOM      3  C   UNK d   1       8.796   6.015  13.427  0.00  0.00     0.141 C 
ATOM      4  N   UNK d   1      10.121   6.476  13.100  0.00  0.00    -0.349 N 
ATOM      5  C   UNK d   1      10.619   7.765  13.566  0.00  0.00     0.141 C 
ATOM      6  C   UNK d   1       9.480   8.787  13.557  0.00  0.00     0.127 C 
ATOM      7  C   UNK d   1      10.962   5.679  12.304  0.00  0.00     0.226 C 
ATOM      8  O   UNK d   1      12.150   6.085  12.057  0.00  0.00    -0.273 OA
ENDROOT
BRANCH   7   9
ATOM      9  C   UNK d   1      10.478   4.383  11.753  0.00  0.00     0.105 C 
ATOM     10  C   UNK d   1      10.903   4.162  10.330  0.00  0.00     0.140 C 
ATOM     11  N   UNK d   1      11.999   3.201  10.394  0.00  0.00    -0.347 N 
ATOM     12  C   UNK d   1      12.293   2.902  11.746  0.00  0.00     0.221 C 
ATOM     13  O   UNK d   1      13.393   2.458  12.154  0.00  0.00    -0.273 OA
ATOM     14  C   UNK d   1      11.063   3.218  12.503  0.00  0.00     0.118 C 
BRANCH  11  15
ATOM     15  C   UNK d   1      12.677   2.650   9.243  0.00  0.00     0.166 C 
BRANCH  15  16
ATOM     16  C   UNK d   1      12.129   1.327   8.861  0.00  0.00    -0.018 A 
ATOM     17  C   UNK d   1      12.914   0.460   8.115  0.00  0.00     0.042 A 
ATOM     18  C   UNK d   1      12.470  -0.791   7.720  0.00  0.00     0.024 A 
ATOM     19 Cl   UNK d   1      14.516   0.980   7.667  0.00  0.00    -0.084 Cl
ATOM     20  C   UNK d   1      11.194  -1.156   8.099  0.00  0.00     0.002 A 
ATOM     21  C   UNK d   1      10.385  -0.315   8.843  0.00  0.00     0.001 A 
ATOM     22  C   UNK d   1      10.858   0.939   9.227  0.00  0.00     0.010 A 
ENDBRANCH  15  16
ENDBRANCH  11  15
ENDBRANCH   7   9
BRANCH   1  23
ATOM     23  S   UNK d   1       7.385   9.442  12.103  0.00  0.00     0.248 S 
ATOM     24  O   UNK d   1       7.356   9.539  10.604  0.00  0.00    -0.206 OA
ATOM     25  O   UNK d   1       7.911  10.775  12.592  0.00  0.00    -0.206 OA
BRANCH  23  26
ATOM     26  C   UNK d   1       5.800   9.188  12.766  0.00  0.00     0.132 A 
ATOM     27  C   UNK d   1       5.302   9.426  14.027  0.00  0.00     0.083 A 
ATOM     28  N   UNK d   1       3.989   9.041  14.032  0.00  0.00    -0.132 NA
ATOM     29  C   UNK d   1       6.066  10.004  15.149  0.00  0.00     0.074 C 
ATOM     30  O   UNK d   1       3.709   8.601  12.864  0.00  0.00    -0.216 OA
ATOM     31  C   UNK d   1       4.740   8.658  12.056  0.00  0.00     0.100 A 
ATOM     32  C   UNK d   1       4.697   8.215  10.645  0.00  0.00     0.081 C 
ENDBRANCH  23  26
ENDBRANCH   1  23
TORSDOF 5
ENDMDL
