/Users/jonathanwahrer/Desktop/Msc/3_Semester/Drug_Design_Praktikum/waehrer_HTS_screening/HTS_experiment/out/docking_results/vina_output/2jam/1810_docked.pdbqt
 OpenBabel03162218423D

 32 35  0  0  1  0  0  0  0  0999 V2000
    8.4970    8.2460   12.6390 N   0  0  0  0  0  0  0  0  0  0  0  0
    7.8220    7.1630   13.3080 C   0  0  0  0  0  2  0  0  0  0  0  0
    8.7960    6.0150   13.4270 C   0  0  0  0  0  2  0  0  0  0  0  0
   10.1210    6.4760   13.1000 N   0  0  0  0  0  0  0  0  0  0  0  0
   10.6190    7.7650   13.5660 C   0  0  0  0  0  2  0  0  0  0  0  0
    9.4800    8.7870   13.5570 C   0  0  0  0  0  2  0  0  0  0  0  0
   10.9620    5.6790   12.3040 C   0  0  0  0  0  0  0  0  0  0  0  0
   12.1500    6.0850   12.0570 O   0  0  0  0  0  0  0  0  0  0  0  0
   10.4780    4.3830   11.7530 C   0  0  1  0  0  3  0  0  0  0  0  0
   10.9030    4.1620   10.3300 C   0  0  0  0  0  2  0  0  0  0  0  0
   11.9990    3.2010   10.3940 N   0  0  0  0  0  0  0  0  0  0  0  0
   12.2930    2.9020   11.7460 C   0  0  0  0  0  0  0  0  0  0  0  0
   13.3930    2.4580   12.1540 O   0  0  0  0  0  0  0  0  0  0  0  0
   11.0630    3.2180   12.5030 C   0  0  0  0  0  2  0  0  0  0  0  0
   12.6770    2.6500    9.2430 C   0  0  0  0  0  2  0  0  0  0  0  0
   12.1290    1.3270    8.8610 C   0  0  0  0  0  0  0  0  0  0  0  0
   12.9140    0.4600    8.1150 C   0  0  0  0  0  0  0  0  0  0  0  0
   12.4700   -0.7910    7.7200 C   0  0  0  0  0  3  0  0  0  0  0  0
   14.5160    0.9800    7.6670 Cl  0  0  0  0  0  0  0  0  0  0  0  0
   11.1940   -1.1560    8.0990 C   0  0  0  0  0  3  0  0  0  0  0  0
   10.3850   -0.3150    8.8430 C   0  0  0  0  0  3  0  0  0  0  0  0
   10.8580    0.9390    9.2270 C   0  0  0  0  0  3  0  0  0  0  0  0
    7.3850    9.4420   12.1030 S   0  0  0  0  0  0  0  0  0  0  0  0
    7.3560    9.5390   10.6040 O   0  0  0  0  0  0  0  0  0  0  0  0
    7.9110   10.7750   12.5920 O   0  0  0  0  0  0  0  0  0  0  0  0
    5.8000    9.1880   12.7660 C   0  0  0  0  0  0  0  0  0  0  0  0
    5.3020    9.4260   14.0270 C   0  0  0  0  0  0  0  0  0  0  0  0
    3.9890    9.0410   14.0320 N   0  0  0  0  0  0  0  0  0  0  0  0
    6.0660   10.0040   15.1490 C   0  0  0  0  0  1  0  0  0  0  0  0
    3.7090    8.6010   12.8640 O   0  0  0  0  0  0  0  0  0  0  0  0
    4.7400    8.6580   12.0560 C   0  0  0  0  0  0  0  0  0  0  0  0
    4.6970    8.2150   10.6450 C   0  0  0  0  0  1  0  0  0  0  0  0
  1  2  1  0  0  0  0
  1  6  1  0  0  0  0
  2  3  1  0  0  0  0
  4  3  1  0  0  0  0
  4  5  1  0  0  0  0
  6  5  1  0  0  0  0
  7  4  1  0  0  0  0
  8  7  2  0  0  0  0
  9  7  1  1  0  0  0
  9 14  1  0  0  0  0
 10 11  1  0  0  0  0
 10  9  1  0  0  0  0
 11 12  1  0  0  0  0
 12 13  2  0  0  0  0
 12 14  1  0  0  0  0
 15 11  1  0  0  0  0
 16 22  1  0  0  0  0
 16 15  1  0  0  0  0
 17 16  2  0  0  0  0
 18 20  2  0  0  0  0
 18 17  1  0  0  0  0
 19 17  1  0  0  0  0
 20 21  1  0  0  0  0
 21 22  2  0  0  0  0
 23 25  2  0  0  0  0
 23  1  1  0  0  0  0
 23 26  1  0  0  0  0
 24 23  2  0  0  0  0
 26 27  1  0  0  0  0
 27 28  2  0  0  0  0
 27 29  1  0  0  0  0
 30 28  1  0  0  0  0
 31 26  2  0  0  0  0
 31 30  1  0  0  0  0
 32 31  1  0  0  0  0
M  END
>  <Pose>
1

>  <Score>
-9.922

$$$$
