MODEL 1
REMARK VINA RESULT:    -9.190      0.000      0.000
REMARK INTER + INTRA:         -12.116
REMARK INTER:                 -11.338
REMARK INTRA:                  -0.777
REMARK UNBOUND:                -0.777
REMARK  4 active torsions:
REMARK  status: ('A' for Active; 'I' for Inactive)
REMARK    1  A    between atoms: C_7  and  O_8 
REMARK    2  A    between atoms: C_13  and  C_16 
REMARK    3  A    between atoms: C_16  and  C_17 
REMARK       I    between atoms: C_17  and  N_19 
REMARK       I    between atoms: N_22  and  C_25 
REMARK    4  A    between atoms: C_25  and  C_27 
ROOT
ATOM      1  C   UNK d   1      11.241   7.159  11.824  0.00  0.00     0.224 C 
ATOM      2  O   UNK d   1      10.538   7.830  10.992  0.00  0.00    -0.273 OA
ATOM      3  N   UNK d   1      12.118   6.220  11.313  0.00  0.00    -0.349 N 
ATOM      4  C   UNK d   1      12.271   5.967   9.914  0.00  0.00     0.145 C 
ATOM      5  C   UNK d   1      11.928   4.497   9.662  0.00  0.00     0.145 C 
ATOM      6  N   UNK d   1      12.738   3.672  10.492  0.00  0.00    -0.355 N 
ATOM      7  C   UNK d   1      13.672   4.366  11.404  0.00  0.00     0.145 C 
ATOM      8  C   UNK d   1      12.944   5.430  12.197  0.00  0.00     0.145 C 
ATOM      9  C   UNK d   1      12.718   2.262  10.521  0.00  0.00     0.204 C 
ATOM     10  O   UNK d   1      13.585   1.739  11.382  0.00  0.00    -0.170 OA
ENDROOT
BRANCH   1  11
ATOM     11  C   UNK d   1      11.050   7.452  13.272  0.00  0.00     0.148 C 
BRANCH  11  12
ATOM     12  C   UNK d   1       9.616   7.436  13.641  0.00  0.00     0.033 A 
ATOM     13  C   UNK d   1       8.963   6.222  13.851  0.00  0.00     0.295 A 
ATOM     14  O   UNK d   1       7.697   6.148  14.181  0.00  0.00    -0.274 OA
ATOM     15  O   UNK d   1       9.668   5.168  13.707  0.00  0.00    -0.259 OA
ATOM     16  C   UNK d   1       6.940   7.206  14.339  0.00  0.00     0.093 A 
ATOM     17  C   UNK d   1       7.486   8.456  14.155  0.00  0.00     0.006 A 
ATOM     18  C   UNK d   1       5.588   7.095  14.691  0.00  0.00     0.076 A 
ATOM     19  C   UNK d   1       6.680   9.556  14.325  0.00  0.00     0.041 A 
ATOM     20  C   UNK d   1       8.835   8.558  13.804  0.00  0.00    -0.036 A 
ATOM     21  C   UNK d   1       5.338   9.441  14.674  0.00  0.00     0.068 A 
ATOM     22 Cl   UNK d   1       4.310  10.839  14.888  0.00  0.00    -0.081 Cl
ATOM     23  C   UNK d   1       4.782   8.196  14.860  0.00  0.00     0.092 A 
ATOM     24  C   UNK d   1       9.406   9.888  13.615  0.00  0.00     0.050 C 
BRANCH  23  25
ATOM     25  O   UNK d   1       3.425   8.074  15.212  0.00  0.00    -0.354 OA
ATOM     26  C   UNK d   1       3.020   7.810  16.533  0.00  0.00     0.210 C 
ENDBRANCH  23  25
ENDBRANCH  11  12
ENDBRANCH   1  11
BRANCH   9  27
ATOM     27  C   UNK d   1      11.941   1.301   9.797  0.00  0.00     0.095 A 
ATOM     28  C   UNK d   1      12.572   0.490   8.821  0.00  0.00     0.108 A 
ATOM     29  C   UNK d   1      11.863  -0.437   8.104  0.00  0.00     0.253 A 
ATOM     30  O   UNK d   1      12.448  -1.145   7.242  0.00  0.00    -0.268 OA
ATOM     31  N   UNK d   1      10.549  -0.632   8.275  0.00  0.00    -0.271 N 
ATOM     32  C   UNK d   1       9.955   0.131   9.193  0.00  0.00     0.329 A 
ATOM     33  C   UNK d   1       9.818  -1.613   7.507  0.00  0.00     0.164 C 
ATOM     34  O   UNK d   1       8.705  -0.016   9.394  0.00  0.00    -0.246 OA
ATOM     35  N   UNK d   1      10.639   1.072   9.932  0.00  0.00    -0.304 N 
ATOM     36  H   UNK d   1      10.084   1.612  10.625  0.00  0.00     0.171 HD
ENDBRANCH   9  27
TORSDOF 4
ENDMDL
