/Users/jonathanwahrer/Desktop/Msc/3_Semester/Drug_Design_Praktikum/waehrer_HTS_screening/HTS_experiment/out/docking_results/vina_output/2jam/1822_docked.pdbqt
 OpenBabel03162218423D

 24 27  0  0  1  0  0  0  0  0999 V2000
    8.3310    8.9570   12.3630 Cl  0  0  0  0  0  0  0  0  0  0  0  0
    9.2350    7.4520   12.5000 C   0  0  0  0  0  0  0  0  0  0  0  0
    9.3340    6.8580   13.7380 C   0  0  0  0  0  0  0  0  0  0  0  0
   10.0260    5.7120   13.8310 N   0  0  0  0  0  0  0  0  0  0  0  0
   10.6220    5.1250   12.7600 C   0  0  0  0  0  0  0  0  0  0  0  0
   10.5310    5.6950   11.5470 N   0  0  0  0  0  0  0  0  0  0  0  0
   11.1890    4.9420   10.6710 N   0  0  0  0  0  0  0  0  0  0  0  0
   11.7210    3.8680   11.2890 C   0  0  0  0  0  0  0  0  0  0  0  0
   11.3520    4.0090   12.5870 N   0  0  0  0  0  0  0  0  0  0  0  0
    9.8410    6.8550   11.4170 C   0  0  0  0  0  0  0  0  0  0  0  0
    9.7530    7.3960   10.2690 O   0  0  0  0  0  0  0  0  0  0  0  0
    8.6810    7.4940   14.9320 C   0  0  0  0  0  1  0  0  0  0  0  0
   10.1050    5.2550   14.7700 H   0  0  0  0  0  0  0  0  0  0  0  0
   12.4970    2.8220   10.7120 N   0  0  0  0  0  0  0  0  0  0  0  0
   12.0520    1.9000    9.7270 C   0  0  0  0  0  0  0  0  0  0  0  0
   11.0720    2.0080    8.9450 O   0  0  0  0  0  0  0  0  0  0  0  0
   12.9560    0.6990    9.7330 C   0  0  2  0  0  3  0  0  0  0  0  0
   14.1330    1.0890   10.5530 C   0  0  1  0  0  3  0  0  0  0  0  0
   13.3690    0.3940    8.3090 C   0  0  0  0  0  2  0  0  0  0  0  0
   15.4430    1.1420    9.7880 C   0  0  0  0  0  2  0  0  0  0  0  0
   13.8460    2.4710   10.9810 C   0  0  0  0  0  0  0  0  0  0  0  0
   15.1810    1.9530    8.5550 C   0  0  0  0  0  3  0  0  0  0  0  0
   14.1450    1.5650    7.8340 C   0  0  0  0  0  3  0  0  0  0  0  0
   14.6860    3.2610   11.5220 O   0  0  0  0  0  0  0  0  0  0  0  0
  1  2  1  0  0  0  0
  2  3  2  0  0  0  0
  3  4  1  0  0  0  0
  3 12  1  0  0  0  0
  4 13  1  0  0  0  0
  5  4  1  0  0  0  0
  6  5  1  0  0  0  0
  7  8  2  0  0  0  0
  7  6  1  0  0  0  0
  8  9  1  0  0  0  0
  9  5  2  0  0  0  0
 10  6  1  0  0  0  0
 10  2  1  0  0  0  0
 11 10  2  0  0  0  0
 14 21  1  0  0  0  0
 14  8  1  0  0  0  0
 15 17  1  0  0  0  0
 15 14  1  0  0  0  0
 16 15  2  0  0  0  0
 17 19  1  6  0  0  0
 17 18  1  0  0  0  0
 18 20  1  6  0  0  0
 18 21  1  0  0  0  0
 21 24  2  0  0  0  0
 22 20  1  0  0  0  0
 23 19  1  0  0  0  0
 23 22  2  0  0  0  0
M  END
>  <Pose>
1

>  <Score>
-8.476

$$$$
