MODEL 1
REMARK VINA RESULT:    -8.476      0.000      0.000
REMARK INTER + INTRA:          -9.328
REMARK INTER:                  -8.971
REMARK INTRA:                  -0.357
REMARK UNBOUND:                -0.357
REMARK  1 active torsions:
REMARK  status: ('A' for Active; 'I' for Inactive)
REMARK    1  A    between atoms: C_8  and  N_10 
ROOT
ATOM      1 Cl   UNK d   1       8.331   8.957  12.363  0.00  0.00    -0.076 Cl
ATOM      2  C   UNK d   1       9.235   7.452  12.500  0.00  0.00     0.127 A 
ATOM      3  C   UNK d   1       9.334   6.858  13.738  0.00  0.00     0.050 A 
ATOM      4  N   UNK d   1      10.026   5.712  13.831  0.00  0.00    -0.190 N 
ATOM      5  C   UNK d   1      10.622   5.125  12.760  0.00  0.00     0.747 A 
ATOM      6  N   UNK d   1      10.531   5.695  11.547  0.00  0.00    -0.005 N 
ATOM      7  N   UNK d   1      11.189   4.942  10.671  0.00  0.00     0.046 NA
ATOM      8  C   UNK d   1      11.721   3.868  11.289  0.00  0.00     0.772 A 
ATOM      9  N   UNK d   1      11.352   4.009  12.587  0.00  0.00     0.133 NA
ATOM     10  C   UNK d   1       9.841   6.855  11.417  0.00  0.00     0.308 A 
ATOM     11  O   UNK d   1       9.753   7.396  10.269  0.00  0.00    -0.264 OA
ATOM     12  C   UNK d   1       8.681   7.494  14.932  0.00  0.00     0.071 C 
ATOM     13  H   UNK d   1      10.105   5.255  14.770  0.00  0.00     0.184 HD
ENDROOT
BRANCH   8  14
ATOM     14  N   UNK d   1      12.497   2.822  10.712  0.00  0.00    -0.076 N 
ATOM     15  C   UNK d   1      12.052   1.900   9.727  0.00  0.00     0.251 C 
ATOM     16  O   UNK d   1      11.072   2.008   8.945  0.00  0.00    -0.272 OA
ATOM     17  C   UNK d   1      12.956   0.699   9.733  0.00  0.00     0.096 C 
ATOM     18  C   UNK d   1      14.133   1.089  10.553  0.00  0.00     0.096 C 
ATOM     19  C   UNK d   1      13.369   0.394   8.309  0.00  0.00     0.042 C 
ATOM     20  C   UNK d   1      15.443   1.142   9.788  0.00  0.00     0.042 C 
ATOM     21  C   UNK d   1      13.846   2.471  10.981  0.00  0.00     0.251 C 
ATOM     22  C   UNK d   1      15.181   1.953   8.555  0.00  0.00    -0.030 C 
ATOM     23  C   UNK d   1      14.145   1.565   7.834  0.00  0.00    -0.030 C 
ATOM     24  O   UNK d   1      14.686   3.261  11.522  0.00  0.00    -0.272 OA
ENDBRANCH   8  14
TORSDOF 1
ENDMDL
