/Users/jonathanwahrer/Desktop/Msc/3_Semester/Drug_Design_Praktikum/waehrer_HTS_screening/HTS_experiment/out/docking_results/vina_output/2jam/1825_docked.pdbqt
 OpenBabel03162218423D

 29 32  0  0  1  0  0  0  0  0999 V2000
   12.3330    3.6030   11.1830 N   0  0  0  0  0  0  0  0  0  0  0  0
   13.5200    3.1170   10.7130 C   0  0  1  0  0  3  0  0  0  0  0  0
   13.2850    2.0140    9.9820 N   0  0  0  0  0  0  0  0  0  0  0  0
   11.9730    1.7490    9.9480 C   0  0  0  0  0  0  0  0  0  0  0  0
   11.3990    2.7720   10.7170 C   0  0  0  0  0  3  0  0  0  0  0  0
   14.5620    1.4960    9.4920 C   0  0  0  0  0  2  0  0  0  0  0  0
   15.6180    2.1770   10.3420 C   0  0  0  0  0  2  0  0  0  0  0  0
   14.9670    3.4490   10.7540 C   0  0  0  0  0  2  0  0  0  0  0  0
   12.1930    4.7900   12.0400 C   0  0  0  0  0  2  0  0  0  0  0  0
   10.9420    5.5340   11.6220 C   0  0  0  0  0  0  0  0  0  0  0  0
    9.9350    5.8310   12.5260 N   0  0  0  0  0  0  0  0  0  0  0  0
   10.0930    5.5140   13.5310 H   0  0  0  0  0  0  0  0  0  0  0  0
   10.8960    5.8450   10.4270 O   0  0  0  0  0  0  0  0  0  0  0  0
    8.7320    6.5060   12.2400 C   0  0  0  0  0  0  0  0  0  0  0  0
    8.7020    7.9090   12.3930 C   0  0  0  0  0  0  0  0  0  0  0  0
    7.5590    8.6310   12.1360 C   0  0  0  0  0  0  0  0  0  0  0  0
    9.9140    8.6190   12.8380 C   0  0  0  0  0  1  0  0  0  0  0  0
    7.5080   10.3720   12.3160 Cl  0  0  0  0  0  0  0  0  0  0  0  0
    6.3980    8.0220   11.7210 C   0  0  0  0  0  3  0  0  0  0  0  0
    6.3960    6.6600   11.5650 C   0  0  0  0  0  3  0  0  0  0  0  0
    7.5690    5.9240   11.8290 C   0  0  0  0  0  3  0  0  0  0  0  0
   11.2030    0.6900    9.3160 C   0  0  0  0  0  0  0  0  0  0  0  0
    9.8610    0.5270    9.5230 C   0  0  0  0  0  3  0  0  0  0  0  0
    9.1120   -0.4630    8.9140 C   0  0  0  0  0  3  0  0  0  0  0  0
    9.7040   -1.3640    8.0410 C   0  0  0  0  0  0  0  0  0  0  0  0
   11.0520   -1.2000    7.8310 C   0  0  0  0  0  3  0  0  0  0  0  0
   11.8000   -0.2120    8.4400 C   0  0  0  0  0  3  0  0  0  0  0  0
    8.9860   -2.3680    7.4140 O   0  0  0  0  0  0  0  0  0  0  0  0
    7.8790   -2.1080    6.5700 C   0  0  0  0  0  1  0  0  0  0  0  0
  1  9  1  0  0  0  0
  2  8  1  6  0  0  0
  2  1  1  0  0  0  0
  3  2  1  0  0  0  0
  4  3  1  0  0  0  0
  4  5  2  0  0  0  0
  5  1  1  0  0  0  0
  6  3  1  0  0  0  0
  6  7  1  0  0  0  0
  7  8  1  0  0  0  0
 10  9  1  0  0  0  0
 10 11  1  0  0  0  0
 11 12  1  0  0  0  0
 13 10  2  0  0  0  0
 14 15  1  0  0  0  0
 14 11  1  0  0  0  0
 15 17  1  0  0  0  0
 16 18  1  0  0  0  0
 16 15  2  0  0  0  0
 19 16  1  0  0  0  0
 20 19  2  0  0  0  0
 20 21  1  0  0  0  0
 21 14  2  0  0  0  0
 22 23  1  0  0  0  0
 22  4  1  0  0  0  0
 24 23  2  0  0  0  0
 25 24  1  0  0  0  0
 26 25  2  0  0  0  0
 26 27  1  0  0  0  0
 27 22  2  0  0  0  0
 28 25  1  0  0  0  0
 29 28  1  0  0  0  0
M  END
>  <Pose>
1

>  <Score>
-9.305

$$$$
