MODEL 1
REMARK VINA RESULT:    -8.335      0.000      0.000
REMARK INTER + INTRA:         -13.258
REMARK INTER:                 -11.746
REMARK INTRA:                  -1.513
REMARK UNBOUND:                -1.513
REMARK  9 active torsions:
REMARK  status: ('A' for Active; 'I' for Inactive)
REMARK    1  A    between atoms: C_3  and  C_9 
REMARK    2  A    between atoms: N_10  and  N_11 
REMARK    3  A    between atoms: N_11  and  C_12 
REMARK    4  A    between atoms: N_13  and  C_22 
REMARK    5  A    between atoms: C_18  and  N_21 
REMARK    6  A    between atoms: C_24  and  C_29 
REMARK    7  A    between atoms: C_25  and  O_28 
REMARK    8  A    between atoms: C_26  and  O_27 
REMARK    9  A    between atoms: C_29  and  O_30 
ROOT
ATOM      1  C   UNK d   1      10.559   5.433  12.404  0.00  0.00     0.727 A 
ATOM      2  N   UNK d   1      10.821   6.744  12.530  0.00  0.00    -0.131 N 
ATOM      3  C   UNK d   1       9.643   7.374  12.380  0.00  0.00     0.182 A 
ATOM      4  N   UNK d   1       9.287   8.681  12.406  0.00  0.00    -0.221 NA
ATOM      5  C   UNK d   1       8.011   9.073  12.226  0.00  0.00     0.237 A 
ATOM      6  N   UNK d   1       7.044   8.155  12.013  0.00  0.00    -0.222 NA
ATOM      7  C   UNK d   1       7.319   6.838  11.973  0.00  0.00     0.156 A 
ATOM      8  C   UNK d   1       8.634   6.461  12.161  0.00  0.00     0.168 A 
ATOM      9  N   UNK d   1       9.236   5.249  12.180  0.00  0.00    -0.055 NA
ENDROOT
BRANCH   1  10
ATOM     10  N   UNK d   1      11.515   4.387  12.491  0.00  0.00    -0.107 N 
ATOM     11  H   UNK d   1      11.745   3.937  13.409  0.00  0.00     0.208 HD
BRANCH  10  12
ATOM     12  N   UNK d   1      12.198   3.906  11.372  0.00  0.00    -0.172 NA
ATOM     13  C   UNK d   1      12.697   2.726  11.418  0.00  0.00     0.154 C 
BRANCH  13  14
ATOM     14  C   UNK d   1      13.430   2.142  10.290  0.00  0.00     0.026 A 
ATOM     15  C   UNK d   1      14.780   2.360  10.123  0.00  0.00     0.047 A 
ATOM     16 Cl   UNK d   1      15.606   3.358  11.298  0.00  0.00    -0.083 Cl
ATOM     17  C   UNK d   1      15.457   1.793   9.041  0.00  0.00     0.025 A 
ATOM     18  C   UNK d   1      14.810   1.007   8.112  0.00  0.00     0.003 A 
ATOM     19  C   UNK d   1      13.458   0.793   8.287  0.00  0.00     0.025 A 
ATOM     20  C   UNK d   1      12.783   1.356   9.362  0.00  0.00     0.047 A 
ATOM     21 Cl   UNK d   1      11.058   1.074   9.570  0.00  0.00    -0.083 Cl
ENDBRANCH  13  14
ENDBRANCH  10  12
ENDBRANCH   1  10
BRANCH   2  22
ATOM     22  C   UNK d   1      12.062   7.420  12.772  0.00  0.00     0.279 C 
ATOM     23  O   UNK d   1      12.905   6.708  13.621  0.00  0.00    -0.353 OA
ATOM     24  C   UNK d   1      14.115   7.375  13.430  0.00  0.00     0.179 C 
ATOM     25  C   UNK d   1      14.255   7.288  11.918  0.00  0.00     0.182 C 
ATOM     26  C   UNK d   1      12.841   7.617  11.484  0.00  0.00     0.199 C 
BRANCH  24  27
ATOM     27  C   UNK d   1      15.263   6.709  14.138  0.00  0.00     0.198 C 
BRANCH  27  28
ATOM     28  O   UNK d   1      15.169   5.340  14.149  0.00  0.00    -0.398 OA
ATOM     29  H   UNK d   1      15.957   4.918  14.557  0.00  0.00     0.209 HD
ENDBRANCH  27  28
ENDBRANCH  24  27
BRANCH  25  30
ATOM     30  O   UNK d   1      15.174   8.207  11.431  0.00  0.00    -0.390 OA
ATOM     31  H   UNK d   1      14.750   9.106  11.480  0.00  0.00     0.210 HD
ENDBRANCH  25  30
BRANCH  26  32
ATOM     32  O   UNK d   1      12.837   8.956  11.085  0.00  0.00    -0.388 OA
ATOM     33  H   UNK d   1      11.931   9.315  11.009  0.00  0.00     0.210 HD
ENDBRANCH  26  32
ENDBRANCH   2  22
BRANCH   7  34
ATOM     34  N   UNK d   1       6.285   5.900  11.747  0.00  0.00    -0.382 N 
ATOM     35  H   UNK d   1       5.857   5.361  12.520  0.00  0.00     0.157 HD
ATOM     36  H   UNK d   1       5.947   5.747  10.781  0.00  0.00     0.157 HD
ENDBRANCH   7  34
TORSDOF 9
ENDMDL
