/Users/jonathanwahrer/Desktop/Msc/3_Semester/Drug_Design_Praktikum/waehrer_HTS_screening/HTS_experiment/out/docking_results/vina_output/2jam/1846_docked.pdbqt
 OpenBabel03162218433D

 31 34  0  0  1  0  0  0  0  0999 V2000
   10.4210    6.8050   11.6530 N   0  0  0  0  0  0  0  0  0  0  0  0
    9.7690    7.8210   11.0480 C   0  0  0  0  0  2  0  0  0  0  0  0
    8.5540    8.2120   11.4870 N   0  0  0  0  0  0  0  0  0  0  0  0
    7.9350    7.6340   12.5230 C   0  0  0  0  0  0  0  0  0  0  0  0
    6.7260    8.0160   12.9680 N   0  0  0  0  0  0  0  0  0  0  0  0
    6.0830    7.4520   14.0040 C   0  0  0  0  0  0  0  0  0  0  0  0
    6.7240    6.4260   14.6280 N   0  0  0  0  0  0  0  0  0  0  0  0
    7.9330    6.0130   14.2160 C   0  0  0  0  0  3  0  0  0  0  0  0
    8.5840    6.5990   13.1510 C   0  0  1  0  0  3  0  0  0  0  0  0
    9.8260    6.1880   12.7120 C   0  0  0  0  0  0  0  0  0  0  0  0
   10.3680    5.2360   13.3270 O   0  0  0  0  0  0  0  0  0  0  0  0
   11.7070    6.3290   11.2510 C   0  0  0  0  0  2  0  0  0  0  0  0
   11.6220    5.1010   10.3880 C   0  0  0  0  0  0  0  0  0  0  0  0
   11.8010    3.8190   10.9300 N   0  0  0  0  0  0  0  0  0  0  0  0
   12.0030    3.7370   11.9830 H   0  0  0  0  0  0  0  0  0  0  0  0
   11.3860    5.2960    9.1860 O   0  0  0  0  0  0  0  0  0  0  0  0
   11.7370    2.6330   10.1670 C   0  0  0  0  0  0  0  0  0  0  0  0
   10.6400    1.8190   10.0440 C   0  0  0  0  0  3  0  0  0  0  0  0
   10.7020    0.6590    9.2690 C   0  0  0  0  0  3  0  0  0  0  0  0
   11.8300    0.2600    8.5960 C   0  0  0  0  0  0  0  0  0  0  0  0
   12.9340    1.0690    8.7130 C   0  0  0  0  0  0  0  0  0  0  0  0
   14.4250    0.6540    7.8940 Cl  0  0  0  0  0  0  0  0  0  0  0  0
   12.8850    2.2120    9.4720 C   0  0  0  0  0  3  0  0  0  0  0  0
   11.8540   -0.9120    7.8280 O   0  0  0  0  0  0  0  0  0  0  0  0
   10.6440   -1.5240    7.4440 C   0  0  0  0  0  1  0  0  0  0  0  0
    4.8090    7.8840   14.4410 N   0  0  0  0  0  0  0  0  0  0  0  0
    4.2340    7.2610   15.6110 C   0  0  0  0  0  2  0  0  0  0  0  0
    3.5350    8.3320   16.4460 C   0  0  0  0  0  2  0  0  0  0  0  0
    2.6970    9.1270   15.6690 O   0  0  0  0  0  0  0  0  0  0  0  0
    3.5230    9.8830   14.8360 C   0  0  0  0  0  2  0  0  0  0  0  0
    4.0530    8.9180   13.7750 C   0  0  0  0  0  2  0  0  0  0  0  0
  1 10  1  0  0  0  0
  2  3  1  0  0  0  0
  2  1  1  0  0  0  0
  3  4  2  0  0  0  0
  4  5  1  0  0  0  0
  4  9  1  0  0  0  0
  5  6  2  0  0  0  0
  6 26  1  0  0  0  0
  6  7  1  0  0  0  0
  8  7  2  0  0  0  0
  9  8  1  6  0  0  0
 10  9  1  0  0  0  0
 10 11  2  0  0  0  0
 12  1  1  0  0  0  0
 13 14  1  0  0  0  0
 13 12  1  0  0  0  0
 14 15  1  0  0  0  0
 16 13  2  0  0  0  0
 17 14  1  0  0  0  0
 18 17  1  0  0  0  0
 19 18  2  0  0  0  0
 20 21  2  0  0  0  0
 20 19  1  0  0  0  0
 21 23  1  0  0  0  0
 22 21  1  0  0  0  0
 23 17  2  0  0  0  0
 24 20  1  0  0  0  0
 25 24  1  0  0  0  0
 26 27  1  0  0  0  0
 27 28  1  0  0  0  0
 29 28  1  0  0  0  0
 30 29  1  0  0  0  0
 31 26  1  0  0  0  0
 31 30  1  0  0  0  0
M  END
>  <Pose>
1

>  <Score>
-8.820

$$$$
