MODEL 1
REMARK VINA RESULT:    -8.820      0.000      0.000
REMARK INTER + INTRA:         -12.209
REMARK INTER:                 -11.398
REMARK INTRA:                  -0.811
REMARK UNBOUND:                -0.811
REMARK  5 active torsions:
REMARK  status: ('A' for Active; 'I' for Inactive)
REMARK    1  A    between atoms: C_3  and  O_29 
REMARK    2  A    between atoms: C_6  and  N_8 
REMARK       I    between atoms: N_8  and  C_9 
REMARK    3  A    between atoms: C_9  and  C_11 
REMARK    4  A    between atoms: C_11  and  N_12 
REMARK    5  A    between atoms: C_17  and  N_23 
ROOT
ATOM      1  N   UNK d   1      10.421   6.805  11.653  0.00  0.00    -0.299 N 
ATOM      2  C   UNK d   1       9.769   7.821  11.048  0.00  0.00     0.215 A 
ATOM      3  N   UNK d   1       8.554   8.212  11.487  0.00  0.00    -0.223 NA
ATOM      4  C   UNK d   1       7.935   7.634  12.523  0.00  0.00     0.186 A 
ATOM      5  N   UNK d   1       6.726   8.016  12.968  0.00  0.00    -0.042 NA
ATOM      6  C   UNK d   1       6.083   7.452  14.004  0.00  0.00     0.726 A 
ATOM      7  N   UNK d   1       6.724   6.426  14.628  0.00  0.00    -0.074 NA
ATOM      8  C   UNK d   1       7.933   6.013  14.216  0.00  0.00     0.157 A 
ATOM      9  C   UNK d   1       8.584   6.599  13.151  0.00  0.00     0.099 A 
ATOM     10  C   UNK d   1       9.826   6.188  12.712  0.00  0.00     0.264 A 
ATOM     11  O   UNK d   1      10.368   5.236  13.327  0.00  0.00    -0.267 OA
ENDROOT
BRANCH   1  12
ATOM     12  C   UNK d   1      11.707   6.329  11.251  0.00  0.00     0.236 C 
BRANCH  12  13
ATOM     13  C   UNK d   1      11.622   5.101  10.388  0.00  0.00     0.240 C 
ATOM     14  N   UNK d   1      11.801   3.819  10.930  0.00  0.00    -0.326 N 
ATOM     15  H   UNK d   1      12.003   3.737  11.983  0.00  0.00     0.169 HD
ATOM     16  O   UNK d   1      11.386   5.296   9.186  0.00  0.00    -0.271 OA
BRANCH  14  17
ATOM     17  C   UNK d   1      11.737   2.633  10.167  0.00  0.00     0.036 A 
ATOM     18  C   UNK d   1      10.640   1.819  10.044  0.00  0.00     0.032 A 
ATOM     19  C   UNK d   1      10.702   0.659   9.269  0.00  0.00     0.041 A 
ATOM     20  C   UNK d   1      11.830   0.260   8.596  0.00  0.00     0.090 A 
ATOM     21  C   UNK d   1      12.934   1.069   8.713  0.00  0.00     0.069 A 
ATOM     22 Cl   UNK d   1      14.425   0.654   7.894  0.00  0.00    -0.081 Cl
ATOM     23  C   UNK d   1      12.885   2.212   9.472  0.00  0.00     0.056 A 
BRANCH  20  24
ATOM     24  O   UNK d   1      11.854  -0.912   7.828  0.00  0.00    -0.354 OA
ATOM     25  C   UNK d   1      10.644  -1.524   7.444  0.00  0.00     0.210 C 
ENDBRANCH  20  24
ENDBRANCH  14  17
ENDBRANCH  12  13
ENDBRANCH   1  12
BRANCH   6  26
ATOM     26  N   UNK d   1       4.809   7.884  14.441  0.00  0.00    -0.210 N 
ATOM     27  C   UNK d   1       4.234   7.261  15.611  0.00  0.00     0.167 C 
ATOM     28  C   UNK d   1       3.535   8.332  16.446  0.00  0.00     0.188 C 
ATOM     29  O   UNK d   1       2.697   9.127  15.669  0.00  0.00    -0.388 OA
ATOM     30  C   UNK d   1       3.523   9.883  14.836  0.00  0.00     0.188 C 
ATOM     31  C   UNK d   1       4.053   8.918  13.775  0.00  0.00     0.167 C 
ENDBRANCH   6  26
TORSDOF 5
ENDMDL
