MODEL 1
REMARK VINA RESULT:    -9.119      0.000      0.000
REMARK INTER + INTRA:         -11.039
REMARK INTER:                 -10.718
REMARK INTRA:                  -0.321
REMARK UNBOUND:                -0.321
REMARK  3 active torsions:
REMARK  status: ('A' for Active; 'I' for Inactive)
REMARK       I    between atoms: N_9  and  C_12 
REMARK    1  A    between atoms: C_12  and  C_14 
REMARK    2  A    between atoms: C_14  and  O_15 
REMARK    3  A    between atoms: O_15  and  C_16 
ROOT
ATOM      1 Cl   UNK d   1      15.070   0.742   8.373  0.00  0.00    -0.084 Cl
ATOM      2  C   UNK d   1      13.328   0.558   8.525  0.00  0.00     0.041 A 
ATOM      3  C   UNK d   1      12.616   1.339   9.414  0.00  0.00    -0.027 A 
ATOM      4  C   UNK d   1      11.263   1.196   9.533  0.00  0.00    -0.032 A 
ATOM      5  C   UNK d   1      10.632   0.258   8.748  0.00  0.00     0.009 A 
ATOM      6  C   UNK d   1      11.323  -0.532   7.855  0.00  0.00     0.002 A 
ATOM      7  C   UNK d   1      12.690  -0.380   7.742  0.00  0.00     0.024 A 
ATOM      8  C   UNK d   1      10.430   1.997  10.463  0.00  0.00     0.165 C 
ATOM      9  N   UNK d   1      11.278   3.023  11.018  0.00  0.00    -0.346 N 
ATOM     10  C   UNK d   1      12.582   2.610  11.479  0.00  0.00     0.131 C 
ATOM     11  C   UNK d   1      13.400   2.323  10.215  0.00  0.00     0.061 C 
ATOM     12  C   UNK d   1      10.877   4.376  11.117  0.00  0.00     0.244 C 
ATOM     13  O   UNK d   1      11.666   5.224  11.612  0.00  0.00    -0.271 OA
ENDROOT
BRANCH  12  14
ATOM     14  C   UNK d   1       9.556   4.870  10.664  0.00  0.00     0.280 C 
BRANCH  14  15
ATOM     15  O   UNK d   1       9.450   6.256  10.757  0.00  0.00    -0.324 OA
BRANCH  15  16
ATOM     16  C   UNK d   1       8.535   6.916  11.568  0.00  0.00     0.184 A 
ATOM     17  N   UNK d   1       8.449   8.258  11.505  0.00  0.00    -0.139 NA
ATOM     18  N   UNK d   1       7.594   8.948  12.255  0.00  0.00    -0.203 N 
ATOM     19  C   UNK d   1       6.762   8.356  13.122  0.00  0.00     0.174 A 
ATOM     20  C   UNK d   1       7.365  10.272  12.334  0.00  0.00     0.261 A 
ATOM     21  N   UNK d   1       6.020   9.298  13.736  0.00  0.00    -0.129 NA
ATOM     22  C   UNK d   1       6.823   6.970  13.213  0.00  0.00     0.059 A 
ATOM     23  N   UNK d   1       6.397  10.454  13.248  0.00  0.00    -0.141 NA
ATOM     24  C   UNK d   1       7.705   6.256  12.439  0.00  0.00     0.063 A 
ENDBRANCH  15  16
ENDBRANCH  14  15
ENDBRANCH  12  14
TORSDOF 3
ENDMDL
