/Users/jonathanwahrer/Desktop/Msc/3_Semester/Drug_Design_Praktikum/waehrer_HTS_screening/HTS_experiment/out/docking_results/vina_output/2jam/1850_docked.pdbqt
 OpenBabel03162218433D

 24 27  0  0  0  0  0  0  0  0999 V2000
   15.0700    0.7420    8.3730 Cl  0  0  0  0  0  0  0  0  0  0  0  0
   13.3280    0.5580    8.5250 C   0  0  0  0  0  0  0  0  0  0  0  0
   12.6160    1.3390    9.4140 C   0  0  0  0  0  0  0  0  0  0  0  0
   11.2630    1.1960    9.5330 C   0  0  0  0  0  0  0  0  0  0  0  0
   10.6320    0.2580    8.7480 C   0  0  0  0  0  3  0  0  0  0  0  0
   11.3230   -0.5320    7.8550 C   0  0  0  0  0  3  0  0  0  0  0  0
   12.6900   -0.3800    7.7420 C   0  0  0  0  0  3  0  0  0  0  0  0
   10.4300    1.9970   10.4630 C   0  0  0  0  0  2  0  0  0  0  0  0
   11.2780    3.0230   11.0180 N   0  0  0  0  0  0  0  0  0  0  0  0
   12.5820    2.6100   11.4790 C   0  0  0  0  0  2  0  0  0  0  0  0
   13.4000    2.3230   10.2150 C   0  0  0  0  0  2  0  0  0  0  0  0
   10.8770    4.3760   11.1170 C   0  0  0  0  0  0  0  0  0  0  0  0
   11.6660    5.2240   11.6120 O   0  0  0  0  0  0  0  0  0  0  0  0
    9.5560    4.8700   10.6640 C   0  0  0  0  0  2  0  0  0  0  0  0
    9.4500    6.2560   10.7570 O   0  0  0  0  0  0  0  0  0  0  0  0
    8.5350    6.9160   11.5680 C   0  0  0  0  0  0  0  0  0  0  0  0
    8.4490    8.2580   11.5050 N   0  0  0  0  0  0  0  0  0  0  0  0
    7.5940    8.9480   12.2550 N   0  0  0  0  0  0  0  0  0  0  0  0
    6.7620    8.3560   13.1220 C   0  0  0  0  0  0  0  0  0  0  0  0
    7.3650   10.2720   12.3340 C   0  0  0  0  0  3  0  0  0  0  0  0
    6.0200    9.2980   13.7360 N   0  0  0  0  0  0  0  0  0  0  0  0
    6.8230    6.9700   13.2130 C   0  0  0  0  0  3  0  0  0  0  0  0
    6.3970   10.4540   13.2480 N   0  0  0  0  0  0  0  0  0  0  0  0
    7.7050    6.2560   12.4390 C   0  0  0  0  0  3  0  0  0  0  0  0
  1  2  1  0  0  0  0
  2  3  1  0  0  0  0
  3  4  2  0  0  0  0
  3 11  1  0  0  0  0
  4  8  1  0  0  0  0
  5  4  1  0  0  0  0
  6  5  2  0  0  0  0
  7  6  1  0  0  0  0
  7  2  2  0  0  0  0
  8  9  1  0  0  0  0
  9 12  1  0  0  0  0
  9 10  1  0  0  0  0
 11 10  1  0  0  0  0
 12 13  2  0  0  0  0
 14 15  1  0  0  0  0
 14 12  1  0  0  0  0
 15 16  1  0  0  0  0
 16 24  1  0  0  0  0
 17 16  2  0  0  0  0
 17 18  1  0  0  0  0
 18 20  1  0  0  0  0
 18 19  1  0  0  0  0
 19 22  1  0  0  0  0
 19 21  2  0  0  0  0
 20 23  2  0  0  0  0
 23 21  1  0  0  0  0
 24 22  2  0  0  0  0
M  END
>  <Pose>
1

>  <Score>
-9.119

$$$$
