/Users/jonathanwahrer/Desktop/Msc/3_Semester/Drug_Design_Praktikum/waehrer_HTS_screening/HTS_experiment/out/docking_results/vina_output/2jam/1856_docked.pdbqt
 OpenBabel03162218443D

 31 34  0  0  0  0  0  0  0  0999 V2000
   11.6130    4.7830    9.8460 C   0  0  0  0  0  0  0  0  0  0  0  0
   12.7910    4.8010   10.4890 N   0  0  0  0  0  4  0  0  0  0  0  0
   13.4730    3.6830   10.8520 C   0  0  0  0  0  0  0  0  0  0  0  0
   12.8730    2.5100   10.5160 N   0  0  0  0  0  0  0  0  0  0  0  0
   11.6970    2.4300    9.8750 C   0  0  0  0  0  0  0  0  0  0  0  0
   11.0930    3.5660    9.5530 N   0  0  0  0  0  2  0  0  0  0  0  0
   10.9390    5.9810    9.4880 N   0  0  0  0  0  0  0  0  0  0  0  0
   11.2740    6.5720    8.7020 H   0  0  0  0  0  0  0  0  0  0  0  0
    9.8020    6.4050   10.1770 N   0  0  0  0  0  0  0  0  0  0  0  0
    9.9520    6.7750   11.4300 C   0  0  0  0  0  3  0  0  0  0  0  0
    8.7940    7.2250   12.1860 C   0  0  0  0  0  0  0  0  0  0  0  0
    8.9410    8.2620   13.1200 C   0  0  0  0  0  3  0  0  0  0  0  0
    7.8670    8.6970   13.8380 C   0  0  0  0  0  0  0  0  0  0  0  0
    8.0610   10.1060   15.1090 Br  0  0  0  0  0  0  0  0  0  0  0  0
    6.6220    8.1350   13.6650 C   0  0  0  0  0  3  0  0  0  0  0  0
    6.4540    7.1200   12.7580 C   0  0  0  0  0  3  0  0  0  0  0  0
    7.5560    6.6670   12.0150 C   0  0  0  0  0  0  0  0  0  0  0  0
    7.3530    5.6430   11.1110 O   0  0  0  0  0  0  0  0  0  0  0  0
    6.6490    4.9390   11.1970 H   0  0  0  0  0  0  0  0  0  0  0  0
   14.7080    3.7370   11.5250 N   0  0  0  0  0  0  0  0  0  0  0  0
   15.8300    2.9850   11.0490 C   0  0  0  0  0  2  0  0  0  0  0  0
   16.9850    3.9590   10.8870 C   0  0  0  0  0  2  0  0  0  0  0  0
   17.2070    4.5390   12.1450 O   0  0  0  0  0  0  0  0  0  0  0  0
   16.1430    5.3740   12.4850 C   0  0  0  0  0  2  0  0  0  0  0  0
   14.8740    4.5400   12.6980 C   0  0  0  0  0  2  0  0  0  0  0  0
   11.1310    1.1730    9.5560 N   0  0  0  0  0  0  0  0  0  0  0  0
   11.8520    0.1350    8.8480 C   0  0  0  0  0  2  0  0  0  0  0  0
   11.3470   -1.2240    9.2800 C   0  0  0  0  0  2  0  0  0  0  0  0
    9.9990   -1.3920    9.1090 O   0  0  0  0  0  0  0  0  0  0  0  0
    9.3080   -0.2050    8.9020 C   0  0  0  0  0  2  0  0  0  0  0  0
    9.7540    0.8320    9.9280 C   0  0  0  0  0  2  0  0  0  0  0  0
  1  2  2  0  0  0  0
  2  3  2  0  0  0  0
  3 20  1  0  0  0  0
  4  3  1  0  0  0  0
  5  4  2  0  0  0  0
  6  1  1  0  0  0  0
  6  5  1  0  0  0  0
  7  1  1  0  0  0  0
  7  9  1  0  0  0  0
  8  7  1  0  0  0  0
  9 10  2  0  0  0  0
 10 11  1  0  0  0  0
 11 12  1  0  0  0  0
 12 13  2  0  0  0  0
 13 14  1  0  0  0  0
 15 13  1  0  0  0  0
 16 15  2  0  0  0  0
 17 11  2  0  0  0  0
 17 16  1  0  0  0  0
 18 19  1  0  0  0  0
 18 17  1  0  0  0  0
 20 25  1  0  0  0  0
 21 20  1  0  0  0  0
 22 21  1  0  0  0  0
 22 23  1  0  0  0  0
 23 24  1  0  0  0  0
 24 25  1  0  0  0  0
 26  5  1  0  0  0  0
 26 31  1  0  0  0  0
 27 28  1  0  0  0  0
 27 26  1  0  0  0  0
 29 28  1  0  0  0  0
 30 29  1  0  0  0  0
 30 31  1  0  0  0  0
M  END
>  <Pose>
1

>  <Score>
-8.483

$$$$
