MODEL 1
REMARK VINA RESULT:    -8.483      0.000      0.000
REMARK INTER + INTRA:         -12.169
REMARK INTER:                 -11.210
REMARK INTRA:                  -0.958
REMARK UNBOUND:                -0.958
REMARK  6 active torsions:
REMARK  status: ('A' for Active; 'I' for Inactive)
REMARK    1  A    between atoms: C_4  and  C_9 
REMARK    2  A    between atoms: C_5  and  O_8 
REMARK    3  A    between atoms: N_10  and  N_11 
REMARK    4  A    between atoms: N_11  and  C_12 
REMARK    5  A    between atoms: C_14  and  N_24 
REMARK    6  A    between atoms: C_16  and  N_18 
ROOT
ATOM      1  C   UNK d   1      11.613   4.783   9.846  0.00  0.00     0.774 A 
ATOM      2  N   UNK d   1      12.791   4.801  10.489  0.00  0.00     0.133 NA
ATOM      3  C   UNK d   1      13.473   3.683  10.852  0.00  0.00     0.756 A 
ATOM      4  N   UNK d   1      12.873   2.510  10.516  0.00  0.00     0.131 NA
ATOM      5  C   UNK d   1      11.697   2.430   9.875  0.00  0.00     0.756 A 
ATOM      6  N   UNK d   1      11.093   3.566   9.553  0.00  0.00     0.133 NA
ENDROOT
BRANCH   1   7
ATOM      7  N   UNK d   1      10.939   5.981   9.488  0.00  0.00    -0.105 N 
ATOM      8  H   UNK d   1      11.274   6.572   8.702  0.00  0.00     0.208 HD
BRANCH   7   9
ATOM      9  N   UNK d   1       9.802   6.405  10.177  0.00  0.00    -0.171 NA
ATOM     10  C   UNK d   1       9.952   6.775  11.430  0.00  0.00     0.153 C 
BRANCH  10  11
ATOM     11  C   UNK d   1       8.794   7.225  12.186  0.00  0.00     0.017 A 
ATOM     12  C   UNK d   1       8.941   8.262  13.120  0.00  0.00     0.034 A 
ATOM     13  C   UNK d   1       7.867   8.697  13.838  0.00  0.00     0.011 A 
ATOM     14 Br   UNK d   1       8.061  10.106  15.109  0.00  0.00    -0.051 Br
ATOM     15  C   UNK d   1       6.622   8.135  13.665  0.00  0.00     0.022 A 
ATOM     16  C   UNK d   1       6.454   7.120  12.758  0.00  0.00     0.039 A 
ATOM     17  C   UNK d   1       7.556   6.667  12.015  0.00  0.00     0.077 A 
BRANCH  17  18
ATOM     18  O   UNK d   1       7.353   5.643  11.111  0.00  0.00    -0.360 OA
ATOM     19  H   UNK d   1       6.649   4.939  11.197  0.00  0.00     0.217 HD
ENDBRANCH  17  18
ENDBRANCH  10  11
ENDBRANCH   7   9
ENDBRANCH   1   7
BRANCH   3  20
ATOM     20  N   UNK d   1      14.708   3.737  11.525  0.00  0.00    -0.209 N 
ATOM     21  C   UNK d   1      15.830   2.985  11.049  0.00  0.00     0.167 C 
ATOM     22  C   UNK d   1      16.985   3.959  10.887  0.00  0.00     0.188 C 
ATOM     23  O   UNK d   1      17.207   4.539  12.145  0.00  0.00    -0.388 OA
ATOM     24  C   UNK d   1      16.143   5.374  12.485  0.00  0.00     0.188 C 
ATOM     25  C   UNK d   1      14.874   4.540  12.698  0.00  0.00     0.167 C 
ENDBRANCH   3  20
BRANCH   5  26
ATOM     26  N   UNK d   1      11.131   1.173   9.556  0.00  0.00    -0.209 N 
ATOM     27  C   UNK d   1      11.852   0.135   8.848  0.00  0.00     0.167 C 
ATOM     28  C   UNK d   1      11.347  -1.224   9.280  0.00  0.00     0.188 C 
ATOM     29  O   UNK d   1       9.999  -1.392   9.109  0.00  0.00    -0.388 OA
ATOM     30  C   UNK d   1       9.308  -0.205   8.902  0.00  0.00     0.188 C 
ATOM     31  C   UNK d   1       9.754   0.832   9.928  0.00  0.00     0.167 C 
ENDBRANCH   5  26
TORSDOF 6
ENDMDL
