MODEL 1
REMARK VINA RESULT:    -8.136      0.000      0.000
REMARK INTER + INTRA:         -11.749
REMARK INTER:                 -10.514
REMARK INTRA:                  -1.235
REMARK UNBOUND:                -1.235
REMARK  5 active torsions:
REMARK  status: ('A' for Active; 'I' for Inactive)
REMARK    1  A    between atoms: C_4  and  C_8 
REMARK    2  A    between atoms: C_8  and  N_9 
REMARK    3  A    between atoms: C_13  and  N_14 
REMARK    4  A    between atoms: N_17  and  C_20 
REMARK    5  A    between atoms: C_20  and  C_21 
REMARK       I    between atoms: C_21  and  N_23 
ROOT
ATOM      1  N   UNK d   1      14.589   4.175  11.487  0.00  0.00    -0.168 N 
ATOM      2  C   UNK d   1      15.827   4.736  11.568  0.00  0.00     0.167 A 
ATOM      3  C   UNK d   1      15.670   6.096  11.528  0.00  0.00     0.185 A 
ATOM      4  N   UNK d   1      14.359   6.313  11.425  0.00  0.00    -0.044 NA
ATOM      5  C   UNK d   1      13.671   5.141  11.397  0.00  0.00     0.707 A 
ATOM      6  N   UNK d   1      16.768   6.869  11.578  0.00  0.00    -0.286 N 
ATOM      7  C   UNK d   1      18.015   6.333  11.664  0.00  0.00     0.330 A 
ATOM      8  O   UNK d   1      19.060   7.057  11.712  0.00  0.00    -0.246 OA
ATOM      9  N   UNK d   1      18.201   5.003  11.704  0.00  0.00    -0.273 N 
ATOM     10  C   UNK d   1      17.117   4.217  11.656  0.00  0.00     0.280 A 
ATOM     11  O   UNK d   1      17.324   2.983  11.693  0.00  0.00    -0.265 OA
ATOM     12  C   UNK d   1      16.655   8.304  11.534  0.00  0.00     0.163 C 
ATOM     13  H   UNK d   1      19.179   4.588  11.772  0.00  0.00     0.173 HD
ENDROOT
BRANCH   5  14
ATOM     14  N   UNK d   1      12.239   5.040  11.248  0.00  0.00    -0.212 N 
ATOM     15  C   UNK d   1      11.477   5.270  12.453  0.00  0.00     0.171 C 
ATOM     16  C   UNK d   1       9.984   5.242  12.241  0.00  0.00     0.293 C 
ATOM     17  N   UNK d   1       9.691   6.027  11.098  0.00  0.00     0.100 N 
ATOM     18  C   UNK d   1      10.239   5.470   9.906  0.00  0.00     0.293 C 
ATOM     19  C   UNK d   1      11.540   4.737  10.046  0.00  0.00     0.171 C 
BRANCH  17  20
ATOM     20  C   UNK d   1      10.028   7.398  11.319  0.00  0.00     0.374 C 
BRANCH  20  21
ATOM     21  C   UNK d   1       8.902   8.224  11.845  0.00  0.00     0.243 C 
ATOM     22  O   UNK d   1       7.803   8.347  11.281  0.00  0.00    -0.272 OA
ATOM     23  N   UNK d   1       9.169   8.893  13.085  0.00  0.00    -0.369 N 
ATOM     24  H   UNK d   1       9.684   9.802  13.119  0.00  0.00     0.159 HD
ATOM     25  H   UNK d   1       8.846   8.465  13.950  0.00  0.00     0.159 HD
ENDBRANCH  20  21
ENDBRANCH  17  20
ENDBRANCH   5  14
BRANCH   1  26
ATOM     26  C   UNK d   1      14.364   2.769  11.528  0.00  0.00     0.186 C 
BRANCH  26  27
ATOM     27  C   UNK d   1      14.183   2.107  10.209  0.00  0.00    -0.038 A 
ATOM     28  C   UNK d   1      13.035   1.324  10.017  0.00  0.00     0.032 A 
ATOM     29  C   UNK d   1      12.768   0.664   8.851  0.00  0.00     0.034 A 
ATOM     30 Cl   UNK d   1      11.326  -0.314   8.597  0.00  0.00    -0.084 Cl
ATOM     31  C   UNK d   1      13.660   0.761   7.805  0.00  0.00     0.024 A 
ATOM     32  C   UNK d   1      14.793   1.530   7.984  0.00  0.00     0.002 A 
ATOM     33  C   UNK d   1      15.058   2.198   9.170  0.00  0.00     0.009 A 
ENDBRANCH  26  27
ENDBRANCH   1  26
TORSDOF 5
ENDMDL
