MODEL 1
REMARK VINA RESULT:    -7.754      0.000      0.000
REMARK INTER + INTRA:          -8.222
REMARK INTER:                  -9.340
REMARK INTRA:                   1.118
REMARK UNBOUND:                 1.118
REMARK  4 active torsions:
REMARK  status: ('A' for Active; 'I' for Inactive)
REMARK    1  A    between atoms: C_5  and  C_8 
REMARK    2  A    between atoms: C_8  and  O_26 
REMARK    3  A    between atoms: N_9  and  C_18 
REMARK    4  A    between atoms: C_21  and  O_24 
ROOT
ATOM      1  C   UNK d   1      12.045   5.676  10.408  0.00  0.00     0.287 C 
ATOM      2  N   UNK d   1      12.821   4.499  10.397  0.00  0.00     0.042 N 
ATOM      3  C   UNK d   1      13.894   4.606  11.292  0.00  0.00     0.210 C 
ATOM      4  C   UNK d   1      14.974   3.972  11.679  0.00  0.00     0.030 C 
ATOM      5  C   UNK d   1      15.850   4.510  12.725  0.00  0.00     0.032 C 
ATOM      6  C   UNK d   1      15.379   5.571  13.606  0.00  0.00     0.024 C 
ATOM      7  C   UNK d   1      14.022   6.137  13.270  0.00  0.00     0.125 C 
ATOM      8  N   UNK d   1      13.690   5.908  11.909  0.00  0.00    -0.351 N 
ATOM      9  C   UNK d   1      13.133   6.686  10.809  0.00  0.00     0.151 C 
ATOM     10  C   UNK d   1      12.651   7.995  11.278  0.00  0.00     0.038 C 
ATOM     11  H   UNK d   1      13.373   4.611   9.431  0.00  0.00     0.299 HD
ENDROOT
BRANCH   1  12
ATOM     12  C   UNK d   1      10.924   5.773  11.341  0.00  0.00     0.008 A 
ATOM     13  C   UNK d   1       9.744   6.335  10.932  0.00  0.00     0.014 A 
ATOM     14  C   UNK d   1       8.652   6.468  11.788  0.00  0.00     0.024 A 
ATOM     15  C   UNK d   1       8.780   6.013  13.093  0.00  0.00     0.034 A 
ATOM     16 Cl   UNK d   1       7.466   6.137  14.248  0.00  0.00    -0.084 Cl
ATOM     17  C   UNK d   1       9.976   5.448  13.490  0.00  0.00     0.024 A 
ATOM     18  C   UNK d   1      11.056   5.317  12.641  0.00  0.00     0.014 A 
ENDBRANCH   1  12
BRANCH   1  19
ATOM     19  O   UNK d   1      11.687   6.016   9.123  0.00  0.00    -0.359 OA
ATOM     20  H   UNK d   1      11.460   5.286   8.519  0.00  0.00     0.213 HD
ENDBRANCH   1  19
BRANCH   2  21
ATOM     21  C   UNK d   1      12.173   3.291  10.156  0.00  0.00     0.146 A 
ATOM     22  C   UNK d   1      12.899   2.302   9.512  0.00  0.00     0.041 A 
ATOM     23  C   UNK d   1      12.373   1.071   9.206  0.00  0.00     0.039 A 
ATOM     24  C   UNK d   1      11.055   0.730   9.528  0.00  0.00     0.068 A 
ATOM     25  C   UNK d   1      10.359   1.728  10.164  0.00  0.00     0.039 A 
ATOM     26  C   UNK d   1      10.892   2.957  10.467  0.00  0.00     0.041 A 
BRANCH  24  27
ATOM     27  O   UNK d   1      10.538  -0.513   9.219  0.00  0.00    -0.356 OA
ATOM     28  C   UNK d   1       9.197  -0.626   8.814  0.00  0.00     0.210 C 
ENDBRANCH  24  27
ENDBRANCH   2  21
TORSDOF 4
ENDMDL
