MODEL 1
REMARK VINA RESULT:    -9.047      0.000      0.000
REMARK INTER + INTRA:         -11.749
REMARK INTER:                 -11.163
REMARK INTRA:                  -0.586
REMARK UNBOUND:                -0.586
REMARK  4 active torsions:
REMARK  status: ('A' for Active; 'I' for Inactive)
REMARK    1  A    between atoms: C_5  and  N_8 
REMARK    2  A    between atoms: N_15  and  C_16 
REMARK    3  A    between atoms: C_16  and  C_17 
REMARK    4  A    between atoms: C_19  and  O_23 
ROOT
ATOM      1  N   UNK d   1      10.921   3.538  10.946  0.00  0.00    -0.241 N 
ATOM      2  C   UNK d   1      10.387   4.728  10.584  0.00  0.00     0.286 A 
ATOM      3  O   UNK d   1      10.120   5.047   9.395  0.00  0.00    -0.265 OA
ATOM      4  C   UNK d   1      10.179   5.535  11.690  0.00  0.00     0.154 A 
ATOM      5  C   UNK d   1      10.589   4.834  12.735  0.00  0.00     0.152 A 
ATOM      6  N   UNK d   1      10.385   5.623  13.811  0.00  0.00    -0.279 N 
ATOM      7  N   UNK d   1       9.859   6.785  13.401  0.00  0.00    -0.239 N 
ATOM      8  N   UNK d   1       9.727   6.739  12.085  0.00  0.00    -0.266 N 
ATOM      9  C   UNK d   1      11.043   3.612  12.282  0.00  0.00     0.286 A 
ATOM     10  O   UNK d   1      11.497   2.721  13.033  0.00  0.00    -0.265 OA
ATOM     11  H   UNK d   1      10.605   5.365  14.790  0.00  0.00     0.189 HD
ATOM     12  H   UNK d   1       9.585   7.608  13.979  0.00  0.00     0.208 HD
ENDROOT
BRANCH   8  13
ATOM     13  C   UNK d   1       9.197   7.779  11.229  0.00  0.00     0.189 C 
BRANCH  13  14
ATOM     14  C   UNK d   1       8.136   8.585  11.882  0.00  0.00    -0.036 A 
ATOM     15  C   UNK d   1       6.793   8.290  11.821  0.00  0.00     0.045 A 
ATOM     16  C   UNK d   1       5.809   9.042  12.431  0.00  0.00     0.068 A 
ATOM     17  C   UNK d   1       6.177  10.156  13.146  0.00  0.00     0.037 A 
ATOM     18  C   UNK d   1       7.509  10.489  13.234  0.00  0.00     0.003 A 
ATOM     19  C   UNK d   1       8.475   9.716  12.611  0.00  0.00     0.009 A 
BRANCH  16  20
ATOM     20  O   UNK d   1       4.470   8.653  12.306  0.00  0.00    -0.356 OA
ATOM     21  C   UNK d   1       3.499   9.028  13.261  0.00  0.00     0.210 C 
ENDBRANCH  16  20
ENDBRANCH  13  14
ENDBRANCH   8  13
BRANCH   1  22
ATOM     22  C   UNK d   1      11.266   2.469  10.091  0.00  0.00     0.046 A 
ATOM     23  C   UNK d   1      12.546   2.317   9.602  0.00  0.00     0.032 A 
ATOM     24  C   UNK d   1      12.909   1.279   8.763  0.00  0.00     0.026 A 
ATOM     25  C   UNK d   1      11.944   0.361   8.406  0.00  0.00     0.034 A 
ATOM     26 Cl   UNK d   1      12.332  -0.993   7.338  0.00  0.00    -0.084 Cl
ATOM     27  C   UNK d   1      10.649   0.469   8.869  0.00  0.00     0.026 A 
ATOM     28  C   UNK d   1      10.328   1.530   9.711  0.00  0.00     0.032 A 
ENDBRANCH   1  22
TORSDOF 4
ENDMDL
