MODEL 1
REMARK VINA RESULT:    -8.545      0.000      0.000
REMARK INTER + INTRA:         -10.936
REMARK INTER:                 -10.043
REMARK INTRA:                  -0.893
REMARK UNBOUND:                -0.893
REMARK  3 active torsions:
REMARK  status: ('A' for Active; 'I' for Inactive)
REMARK    1  A    between atoms: S_1  and  N_4 
REMARK    2  A    between atoms: S_1  and  C_26 
REMARK       I    between atoms: N_7  and  C_10 
REMARK    3  A    between atoms: C_12  and  N_13 
ROOT
ATOM      1  N   UNK d   1       7.508   8.483  11.739  0.00  0.00    -0.303 N 
ATOM      2  C   UNK d   1       8.477   7.466  11.613  0.00  0.00     0.155 C 
ATOM      3  C   UNK d   1       9.860   8.149  11.585  0.00  0.00     0.145 C 
ATOM      4  N   UNK d   1      10.013   8.645  12.929  0.00  0.00    -0.358 N 
ATOM      5  C   UNK d   1       9.045   9.718  13.243  0.00  0.00     0.145 C 
ATOM      6  C   UNK d   1       7.699   9.501  12.685  0.00  0.00     0.155 C 
ATOM      7  C   UNK d   1      10.914   8.257  13.919  0.00  0.00     0.172 C 
ATOM      8  O   UNK d   1      10.759   8.928  15.045  0.00  0.00    -0.175 OA
ATOM      9  C   UNK d   1      11.976   7.289  14.000  0.00  0.00     0.224 C 
ENDROOT
BRANCH   9  10
ATOM     10  N   UNK d   1      12.269   6.500  12.842  0.00  0.00    -0.260 N 
ATOM     11  C   UNK d   1      13.264   6.799  11.861  0.00  0.00     0.326 C 
ATOM     12  O   UNK d   1      14.006   7.838  11.901  0.00  0.00    -0.247 OA
ATOM     13  N   UNK d   1      13.255   5.768  10.896  0.00  0.00    -0.324 N 
ATOM     14  C   UNK d   1      12.550   4.626  11.459  0.00  0.00     0.119 C 
ATOM     15  H   UNK d   1      13.668   5.794   9.952  0.00  0.00     0.165 HD
ATOM     16  C   UNK d   1      11.721   3.875  10.477  0.00  0.00     0.019 C 
ATOM     17  C   UNK d   1      13.589   3.758  12.131  0.00  0.00     0.041 C 
ATOM     18  C   UNK d   1      11.650   5.269  12.462  0.00  0.00     0.257 C 
ATOM     19  C   UNK d   1      11.741   2.399  10.889  0.00  0.00     0.007 C 
ATOM     20  C   UNK d   1      10.267   4.285  10.455  0.00  0.00     0.013 C 
ATOM     21  C   UNK d   1      13.122   1.884  10.532  0.00  0.00     0.001 C 
ATOM     22  C   UNK d   1      14.160   2.847  11.053  0.00  0.00     0.003 C 
ATOM     23  O   UNK d   1      10.568   4.823  12.890  0.00  0.00    -0.270 OA
ENDBRANCH   9  10
BRANCH   1  24
ATOM     24  S   UNK d   1       5.894   7.965  11.535  0.00  0.00     0.267 S 
ATOM     25  O   UNK d   1       5.190   8.587  10.395  0.00  0.00    -0.200 OA
ATOM     26  O   UNK d   1       5.905   6.468  11.338  0.00  0.00    -0.200 OA
BRANCH  24  27
ATOM     27  C   UNK d   1       5.033   8.323  13.042  0.00  0.00     0.121 A 
ATOM     28  S   UNK d   1       5.400   7.871  14.643  0.00  0.00    -0.064 SA
ATOM     29  C   UNK d   1       4.093   8.612  15.443  0.00  0.00     0.075 A 
ATOM     30  C   UNK d   1       3.394   9.201  14.423  0.00  0.00     0.033 A 
ATOM     31 Cl   UNK d   1       3.724   8.619  17.175  0.00  0.00    -0.076 Cl
ATOM     32  C   UNK d   1       3.886   9.048  13.181  0.00  0.00     0.035 A 
ENDBRANCH  24  27
ENDBRANCH   1  24
TORSDOF 3
ENDMDL
