/Users/jonathanwahrer/Desktop/Msc/3_Semester/Drug_Design_Praktikum/waehrer_HTS_screening/HTS_experiment/out/docking_results/vina_output/2jam/1913_docked.pdbqt
 OpenBabel03162218463D

 29 32  0  0  1  0  0  0  0  0999 V2000
   11.8010    3.5680   10.6050 N   0  0  0  0  0  0  0  0  0  0  0  0
   12.0250    4.7910    9.8670 C   0  0  0  0  0  2  0  0  0  0  0  0
   12.2460    5.9890   10.7500 C   0  0  0  0  0  2  0  0  0  0  0  0
   11.2360    5.9940   11.8440 C   0  0  2  0  0  3  0  0  0  0  0  0
   11.4320    4.8040   12.7190 C   0  0  0  0  0  3  0  0  0  0  0  0
   11.6810    3.5130   12.0290 C   0  0  0  0  0  3  0  0  0  0  0  0
    9.8700    6.1830   11.3540 C   0  0  0  0  0  0  0  0  0  0  0  0
    9.7070    6.6830   10.2140 O   0  0  0  0  0  0  0  0  0  0  0  0
    8.7260    5.8310   12.1000 N   0  0  0  0  0  0  0  0  0  0  0  0
    8.8630    5.4070   13.0640 H   0  0  0  0  0  0  0  0  0  0  0  0
    7.3720    6.0110   11.6290 C   0  0  0  0  0  2  0  0  0  0  0  0
    6.5250    6.8530   12.5390 C   0  0  0  0  0  2  0  0  0  0  0  0
    7.1890    8.1030   12.8630 N   0  0  0  0  0  0  0  0  0  0  0  0
    6.7440    8.6690   14.0910 C   0  0  0  0  0  2  0  0  0  0  0  0
    5.9170    9.9130   13.8330 C   0  0  0  0  0  2  0  0  0  0  0  0
    6.7340   10.8440   13.2410 O   0  0  0  0  0  0  0  0  0  0  0  0
    7.3930   10.4390   12.1110 C   0  0  0  0  0  2  0  0  0  0  0  0
    7.2760    8.9960   11.7640 C   0  0  0  0  0  2  0  0  0  0  0  0
   11.6950    2.3670    9.8730 C   0  0  0  0  0  0  0  0  0  0  0  0
   12.7800    1.8530    9.2140 C   0  0  0  0  0  0  0  0  0  0  0  0
   12.6770    0.6480    8.5050 C   0  0  0  0  0  0  0  0  0  0  0  0
   14.0470    2.2690    9.0590 N   0  0  0  0  0  0  0  0  0  0  0  0
   11.4920    0.0320    8.5010 N   0  0  0  0  0  4  0  0  0  0  0  0
   13.8460    0.3570    7.9480 N   0  0  0  0  0  0  0  0  0  0  0  0
   10.4280    0.5230    9.1390 C   0  0  0  0  0  0  0  0  0  0  0  0
    8.9200   -0.3300    9.0910 Cl  0  0  0  0  0  0  0  0  0  0  0  0
   10.5220    1.6710    9.8160 N   0  0  0  0  0  2  0  0  0  0  0  0
   14.6660    1.3570    8.2980 C   0  0  0  0  0  3  0  0  0  0  0  0
   14.4330    3.1520    9.4690 H   0  0  0  0  0  0  0  0  0  0  0  0
  1  6  1  0  0  0  0
  2  1  1  0  0  0  0
  2  3  1  0  0  0  0
  3  4  1  0  0  0  0
  4  7  1  6  0  0  0
  4  5  1  0  0  0  0
  6  5  2  0  0  0  0
  7  9  1  0  0  0  0
  8  7  2  0  0  0  0
  9 10  1  0  0  0  0
 11  9  1  0  0  0  0
 11 12  1  0  0  0  0
 12 13  1  0  0  0  0
 13 14  1  0  0  0  0
 15 14  1  0  0  0  0
 16 15  1  0  0  0  0
 17 16  1  0  0  0  0
 18 17  1  0  0  0  0
 18 13  1  0  0  0  0
 19  1  1  0  0  0  0
 20 19  2  0  0  0  0
 21 20  1  0  0  0  0
 22 20  1  0  0  0  0
 22 29  1  0  0  0  0
 23 21  2  0  0  0  0
 23 25  2  0  0  0  0
 24 28  2  0  0  0  0
 24 21  1  0  0  0  0
 25 27  1  0  0  0  0
 26 25  1  0  0  0  0
 27 19  1  0  0  0  0
 28 22  1  0  0  0  0
M  END
>  <Pose>
1

>  <Score>
-8.293

$$$$
