MODEL 1
REMARK VINA RESULT:    -8.293      0.000      0.000
REMARK INTER + INTRA:         -11.197
REMARK INTER:                 -10.717
REMARK INTRA:                  -0.480
REMARK UNBOUND:                -0.480
REMARK  5 active torsions:
REMARK  status: ('A' for Active; 'I' for Inactive)
REMARK    1  A    between atoms: C_9  and  N_11 
REMARK    2  A    between atoms: C_14  and  C_17 
REMARK       I    between atoms: C_17  and  N_19 
REMARK    3  A    between atoms: N_19  and  C_20 
REMARK    4  A    between atoms: C_20  and  C_21 
REMARK    5  A    between atoms: C_21  and  N_22 
ROOT
ATOM      1  N   UNK d   1      11.801   3.568  10.605  0.00  0.00    -0.364 N 
ATOM      2  C   UNK d   1      12.025   4.791   9.867  0.00  0.00     0.125 C 
ATOM      3  C   UNK d   1      12.246   5.989  10.750  0.00  0.00     0.034 C 
ATOM      4  C   UNK d   1      11.236   5.994  11.844  0.00  0.00     0.081 C 
ATOM      5  C   UNK d   1      11.432   4.804  12.719  0.00  0.00     0.034 C 
ATOM      6  C   UNK d   1      11.681   3.513  12.029  0.00  0.00     0.125 C 
ENDROOT
BRANCH   4   7
ATOM      7  C   UNK d   1       9.870   6.183  11.354  0.00  0.00     0.222 C 
ATOM      8  O   UNK d   1       9.707   6.683  10.214  0.00  0.00    -0.273 OA
ATOM      9  N   UNK d   1       8.726   5.831  12.100  0.00  0.00    -0.359 N 
ATOM     10  H   UNK d   1       8.863   5.407  13.064  0.00  0.00     0.162 HD
BRANCH   9  11
ATOM     11  C   UNK d   1       7.372   6.011  11.629  0.00  0.00     0.152 C 
BRANCH  11  12
ATOM     12  C   UNK d   1       6.525   6.853  12.539  0.00  0.00     0.292 C 
BRANCH  12  13
ATOM     13  N   UNK d   1       7.189   8.103  12.863  0.00  0.00     0.094 N 
ATOM     14  C   UNK d   1       6.744   8.669  14.091  0.00  0.00     0.298 C 
ATOM     15  C   UNK d   1       5.917   9.913  13.833  0.00  0.00     0.198 C 
ATOM     16  O   UNK d   1       6.734  10.844  13.241  0.00  0.00    -0.388 OA
ATOM     17  C   UNK d   1       7.393  10.439  12.111  0.00  0.00     0.198 C 
ATOM     18  C   UNK d   1       7.276   8.996  11.764  0.00  0.00     0.298 C 
ENDBRANCH  12  13
ENDBRANCH  11  12
ENDBRANCH   9  11
ENDBRANCH   4   7
BRANCH   1  19
ATOM     19  C   UNK d   1      11.695   2.367   9.873  0.00  0.00     0.160 A 
ATOM     20  C   UNK d   1      12.780   1.853   9.214  0.00  0.00     0.128 A 
ATOM     21  C   UNK d   1      12.677   0.648   8.505  0.00  0.00     0.184 A 
ATOM     22  N   UNK d   1      14.047   2.269   9.059  0.00  0.00    -0.345 N 
ATOM     23  N   UNK d   1      11.492   0.032   8.501  0.00  0.00    -0.196 NA
ATOM     24  N   UNK d   1      13.846   0.357   7.948  0.00  0.00    -0.222 NA
ATOM     25  C   UNK d   1      10.428   0.523   9.139  0.00  0.00     0.227 A 
ATOM     26 Cl   UNK d   1       8.920  -0.330   9.091  0.00  0.00    -0.041 Cl
ATOM     27  N   UNK d   1      10.522   1.671   9.816  0.00  0.00    -0.198 NA
ATOM     28  C   UNK d   1      14.666   1.357   8.298  0.00  0.00     0.210 A 
ATOM     29  H   UNK d   1      14.433   3.152   9.469  0.00  0.00     0.167 HD
ENDBRANCH   1  19
TORSDOF 5
ENDMDL
