MODEL 1
REMARK VINA RESULT:   -10.360      0.000      0.000
REMARK INTER + INTRA:         -13.907
REMARK INTER:                 -13.086
REMARK INTRA:                  -0.821
REMARK UNBOUND:                -0.821
REMARK  5 active torsions:
REMARK  status: ('A' for Active; 'I' for Inactive)
REMARK    1  A    between atoms: C_5  and  C_8 
REMARK    2  A    between atoms: C_8  and  O_32 
REMARK       I    between atoms: N_11  and  C_14 
REMARK    3  A    between atoms: C_14  and  C_16 
REMARK    4  A    between atoms: C_16  and  N_17 
REMARK       I    between atoms: N_17  and  C_18 
REMARK    5  A    between atoms: C_18  and  C_20 
ROOT
ATOM      1  C   UNK d   1       9.441   6.564  12.255  0.00  0.00     0.210 C 
ENDROOT
BRANCH   1   2
ATOM      2  C   UNK d   1       8.234   7.402  12.189  0.00  0.00     0.171 C 
ATOM      3  N   UNK d   1       7.118   7.468  13.012  0.00  0.00    -0.361 N 
ATOM      4  C   UNK d   1       6.772   6.547  14.036  0.00  0.00     0.128 C 
ATOM      5  C   UNK d   1       6.189   8.615  12.832  0.00  0.00     0.128 C 
ATOM      6  C   UNK d   1       6.662   7.258  15.369  0.00  0.00     0.062 C 
ATOM      7  C   UNK d   1       5.429   8.144  15.208  0.00  0.00     0.088 C 
ATOM      8  C   UNK d   1       5.600   9.120  14.105  0.00  0.00     0.062 C 
ATOM      9  O   UNK d   1       8.236   8.212  11.161  0.00  0.00    -0.175 OA
BRANCH   7  10
ATOM     10  C   UNK d   1       5.017   8.677  16.495  0.00  0.00    -0.024 A 
ATOM     11  C   UNK d   1       3.650   8.649  16.798  0.00  0.00     0.012 A 
ATOM     12  C   UNK d   1       3.145   9.167  17.991  0.00  0.00     0.024 A 
ATOM     13  C   UNK d   1       3.982   9.728  18.925  0.00  0.00     0.034 A 
ATOM     14 Cl   UNK d   1       3.340  10.400  20.447  0.00  0.00    -0.084 Cl
ATOM     15  C   UNK d   1       5.337   9.761  18.638  0.00  0.00     0.024 A 
ATOM     16  C   UNK d   1       5.822   9.246  17.452  0.00  0.00     0.012 A 
ENDBRANCH   7  10
BRANCH   7  17
ATOM     17  O   UNK d   1       4.419   7.222  14.788  0.00  0.00    -0.385 OA
ATOM     18  H   UNK d   1       3.552   7.621  15.049  0.00  0.00     0.211 HD
ENDBRANCH   7  17
ENDBRANCH   1   2
BRANCH   1  19
ATOM     19  N   UNK d   1       9.432   5.348  11.568  0.00  0.00    -0.350 N 
ATOM     20  C   UNK d   1      10.585   4.551  11.295  0.00  0.00     0.243 C 
ATOM     21  O   UNK d   1      11.674   5.034  11.705  0.00  0.00    -0.269 OA
ATOM     22  H   UNK d   1       8.528   4.896  11.263  0.00  0.00     0.163 HD
BRANCH  20  23
ATOM     23  C   UNK d   1      10.477   3.293  10.607  0.00  0.00     0.105 C 
ATOM     24  C   UNK d   1      11.351   2.606   9.950  0.00  0.00     0.064 A 
ATOM     25  N   UNK d   1      12.705   3.024   9.769  0.00  0.00    -0.297 N 
ATOM     26  C   UNK d   1      10.995   1.294   9.351  0.00  0.00     0.008 A 
ATOM     27  N   UNK d   1      13.645   2.242   9.066  0.00  0.00    -0.265 N 
ATOM     28  H   UNK d   1      13.043   3.937  10.159  0.00  0.00     0.187 HD
ATOM     29  C   UNK d   1      13.282   1.000   8.506  0.00  0.00     0.271 A 
ATOM     30  H   UNK d   1      14.631   2.574   8.955  0.00  0.00     0.190 HD
ATOM     31  O   UNK d   1      14.157   0.329   7.885  0.00  0.00    -0.266 OA
ATOM     32  C   UNK d   1      11.918   0.537   8.666  0.00  0.00     0.046 A 
ATOM     33  C   UNK d   1      11.619  -0.697   8.124  0.00  0.00     0.018 A 
ATOM     34  C   UNK d   1      10.324  -1.183   8.285  0.00  0.00     0.001 A 
ATOM     35  C   UNK d   1       9.371  -0.469   8.957  0.00  0.00     0.001 A 
ATOM     36  C   UNK d   1       9.739   0.776   9.482  0.00  0.00     0.015 A 
ENDBRANCH  20  23
ENDBRANCH   1  19
TORSDOF 5
ENDMDL
