/Users/jonathanwahrer/Desktop/Msc/3_Semester/Drug_Design_Praktikum/waehrer_HTS_screening/HTS_experiment/out/docking_results/vina_output/2jam/1928_docked.pdbqt
 OpenBabel03162218463D

 28 31  0  0  0  0  0  0  0  0999 V2000
   12.2260    2.6230   10.8720 N   0  0  0  0  0  0  0  0  0  0  0  0
   13.4080    2.5710   10.2230 C   0  0  0  0  0  2  0  0  0  0  0  0
   13.6080    1.6840    9.1960 C   0  0  0  0  0  0  0  0  0  0  0  0
   12.5170    0.7840    8.8040 C   0  0  0  0  0  0  0  0  0  0  0  0
   12.9880    0.0350    7.7840 N   0  0  0  0  0  2  0  0  0  0  0  0
   14.2310    0.3820    7.5230 N   0  0  0  0  0  0  0  0  0  0  0  0
   14.6550    1.3620    8.3350 C   0  0  0  0  0  0  0  0  0  0  0  0
   15.7800    1.9170    8.3490 O   0  0  0  0  0  0  0  0  0  0  0  0
   11.3280    0.8750    9.4950 C   0  0  0  0  0  0  0  0  0  0  0  0
   11.2490    1.7980   10.5000 C   0  0  0  0  0  3  0  0  0  0  0  0
   14.8100   -0.0500    6.7800 H   0  0  0  0  0  0  0  0  0  0  0  0
   12.0690    3.5890   11.9610 C   0  0  0  0  0  2  0  0  0  0  0  0
   11.0720    4.6110   11.5860 C   0  0  0  0  0  0  0  0  0  0  0  0
   10.9010    5.0700   10.3700 O   0  0  0  0  0  0  0  0  0  0  0  0
    9.9480    5.9530   10.3830 N   0  0  0  0  0  0  0  0  0  0  0  0
    9.4660    6.0970   11.6270 C   0  0  0  0  0  0  0  0  0  0  0  0
   10.1760    5.2490   12.3850 N   0  0  0  0  0  0  0  0  0  0  0  0
    8.3940    6.9990   12.0210 C   0  0  0  0  0  0  0  0  0  0  0  0
    8.5000    8.3610   11.8630 C   0  0  0  0  0  3  0  0  0  0  0  0
    7.4880    9.2270   12.2340 C   0  0  0  0  0  3  0  0  0  0  0  0
    6.3170    8.7390   12.7850 C   0  0  0  0  0  0  0  0  0  0  0  0
    5.0170    9.8170   13.2630 Cl  0  0  0  0  0  0  0  0  0  0  0  0
    6.2060    7.3650   12.9450 C   0  0  0  0  0  3  0  0  0  0  0  0
    7.2270    6.5060   12.5690 C   0  0  0  0  0  3  0  0  0  0  0  0
   10.2180   -0.0060    9.1320 C   0  0  0  0  0  0  0  0  0  0  0  0
    9.0450    0.3290    9.3530 O   0  0  0  0  0  0  0  0  0  0  0  0
   10.4460   -1.2340    8.5350 O   0  0  0  0  0  0  0  0  0  0  0  0
    9.5440   -1.8500    7.6470 C   0  0  0  0  0  1  0  0  0  0  0  0
  1 12  1  0  0  0  0
  2  1  1  0  0  0  0
  3  2  1  0  0  0  0
  4  3  2  0  0  0  0
  4  9  1  0  0  0  0
  5  4  1  0  0  0  0
  6  5  1  0  0  0  0
  6  7  1  0  0  0  0
  7  8  2  0  0  0  0
  7  3  1  0  0  0  0
  9 10  2  0  0  0  0
 10  1  1  0  0  0  0
 11  6  1  0  0  0  0
 13 12  1  0  0  0  0
 13 17  2  0  0  0  0
 14 15  1  0  0  0  0
 14 13  1  0  0  0  0
 15 16  2  0  0  0  0
 16 18  1  0  0  0  0
 16 17  1  0  0  0  0
 18 24  1  0  0  0  0
 19 18  2  0  0  0  0
 19 20  1  0  0  0  0
 20 21  2  0  0  0  0
 21 23  1  0  0  0  0
 21 22  1  0  0  0  0
 24 23  2  0  0  0  0
 25 26  2  0  0  0  0
 25  9  1  0  0  0  0
 27 25  1  0  0  0  0
 28 27  1  0  0  0  0
M  END
>  <Pose>
1

>  <Score>
-9.086

$$$$
