/Users/jonathanwahrer/Desktop/Msc/3_Semester/Drug_Design_Praktikum/waehrer_HTS_screening/HTS_experiment/out/docking_results/vina_output/2jam/1930_docked.pdbqt
 OpenBabel03162218473D

 34 37  0  0  1  0  0  0  0  0999 V2000
   10.3810    5.4240   10.4510 C   0  0  0  0  0  0  0  0  0  0  0  0
    9.4800    5.2160    9.5990 O   0  0  0  0  0  0  0  0  0  0  0  0
   10.0310    5.8650   11.7400 N   0  0  0  0  0  0  0  0  0  0  0  0
    8.6430    6.0950   12.1420 C   0  0  0  0  0  2  0  0  0  0  0  0
    8.5450    7.5820   12.4140 C   0  0  2  0  0  3  0  0  0  0  0  0
    9.5720    8.0130   13.4340 C   0  0  2  0  0  0  0  0  0  0  0  0
   10.3450    6.7970   13.9600 C   0  0  0  0  0  2  0  0  0  0  0  0
   11.0170    6.1240   12.7750 C   0  0  0  0  0  2  0  0  0  0  0  0
    8.9980    8.7880   14.5820 C   0  0  0  0  0  1  0  0  0  0  0  0
   11.7960    5.1990   10.0670 C   0  0  0  0  0  2  0  0  0  0  0  0
   12.3820    3.9540   10.6480 C   0  0  0  0  0  2  0  0  0  0  0  0
   11.9530    2.7100    9.9630 C   0  0  0  0  0  0  0  0  0  0  0  0
   10.7490    2.1120    9.9630 N   0  0  0  0  0  0  0  0  0  0  0  0
   10.7650    0.9960    9.2160 C   0  0  0  0  0  0  0  0  0  0  0  0
    9.8420    0.0200    8.8710 C   0  0  0  0  0  3  0  0  0  0  0  0
   12.0440    0.8750    8.7130 C   0  0  0  0  0  0  0  0  0  0  0  0
   10.1560   -1.0410    8.0610 C   0  0  0  0  0  0  0  0  0  0  0  0
    8.9950   -2.2830    7.6190 Cl  0  0  0  0  0  0  0  0  0  0  0  0
   11.4440   -1.1320    7.5750 C   0  0  0  0  0  3  0  0  0  0  0  0
   12.4020   -0.1760    7.8950 C   0  0  0  0  0  3  0  0  0  0  0  0
   12.7400    1.9200    9.1770 N   0  0  0  0  0  0  0  0  0  0  0  0
   14.1440    2.2360    8.9230 C   0  0  0  0  0  1  0  0  0  0  0  0
    7.2280    8.0520   12.6640 N   0  0  0  0  0  0  0  0  0  0  0  0
    6.5180    7.6450   13.7570 C   0  0  0  0  0  3  0  0  0  0  0  0
    5.2390    8.0990   14.0010 C   0  0  0  0  0  0  0  0  0  0  0  0
    4.6560    8.9850   13.1230 C   0  0  0  0  0  0  0  0  0  0  0  0
    4.4420    7.6780   15.1790 C   0  0  0  0  0  1  0  0  0  0  0  0
    3.4720    9.4290   13.3130 O   0  0  0  0  0  0  0  0  0  0  0  0
    5.3600    9.3800   12.0480 N   0  0  0  0  0  0  0  0  0  0  0  0
    6.6230    8.9040   11.8490 C   0  0  0  0  0  0  0  0  0  0  0  0
    4.9240   10.0480   11.3850 H   0  0  0  0  0  0  0  0  0  0  0  0
    7.2300    9.3070   10.8320 O   0  0  0  0  0  0  0  0  0  0  0  0
   10.5720    8.8400   12.8660 O   0  0  0  0  0  0  0  0  0  0  0  0
   11.1240    8.2440   12.3020 H   0  0  0  0  0  0  0  0  0  0  0  0
  1  3  1  0  0  0  0
  2  1  2  0  0  0  0
  3  4  1  0  0  0  0
  3  8  1  0  0  0  0
  5  4  1  1  0  0  0
  5 23  1  0  0  0  0
  5  6  1  0  0  0  0
  6  7  1  0  0  0  0
  6  9  1  1  0  0  0
  8  7  1  0  0  0  0
 10  1  1  0  0  0  0
 10 11  1  0  0  0  0
 12 13  2  0  0  0  0
 12 11  1  0  0  0  0
 14 13  1  0  0  0  0
 15 14  1  0  0  0  0
 16 21  1  0  0  0  0
 16 14  2  0  0  0  0
 17 15  2  0  0  0  0
 18 17  1  0  0  0  0
 19 20  2  0  0  0  0
 19 17  1  0  0  0  0
 20 16  1  0  0  0  0
 21 12  1  0  0  0  0
 22 21  1  0  0  0  0
 23 24  1  0  0  0  0
 24 25  2  0  0  0  0
 25 27  1  0  0  0  0
 26 28  2  0  0  0  0
 26 25  1  0  0  0  0
 29 26  1  0  0  0  0
 30 29  1  0  0  0  0
 30 23  1  0  0  0  0
 31 29  1  0  0  0  0
 32 30  2  0  0  0  0
 33  6  1  0  0  0  0
 34 33  1  0  0  0  0
M  END
>  <Pose>
1

>  <Score>
-10.391

$$$$
