MODEL 1
REMARK VINA RESULT:   -10.391      0.000      0.000
REMARK INTER + INTRA:         -13.069
REMARK INTER:                 -13.125
REMARK INTRA:                   0.056
REMARK UNBOUND:                 0.056
REMARK  5 active torsions:
REMARK  status: ('A' for Active; 'I' for Inactive)
REMARK    1  A    between atoms: C_6  and  C_12 
REMARK    2  A    between atoms: C_12  and  C_13 
REMARK    3  A    between atoms: C_13  and  C_14 
REMARK       I    between atoms: C_14  and  N_16 
REMARK    4  A    between atoms: C_18  and  N_24 
REMARK    5  A    between atoms: C_19  and  O_22 
ROOT
ATOM      1  C   UNK d   1      10.381   5.424  10.451  0.00  0.00     0.220 C 
ATOM      2  O   UNK d   1       9.480   5.216   9.599  0.00  0.00    -0.273 OA
ATOM      3  N   UNK d   1      10.031   5.865  11.740  0.00  0.00    -0.350 N 
ATOM      4  C   UNK d   1       8.643   6.095  12.142  0.00  0.00     0.154 C 
ATOM      5  C   UNK d   1       8.545   7.582  12.414  0.00  0.00     0.146 C 
ATOM      6  C   UNK d   1       9.572   8.013  13.434  0.00  0.00     0.078 C 
ATOM      7  C   UNK d   1      10.345   6.797  13.960  0.00  0.00     0.059 C 
ATOM      8  C   UNK d   1      11.017   6.124  12.775  0.00  0.00     0.129 C 
ATOM      9  C   UNK d   1       8.998   8.788  14.582  0.00  0.00     0.048 C 
ENDROOT
BRANCH   1  10
ATOM     10  C   UNK d   1      11.796   5.199  10.067  0.00  0.00     0.110 C 
BRANCH  10  11
ATOM     11  C   UNK d   1      12.382   3.954  10.648  0.00  0.00     0.088 C 
BRANCH  11  12
ATOM     12  C   UNK d   1      11.953   2.710   9.963  0.00  0.00     0.107 A 
ATOM     13  N   UNK d   1      10.749   2.112   9.963  0.00  0.00    -0.233 NA
ATOM     14  C   UNK d   1      10.765   0.996   9.216  0.00  0.00     0.087 A 
ATOM     15  C   UNK d   1       9.842   0.020   8.871  0.00  0.00     0.057 A 
ATOM     16  C   UNK d   1      12.044   0.875   8.713  0.00  0.00     0.064 A 
ATOM     17  C   UNK d   1      10.156  -1.041   8.061  0.00  0.00     0.036 A 
ATOM     18 Cl   UNK d   1       8.995  -2.283   7.619  0.00  0.00    -0.084 Cl
ATOM     19  C   UNK d   1      11.444  -1.132   7.575  0.00  0.00     0.026 A 
ATOM     20  C   UNK d   1      12.402  -0.176   7.895  0.00  0.00     0.034 A 
ATOM     21  N   UNK d   1      12.740   1.920   9.177  0.00  0.00    -0.338 N 
ATOM     22  C   UNK d   1      14.144   2.236   8.923  0.00  0.00     0.158 C 
ENDBRANCH  11  12
ENDBRANCH  10  11
ENDBRANCH   1  10
BRANCH   5  23
ATOM     23  N   UNK d   1       7.228   8.052  12.664  0.00  0.00    -0.300 N 
ATOM     24  C   UNK d   1       6.518   7.645  13.757  0.00  0.00     0.108 A 
ATOM     25  C   UNK d   1       5.239   8.099  14.001  0.00  0.00     0.022 A 
ATOM     26  C   UNK d   1       4.656   8.985  13.123  0.00  0.00     0.256 A 
ATOM     27  C   UNK d   1       4.442   7.678  15.179  0.00  0.00     0.056 C 
ATOM     28  O   UNK d   1       3.472   9.429  13.313  0.00  0.00    -0.267 OA
ATOM     29  N   UNK d   1       5.360   9.380  12.048  0.00  0.00    -0.275 N 
ATOM     30  C   UNK d   1       6.623   8.904  11.849  0.00  0.00     0.329 A 
ATOM     31  H   UNK d   1       4.924  10.048  11.385  0.00  0.00     0.173 HD
ATOM     32  O   UNK d   1       7.230   9.307  10.832  0.00  0.00    -0.246 OA
ENDBRANCH   5  23
BRANCH   6  33
ATOM     33  O   UNK d   1      10.572   8.840  12.866  0.00  0.00    -0.388 OA
ATOM     34  H   UNK d   1      11.124   8.244  12.302  0.00  0.00     0.210 HD
ENDBRANCH   6  33
TORSDOF 5
ENDMDL
