/Users/jonathanwahrer/Desktop/Msc/3_Semester/Drug_Design_Praktikum/waehrer_HTS_screening/HTS_experiment/out/docking_results/vina_output/2jam/1937_docked.pdbqt
 OpenBabel03162218473D

 31 34  0  0  1  0  0  0  0  0999 V2000
   11.6990    5.9670   12.2080 N   0  0  0  0  0  0  0  0  0  0  0  0
   12.2090    6.9470   13.0500 C   0  0  0  0  0  2  0  0  0  0  0  0
   11.1050    8.0820   13.1700 C   0  0  0  0  0  2  0  0  0  0  0  0
    9.9070    7.3060   12.9880 N   0  0  0  0  0  0  0  0  0  0  0  0
    9.6460    7.0730   11.5370 C   0  0  0  0  0  2  0  0  0  0  0  0
   10.9850    6.6010   11.0440 C   0  0  0  0  0  2  0  0  0  0  0  0
    9.0630    6.9080   13.9810 C   0  0  0  0  0  0  0  0  0  0  0  0
    8.3390    5.8760   13.7650 O   0  0  0  0  0  0  0  0  0  0  0  0
   12.5030    4.9040   11.6570 C   0  0  0  0  0  2  0  0  0  0  0  0
   11.6380    3.6390   11.6820 C   0  0  0  0  0  0  0  0  0  0  0  0
   11.2420    3.1050   10.4540 N   0  0  0  0  0  0  0  0  0  0  0  0
   11.3720    3.7730    9.6130 H   0  0  0  0  0  0  0  0  0  0  0  0
   11.3410    3.1420   12.7370 O   0  0  0  0  0  0  0  0  0  0  0  0
   10.6110    1.8570   10.2190 C   0  0  0  0  0  2  0  0  0  0  0  0
   11.4000    0.9640    9.3310 C   0  0  0  0  0  0  0  0  0  0  0  0
   10.7270   -0.0450    8.6510 C   0  0  0  0  0  0  0  0  0  0  0  0
    9.0670   -0.3730    9.0890 Cl  0  0  0  0  0  0  0  0  0  0  0  0
   11.3320   -0.8070    7.7060 C   0  0  0  0  0  3  0  0  0  0  0  0
   12.6480   -0.6430    7.3260 C   0  0  0  0  0  3  0  0  0  0  0  0
   13.3280    0.3810    8.0170 C   0  0  0  0  0  3  0  0  0  0  0  0
   12.7150    1.1540    8.9960 C   0  0  0  0  0  3  0  0  0  0  0  0
    8.8480    7.5460   15.3170 C   0  0  1  0  0  3  0  0  0  0  0  0
    8.5480    8.9440   14.9970 O   0  0  0  0  0  0  0  0  0  0  0  0
    7.7820    9.0230   13.7970 C   0  0  0  0  0  0  0  0  0  0  0  0
    6.8810    8.0180   13.5600 C   0  0  0  0  0  0  0  0  0  0  0  0
    7.9240   10.0700   12.8940 C   0  0  0  0  0  3  0  0  0  0  0  0
    6.0950    8.0030   12.4130 C   0  0  0  0  0  3  0  0  0  0  0  0
    6.7510    6.9830   14.4930 O   0  0  0  0  0  0  0  0  0  0  0  0
    6.2730    9.0610   11.5290 C   0  0  0  0  0  3  0  0  0  0  0  0
    7.1630   10.0910   11.7420 C   0  0  0  0  0  3  0  0  0  0  0  0
    7.4530    7.0260   15.7600 C   0  0  0  0  0  2  0  0  0  0  0  0
  1  2  1  0  0  0  0
  2  3  1  0  0  0  0
  4  3  1  0  0  0  0
  4  7  1  0  0  0  0
  5  4  1  0  0  0  0
  6  5  1  0  0  0  0
  6  1  1  0  0  0  0
  8  7  2  0  0  0  0
  9 10  1  0  0  0  0
  9  1  1  0  0  0  0
 10 13  2  0  0  0  0
 11 10  1  0  0  0  0
 12 11  1  0  0  0  0
 14 11  1  0  0  0  0
 15 14  1  0  0  0  0
 16 17  1  0  0  0  0
 16 15  2  0  0  0  0
 18 16  1  0  0  0  0
 19 18  2  0  0  0  0
 19 20  1  0  0  0  0
 20 21  2  0  0  0  0
 21 15  1  0  0  0  0
 22  7  1  6  0  0  0
 22 31  1  0  0  0  0
 23 22  1  0  0  0  0
 24 23  1  0  0  0  0
 25 24  1  0  0  0  0
 25 28  1  0  0  0  0
 26 24  2  0  0  0  0
 27 25  2  0  0  0  0
 28 31  1  0  0  0  0
 29 30  2  0  0  0  0
 29 27  1  0  0  0  0
 30 26  1  0  0  0  0
M  END
>  <Pose>
1

>  <Score>
-9.159

$$$$
