MODEL 1
REMARK VINA RESULT:    -7.375      0.000      0.000
REMARK INTER + INTRA:          -9.585
REMARK INTER:                  -8.669
REMARK INTRA:                  -0.916
REMARK UNBOUND:                -0.916
REMARK  3 active torsions:
REMARK  status: ('A' for Active; 'I' for Inactive)
REMARK    1  A    between atoms: C_5  and  C_8 
REMARK    2  A    between atoms: C_8  and  N_9 
REMARK    3  A    between atoms: C_13  and  N_14 
ROOT
ATOM      1  N   UNK d   1      11.464   5.914  11.331  0.00  0.00    -0.168 N 
ATOM      2  C   UNK d   1      10.320   6.216  12.018  0.00  0.00     0.167 A 
ATOM      3  C   UNK d   1      10.635   6.738  13.242  0.00  0.00     0.185 A 
ATOM      4  N   UNK d   1      11.961   6.739  13.270  0.00  0.00    -0.044 NA
ATOM      5  C   UNK d   1      12.497   6.239  12.110  0.00  0.00     0.707 A 
ATOM      6  N   UNK d   1       9.684   7.111  14.118  0.00  0.00    -0.286 N 
ATOM      7  C   UNK d   1       8.373   6.970  13.790  0.00  0.00     0.330 A 
ATOM      8  O   UNK d   1       7.524   7.331  14.635  0.00  0.00    -0.246 OA
ATOM      9  N   UNK d   1       8.013   6.462  12.599  0.00  0.00    -0.273 N 
ATOM     10  C   UNK d   1       8.970   6.093  11.734  0.00  0.00     0.280 A 
ATOM     11  O   UNK d   1       8.584   5.625  10.640  0.00  0.00    -0.265 OA
ATOM     12  C   UNK d   1      10.108   7.656  15.396  0.00  0.00     0.163 C 
ATOM     13  H   UNK d   1       6.996   6.375  12.396  0.00  0.00     0.173 HD
ENDROOT
BRANCH   1  14
ATOM     14  C   UNK d   1      11.448   5.346  10.009  0.00  0.00     0.186 C 
BRANCH  14  15
ATOM     15  C   UNK d   1      11.587   3.895   9.911  0.00  0.00    -0.039 A 
ATOM     16  C   UNK d   1      12.744   3.249   9.625  0.00  0.00     0.010 A 
ATOM     17  C   UNK d   1      12.817   1.860   9.491  0.00  0.00     0.024 A 
ATOM     18  C   UNK d   1      11.702   1.092   9.645  0.00  0.00     0.034 A 
ATOM     19 Cl   UNK d   1      11.844  -0.643   9.466  0.00  0.00    -0.084 Cl
ATOM     20  C   UNK d   1      10.506   1.708   9.935  0.00  0.00     0.024 A 
ATOM     21  C   UNK d   1      10.457   3.076  10.063  0.00  0.00     0.010 A 
ENDBRANCH  14  15
ENDBRANCH   1  14
BRANCH   5  22
ATOM     22  N   UNK d   1      13.890   6.127  11.904  0.00  0.00    -0.212 N 
ATOM     23  C   UNK d   1      14.597   7.300  11.407  0.00  0.00     0.171 C 
ATOM     24  C   UNK d   1      15.957   7.227  12.125  0.00  0.00     0.290 C 
ATOM     25  N   UNK d   1      15.831   6.653  13.446  0.00  0.00     0.086 N 
ATOM     26  C   UNK d   1      15.448   5.257  13.447  0.00  0.00     0.290 C 
ATOM     27  H   UNK d   1      16.761   6.722  13.891  0.00  0.00     0.316 HD
ATOM     28  C   UNK d   1      14.736   5.013  12.124  0.00  0.00     0.171 C 
ENDBRANCH   5  22
TORSDOF 3
ENDMDL
