MODEL 1
REMARK VINA RESULT:    -8.349      0.000      0.000
REMARK INTER + INTRA:          -9.297
REMARK INTER:                  -8.838
REMARK INTRA:                  -0.460
REMARK UNBOUND:                -0.460
REMARK  1 active torsions:
REMARK  status: ('A' for Active; 'I' for Inactive)
REMARK    1  A    between atoms: C_5  and  N_8 
ROOT
ATOM      1  N   UNK d   1      11.103   4.234  10.760  0.00  0.00    -0.252 N 
ATOM      2  C   UNK d   1      11.038   4.404  12.184  0.00  0.00     0.237 C 
ATOM      3  O   UNK d   1      10.920   3.407  12.977  0.00  0.00    -0.272 OA
ATOM      4  C   UNK d   1      11.127   5.836  12.512  0.00  0.00     0.104 C 
ATOM      5  C   UNK d   1      10.742   6.505  11.214  0.00  0.00     0.104 C 
ATOM      6  C   UNK d   1       9.462   7.285  11.424  0.00  0.00     0.076 C 
ATOM      7  C   UNK d   1       9.836   8.431  12.375  0.00  0.00     0.091 C 
ATOM      8  C   UNK d   1      10.228   7.765  13.662  0.00  0.00     0.133 C 
ATOM      9  O   UNK d   1      10.494   8.422  14.632  0.00  0.00    -0.298 OA
ATOM     10  C   UNK d   1      10.263   6.261  13.649  0.00  0.00     0.076 C 
ATOM     11  C   UNK d   1       8.814   5.821  13.414  0.00  0.00     0.091 C 
ATOM     12  C   UNK d   1       8.409   6.463  12.116  0.00  0.00     0.133 C 
ATOM     13  O   UNK d   1       7.299   6.306  11.689  0.00  0.00    -0.298 OA
ATOM     14  C   UNK d   1      10.649   5.457  10.199  0.00  0.00     0.237 C 
ATOM     15  O   UNK d   1      10.236   5.613   9.027  0.00  0.00    -0.272 OA
ENDROOT
BRANCH   1  16
ATOM     16  C   UNK d   1      11.535   3.087  10.037  0.00  0.00     0.045 A 
ATOM     17  C   UNK d   1      10.628   2.101   9.696  0.00  0.00     0.032 A 
ATOM     18  C   UNK d   1      10.997   0.975   8.996  0.00  0.00     0.026 A 
ATOM     19  C   UNK d   1      12.298   0.781   8.602  0.00  0.00     0.034 A 
ATOM     20 Cl   UNK d   1      12.779  -0.655   7.706  0.00  0.00    -0.084 Cl
ATOM     21  C   UNK d   1      13.224   1.757   8.933  0.00  0.00     0.026 A 
ATOM     22  C   UNK d   1      12.835   2.875   9.634  0.00  0.00     0.032 A 
ENDBRANCH   1  16
TORSDOF 1
ENDMDL
