/Users/jonathanwahrer/Desktop/Msc/3_Semester/Drug_Design_Praktikum/waehrer_HTS_screening/HTS_experiment/out/docking_results/vina_output/2jam/1941_docked.pdbqt
 OpenBabel03162218483D

 22 25  0  0  1  0  0  0  0  0999 V2000
   11.1030    4.2340   10.7600 N   0  0  0  0  0  0  0  0  0  0  0  0
   11.0380    4.4040   12.1840 C   0  0  0  0  0  0  0  0  0  0  0  0
   10.9200    3.4070   12.9770 O   0  0  0  0  0  0  0  0  0  0  0  0
   11.1270    5.8360   12.5120 C   0  0  1  0  0  3  0  0  0  0  0  0
   10.7420    6.5050   11.2140 C   0  0  2  0  0  3  0  0  0  0  0  0
    9.4620    7.2850   11.4240 C   0  0  2  0  0  3  0  0  0  0  0  0
    9.8360    8.4310   12.3750 C   0  0  0  0  0  2  0  0  0  0  0  0
   10.2280    7.7650   13.6620 C   0  0  0  0  0  0  0  0  0  0  0  0
   10.4940    8.4220   14.6320 O   0  0  0  0  0  0  0  0  0  0  0  0
   10.2630    6.2610   13.6490 C   0  0  1  0  0  3  0  0  0  0  0  0
    8.8140    5.8210   13.4140 C   0  0  0  0  0  2  0  0  0  0  0  0
    8.4090    6.4630   12.1160 C   0  0  0  0  0  0  0  0  0  0  0  0
    7.2990    6.3060   11.6890 O   0  0  0  0  0  0  0  0  0  0  0  0
   10.6490    5.4570   10.1990 C   0  0  0  0  0  0  0  0  0  0  0  0
   10.2360    5.6130    9.0270 O   0  0  0  0  0  0  0  0  0  0  0  0
   11.5350    3.0870   10.0370 C   0  0  0  0  0  0  0  0  0  0  0  0
   10.6280    2.1010    9.6960 C   0  0  0  0  0  3  0  0  0  0  0  0
   10.9970    0.9750    8.9960 C   0  0  0  0  0  3  0  0  0  0  0  0
   12.2980    0.7810    8.6020 C   0  0  0  0  0  0  0  0  0  0  0  0
   12.7790   -0.6550    7.7060 Cl  0  0  0  0  0  0  0  0  0  0  0  0
   13.2240    1.7570    8.9330 C   0  0  0  0  0  3  0  0  0  0  0  0
   12.8350    2.8750    9.6340 C   0  0  0  0  0  3  0  0  0  0  0  0
  1  2  1  0  0  0  0
  2  3  2  0  0  0  0
  4  2  1  6  0  0  0
  4 10  1  0  0  0  0
  5 14  1  6  0  0  0
  5  6  1  0  0  0  0
  5  4  1  0  0  0  0
  6 12  1  0  0  0  0
  6  7  1  1  0  0  0
  7  8  1  0  0  0  0
  8  9  2  0  0  0  0
 10 11  1  6  0  0  0
 10  8  1  0  0  0  0
 12 11  1  0  0  0  0
 13 12  2  0  0  0  0
 14  1  1  0  0  0  0
 15 14  2  0  0  0  0
 16  1  1  0  0  0  0
 17 16  1  0  0  0  0
 18 17  2  0  0  0  0
 19 21  2  0  0  0  0
 19 18  1  0  0  0  0
 20 19  1  0  0  0  0
 21 22  1  0  0  0  0
 22 16  2  0  0  0  0
M  END
>  <Pose>
1

>  <Score>
-8.349

$$$$
