/Users/jonathanwahrer/Desktop/Msc/3_Semester/Drug_Design_Praktikum/waehrer_HTS_screening/HTS_experiment/out/docking_results/vina_output/2jam/1943_docked.pdbqt
 OpenBabel03162218483D

 34 38  0  0  1  0  0  0  0  0999 V2000
    8.9110    6.4450   12.6650 N   0  0  0  0  0  0  0  0  0  0  0  0
    7.5540    6.7980   12.3150 C   0  0  0  0  0  0  0  0  0  0  0  0
    6.9720    6.4890   11.2710 O   0  0  0  0  0  0  0  0  0  0  0  0
    6.9570    7.5870   13.4000 C   0  0  2  0  0  3  0  0  0  0  0  0
    6.2280    8.8380   12.9720 C   0  0  2  0  0  0  0  0  0  0  0  0
    7.1670    9.9330   13.0160 N   0  0  0  0  0  0  0  0  0  0  0  0
    8.4820    9.3350   13.1390 C   0  0  2  0  0  3  0  0  0  0  0  0
    8.1860    8.1680   14.0590 C   0  0  2  0  0  3  0  0  0  0  0  0
    9.1540    7.0620   13.9400 C   0  0  0  0  0  0  0  0  0  0  0  0
    9.9820    6.7750   14.8080 O   0  0  0  0  0  0  0  0  0  0  0  0
    5.1310    9.0100   13.9870 C   0  0  0  0  0  0  0  0  0  0  0  0
    3.9440    8.7620   13.3580 C   0  0  0  0  0  0  0  0  0  0  0  0
    2.7230    8.7810   14.0500 C   0  0  0  0  0  3  0  0  0  0  0  0
    2.6970    9.0580   15.4010 C   0  0  0  0  0  3  0  0  0  0  0  0
    3.8850    9.3090   16.0320 C   0  0  0  0  0  3  0  0  0  0  0  0
    5.0770    9.2860   15.3380 C   0  0  0  0  0  3  0  0  0  0  0  0
    4.1350    8.5810   11.9640 N   0  0  0  0  0  0  0  0  0  0  0  0
    5.5230    8.7320   11.7100 C   0  0  0  0  0  0  0  0  0  0  0  0
    6.0110    8.7650   10.5610 O   0  0  0  0  0  0  0  0  0  0  0  0
    7.0700   10.4710   12.1230 H   0  0  0  0  0  0  0  0  0  0  0  0
    3.3790    8.3710   11.2420 H   0  0  0  0  0  0  0  0  0  0  0  0
    9.4830   10.2770   13.7550 C   0  0  0  0  0  2  0  0  0  0  0  0
    9.2780   10.5230   15.1790 C   0  0  0  0  0  0  0  0  0  0  0  0
    8.2030   10.9950   15.5930 O   0  0  0  0  0  0  0  0  0  0  0  0
   10.3070   10.2240   16.1030 N   0  0  0  0  0  0  0  0  0  0  0  0
   11.2610    9.8810   15.8360 H   0  0  0  0  0  0  0  0  0  0  0  0
   10.1850   10.3310   17.1520 H   0  0  0  0  0  0  0  0  0  0  0  0
    9.8290    5.6640   11.9550 C   0  0  0  0  0  0  0  0  0  0  0  0
   10.3600    4.5000   12.4390 C   0  0  0  0  0  3  0  0  0  0  0  0
   11.2700    3.7240   11.7310 C   0  0  0  0  0  3  0  0  0  0  0  0
   11.6680    4.1280   10.4800 C   0  0  0  0  0  0  0  0  0  0  0  0
   12.8080    3.1530    9.5700 Cl  0  0  0  0  0  0  0  0  0  0  0  0
   11.1610    5.2820    9.9680 C   0  0  0  0  0  3  0  0  0  0  0  0
   10.2470    6.0440   10.7030 C   0  0  0  0  0  3  0  0  0  0  0  0
  1  9  1  0  0  0  0
  2  1  1  0  0  0  0
  3  2  2  0  0  0  0
  4  2  1  6  0  0  0
  4  8  1  0  0  0  0
  5 18  1  6  0  0  0
  5  6  1  0  0  0  0
  5  4  1  0  0  0  0
  5 11  1  0  0  0  0
  6  7  1  0  0  0  0
  7 22  1  1  0  0  0
  7  8  1  0  0  0  0
  8  9  1  6  0  0  0
  9 10  2  0  0  0  0
 11 16  1  0  0  0  0
 12 11  2  0  0  0  0
 12 13  1  0  0  0  0
 13 14  2  0  0  0  0
 14 15  1  0  0  0  0
 16 15  2  0  0  0  0
 17 12  1  0  0  0  0
 18 17  1  0  0  0  0
 19 18  2  0  0  0  0
 20  6  1  0  0  0  0
 21 17  1  0  0  0  0
 22 23  1  0  0  0  0
 23 24  2  0  0  0  0
 23 25  1  0  0  0  0
 25 27  1  0  0  0  0
 26 25  1  0  0  0  0
 28 29  1  0  0  0  0
 28  1  1  0  0  0  0
 30 29  2  0  0  0  0
 31 30  1  0  0  0  0
 32 31  1  0  0  0  0
 33 31  2  0  0  0  0
 33 34  1  0  0  0  0
 34 28  2  0  0  0  0
M  END
>  <Pose>
1

>  <Score>
-9.297

$$$$
