MODEL 1
REMARK VINA RESULT:    -9.297      0.000      0.000
REMARK INTER + INTRA:         -11.872
REMARK INTER:                 -10.927
REMARK INTRA:                  -0.945
REMARK UNBOUND:                -0.945
REMARK  3 active torsions:
REMARK  status: ('A' for Active; 'I' for Inactive)
REMARK    1  A    between atoms: C_5  and  N_8 
REMARK    2  A    between atoms: C_14  and  C_18 
REMARK    3  A    between atoms: C_18  and  C_19 
REMARK       I    between atoms: C_19  and  N_21 
ROOT
ATOM      1  N   UNK d   1       8.911   6.445  12.665  0.00  0.00    -0.252 N 
ATOM      2  C   UNK d   1       7.554   6.798  12.315  0.00  0.00     0.239 C 
ATOM      3  O   UNK d   1       6.972   6.489  11.271  0.00  0.00    -0.272 OA
ATOM      4  C   UNK d   1       6.957   7.587  13.400  0.00  0.00     0.147 C 
ATOM      5  C   UNK d   1       6.228   8.838  12.972  0.00  0.00     0.279 C 
ATOM      6  N   UNK d   1       7.167   9.933  13.016  0.00  0.00     0.114 N 
ATOM      7  C   UNK d   1       8.482   9.335  13.139  0.00  0.00     0.245 C 
ATOM      8  C   UNK d   1       8.186   8.168  14.059  0.00  0.00     0.129 C 
ATOM      9  C   UNK d   1       9.154   7.062  13.940  0.00  0.00     0.238 C 
ATOM     10  O   UNK d   1       9.982   6.775  14.808  0.00  0.00    -0.272 OA
ATOM     11  C   UNK d   1       5.131   9.010  13.987  0.00  0.00     0.017 A 
ATOM     12  C   UNK d   1       3.944   8.762  13.358  0.00  0.00     0.044 A 
ATOM     13  C   UNK d   1       2.723   8.781  14.050  0.00  0.00     0.030 A 
ATOM     14  C   UNK d   1       2.697   9.058  15.401  0.00  0.00     0.002 A 
ATOM     15  C   UNK d   1       3.885   9.309  16.032  0.00  0.00     0.001 A 
ATOM     16  C   UNK d   1       5.077   9.286  15.338  0.00  0.00     0.012 A 
ATOM     17  N   UNK d   1       4.135   8.581  11.964  0.00  0.00    -0.324 N 
ATOM     18  C   UNK d   1       5.523   8.732  11.710  0.00  0.00     0.267 C 
ATOM     19  O   UNK d   1       6.011   8.765  10.561  0.00  0.00    -0.270 OA
ATOM     20  H   UNK d   1       7.070  10.471  12.123  0.00  0.00     0.318 HD
ATOM     21  H   UNK d   1       3.379   8.371  11.242  0.00  0.00     0.169 HD
ENDROOT
BRANCH   7  22
ATOM     22  C   UNK d   1       9.483  10.277  13.755  0.00  0.00     0.139 C 
BRANCH  22  23
ATOM     23  C   UNK d   1       9.278  10.523  15.179  0.00  0.00     0.217 C 
ATOM     24  O   UNK d   1       8.203  10.995  15.593  0.00  0.00    -0.274 OA
ATOM     25  N   UNK d   1      10.307  10.224  16.103  0.00  0.00    -0.370 N 
ATOM     26  H   UNK d   1      11.261   9.881  15.836  0.00  0.00     0.159 HD
ATOM     27  H   UNK d   1      10.185  10.331  17.152  0.00  0.00     0.159 HD
ENDBRANCH  22  23
ENDBRANCH   7  22
BRANCH   1  28
ATOM     28  C   UNK d   1       9.829   5.664  11.955  0.00  0.00     0.045 A 
ATOM     29  C   UNK d   1      10.360   4.500  12.439  0.00  0.00     0.032 A 
ATOM     30  C   UNK d   1      11.270   3.724  11.731  0.00  0.00     0.026 A 
ATOM     31  C   UNK d   1      11.668   4.128  10.480  0.00  0.00     0.034 A 
ATOM     32 Cl   UNK d   1      12.808   3.153   9.570  0.00  0.00    -0.084 Cl
ATOM     33  C   UNK d   1      11.161   5.282   9.968  0.00  0.00     0.026 A 
ATOM     34  C   UNK d   1      10.247   6.044  10.703  0.00  0.00     0.032 A 
ENDBRANCH   1  28
TORSDOF 3
ENDMDL
