/Users/jonathanwahrer/Desktop/Msc/3_Semester/Drug_Design_Praktikum/waehrer_HTS_screening/HTS_experiment/out/docking_results/vina_output/2jam/1945_docked.pdbqt
 OpenBabel03162218483D

 24 27  0  0  0  0  0  0  0  0999 V2000
   16.6210    3.8540   11.3870 Cl  0  0  0  0  0  0  0  0  0  0  0  0
   15.4430    2.8330   10.5870 C   0  0  0  0  0  0  0  0  0  0  0  0
   14.1010    2.9060   10.8810 C   0  0  0  0  0  3  0  0  0  0  0  0
   13.1720    2.0850   10.2370 C   0  0  0  0  0  0  0  0  0  0  0  0
   13.6370    1.1900    9.2850 C   0  0  0  0  0  0  0  0  0  0  0  0
   14.9740    1.1060    8.9800 C   0  0  0  0  0  3  0  0  0  0  0  0
   15.8760    1.9160    9.6220 C   0  0  0  0  0  3  0  0  0  0  0  0
   12.6940    0.3050    8.5780 C   0  0  0  0  0  0  0  0  0  0  0  0
   12.8540   -0.5970    7.6710 N   0  0  0  0  0  0  0  0  0  0  0  0
   11.6150   -1.2100    7.2780 C   0  0  0  0  0  3  0  0  0  0  0  0
   10.5830   -0.5240    8.1180 C   0  0  0  0  0  3  0  0  0  0  0  0
   11.3250    0.4170    8.9140 N   0  0  0  0  0  0  0  0  0  0  0  0
   10.8790    1.3460    9.8940 C   0  0  0  0  0  0  0  0  0  0  0  0
    9.6600    1.4630   10.2080 O   0  0  0  0  0  0  0  0  0  0  0  0
   11.7980    2.2110   10.5860 N   0  0  0  0  0  0  0  0  0  0  0  0
   11.3180    3.1550   11.5850 C   0  0  0  0  0  2  0  0  0  0  0  0
   10.9800    4.4590   10.9710 C   0  0  0  0  0  0  0  0  0  0  0  0
   10.8840    4.5170    9.7210 O   0  0  0  0  0  0  0  0  0  0  0  0
   10.7610    5.6370   11.7250 N   0  0  0  0  0  0  0  0  0  0  0  0
   10.8430    5.5720   12.7600 H   0  0  0  0  0  0  0  0  0  0  0  0
   10.4320    6.8950   11.1010 C   0  0  0  0  0  2  0  0  0  0  0  0
    9.8580    7.8430   12.1210 C   0  0  0  0  0  3  0  0  0  0  0  0
    8.7380    7.3920   12.9900 C   0  0  0  0  0  2  0  0  0  0  0  0
    8.4620    8.3360   11.8830 C   0  0  0  0  0  2  0  0  0  0  0  0
  2  3  1  0  0  0  0
  2  1  1  0  0  0  0
  4 15  1  0  0  0  0
  4  3  2  0  0  0  0
  5  4  1  0  0  0  0
  6  5  2  0  0  0  0
  6  7  1  0  0  0  0
  7  2  2  0  0  0  0
  8 12  1  0  0  0  0
  8  5  1  0  0  0  0
  9  8  2  0  0  0  0
 10  9  1  0  0  0  0
 10 11  2  0  0  0  0
 11 12  1  0  0  0  0
 12 13  1  0  0  0  0
 13 14  2  0  0  0  0
 13 15  1  0  0  0  0
 15 16  1  0  0  0  0
 17 16  1  0  0  0  0
 17 19  1  0  0  0  0
 18 17  2  0  0  0  0
 19 20  1  0  0  0  0
 21 19  1  0  0  0  0
 21 22  1  0  0  0  0
 22 23  1  0  0  0  0
 24 22  1  0  0  0  0
 24 23  1  0  0  0  0
M  END
>  <Pose>
1

>  <Score>
-7.938

$$$$
