MODEL 1
REMARK VINA RESULT:    -7.938      0.000      0.000
REMARK INTER + INTRA:          -9.967
REMARK INTER:                  -9.794
REMARK INTRA:                  -0.174
REMARK UNBOUND:                -0.174
REMARK  4 active torsions:
REMARK  status: ('A' for Active; 'I' for Inactive)
REMARK    1  A    between atoms: N_15  and  C_16 
REMARK    2  A    between atoms: C_16  and  C_17 
REMARK       I    between atoms: C_17  and  N_19 
REMARK    3  A    between atoms: N_19  and  C_20 
REMARK    4  A    between atoms: C_20  and  C_21 
ROOT
ATOM      1 Cl   UNK d   1      16.621   3.854  11.387  0.00  0.00    -0.084 Cl
ATOM      2  C   UNK d   1      15.443   2.833  10.587  0.00  0.00     0.036 A 
ATOM      3  C   UNK d   1      14.101   2.906  10.881  0.00  0.00     0.054 A 
ATOM      4  C   UNK d   1      13.172   2.085  10.237  0.00  0.00     0.055 A 
ATOM      5  C   UNK d   1      13.637   1.190   9.285  0.00  0.00     0.037 A 
ATOM      6  C   UNK d   1      14.974   1.106   8.980  0.00  0.00     0.019 A 
ATOM      7  C   UNK d   1      15.876   1.916   9.622  0.00  0.00     0.025 A 
ATOM      8  C   UNK d   1      12.694   0.305   8.578  0.00  0.00     0.141 A 
ATOM      9  N   UNK d   1      12.854  -0.597   7.671  0.00  0.00    -0.270 NA
ATOM     10  C   UNK d   1      11.615  -1.210   7.278  0.00  0.00     0.171 A 
ATOM     11  C   UNK d   1      10.583  -0.524   8.118  0.00  0.00     0.157 A 
ATOM     12  N   UNK d   1      11.325   0.417   8.914  0.00  0.00    -0.281 N 
ATOM     13  C   UNK d   1      10.879   1.346   9.894  0.00  0.00     0.331 A 
ATOM     14  O   UNK d   1       9.660   1.463  10.208  0.00  0.00    -0.246 OA
ATOM     15  N   UNK d   1      11.798   2.211  10.586  0.00  0.00    -0.290 N 
ENDROOT
BRANCH  15  16
ATOM     16  C   UNK d   1      11.318   3.155  11.585  0.00  0.00     0.236 C 
BRANCH  16  17
ATOM     17  C   UNK d   1      10.980   4.459  10.971  0.00  0.00     0.236 C 
ATOM     18  O   UNK d   1      10.884   4.517   9.721  0.00  0.00    -0.272 OA
ATOM     19  N   UNK d   1      10.761   5.637  11.725  0.00  0.00    -0.359 N 
ATOM     20  H   UNK d   1      10.843   5.572  12.760  0.00  0.00     0.162 HD
BRANCH  19  21
ATOM     21  C   UNK d   1      10.432   6.895  11.101  0.00  0.00     0.127 C 
BRANCH  21  22
ATOM     22  C   UNK d   1       9.858   7.843  12.121  0.00  0.00     0.003 A 
ATOM     23  C   UNK d   1       8.738   7.392  12.990  0.00  0.00     0.007 A 
ATOM     24  C   UNK d   1       8.462   8.336  11.883  0.00  0.00     0.007 A 
ENDBRANCH  21  22
ENDBRANCH  19  21
ENDBRANCH  16  17
ENDBRANCH  15  16
TORSDOF 4
ENDMDL
