MODEL 1
REMARK VINA RESULT:    -8.114      0.000      0.000
REMARK INTER + INTRA:         -13.536
REMARK INTER:                 -11.908
REMARK INTRA:                  -1.627
REMARK UNBOUND:                -1.627
REMARK  8 active torsions:
REMARK  status: ('A' for Active; 'I' for Inactive)
REMARK    1  A    between atoms: C_5  and  C_8 
REMARK    2  A    between atoms: C_10  and  C_24 
REMARK    3  A    between atoms: N_11  and  C_16 
REMARK    4  A    between atoms: C_16  and  C_17 
REMARK    5  A    between atoms: C_17  and  N_18 
REMARK    6  A    between atoms: C_27  and  O_30 
REMARK    7  A    between atoms: O_30  and  C_31 
REMARK    8  A    between atoms: C_31  and  C_32 
ROOT
ATOM      1  C   UNK d   1      12.981   3.830  11.538  0.00  0.00     0.130 C 
ATOM      2  C   UNK d   1      12.270   4.943  11.469  0.00  0.00     0.062 C 
ATOM      3  C   UNK d   1      12.277   6.049  12.495  0.00  0.00     0.161 C 
ATOM      4  N   UNK d   1      11.147   6.874  12.177  0.00  0.00    -0.331 N 
ATOM      5  C   UNK d   1      10.618   6.531  10.904  0.00  0.00     0.295 C 
ATOM      6  O   UNK d   1       9.733   7.132  10.278  0.00  0.00    -0.264 OA
ATOM      7  C   UNK d   1      11.328   5.309  10.460  0.00  0.00     0.250 C 
ATOM      8  O   UNK d   1      11.110   4.721   9.375  0.00  0.00    -0.282 OA
ATOM      9  O   UNK d   1      13.802   3.689  12.682  0.00  0.00    -0.190 OA
ENDROOT
BRANCH   3  10
ATOM     10  C   UNK d   1      13.585   6.744  12.355  0.00  0.00    -0.030 A 
ATOM     11  C   UNK d   1      13.947   7.285  11.155  0.00  0.00     0.012 A 
ATOM     12  C   UNK d   1      15.144   7.933  11.039  0.00  0.00     0.037 A 
ATOM     13  C   UNK d   1      16.007   8.060  12.106  0.00  0.00     0.068 A 
ATOM     14  C   UNK d   1      15.642   7.513  13.322  0.00  0.00     0.037 A 
ATOM     15  C   UNK d   1      14.426   6.857  13.434  0.00  0.00     0.012 A 
BRANCH  13  16
ATOM     16  O   UNK d   1      17.224   8.721  11.979  0.00  0.00    -0.351 OA
BRANCH  16  17
ATOM     17  C   UNK d   1      17.881   8.690  10.704  0.00  0.00     0.175 C 
BRANCH  17  18
ATOM     18  C   UNK d   1      18.746   7.433  10.630  0.00  0.00     0.022 C 
ATOM     19  C   UNK d   1      18.254   6.627   9.436  0.00  0.00     0.007 C 
ENDBRANCH  17  18
ENDBRANCH  16  17
ENDBRANCH  13  16
ENDBRANCH   3  10
BRANCH   4  20
ATOM     20  C   UNK d   1      10.597   7.914  13.039  0.00  0.00     0.155 C 
BRANCH  20  21
ATOM     21  C   UNK d   1       9.476   7.358  13.847  0.00  0.00     0.255 C 
BRANCH  21  22
ATOM     22  N   UNK d   1       8.196   8.004  13.510  0.00  0.00    -0.066 N 
ATOM     23  C   UNK d   1       7.422   7.076  12.744  0.00  0.00     0.261 C 
ATOM     24  C   UNK d   1       6.268   7.763  12.016  0.00  0.00     0.195 C 
ATOM     25  O   UNK d   1       6.852   8.752  11.205  0.00  0.00    -0.388 OA
ATOM     26  C   UNK d   1       7.322   9.742  12.043  0.00  0.00     0.195 C 
ATOM     27  C   UNK d   1       8.529   9.218  12.796  0.00  0.00     0.261 C 
ATOM     28  H   UNK d   1       7.670   8.254  14.387  0.00  0.00     0.280 HD
ENDBRANCH  21  22
ENDBRANCH  20  21
ENDBRANCH   4  20
BRANCH   1  29
ATOM     29  C   UNK d   1      12.940   2.804  10.520  0.00  0.00     0.001 A 
ATOM     30  C   UNK d   1      11.948   1.815  10.574  0.00  0.00     0.016 A 
ATOM     31  C   UNK d   1      11.877   0.785   9.660  0.00  0.00     0.024 A 
ATOM     32  C   UNK d   1      12.794   0.687   8.641  0.00  0.00     0.034 A 
ATOM     33 Cl   UNK d   1      12.760  -0.593   7.450  0.00  0.00    -0.084 Cl
ATOM     34  C   UNK d   1      13.775   1.634   8.562  0.00  0.00     0.024 A 
ATOM     35  C   UNK d   1      13.845   2.679   9.492  0.00  0.00     0.016 A 
ENDBRANCH   1  29
TORSDOF 8
ENDMDL
