/Users/jonathanwahrer/Desktop/Msc/3_Semester/Drug_Design_Praktikum/waehrer_HTS_screening/HTS_experiment/out/docking_results/vina_output/2jam/1956_docked.pdbqt
 OpenBabel03162218483D

 35 38  0  0  1  0  0  0  0  0999 V2000
   12.9810    3.8300   11.5380 C   0  0  0  0  0  0  0  0  0  0  0  0
   12.2700    4.9430   11.4690 C   0  0  0  0  0  0  0  0  0  0  0  0
   12.2770    6.0490   12.4950 C   0  0  2  0  0  3  0  0  0  0  0  0
   11.1470    6.8740   12.1770 N   0  0  0  0  0  0  0  0  0  0  0  0
   10.6180    6.5310   10.9040 C   0  0  0  0  0  0  0  0  0  0  0  0
    9.7330    7.1320   10.2780 O   0  0  0  0  0  0  0  0  0  0  0  0
   11.3280    5.3090   10.4600 C   0  0  0  0  0  0  0  0  0  0  0  0
   11.1100    4.7210    9.3750 O   0  0  0  0  0  0  0  0  0  0  0  0
   13.8020    3.6890   12.6820 O   0  0  0  0  0  1  0  0  0  0  0  0
   13.5850    6.7440   12.3550 C   0  0  0  0  0  0  0  0  0  0  0  0
   13.9470    7.2850   11.1550 C   0  0  0  0  0  3  0  0  0  0  0  0
   15.1440    7.9330   11.0390 C   0  0  0  0  0  3  0  0  0  0  0  0
   16.0070    8.0600   12.1060 C   0  0  0  0  0  0  0  0  0  0  0  0
   15.6420    7.5130   13.3220 C   0  0  0  0  0  3  0  0  0  0  0  0
   14.4260    6.8570   13.4340 C   0  0  0  0  0  3  0  0  0  0  0  0
   17.2240    8.7210   11.9790 O   0  0  0  0  0  0  0  0  0  0  0  0
   17.8810    8.6900   10.7040 C   0  0  0  0  0  2  0  0  0  0  0  0
   18.7460    7.4330   10.6300 C   0  0  0  0  0  2  0  0  0  0  0  0
   18.2540    6.6270    9.4360 C   0  0  0  0  0  1  0  0  0  0  0  0
   10.5970    7.9140   13.0390 C   0  0  0  0  0  2  0  0  0  0  0  0
    9.4760    7.3580   13.8470 C   0  0  0  0  0  2  0  0  0  0  0  0
    8.1960    8.0040   13.5100 N   0  0  0  0  0  4  0  0  0  0  0  0
    7.4220    7.0760   12.7440 C   0  0  0  0  0  2  0  0  0  0  0  0
    6.2680    7.7630   12.0160 C   0  0  0  0  0  2  0  0  0  0  0  0
    6.8520    8.7520   11.2050 O   0  0  0  0  0  0  0  0  0  0  0  0
    7.3220    9.7420   12.0430 C   0  0  0  0  0  2  0  0  0  0  0  0
    8.5290    9.2180   12.7960 C   0  0  0  0  0  2  0  0  0  0  0  0
    7.6700    8.2540   14.3870 H   0  0  0  0  0  0  0  0  0  0  0  0
   12.9400    2.8040   10.5200 C   0  0  0  0  0  0  0  0  0  0  0  0
   11.9480    1.8150   10.5740 C   0  0  0  0  0  3  0  0  0  0  0  0
   11.8770    0.7850    9.6600 C   0  0  0  0  0  3  0  0  0  0  0  0
   12.7940    0.6870    8.6410 C   0  0  0  0  0  0  0  0  0  0  0  0
   12.7600   -0.5930    7.4500 Cl  0  0  0  0  0  0  0  0  0  0  0  0
   13.7750    1.6340    8.5620 C   0  0  0  0  0  3  0  0  0  0  0  0
   13.8450    2.6790    9.4920 C   0  0  0  0  0  3  0  0  0  0  0  0
  1  9  1  0  0  0  0
  2  1  2  0  0  0  0
  2  3  1  0  0  0  0
  3 10  1  6  0  0  0
  4  3  1  0  0  0  0
  4 20  1  0  0  0  0
  5  4  1  0  0  0  0
  6  5  2  0  0  0  0
  7  5  1  0  0  0  0
  7  2  1  0  0  0  0
  8  7  2  0  0  0  0
 10 15  1  0  0  0  0
 11 10  2  0  0  0  0
 12 11  1  0  0  0  0
 12 13  2  0  0  0  0
 13 14  1  0  0  0  0
 14 15  2  0  0  0  0
 16 13  1  0  0  0  0
 17 16  1  0  0  0  0
 18 17  1  0  0  0  0
 19 18  1  0  0  0  0
 20 21  1  0  0  0  0
 22 21  1  0  0  0  0
 22 28  1  0  0  0  0
 23 22  1  0  0  0  0
 24 23  1  0  0  0  0
 25 24  1  0  0  0  0
 25 26  1  0  0  0  0
 26 27  1  0  0  0  0
 27 22  1  0  0  0  0
 29 30  1  0  0  0  0
 29  1  1  0  0  0  0
 31 30  2  0  0  0  0
 32 31  1  0  0  0  0
 33 32  1  0  0  0  0
 34 32  2  0  0  0  0
 34 35  1  0  0  0  0
 35 29  2  0  0  0  0
M  END
>  <Pose>
1

>  <Score>
-8.114

$$$$
