MODEL 1
REMARK VINA RESULT:    -8.438      0.000      0.000
REMARK INTER + INTRA:         -12.561
REMARK INTER:                 -11.644
REMARK INTRA:                  -0.917
REMARK UNBOUND:                -0.917
REMARK  7 active torsions:
REMARK  status: ('A' for Active; 'I' for Inactive)
REMARK    1  A    between atoms: C_5  and  C_8 
REMARK    2  A    between atoms: C_8  and  O_9 
REMARK    3  A    between atoms: C_8  and  C_10 
REMARK    4  A    between atoms: N_17  and  C_20 
REMARK    5  A    between atoms: C_20  and  C_21 
REMARK    6  A    between atoms: C_21  and  C_22 
REMARK    7  A    between atoms: C_22  and  O_23 
ROOT
ATOM      1  C   UNK d   1      11.966   3.304  10.591  0.00  0.00     0.269 C 
ATOM      2  N   UNK d   1      13.189   4.093  10.669  0.00  0.00     0.116 N 
ATOM      3  C   UNK d   1      12.875   5.275  11.446  0.00  0.00     0.279 A 
ATOM      4  C   UNK d   1      11.856   4.763  12.423  0.00  0.00     0.147 C 
ATOM      5  C   UNK d   1      11.046   3.764  11.659  0.00  0.00     0.131 C 
ATOM      6  C   UNK d   1       9.865   4.508  11.140  0.00  0.00     0.233 C 
ATOM      7  O   UNK d   1       9.072   4.124  10.247  0.00  0.00    -0.272 OA
ATOM      8  N   UNK d   1       9.817   5.755  11.869  0.00  0.00    -0.287 N 
ATOM      9  C   UNK d   1      10.851   5.758  12.831  0.00  0.00     0.234 C 
ATOM     10  O   UNK d   1      10.926   6.473  13.861  0.00  0.00    -0.272 OA
ATOM     11  C   UNK d   1      14.069   5.821  12.135  0.00  0.00     0.017 A 
ATOM     12  C   UNK d   1      14.265   7.089  11.640  0.00  0.00     0.044 A 
ATOM     13  C   UNK d   1      15.329   7.839  12.121  0.00  0.00     0.030 A 
ATOM     14  C   UNK d   1      16.154   7.298  13.079  0.00  0.00     0.002 A 
ATOM     15  C   UNK d   1      15.964   6.024  13.585  0.00  0.00     0.001 A 
ATOM     16  C   UNK d   1      14.905   5.289  13.097  0.00  0.00     0.012 A 
ATOM     17  N   UNK d   1      13.273   7.416  10.650  0.00  0.00    -0.324 N 
ATOM     18  C   UNK d   1      12.415   6.297  10.522  0.00  0.00     0.267 A 
ATOM     19  O   UNK d   1      11.452   6.249   9.739  0.00  0.00    -0.270 OA
ATOM     20  H   UNK d   1      13.528   4.328   9.729  0.00  0.00     0.318 HD
ATOM     21  H   UNK d   1      13.245   8.334  10.151  0.00  0.00     0.169 HD
ENDROOT
BRANCH   1  22
ATOM     22  C   UNK d   1      12.396   1.867  10.713  0.00  0.00     0.185 C 
BRANCH  22  23
ATOM     23  C   UNK d   1      11.573   0.939   9.887  0.00  0.00    -0.028 A 
ATOM     24  C   UNK d   1      12.185   0.038   9.017  0.00  0.00     0.011 A 
ATOM     25  C   UNK d   1      11.450  -0.812   8.233  0.00  0.00     0.024 A 
ATOM     26  C   UNK d   1      10.069  -0.817   8.267  0.00  0.00     0.034 A 
ATOM     27 Cl   UNK d   1       9.115  -1.900   7.267  0.00  0.00    -0.084 Cl
ATOM     28  C   UNK d   1       9.487   0.081   9.132  0.00  0.00     0.024 A 
ATOM     29  C   UNK d   1      10.200   0.944   9.929  0.00  0.00     0.011 A 
ENDBRANCH  22  23
BRANCH  22  30
ATOM     30  O   UNK d   1      13.722   1.656  10.436  0.00  0.00    -0.389 OA
ATOM     31  H   UNK d   1      13.947   2.158   9.612  0.00  0.00     0.210 HD
ENDBRANCH  22  30
ENDBRANCH   1  22
BRANCH   8  32
ATOM     32  C   UNK d   1       8.877   6.811  11.635  0.00  0.00     0.137 C 
BRANCH  32  33
ATOM     33  C   UNK d   1       7.591   6.712  12.368  0.00  0.00     0.046 C 
BRANCH  33  34
ATOM     34  C   UNK d   1       6.682   7.888  12.288  0.00  0.00     0.168 C 
BRANCH  34  35
ATOM     35  O   UNK d   1       6.384   8.267  10.986  0.00  0.00    -0.396 OA
ATOM     36  C   UNK d   1       4.986   8.223  10.796  0.00  0.00     0.201 C 
ENDBRANCH  34  35
ENDBRANCH  33  34
ENDBRANCH  32  33
ENDBRANCH   8  32
TORSDOF 7
ENDMDL
