MODEL 1
REMARK VINA RESULT:    -9.200      0.000      0.000
REMARK INTER + INTRA:         -11.133
REMARK INTER:                 -11.082
REMARK INTRA:                  -0.051
REMARK UNBOUND:                -0.051
REMARK  4 active torsions:
REMARK  status: ('A' for Active; 'I' for Inactive)
REMARK    1  A    between atoms: C_5  and  C_8 
REMARK    2  A    between atoms: C_8  and  C_9 
REMARK       I    between atoms: C_9  and  N_11 
REMARK    3  A    between atoms: C_17  and  N_21 
REMARK    4  A    between atoms: C_19  and  O_20 
ROOT
ATOM      1  C   UNK d   1      11.101   3.556  10.037  0.00  0.00     0.224 C 
ATOM      2  O   UNK d   1      10.182   3.532   9.147  0.00  0.00    -0.273 OA
ATOM      3  N   UNK d   1      11.546   4.757  10.608  0.00  0.00    -0.346 N 
ATOM      4  C   UNK d   1      12.572   4.792  11.602  0.00  0.00     0.131 C 
ATOM      5  C   UNK d   1      12.498   5.973  12.529  0.00  0.00     0.065 C 
ATOM      6  C   UNK d   1      11.109   6.489  12.588  0.00  0.00     0.024 A 
ATOM      7  C   UNK d   1      10.319   6.525  11.454  0.00  0.00     0.082 A 
ATOM      8  N   UNK d   1       9.067   6.994  11.497  0.00  0.00    -0.065 NA
ATOM      9  C   UNK d   1       8.498   7.457  12.631  0.00  0.00     0.727 A 
ATOM     10  N   UNK d   1       9.269   7.423  13.744  0.00  0.00    -0.038 NA
ATOM     11  C   UNK d   1      10.531   6.961  13.752  0.00  0.00     0.189 A 
ATOM     12  C   UNK d   1      10.959   6.000  10.191  0.00  0.00     0.186 C 
ENDROOT
BRANCH   1  13
ATOM     13  C   UNK d   1      11.678   2.233  10.439  0.00  0.00     0.141 C 
BRANCH  13  14
ATOM     14  C   UNK d   1      11.077   1.133   9.668  0.00  0.00    -0.049 A 
ATOM     15  C   UNK d   1      11.762   0.404   8.720  0.00  0.00     0.009 A 
ATOM     16  C   UNK d   1      11.171  -0.620   8.012  0.00  0.00     0.024 A 
ATOM     17  C   UNK d   1       9.839  -0.949   8.243  0.00  0.00     0.034 A 
ATOM     18 Cl   UNK d   1       9.074  -2.248   7.353  0.00  0.00    -0.084 Cl
ATOM     19  C   UNK d   1       9.166  -0.209   9.196  0.00  0.00     0.024 A 
ATOM     20  C   UNK d   1       9.758   0.813   9.902  0.00  0.00     0.009 A 
ENDBRANCH  13  14
ENDBRANCH   1  13
BRANCH  11  21
ATOM     21  O   UNK d   1      11.293   6.941  14.911  0.00  0.00    -0.344 OA
ATOM     22  H   UNK d   1      10.984   6.454  15.757  0.00  0.00     0.219 HD
ENDBRANCH  11  21
BRANCH   9  23
ATOM     23  N   UNK d   1       7.178   7.937  12.622  0.00  0.00    -0.210 N 
ATOM     24  C   UNK d   1       6.303   7.692  13.730  0.00  0.00     0.167 C 
ATOM     25  C   UNK d   1       5.224   8.783  13.675  0.00  0.00     0.188 C 
ATOM     26  O   UNK d   1       4.487   8.695  12.521  0.00  0.00    -0.388 OA
ATOM     27  C   UNK d   1       5.198   8.557  11.360  0.00  0.00     0.188 C 
ATOM     28  C   UNK d   1       6.690   8.680  11.498  0.00  0.00     0.167 C 
ENDBRANCH   9  23
TORSDOF 4
ENDMDL
