/Users/jonathanwahrer/Desktop/Msc/3_Semester/Drug_Design_Praktikum/waehrer_HTS_screening/HTS_experiment/out/docking_results/vina_output/2jam/1966_docked.pdbqt
 OpenBabel03162218493D

 27 30  0  0  0  0  0  0  0  0999 V2000
   13.9260    3.1560   10.9150 C   0  0  0  0  0  0  0  0  0  0  0  0
   15.0700    2.7110   11.3200 O   0  0  0  0  0  0  0  0  0  0  0  0
   13.4440    4.4090   11.1990 N   0  0  0  0  0  0  0  0  0  0  0  0
   12.9640    5.6540   11.4820 C   0  0  0  0  0  2  0  0  0  0  0  0
   14.5700    4.6950   11.9200 H   0  0  0  0  0  0  0  0  0  0  0  0
   13.2250    2.1230   10.1070 C   0  0  0  0  0  0  0  0  0  0  0  0
   11.9300    1.6800   10.2080 C   0  0  0  0  0  0  0  0  0  0  0  0
   10.9880    2.0910   11.0920 F   0  0  0  0  0  0  0  0  0  0  0  0
   11.6750    0.7170    9.2700 N   0  0  0  0  0  0  0  0  0  0  0  0
   12.8230    0.5710    8.5900 C   0  0  0  0  0  0  0  0  0  0  0  0
   10.5780   -0.0030    8.9810 C   0  0  0  0  0  3  0  0  0  0  0  0
   13.7460    1.4090    9.0900 N   0  0  0  0  0  0  0  0  0  0  0  0
   12.8390   -0.3520    7.5740 C   0  0  0  0  0  3  0  0  0  0  0  0
   11.7210   -1.1200    7.2410 C   0  0  0  0  0  3  0  0  0  0  0  0
   10.5670   -0.9430    7.9570 C   0  0  0  0  0  0  0  0  0  0  0  0
    9.1160   -1.8740    7.5880 Cl  0  0  0  0  0  0  0  0  0  0  0  0
   11.6020    5.9730   10.9170 C   0  0  0  0  0  0  0  0  0  0  0  0
   10.7340    6.8520   11.4240 N   0  0  0  0  0  0  0  0  0  0  0  0
    9.6620    6.8510   10.6500 N   0  0  0  0  0  0  0  0  0  0  0  0
    9.8210    5.9970    9.6620 N   0  0  0  0  0  0  0  0  0  0  0  0
   11.0280    5.4560    9.8360 N   0  0  0  0  0  0  0  0  0  0  0  0
   11.0070    7.6240   12.5950 C   0  0  0  0  0  0  0  0  0  0  0  0
   10.5410    7.1480   13.8160 C   0  0  0  0  0  3  0  0  0  0  0  0
   10.7570    7.8590   14.9900 C   0  0  0  0  0  3  0  0  0  0  0  0
   11.4390    9.0590   14.9820 C   0  0  0  0  0  3  0  0  0  0  0  0
   11.8990    9.5240   13.7680 C   0  0  0  0  0  3  0  0  0  0  0  0
   11.6850    8.8190   12.5970 C   0  0  0  0  0  3  0  0  0  0  0  0
  1  3  1  0  0  0  0
  1  2  2  0  0  0  0
  3  4  1  0  0  0  0
  3  5  1  0  0  0  0
  6  7  2  0  0  0  0
  6  1  1  0  0  0  0
  7  8  1  0  0  0  0
  9  7  1  0  0  0  0
 10 12  2  0  0  0  0
 10  9  1  0  0  0  0
 11  9  1  0  0  0  0
 12  6  1  0  0  0  0
 13 10  1  0  0  0  0
 14 13  2  0  0  0  0
 14 15  1  0  0  0  0
 15 11  2  0  0  0  0
 16 15  1  0  0  0  0
 17 18  1  0  0  0  0
 17  4  1  0  0  0  0
 18 22  1  0  0  0  0
 19 18  1  0  0  0  0
 20 21  1  0  0  0  0
 20 19  2  0  0  0  0
 21 17  2  0  0  0  0
 22 27  2  0  0  0  0
 22 23  1  0  0  0  0
 23 24  2  0  0  0  0
 25 24  1  0  0  0  0
 26 25  2  0  0  0  0
 27 26  1  0  0  0  0
M  END
>  <Pose>
1

>  <Score>
-8.842

$$$$
