MODEL 1
REMARK VINA RESULT:    -8.842      0.000      0.000
REMARK INTER + INTRA:         -11.122
REMARK INTER:                 -10.392
REMARK INTRA:                  -0.730
REMARK UNBOUND:                -0.730
REMARK  3 active torsions:
REMARK  status: ('A' for Active; 'I' for Inactive)
REMARK    1  A    between atoms: C_6  and  C_7 
REMARK       I    between atoms: C_7  and  N_9 
REMARK    2  A    between atoms: C_10  and  C_11 
REMARK    3  A    between atoms: N_12  and  C_16 
ROOT
ATOM      1  C   UNK d   1      13.926   3.156  10.915  0.00  0.00     0.275 C 
ATOM      2  O   UNK d   1      15.070   2.711  11.320  0.00  0.00    -0.266 OA
ATOM      3  N   UNK d   1      13.444   4.409  11.199  0.00  0.00    -0.348 N 
ATOM      4  C   UNK d   1      12.964   5.654  11.482  0.00  0.00     0.205 C 
ATOM      5  H   UNK d   1      14.570   4.695  11.920  0.00  0.00     0.163 HD
ENDROOT
BRANCH   1   6
ATOM      6  C   UNK d   1      13.225   2.123  10.107  0.00  0.00     0.183 A 
ATOM      7  C   UNK d   1      11.930   1.680  10.208  0.00  0.00     0.231 A 
ATOM      8  F   UNK d   1      10.988   2.091  11.092  0.00  0.00    -0.183 F 
ATOM      9  N   UNK d   1      11.675   0.717   9.270  0.00  0.00    -0.279 N 
ATOM     10  C   UNK d   1      12.823   0.571   8.590  0.00  0.00     0.137 A 
ATOM     11  C   UNK d   1      10.578  -0.003   8.981  0.00  0.00     0.125 A 
ATOM     12  N   UNK d   1      13.746   1.409   9.090  0.00  0.00    -0.220 NA
ATOM     13  C   UNK d   1      12.839  -0.352   7.574  0.00  0.00     0.053 A 
ATOM     14  C   UNK d   1      11.721  -1.120   7.241  0.00  0.00     0.029 A 
ATOM     15  C   UNK d   1      10.567  -0.943   7.957  0.00  0.00     0.050 A 
ATOM     16 Cl   UNK d   1       9.116  -1.874   7.588  0.00  0.00    -0.083 Cl
ENDBRANCH   1   6
BRANCH   4  17
ATOM     17  C   UNK d   1      11.602   5.973  10.917  0.00  0.00     0.171 A 
ATOM     18  N   UNK d   1      10.734   6.852  11.424  0.00  0.00    -0.197 N 
ATOM     19  N   UNK d   1       9.662   6.851  10.650  0.00  0.00    -0.039 NA
ATOM     20  N   UNK d   1       9.821   5.997   9.662  0.00  0.00    -0.023 NA
ATOM     21  N   UNK d   1      11.028   5.456   9.836  0.00  0.00    -0.112 NA
BRANCH  18  22
ATOM     22  C   UNK d   1      11.007   7.624  12.595  0.00  0.00     0.062 A 
ATOM     23  C   UNK d   1      10.541   7.148  13.816  0.00  0.00     0.032 A 
ATOM     24  C   UNK d   1      10.757   7.859  14.990  0.00  0.00     0.002 A 
ATOM     25  C   UNK d   1      11.439   9.059  14.982  0.00  0.00     0.000 A 
ATOM     26  C   UNK d   1      11.899   9.524  13.768  0.00  0.00     0.002 A 
ATOM     27  C   UNK d   1      11.685   8.819  12.597  0.00  0.00     0.032 A 
ENDBRANCH  18  22
ENDBRANCH   4  17
TORSDOF 3
ENDMDL
