/Users/jonathanwahrer/Desktop/Msc/3_Semester/Drug_Design_Praktikum/waehrer_HTS_screening/HTS_experiment/out/docking_results/vina_output/2jam/1969_docked.pdbqt
 OpenBabel03162218503D

 26 29  0  0  0  0  0  0  0  0999 V2000
    9.4950    7.0730   12.3660 C   0  0  0  0  0  0  0  0  0  0  0  0
   10.1270    8.3040   12.2220 O   0  0  0  0  0  0  0  0  0  0  0  0
    8.9850    6.9300   13.6130 N   0  0  0  0  0  0  0  0  0  0  0  0
    8.1790    5.9050   14.2050 C   0  0  0  0  0  2  0  0  0  0  0  0
    7.3680    6.5050   15.3730 C   0  0  0  0  0  2  0  0  0  0  0  0
    7.1090    7.8870   14.9450 N   0  0  0  0  0  0  0  0  0  0  0  0
    8.1910    8.8150   14.9290 C   0  0  0  0  0  2  0  0  0  0  0  0
    9.3930    7.9980   14.5810 C   0  0  0  0  0  2  0  0  0  0  0  0
    9.6810    6.4800   11.0540 C   0  0  0  0  0  0  0  0  0  0  0  0
    9.8340    5.9840    9.9560 N   0  0  0  0  0  0  0  0  0  0  0  0
   10.4240    5.0540    9.5180 N   0  0  0  0  0  0  0  0  0  0  0  0
   11.0040    4.4930   10.5580 N   0  0  0  0  0  0  0  0  0  0  0  0
   10.6780    5.2270   11.5890 C   0  0  0  0  0  3  0  0  0  0  0  0
   11.8210    3.3100   10.4040 C   0  0  0  0  0  0  0  0  0  0  0  0
   11.4040    2.1500    9.8490 C   0  0  0  0  0  3  0  0  0  0  0  0
   12.2550    1.0590    9.7290 C   0  0  0  0  0  0  0  0  0  0  0  0
   11.7910   -0.4660    9.0410 Cl  0  0  0  0  0  0  0  0  0  0  0  0
   13.6040    1.1520   10.2030 C   0  0  0  0  0  3  0  0  0  0  0  0
   14.0040    2.3210   10.7510 C   0  0  0  0  0  3  0  0  0  0  0  0
   13.1300    3.3510   10.8410 C   0  0  0  0  0  3  0  0  0  0  0  0
    5.8530    8.2290   14.4570 C   0  0  0  0  0  0  0  0  0  0  0  0
    5.6800    8.6250   13.1260 N   0  0  0  0  0  0  0  0  0  0  0  0
    4.5640    8.9350   12.5680 C   0  0  0  0  0  3  0  0  0  0  0  0
    3.3480    8.8950   13.2680 C   0  0  0  0  0  3  0  0  0  0  0  0
    3.5100    8.5090   14.5930 C   0  0  0  0  0  3  0  0  0  0  0  0
    4.6510    8.2160   15.0920 N   0  0  0  0  0  0  0  0  0  0  0  0
  1  3  1  0  0  0  0
  2  1  2  0  0  0  0
  3  4  1  0  0  0  0
  3  8  1  0  0  0  0
  4  5  1  0  0  0  0
  6  5  1  0  0  0  0
  7  6  1  0  0  0  0
  8  7  1  0  0  0  0
  9 13  2  0  0  0  0
  9  1  1  0  0  0  0
 10  9  1  0  0  0  0
 11 10  2  0  0  0  0
 11 12  1  0  0  0  0
 12 13  1  0  0  0  0
 14 12  1  0  0  0  0
 14 20  1  0  0  0  0
 15 14  2  0  0  0  0
 16 15  1  0  0  0  0
 16 18  2  0  0  0  0
 17 16  1  0  0  0  0
 18 19  1  0  0  0  0
 19 20  2  0  0  0  0
 21  6  1  0  0  0  0
 21 26  1  0  0  0  0
 22 21  2  0  0  0  0
 23 22  1  0  0  0  0
 23 24  2  0  0  0  0
 24 25  1  0  0  0  0
 25 26  2  0  0  0  0
M  END
>  <Pose>
1

>  <Score>
-8.579

$$$$
