MODEL 1
REMARK VINA RESULT:    -8.579      0.000      0.000
REMARK INTER + INTRA:         -10.741
REMARK INTER:                 -10.084
REMARK INTRA:                  -0.657
REMARK UNBOUND:                -0.657
REMARK  3 active torsions:
REMARK  status: ('A' for Active; 'I' for Inactive)
REMARK    1  A    between atoms: C_4  and  N_8 
REMARK    2  A    between atoms: C_11  and  C_13 
REMARK    3  A    between atoms: N_18  and  C_21 
ROOT
ATOM      1  C   UNK d   1       9.495   7.073  12.366  0.00  0.00     0.209 C 
ATOM      2  O   UNK d   1      10.127   8.304  12.222  0.00  0.00    -0.170 OA
ATOM      3  N   UNK d   1       8.985   6.930  13.613  0.00  0.00    -0.354 N 
ATOM      4  C   UNK d   1       8.179   5.905  14.205  0.00  0.00     0.145 C 
ATOM      5  C   UNK d   1       7.368   6.505  15.373  0.00  0.00     0.161 C 
ATOM      6  N   UNK d   1       7.109   7.887  14.945  0.00  0.00    -0.211 N 
ATOM      7  C   UNK d   1       8.191   8.815  14.929  0.00  0.00     0.161 C 
ATOM      8  C   UNK d   1       9.393   7.998  14.581  0.00  0.00     0.145 C 
ENDROOT
BRANCH   1   9
ATOM      9  C   UNK d   1       9.681   6.480  11.054  0.00  0.00     0.151 A 
ATOM     10  N   UNK d   1       9.834   5.984   9.956  0.00  0.00    -0.126 NA
ATOM     11  N   UNK d   1      10.424   5.054   9.518  0.00  0.00    -0.060 NA
ATOM     12  N   UNK d   1      11.004   4.493  10.558  0.00  0.00    -0.224 N 
ATOM     13  C   UNK d   1      10.678   5.227  11.589  0.00  0.00     0.158 A 
BRANCH  12  14
ATOM     14  C   UNK d   1      11.821   3.310  10.404  0.00  0.00     0.061 A 
ATOM     15  C   UNK d   1      11.404   2.150   9.849  0.00  0.00     0.055 A 
ATOM     16  C   UNK d   1      12.255   1.059   9.729  0.00  0.00     0.036 A 
ATOM     17 Cl   UNK d   1      11.791  -0.466   9.041  0.00  0.00    -0.084 Cl
ATOM     18  C   UNK d   1      13.604   1.152  10.203  0.00  0.00     0.024 A 
ATOM     19  C   UNK d   1      14.004   2.321  10.751  0.00  0.00     0.004 A 
ATOM     20  C   UNK d   1      13.130   3.351  10.841  0.00  0.00     0.032 A 
ENDBRANCH  12  14
ENDBRANCH   1   9
BRANCH   6  21
ATOM     21  C   UNK d   1       5.853   8.229  14.457  0.00  0.00     0.724 A 
ATOM     22  N   UNK d   1       5.680   8.625  13.126  0.00  0.00    -0.075 NA
ATOM     23  C   UNK d   1       4.564   8.935  12.568  0.00  0.00     0.138 A 
ATOM     24  C   UNK d   1       3.348   8.895  13.268  0.00  0.00     0.040 A 
ATOM     25  C   UNK d   1       3.510   8.509  14.593  0.00  0.00     0.138 A 
ATOM     26  N   UNK d   1       4.651   8.216  15.092  0.00  0.00    -0.075 NA
ENDBRANCH   6  21
TORSDOF 3
ENDMDL
