MODEL 1
REMARK VINA RESULT:    -7.622      0.000      0.000
REMARK INTER + INTRA:          -9.370
REMARK INTER:                  -8.736
REMARK INTRA:                  -0.634
REMARK UNBOUND:                -0.634
REMARK  3 active torsions:
REMARK  status: ('A' for Active; 'I' for Inactive)
REMARK    1  A    between atoms: C_4  and  N_8 
REMARK    2  A    between atoms: C_12  and  C_20 
REMARK    3  A    between atoms: C_20  and  O_21 
ROOT
ATOM      1  N   UNK d   1       8.731   6.960  12.511  0.00  0.00    -0.252 N 
ATOM      2  C   UNK d   1       7.405   6.747  11.992  0.00  0.00     0.239 C 
ATOM      3  O   UNK d   1       7.130   6.000  11.024  0.00  0.00    -0.272 OA
ATOM      4  C   UNK d   1       6.443   7.532  12.762  0.00  0.00     0.135 C 
ATOM      5  C   UNK d   1       5.876   8.719  12.056  0.00  0.00     0.113 C 
ATOM      6  O   UNK d   1       5.558   9.541  13.166  0.00  0.00    -0.363 OA
ATOM      7  C   UNK d   1       6.882   9.662  13.662  0.00  0.00     0.159 C 
ATOM      8  C   UNK d   1       7.242   8.214  13.884  0.00  0.00     0.128 C 
ATOM      9  C   UNK d   1       8.636   7.966  13.512  0.00  0.00     0.239 C 
ATOM     10  O   UNK d   1       9.634   8.551  14.000  0.00  0.00    -0.272 OA
ATOM     11  C   UNK d   1       7.585  10.121  12.445  0.00  0.00     0.005 C 
ATOM     12  C   UNK d   1       6.921   9.547  11.416  0.00  0.00     0.012 C 
ENDROOT
BRANCH   1  13
ATOM     13  C   UNK d   1       9.940   6.315  12.127  0.00  0.00     0.046 A 
ATOM     14  C   UNK d   1      10.230   5.010  12.493  0.00  0.00     0.054 A 
ATOM     15  C   UNK d   1      11.401   4.387  12.119  0.00  0.00     0.036 A 
ATOM     16 Cl   UNK d   1      11.754   2.739  12.589  0.00  0.00    -0.084 Cl
ATOM     17  C   UNK d   1      12.343   5.047  11.356  0.00  0.00     0.024 A 
ATOM     18  C   UNK d   1      12.063   6.347  10.986  0.00  0.00     0.004 A 
ATOM     19  C   UNK d   1      10.882   6.974  11.363  0.00  0.00     0.030 A 
ENDBRANCH   1  13
BRANCH   5  20
ATOM     20  C   UNK d   1       4.685   8.445  11.207  0.00  0.00     0.207 C 
BRANCH  20  21
ATOM     21  O   UNK d   1       5.088   8.261   9.891  0.00  0.00    -0.398 OA
ATOM     22  H   UNK d   1       5.305   7.314   9.729  0.00  0.00     0.209 HD
ENDBRANCH  20  21
ENDBRANCH   5  20
TORSDOF 3
ENDMDL
