MODEL 1
REMARK VINA RESULT:    -8.493      0.000      0.000
REMARK INTER + INTRA:          -7.923
REMARK INTER:                  -8.990
REMARK INTRA:                   1.067
REMARK UNBOUND:                 1.067
REMARK  1 active torsions:
REMARK  status: ('A' for Active; 'I' for Inactive)
REMARK       I    between atoms: N_10  and  C_13 
REMARK    1  A    between atoms: C_13  and  C_15 
ROOT
ATOM      1 Cl   UNK d   1       9.628  -1.571   7.381  0.00  0.00    -0.083 Cl
ATOM      2  C   UNK d   1      11.000  -0.643   7.985  0.00  0.00     0.050 A 
ATOM      3  C   UNK d   1      10.887   0.213   9.061  0.00  0.00     0.125 A 
ATOM      4  N   UNK d   1      11.930   0.934   9.539  0.00  0.00    -0.271 N 
ATOM      5  C   UNK d   1      13.154   0.858   8.985  0.00  0.00     0.137 A 
ATOM      6  N   UNK d   1      14.212   1.573   9.450  0.00  0.00    -0.234 NA
ATOM      7  C   UNK d   1      14.110   2.410  10.499  0.00  0.00     0.051 A 
ATOM      8  C   UNK d   1      12.851   2.501  11.083  0.00  0.00     0.053 A 
ATOM      9  C   UNK d   1      12.737   3.425  12.241  0.00  0.00     0.172 C 
ATOM     10  N   UNK d   1      13.437   4.647  11.829  0.00  0.00    -0.347 N 
ATOM     11  C   UNK d   1      14.839   4.543  11.537  0.00  0.00     0.132 C 
ATOM     12  C   UNK d   1      15.258   3.196  11.019  0.00  0.00     0.080 C 
ATOM     13  C   UNK d   1      12.743   5.872  11.719  0.00  0.00     0.224 C 
ATOM     14  O   UNK d   1      11.494   5.855  11.985  0.00  0.00    -0.273 OA
ATOM     15  C   UNK d   1      11.797   1.763  10.590  0.00  0.00     0.263 A 
ATOM     16  O   UNK d   1      10.654   1.864  11.143  0.00  0.00    -0.267 OA
ATOM     17  C   UNK d   1      13.288   0.004   7.902  0.00  0.00     0.053 A 
ATOM     18  C   UNK d   1      12.243  -0.741   7.397  0.00  0.00     0.029 A 
ENDROOT
BRANCH  13  19
ATOM     19  C   UNK d   1      13.401   7.136  11.319  0.00  0.00     0.082 C 
ATOM     20  C   UNK d   1      14.568   7.484  12.217  0.00  0.00     0.040 C 
ATOM     21  C   UNK d   1      14.106   7.173  13.635  0.00  0.00     0.168 C 
ATOM     22  O   UNK d   1      12.766   7.525  13.791  0.00  0.00    -0.391 OA
ATOM     23  C   UNK d   1      12.428   8.624  12.989  0.00  0.00     0.168 C 
ATOM     24  C   UNK d   1      12.384   8.271  11.515  0.00  0.00     0.040 C 
ENDBRANCH  13  19
TORSDOF 1
ENDMDL
