MODEL 1
REMARK VINA RESULT:    -8.711      0.000      0.000
REMARK INTER + INTRA:         -10.801
REMARK INTER:                 -10.239
REMARK INTRA:                  -0.562
REMARK UNBOUND:                -0.562
REMARK  3 active torsions:
REMARK  status: ('A' for Active; 'I' for Inactive)
REMARK    1  A    between atoms: N_13  and  C_14 
REMARK    2  A    between atoms: C_14  and  N_15 
REMARK    3  A    between atoms: N_18  and  C_21 
ROOT
ATOM      1  F   UNK d   1       9.758   2.021  10.475  0.00  0.00    -0.204 F 
ATOM      2  C   UNK d   1      10.966   1.668   9.974  0.00  0.00     0.144 A 
ATOM      3  C   UNK d   1      12.097   2.288  10.482  0.00  0.00     0.094 A 
ATOM      4  C   UNK d   1      13.358   1.980  10.021  0.00  0.00     0.071 A 
ATOM      5  C   UNK d   1      13.462   1.024   9.024  0.00  0.00     0.051 A 
ATOM      6  C   UNK d   1      12.341   0.408   8.519  0.00  0.00     0.028 A 
ATOM      7  C   UNK d   1      11.084   0.721   8.984  0.00  0.00     0.046 A 
ATOM      8 Cl   UNK d   1      15.066   0.629   8.433  0.00  0.00    -0.083 Cl
ATOM      9  C   UNK d   1      14.372   2.756  10.703  0.00  0.00     0.254 A 
ATOM     10  O   UNK d   1      15.614   2.734  10.539  0.00  0.00    -0.281 OA
ATOM     11  C   UNK d   1      13.647   3.595  11.649  0.00  0.00     0.301 A 
ATOM     12  O   UNK d   1      14.177   4.429  12.448  0.00  0.00    -0.263 OA
ATOM     13  N   UNK d   1      12.268   3.296  11.500  0.00  0.00    -0.280 N 
ENDROOT
BRANCH  13  14
ATOM     14  C   UNK d   1      11.166   3.887  12.232  0.00  0.00     0.405 C 
BRANCH  14  15
ATOM     15  N   UNK d   1      11.123   5.331  12.138  0.00  0.00     0.109 N 
ATOM     16  C   UNK d   1      10.528   5.747  10.914  0.00  0.00     0.294 C 
ATOM     17  C   UNK d   1       9.550   6.863  11.021  0.00  0.00     0.154 C 
ATOM     18  N   UNK d   1       8.715   6.790  12.192  0.00  0.00    -0.361 N 
ATOM     19  C   UNK d   1       9.130   5.940  13.284  0.00  0.00     0.154 C 
ATOM     20  C   UNK d   1      10.643   5.976  13.312  0.00  0.00     0.294 C 
BRANCH  18  21
ATOM     21  C   UNK d   1       7.510   7.520  12.310  0.00  0.00     0.143 A 
ATOM     22  N   UNK d   1       6.621   7.571  11.303  0.00  0.00    -0.241 NA
ATOM     23  C   UNK d   1       5.467   8.259  11.391  0.00  0.00     0.138 A 
ATOM     24  C   UNK d   1       5.151   8.951  12.544  0.00  0.00     0.135 A 
ATOM     25  N   UNK d   1       6.034   8.903  13.555  0.00  0.00    -0.268 NA
ATOM     26  C   UNK d   1       7.189   8.215  13.469  0.00  0.00     0.166 A 
ENDBRANCH  18  21
ENDBRANCH  14  15
ENDBRANCH  13  14
TORSDOF 3
ENDMDL
