/Users/jonathanwahrer/Desktop/Msc/3_Semester/Drug_Design_Praktikum/waehrer_HTS_screening/HTS_experiment/out/docking_results/vina_output/2jam/1976_docked.pdbqt
 OpenBabel03162218503D

 26 29  0  0  0  0  0  0  0  0999 V2000
   12.6970    5.2160   11.6940 C   0  0  0  0  0  0  0  0  0  0  0  0
   13.5960    5.9360   11.1350 O   0  0  0  0  0  0  0  0  0  0  0  0
   11.3640    5.6770   11.8540 N   0  0  0  0  0  0  0  0  0  0  0  0
   10.4070    4.8320   12.4790 C   0  0  0  0  0  2  0  0  0  0  0  0
    9.1470    4.8140   11.6040 C   0  0  0  0  0  2  0  0  0  0  0  0
    8.6790    6.2530   11.6680 C   0  0  0  0  0  0  0  0  0  0  0  0
    9.6060    7.2700   11.5760 C   0  0  0  0  0  0  0  0  0  0  0  0
    9.1640    8.5580   11.6490 N   0  0  0  0  0  0  0  0  0  0  0  0
    7.8690    8.8730   11.8060 C   0  0  0  0  0  3  0  0  0  0  0  0
    6.9790    7.8690   11.8950 N   0  0  0  0  0  0  0  0  0  0  0  0
    7.3580    6.5580   11.8280 C   0  0  0  0  0  0  0  0  0  0  0  0
   11.0420    6.9830   11.3890 C   0  0  0  0  0  2  0  0  0  0  0  0
   13.1090    3.8580   12.1750 C   0  0  0  0  0  2  0  0  0  0  0  0
   13.1720    2.9000   11.0300 C   0  0  0  0  0  0  0  0  0  0  0  0
   14.3530    2.5890   10.3850 C   0  0  0  0  0  0  0  0  0  0  0  0
   15.8110    3.3640   10.9470 Cl  0  0  0  0  0  0  0  0  0  0  0  0
   14.3700    1.6920    9.3290 C   0  0  0  0  0  3  0  0  0  0  0  0
   13.2230    1.0700    8.8710 C   0  0  0  0  0  0  0  0  0  0  0  0
   12.0330    1.3700    9.5060 C   0  0  0  0  0  0  0  0  0  0  0  0
   13.1860    0.1750    7.8310 O   0  0  0  0  0  0  0  0  0  0  0  0
   12.0360    2.2670   10.5580 C   0  0  0  0  0  3  0  0  0  0  0  0
   10.8900    0.7480    9.0490 O   0  0  0  0  0  0  0  0  0  0  0  0
   10.8660   -0.4270    8.2640 C   0  0  0  0  0  2  0  0  0  0  0  0
   12.1610   -0.7550    7.6090 C   0  0  0  0  0  2  0  0  0  0  0  0
    6.4450    5.5230   11.9190 O   0  0  0  0  0  0  0  0  0  0  0  0
    6.8010    4.5860   12.0660 H   0  0  0  0  0  0  0  0  0  0  0  0
  1  3  1  0  0  0  0
  1 13  1  0  0  0  0
  2  1  2  0  0  0  0
  3  4  1  0  0  0  0
  5  6  1  0  0  0  0
  5  4  1  0  0  0  0
  6 11  1  0  0  0  0
  7  8  1  0  0  0  0
  7  6  2  0  0  0  0
  8  9  2  0  0  0  0
  9 10  1  0  0  0  0
 11 10  2  0  0  0  0
 11 25  1  0  0  0  0
 12  7  1  0  0  0  0
 12  3  1  0  0  0  0
 14 13  1  0  0  0  0
 15 16  1  0  0  0  0
 15 14  2  0  0  0  0
 17 15  1  0  0  0  0
 18 17  2  0  0  0  0
 18 19  1  0  0  0  0
 19 21  2  0  0  0  0
 20 18  1  0  0  0  0
 21 14  1  0  0  0  0
 22 19  1  0  0  0  0
 23 22  1  0  0  0  0
 24 20  1  0  0  0  0
 24 23  1  0  0  0  0
 25 26  1  0  0  0  0
M  END
>  <Pose>
1

>  <Score>
-8.471

$$$$
