MODEL 1
REMARK VINA RESULT:    -7.967      0.000      0.000
REMARK INTER + INTRA:          -8.080
REMARK INTER:                  -8.433
REMARK INTRA:                   0.353
REMARK UNBOUND:                 0.353
REMARK  1 active torsions:
REMARK  status: ('A' for Active; 'I' for Inactive)
REMARK    1  A    between atoms: C_11  and  C_12 
ROOT
ATOM      1 Cl   UNK d   1      12.232   3.834  12.498  0.00  0.00    -0.084 Cl
ATOM      2  C   UNK d   1      10.754   4.733  12.201  0.00  0.00     0.034 A 
ATOM      3  C   UNK d   1      10.056   5.316  13.239  0.00  0.00     0.034 A 
ATOM      4  C   UNK d   1       8.876   6.033  13.003  0.00  0.00    -0.009 A 
ATOM      5  C   UNK d   1       8.460   6.123  11.699  0.00  0.00     0.085 A 
ATOM      6  C   UNK d   1       9.172   5.529  10.648  0.00  0.00     0.039 A 
ATOM      7  C   UNK d   1      10.331   4.826  10.891  0.00  0.00     0.026 A 
ATOM      8  O   UNK d   1       7.291   6.831  11.438  0.00  0.00    -0.292 OA
ATOM      9  C   UNK d   1       6.536   7.442  12.424  0.00  0.00     0.166 A 
ATOM     10  C   UNK d   1       6.958   7.350  13.741  0.00  0.00     0.075 A 
ATOM     11  C   UNK d   1       8.170   6.632  14.152  0.00  0.00     0.107 A 
ATOM     12  C   UNK d   1       6.173   7.977  14.689  0.00  0.00     0.262 A 
ATOM     13  O   UNK d   1       6.510   7.927  15.914  0.00  0.00    -0.267 OA
ATOM     14  N   UNK d   1       5.048   8.655  14.412  0.00  0.00    -0.270 N 
ATOM     15  C   UNK d   1       4.675   8.719  13.111  0.00  0.00     0.332 A 
ATOM     16  O   UNK d   1       3.616   9.360  12.873  0.00  0.00    -0.246 OA
ATOM     17  N   UNK d   1       5.409   8.123  12.153  0.00  0.00    -0.283 N 
ATOM     18  C   UNK d   1       4.944   8.235  10.786  0.00  0.00     0.163 C 
ATOM     19  C   UNK d   1       4.254   9.304  15.456  0.00  0.00     0.164 C 
ENDROOT
BRANCH  11  20
ATOM     20  C   UNK d   1       9.096   7.584  14.848  0.00  0.00     0.078 A 
ATOM     21  C   UNK d   1       9.475   7.372  16.156  0.00  0.00     0.197 A 
ATOM     22  N   UNK d   1      10.315   8.244  16.777  0.00  0.00    -0.281 N 
ATOM     23  O   UNK d   1       9.000   6.278  16.824  0.00  0.00    -0.171 OA
ATOM     24  C   UNK d   1      10.788   9.331  16.118  0.00  0.00     0.332 A 
ATOM     25  C   UNK d   1      10.680   7.963  18.162  0.00  0.00     0.163 C 
ATOM     26  O   UNK d   1      11.565  10.119  16.726  0.00  0.00    -0.246 OA
ATOM     27  N   UNK d   1      10.437   9.564  14.843  0.00  0.00    -0.270 N 
ATOM     28  C   UNK d   1       9.606   8.704  14.223  0.00  0.00     0.262 A 
ATOM     29  C   UNK d   1      10.964  10.743  14.164  0.00  0.00     0.164 C 
ATOM     30  O   UNK d   1       9.291   8.933  13.047  0.00  0.00    -0.267 OA
ENDBRANCH  11  20
TORSDOF 1
ENDMDL
