/Users/jonathanwahrer/Desktop/Msc/3_Semester/Drug_Design_Praktikum/waehrer_HTS_screening/HTS_experiment/out/docking_results/vina_output/2jam/1986_docked.pdbqt
 OpenBabel03172211043D

 30 33  0  0  1  0  0  0  0  0999 V2000
   12.2320    3.8340   12.4980 Cl  0  0  0  0  0  0  0  0  0  0  0  0
   10.7540    4.7330   12.2010 C   0  0  0  0  0  0  0  0  0  0  0  0
   10.0560    5.3160   13.2390 C   0  0  0  0  0  3  0  0  0  0  0  0
    8.8760    6.0330   13.0030 C   0  0  0  0  0  0  0  0  0  0  0  0
    8.4600    6.1230   11.6990 C   0  0  1  0  0  3  0  0  0  0  0  0
    9.1720    5.5290   10.6480 C   0  0  0  0  0  3  0  0  0  0  0  0
   10.3310    4.8260   10.8910 C   0  0  0  0  0  3  0  0  0  0  0  0
    7.2910    6.8310   11.4380 O   0  0  0  0  0  0  0  0  0  0  0  0
    6.5360    7.4420   12.4240 C   0  0  0  0  0  0  0  0  0  0  0  0
    6.9580    7.3500   13.7410 C   0  0  0  0  0  0  0  0  0  0  0  0
    8.1700    6.6320   14.1520 C   0  0  0  0  0  0  0  0  0  0  0  0
    6.1730    7.9770   14.6890 C   0  0  0  0  0  0  0  0  0  0  0  0
    6.5100    7.9270   15.9140 O   0  0  0  0  0  0  0  0  0  0  0  0
    5.0480    8.6550   14.4120 N   0  0  0  0  0  0  0  0  0  0  0  0
    4.6750    8.7190   13.1110 C   0  0  0  0  0  0  0  0  0  0  0  0
    3.6160    9.3600   12.8730 O   0  0  0  0  0  0  0  0  0  0  0  0
    5.4090    8.1230   12.1530 N   0  0  0  0  0  0  0  0  0  0  0  0
    4.9440    8.2350   10.7860 C   0  0  0  0  0  1  0  0  0  0  0  0
    4.2540    9.3040   15.4560 C   0  0  0  0  0  1  0  0  0  0  0  0
    9.0960    7.5840   14.8480 C   0  0  0  0  0  3  0  0  0  0  0  0
    9.4750    7.3720   16.1560 C   0  0  0  0  0  0  0  0  0  0  0  0
   10.3150    8.2440   16.7770 N   0  0  0  0  0  0  0  0  0  0  0  0
    9.0000    6.2780   16.8240 O   0  0  0  0  0  0  0  0  0  0  0  0
   10.7880    9.3310   16.1180 C   0  0  0  0  0  0  0  0  0  0  0  0
   10.6800    7.9630   18.1620 C   0  0  0  0  0  1  0  0  0  0  0  0
   11.5650   10.1190   16.7260 O   0  0  0  0  0  0  0  0  0  0  0  0
   10.4370    9.5640   14.8430 N   0  0  0  0  0  0  0  0  0  0  0  0
    9.6060    8.7040   14.2230 C   0  0  0  0  0  0  0  0  0  0  0  0
   10.9640   10.7430   14.1640 C   0  0  0  0  0  1  0  0  0  0  0  0
    9.2910    8.9330   13.0470 O   0  0  0  0  0  0  0  0  0  0  0  0
  2  1  1  0  0  0  0
  2  3  2  0  0  0  0
  4  3  1  0  0  0  0
  4 11  2  0  0  0  0
  5  6  1  1  0  0  0
  5  4  1  0  0  0  0
  6  7  2  0  0  0  0
  7  2  1  0  0  0  0
  8  5  1  0  0  0  0
  8  9  1  0  0  0  0
  9 10  2  0  0  0  0
 10 11  1  0  0  0  0
 10 12  1  0  0  0  0
 11 20  1  0  0  0  0
 12 13  2  0  0  0  0
 14 12  1  0  0  0  0
 14 19  1  0  0  0  0
 15 14  1  0  0  0  0
 16 15  2  0  0  0  0
 17  9  1  0  0  0  0
 17 15  1  0  0  0  0
 18 17  1  0  0  0  0
 20 21  1  0  0  0  0
 21 22  1  0  0  0  0
 21 23  2  0  0  0  0
 22 25  1  0  0  0  0
 24 26  2  0  0  0  0
 24 22  1  0  0  0  0
 27 24  1  0  0  0  0
 28 27  1  0  0  0  0
 28 20  1  0  0  0  0
 29 27  1  0  0  0  0
 30 28  2  0  0  0  0
M  END
>  <Pose>
1

>  <Score>
-7.967

$$$$
