MODEL 1
REMARK VINA RESULT:    -8.751      0.000      0.000
REMARK INTER + INTRA:         -10.193
REMARK INTER:                 -10.286
REMARK INTRA:                   0.093
REMARK UNBOUND:                 0.093
REMARK  3 active torsions:
REMARK  status: ('A' for Active; 'I' for Inactive)
REMARK    1  A    between atoms: S_1  and  N_4 
REMARK    2  A    between atoms: S_1  and  C_16 
REMARK       I    between atoms: N_7  and  C_10 
REMARK    3  A    between atoms: C_10  and  C_12 
ROOT
ATOM      1  S   UNK d   1      11.465   3.497  10.876  0.00  0.00     0.262 S 
ATOM      2  O   UNK d   1      10.954   3.282   9.459  0.00  0.00    -0.200 OA
ATOM      3  O   UNK d   1      10.886   2.320  11.659  0.00  0.00    -0.200 OA
ENDROOT
BRANCH   1   4
ATOM      4  N   UNK d   1      10.888   4.926  11.527  0.00  0.00    -0.304 N 
ATOM      5  C   UNK d   1      10.504   4.935  12.870  0.00  0.00     0.155 C 
ATOM      6  C   UNK d   1      10.256   6.350  13.411  0.00  0.00     0.146 C 
ATOM      7  N   UNK d   1       9.618   7.183  12.435  0.00  0.00    -0.349 N 
ATOM      8  C   UNK d   1      10.114   7.140  11.077  0.00  0.00     0.146 C 
ATOM      9  C   UNK d   1       8.547   8.009  12.797  0.00  0.00     0.224 C 
ATOM     10  C   UNK d   1      10.046   5.691  10.638  0.00  0.00     0.155 C 
ATOM     11  O   UNK d   1       8.134   8.028  13.984  0.00  0.00    -0.273 OA
BRANCH   9  12
ATOM     12  C   UNK d   1       7.850   8.896  11.812  0.00  0.00     0.078 C 
ATOM     13  C   UNK d   1       7.452  10.237  12.382  0.00  0.00     0.014 C 
ATOM     14  C   UNK d   1       6.114   9.605  12.758  0.00  0.00     0.002 C 
ATOM     15  C   UNK d   1       6.389   8.548  11.685  0.00  0.00     0.014 C 
ENDBRANCH   9  12
ENDBRANCH   1   4
BRANCH   1  16
ATOM     16  C   UNK d   1      13.202   3.283  10.866  0.00  0.00     0.104 A 
ATOM     17  C   UNK d   1      14.008   4.268  11.471  0.00  0.00     0.066 A 
ATOM     18  C   UNK d   1      15.382   4.186  11.444  0.00  0.00     0.098 A 
ATOM     19  C   UNK d   1      16.050   3.150  10.831  0.00  0.00     0.070 A 
ATOM     20  O   UNK d   1      16.157   5.174  12.051  0.00  0.00    -0.335 OA
ATOM     21  C   UNK d   1      15.268   2.186  10.243  0.00  0.00     0.058 A 
ATOM     22  N   UNK d   1      17.465   3.126  10.837  0.00  0.00    -0.323 N 
ATOM     23  C   UNK d   1      13.867   2.251  10.260  0.00  0.00     0.059 A 
ATOM     24 Cl   UNK d   1      12.945   0.946   9.554  0.00  0.00    -0.083 Cl
ATOM     25  C   UNK d   1      18.241   4.143  11.457  0.00  0.00     0.251 C 
ATOM     26  H   UNK d   1      17.967   2.335  10.370  0.00  0.00     0.169 HD
ATOM     27  O   UNK d   1      19.455   4.055  11.720  0.00  0.00    -0.270 OA
ATOM     28  C   UNK d   1      17.518   5.395  11.805  0.00  0.00     0.217 C 
ATOM     29  C   UNK d   1      17.640   6.411  10.692  0.00  0.00     0.050 C 
ENDBRANCH   1  16
TORSDOF 3
ENDMDL
