MODEL 1
REMARK VINA RESULT:    -8.439      0.000      0.000
REMARK INTER + INTRA:         -10.169
REMARK INTER:                  -9.426
REMARK INTRA:                  -0.743
REMARK UNBOUND:                -0.743
REMARK  2 active torsions:
REMARK  status: ('A' for Active; 'I' for Inactive)
REMARK    1  A    between atoms: C_4  and  N_8 
REMARK    2  A    between atoms: C_14  and  C_18 
ROOT
ATOM      1  N   UNK d   1      10.671   4.169  10.581  0.00  0.00    -0.246 N 
ATOM      2  C   UNK d   1      10.166   5.305   9.889  0.00  0.00     0.268 C 
ATOM      3  O   UNK d   1       9.655   5.268   8.757  0.00  0.00    -0.269 OA
ATOM      4  C   UNK d   1      10.352   6.504  10.723  0.00  0.00     0.285 C 
ATOM      5  O   UNK d   1       9.396   7.466  10.683  0.00  0.00    -0.260 OA
ATOM      6  N   UNK d   1       9.375   7.924  11.987  0.00  0.00    -0.264 N 
ATOM      7  C   UNK d   1       9.543   6.800  12.854  0.00  0.00     0.083 C 
ATOM      8  C   UNK d   1      10.145   5.903  12.082  0.00  0.00     0.080 C 
ATOM      9  C   UNK d   1      10.661   4.545  11.983  0.00  0.00     0.266 C 
ATOM     10  O   UNK d   1      11.023   3.863  12.976  0.00  0.00    -0.267 OA
ATOM     11  H   UNK d   1       9.264   8.918  12.246  0.00  0.00     0.194 HD
ENDROOT
BRANCH   1  12
ATOM     12  C   UNK d   1      11.099   2.897  10.109  0.00  0.00     0.047 A 
ATOM     13  C   UNK d   1      10.217   1.872   9.862  0.00  0.00     0.054 A 
ATOM     14  C   UNK d   1      10.727   0.662   9.398  0.00  0.00     0.036 A 
ATOM     15 Cl   UNK d   1       9.650  -0.691   9.067  0.00  0.00    -0.084 Cl
ATOM     16  C   UNK d   1      12.083   0.508   9.197  0.00  0.00     0.024 A 
ATOM     17  C   UNK d   1      12.970   1.543   9.444  0.00  0.00     0.004 A 
ATOM     18  C   UNK d   1      12.477   2.729   9.898  0.00  0.00     0.030 A 
ENDBRANCH   1  12
BRANCH   7  19
ATOM     19  C   UNK d   1       9.196   6.674  14.256  0.00  0.00     0.036 A 
ATOM     20  C   UNK d   1      10.110   6.977  15.270  0.00  0.00     0.127 A 
ATOM     21  N   UNK d   1       9.542   6.764  16.466  0.00  0.00    -0.284 N 
ATOM     22  N   UNK d   1       8.296   6.334  16.259  0.00  0.00    -0.177 NA
ATOM     23  C   UNK d   1      10.111   6.940  17.798  0.00  0.00     0.179 C 
ATOM     24  C   UNK d   1       8.075   6.275  14.925  0.00  0.00     0.065 A 
ATOM     25  C   UNK d   1       6.816   5.828  14.278  0.00  0.00     0.073 C 
ENDBRANCH   7  19
TORSDOF 2
ENDMDL
