/Users/jonathanwahrer/Desktop/Msc/3_Semester/Drug_Design_Praktikum/waehrer_HTS_screening/HTS_experiment/out/docking_results/vina_output/2jam/2014_docked.pdbqt
 OpenBabel03162218513D

 26 29  0  0  0  0  0  0  0  0999 V2000
    6.9970    7.9300   12.1960 C   0  0  0  0  0  0  0  0  0  0  0  0
    6.1510    8.0800   13.2110 N   0  0  0  0  0  0  0  0  0  0  0  0
    4.9440    8.5220   12.7500 C   0  0  0  0  0  0  0  0  0  0  0  0
    5.0960    8.6290   11.4090 N   0  0  0  0  0  0  0  0  0  0  0  0
    6.3070    8.2820   11.0660 N   0  0  0  0  0  0  0  0  0  0  0  0
    4.0780    8.6760   13.7630 N   0  0  0  0  0  0  0  0  0  0  0  0
    4.6800    8.3430   14.8980 C   0  0  0  0  0  0  0  0  0  0  0  0
    5.9890    7.9650   14.5530 C   0  0  0  0  0  0  0  0  0  0  0  0
    6.8340    7.5630   15.5110 N   0  0  0  0  0  0  0  0  0  0  0  0
    6.3820    7.5410   16.7940 C   0  0  0  0  0  0  0  0  0  0  0  0
    7.2050    7.1570   17.6820 O   0  0  0  0  0  0  0  0  0  0  0  0
    5.1550    7.8910   17.1730 N   0  0  0  0  0  0  0  0  0  0  0  0
    4.3090    8.2900   16.2220 C   0  0  0  0  0  0  0  0  0  0  0  0
    3.1370    8.6310   16.5250 O   0  0  0  0  0  0  0  0  0  0  0  0
    4.7450    7.8400   18.5870 C   0  0  0  0  0  1  0  0  0  0  0  0
    8.1700    7.1280   15.2250 C   0  0  0  0  0  1  0  0  0  0  0  0
    2.7060    9.1290   13.6620 C   0  0  0  0  0  1  0  0  0  0  0  0
    8.3850    7.4880   12.1110 C   0  0  0  0  0  0  0  0  0  0  0  0
    8.6960    6.2130   11.6460 C   0  0  0  0  0  3  0  0  0  0  0  0
   10.0040    5.8380   11.4990 C   0  0  0  0  0  0  0  0  0  0  0  0
   10.4510    4.0850   10.8600 Br  0  0  0  0  0  0  0  0  0  0  0  0
   11.0680    6.6710   11.7940 C   0  0  0  0  0  3  0  0  0  0  0  0
   10.7440    7.9360   12.2550 C   0  0  0  0  0  3  0  0  0  0  0  0
    9.4440    8.3200   12.4050 C   0  0  0  0  0  0  0  0  0  0  0  0
    9.1000    9.6080   12.8740 O   0  0  0  0  0  0  0  0  0  0  0  0
    9.7590   10.1720   13.9930 C   0  0  0  0  0  1  0  0  0  0  0  0
  1  2  1  0  0  0  0
  2  8  1  0  0  0  0
  3  2  1  0  0  0  0
  3  6  1  0  0  0  0
  4  3  2  0  0  0  0
  5  4  1  0  0  0  0
  5  1  2  0  0  0  0
  6  7  1  0  0  0  0
  7 13  1  0  0  0  0
  8  7  2  0  0  0  0
  8  9  1  0  0  0  0
  9 10  1  0  0  0  0
 10 12  1  0  0  0  0
 10 11  2  0  0  0  0
 12 15  1  0  0  0  0
 13 14  2  0  0  0  0
 13 12  1  0  0  0  0
 16  9  1  0  0  0  0
 17  6  1  0  0  0  0
 18  1  1  0  0  0  0
 18 24  1  0  0  0  0
 19 18  2  0  0  0  0
 20 19  1  0  0  0  0
 20 22  2  0  0  0  0
 21 20  1  0  0  0  0
 22 23  1  0  0  0  0
 23 24  2  0  0  0  0
 24 25  1  0  0  0  0
 25 26  1  0  0  0  0
M  END
>  <Pose>
1

>  <Score>
-7.337

$$$$
