MODEL 1
REMARK VINA RESULT:    -7.337      0.000      0.000
REMARK INTER + INTRA:          -8.746
REMARK INTER:                  -8.194
REMARK INTRA:                  -0.552
REMARK UNBOUND:                -0.552
REMARK  2 active torsions:
REMARK  status: ('A' for Active; 'I' for Inactive)
REMARK    1  A    between atoms: C_4  and  C_10 
REMARK    2  A    between atoms: C_5  and  O_8 
ROOT
ATOM      1  C   UNK d   1       6.997   7.930  12.196  0.00  0.00     0.188 A 
ATOM      2  N   UNK d   1       6.151   8.080  13.211  0.00  0.00    -0.107 N 
ATOM      3  C   UNK d   1       4.944   8.522  12.750  0.00  0.00     0.735 A 
ATOM      4  N   UNK d   1       5.096   8.629  11.409  0.00  0.00     0.045 NA
ATOM      5  N   UNK d   1       6.307   8.282  11.066  0.00  0.00    -0.114 NA
ATOM      6  N   UNK d   1       4.078   8.676  13.763  0.00  0.00    -0.174 N 
ATOM      7  C   UNK d   1       4.680   8.343  14.898  0.00  0.00     0.165 A 
ATOM      8  C   UNK d   1       5.989   7.965  14.553  0.00  0.00     0.170 A 
ATOM      9  N   UNK d   1       6.834   7.563  15.511  0.00  0.00    -0.286 N 
ATOM     10  C   UNK d   1       6.382   7.541  16.794  0.00  0.00     0.332 A 
ATOM     11  O   UNK d   1       7.205   7.157  17.682  0.00  0.00    -0.246 OA
ATOM     12  N   UNK d   1       5.155   7.891  17.173  0.00  0.00    -0.269 N 
ATOM     13  C   UNK d   1       4.309   8.290  16.222  0.00  0.00     0.282 A 
ATOM     14  O   UNK d   1       3.137   8.631  16.525  0.00  0.00    -0.265 OA
ATOM     15  C   UNK d   1       4.745   7.840  18.587  0.00  0.00     0.164 C 
ATOM     16  C   UNK d   1       8.170   7.128  15.225  0.00  0.00     0.163 C 
ATOM     17  C   UNK d   1       2.706   9.129  13.662  0.00  0.00     0.176 C 
ENDROOT
BRANCH   1  18
ATOM     18  C   UNK d   1       8.385   7.488  12.111  0.00  0.00     0.047 A 
ATOM     19  C   UNK d   1       8.696   6.213  11.646  0.00  0.00     0.037 A 
ATOM     20  C   UNK d   1      10.004   5.838  11.499  0.00  0.00     0.012 A 
ATOM     21 Br   UNK d   1      10.451   4.085  10.860  0.00  0.00    -0.051 Br
ATOM     22  C   UNK d   1      11.068   6.671  11.794  0.00  0.00     0.022 A 
ATOM     23  C   UNK d   1      10.744   7.936  12.255  0.00  0.00     0.039 A 
ATOM     24  C   UNK d   1       9.444   8.320  12.405  0.00  0.00     0.082 A 
BRANCH  24  25
ATOM     25  O   UNK d   1       9.100   9.608  12.874  0.00  0.00    -0.355 OA
ATOM     26  C   UNK d   1       9.759  10.172  13.993  0.00  0.00     0.210 C 
ENDBRANCH  24  25
ENDBRANCH   1  18
TORSDOF 2
ENDMDL
