MODEL 1
REMARK VINA RESULT:    -8.404      0.000      0.000
REMARK INTER + INTRA:          -9.792
REMARK INTER:                  -9.387
REMARK INTRA:                  -0.405
REMARK UNBOUND:                -0.405
REMARK  2 active torsions:
REMARK  status: ('A' for Active; 'I' for Inactive)
REMARK    1  A    between atoms: C_7  and  C_11 
REMARK    2  A    between atoms: C_11  and  N_12 
ROOT
ATOM      1 Cl   UNK d   1      12.821  -0.999   7.517  0.00  0.00    -0.083 Cl
ATOM      2  C   UNK d   1      12.141   0.201   8.603  0.00  0.00     0.050 A 
ATOM      3  C   UNK d   1      12.931   1.051   9.353  0.00  0.00     0.125 A 
ATOM      4  N   UNK d   1      12.394   1.976  10.191  0.00  0.00    -0.272 N 
ATOM      5  C   UNK d   1      11.068   2.127  10.347  0.00  0.00     0.137 A 
ATOM      6  N   UNK d   1      10.527   3.040  11.175  0.00  0.00    -0.233 NA
ATOM      7  C   UNK d   1      11.288   3.872  11.909  0.00  0.00     0.059 A 
ATOM      8  C   UNK d   1      12.667   3.723  11.753  0.00  0.00     0.103 A 
ATOM      9  C   UNK d   1      13.210   2.784  10.903  0.00  0.00     0.255 A 
ATOM     10  O   UNK d   1      14.468   2.652  10.765  0.00  0.00    -0.268 OA
ATOM     11  C   UNK d   1      10.251   1.285   9.605  0.00  0.00     0.053 A 
ATOM     12  C   UNK d   1      10.777   0.339   8.748  0.00  0.00     0.029 A 
ENDROOT
BRANCH   7  13
ATOM     13  C   UNK d   1      10.738   4.895  12.836  0.00  0.00     0.177 C 
BRANCH  13  14
ATOM     14  N   UNK d   1      11.058   6.186  12.349  0.00  0.00    -0.401 N 
ATOM     15  C   UNK d   1      11.572   7.130  13.268  0.00  0.00     0.122 C 
ATOM     16  C   UNK d   1      11.252   8.577  12.925  0.00  0.00     0.061 C 
ATOM     17  C   UNK d   1       9.790   8.619  12.657  0.00  0.00    -0.013 A 
ATOM     18  C   UNK d   1       9.308   7.645  11.808  0.00  0.00     0.061 A 
ATOM     19  C   UNK d   1       8.992   9.579  13.235  0.00  0.00     0.128 A 
ATOM     20  N   UNK d   1       7.994   7.641  11.537  0.00  0.00    -0.236 NA
ATOM     21  C   UNK d   1      10.285   6.675  11.258  0.00  0.00     0.177 C 
ATOM     22  C   UNK d   1       7.168   8.581  12.092  0.00  0.00     0.122 A 
ATOM     23  N   UNK d   1       7.678   9.522  12.922  0.00  0.00    -0.245 NA
ATOM     24  C   UNK d   1       5.711   8.587  11.800  0.00  0.00     0.093 C 
ENDBRANCH  13  14
ENDBRANCH   7  13
TORSDOF 2
ENDMDL
