MODEL 1
REMARK VINA RESULT:    -7.476      0.000      0.000
REMARK INTER + INTRA:          -6.759
REMARK INTER:                  -8.350
REMARK INTRA:                   1.592
REMARK UNBOUND:                 1.592
REMARK  2 active torsions:
REMARK  status: ('A' for Active; 'I' for Inactive)
REMARK    1  A    between atoms: C_4  and  C_10 
REMARK    2  A    between atoms: C_5  and  O_8 
ROOT
ATOM      1  C   UNK d   1      12.267   2.811  11.808  0.00  0.00     0.048 C 
ATOM      2  C   UNK d   1      10.919   3.568  11.656  0.00  0.00     0.178 C 
ATOM      3  C   UNK d   1      11.137   4.087  10.221  0.00  0.00     0.233 C 
ATOM      4  O   UNK d   1      10.311   3.990   9.332  0.00  0.00    -0.273 OA
ATOM      5  N   UNK d   1      12.443   4.694  10.094  0.00  0.00    -0.334 N 
ATOM      6  C   UNK d   1      13.049   5.087  11.380  0.00  0.00     0.105 C 
ATOM      7  N   UNK d   1      11.947   5.771  12.072  0.00  0.00    -0.334 N 
ATOM      8  C   UNK d   1      10.895   4.851  12.424  0.00  0.00     0.233 C 
ATOM      9  O   UNK d   1      10.033   5.088  13.290  0.00  0.00    -0.273 OA
ATOM     10  C   UNK d   1      13.265   3.773  12.177  0.00  0.00     0.064 C 
ATOM     11  C   UNK d   1      14.276   5.881  11.288  0.00  0.00     0.063 C 
ATOM     12  H   UNK d   1      12.926   4.827   9.202  0.00  0.00     0.165 HD
ATOM     13  H   UNK d   1      11.943   6.779  12.268  0.00  0.00     0.165 HD
ENDROOT
BRANCH   1  14
ATOM     14  C   UNK d   1      12.332   2.022  10.584  0.00  0.00    -0.018 A 
ATOM     15  C   UNK d   1      11.191   1.282  10.247  0.00  0.00     0.029 A 
ATOM     16  C   UNK d   1      11.183   0.426   9.144  0.00  0.00     0.011 A 
ATOM     17 Br   UNK d   1       9.618  -0.572   8.725  0.00  0.00    -0.051 Br
ATOM     18  C   UNK d   1      12.279   0.280   8.355  0.00  0.00     0.022 A 
ATOM     19  C   UNK d   1      13.401   0.994   8.670  0.00  0.00     0.038 A 
ATOM     20  C   UNK d   1      13.429   1.848   9.759  0.00  0.00     0.074 A 
BRANCH  20  21
ATOM     21  O   UNK d   1      14.530   2.584  10.094  0.00  0.00    -0.355 OA
ATOM     22  C   UNK d   1      15.788   2.234   9.583  0.00  0.00     0.210 C 
ENDBRANCH  20  21
ENDBRANCH   1  14
TORSDOF 2
ENDMDL
