/Users/jonathanwahrer/Desktop/Msc/3_Semester/Drug_Design_Praktikum/waehrer_HTS_screening/HTS_experiment/out/docking_results/vina_output/2jam/2028_docked.pdbqt
 OpenBabel03162218513D

 31 34  0  0  1  0  0  0  0  0999 V2000
   13.4580    1.6700    9.4520 Cl  0  0  0  0  0  0  0  0  0  0  0  0
   13.4540    3.0970   10.4850 C   0  0  0  0  0  0  0  0  0  0  0  0
   12.3240    3.9340   10.4530 C   0  0  0  0  0  0  0  0  0  0  0  0
   12.3220    5.0340   11.2570 C   0  0  0  0  0  0  0  0  0  0  0  0
   13.3940    5.3400   12.0840 C   0  0  0  0  0  3  0  0  0  0  0  0
   14.4870    4.5040   12.0920 C   0  0  0  0  0  0  0  0  0  0  0  0
   14.5280    3.3790   11.2990 C   0  0  0  0  0  3  0  0  0  0  0  0
   15.6360    4.8600   12.9970 C   0  0  0  0  0  1  0  0  0  0  0  0
   10.9740    5.6690   11.1310 C   0  0  2  0  0  0  0  0  0  0  0  0
   10.9710    7.0770   11.1550 N   0  0  0  0  0  0  0  0  0  0  0  0
   10.8570    7.4680   12.5310 C   0  0  2  0  0  3  0  0  0  0  0  0
   10.5390    6.2830   13.3480 C   0  0  2  0  0  3  0  0  0  0  0  0
   10.0930    5.2840   12.2770 C   0  0  1  0  0  3  0  0  0  0  0  0
    8.7040    5.6670   12.1050 C   0  0  0  0  0  0  0  0  0  0  0  0
    7.9490    5.7420   11.1110 O   0  0  0  0  0  0  0  0  0  0  0  0
    8.2450    6.0000   13.4410 N   0  0  0  0  0  0  0  0  0  0  0  0
    9.3750    6.3540   14.2230 C   0  0  0  0  0  0  0  0  0  0  0  0
    9.3460    6.6610   15.4230 O   0  0  0  0  0  0  0  0  0  0  0  0
   10.4320    5.0680    9.9150 C   0  0  0  0  0  0  0  0  0  0  0  0
    9.4700    5.4230    9.1620 O   0  0  0  0  0  0  0  0  0  0  0  0
   11.1740    3.9090    9.6150 N   0  0  0  0  0  0  0  0  0  0  0  0
   11.8180    7.4990   10.7020 H   0  0  0  0  0  0  0  0  0  0  0  0
   10.9740    3.1430    8.9240 H   0  0  0  0  0  0  0  0  0  0  0  0
    9.9360    8.6600   12.7140 C   0  0  2  0  0  3  0  0  0  0  0  0
    9.2030    8.9170   11.4390 C   0  0  0  0  0  1  0  0  0  0  0  0
   10.5010    9.7430   13.3180 O   0  0  0  0  0  0  0  0  0  0  0  0
   11.3140    9.5440   13.8490 H   0  0  0  0  0  0  0  0  0  0  0  0
    6.8970    5.9810   13.9450 C   0  0  0  0  0  2  0  0  0  0  0  0
    6.2100    7.2940   13.9980 C   0  0  0  0  0  2  0  0  0  0  0  0
    6.0680    7.9860   12.8330 O   0  0  0  0  0  0  0  0  0  0  0  0
    5.7520    9.3210   12.9750 C   0  0  0  0  0  1  0  0  0  0  0  0
  1  2  1  0  0  0  0
  2  7  1  0  0  0  0
  3  2  2  0  0  0  0
  3  4  1  0  0  0  0
  4  5  2  0  0  0  0
  5  6  1  0  0  0  0
  6  8  1  0  0  0  0
  7  6  2  0  0  0  0
  9 19  1  6  0  0  0
  9 10  1  0  0  0  0
  9  4  1  0  0  0  0
  9 13  1  0  0  0  0
 10 11  1  0  0  0  0
 11 24  1  6  0  0  0
 11 12  1  0  0  0  0
 12 17  1  1  0  0  0
 13 14  1  6  0  0  0
 13 12  1  0  0  0  0
 14 16  1  0  0  0  0
 15 14  2  0  0  0  0
 16 28  1  0  0  0  0
 16 17  1  0  0  0  0
 17 18  2  0  0  0  0
 20 19  2  0  0  0  0
 21 19  1  0  0  0  0
 21  3  1  0  0  0  0
 22 10  1  0  0  0  0
 23 21  1  0  0  0  0
 24 25  1  6  0  0  0
 24 26  1  0  0  0  0
 26 27  1  0  0  0  0
 28 29  1  0  0  0  0
 30 31  1  0  0  0  0
 30 29  1  0  0  0  0
M  END
>  <Pose>
1

>  <Score>
-7.458

$$$$
