MODEL 1
REMARK VINA RESULT:    -8.872      0.000      0.000
REMARK INTER + INTRA:         -11.676
REMARK INTER:                 -10.947
REMARK INTRA:                  -0.729
REMARK UNBOUND:                -0.729
REMARK  4 active torsions:
REMARK  status: ('A' for Active; 'I' for Inactive)
REMARK    1  A    between atoms: C_4  and  C_10 
REMARK    2  A    between atoms: C_5  and  O_8 
REMARK    3  A    between atoms: C_18  and  C_19 
REMARK    4  A    between atoms: C_19  and  N_20 
ROOT
ATOM      1  C   UNK d   1      16.203   2.830  10.423  0.00  0.00     0.055 C 
ATOM      2  C   UNK d   1      15.114   2.229  10.031  0.00  0.00     0.128 A 
ATOM      3  O   UNK d   1      13.843   2.520  10.502  0.00  0.00    -0.305 OA
ATOM      4  C   UNK d   1      12.880   1.724   9.911  0.00  0.00     0.101 A 
ATOM      5  C   UNK d   1      13.456   0.856   9.012  0.00  0.00     0.051 A 
ATOM      6  C   UNK d   1      12.671  -0.033   8.308  0.00  0.00     0.021 A 
ATOM      7  C   UNK d   1      11.308  -0.044   8.514  0.00  0.00     0.041 A 
ATOM      8  C   UNK d   1      10.743   0.855   9.440  0.00  0.00     0.118 A 
ATOM      9  C   UNK d   1      11.498   1.742  10.145  0.00  0.00     0.039 A 
ATOM     10  O   UNK d   1       9.349   0.729   9.546  0.00  0.00    -0.191 OA
ATOM     11  C   UNK d   1      14.891   1.152   9.062  0.00  0.00     0.218 A 
ATOM     12  O   UNK d   1      15.788   0.589   8.396  0.00  0.00    -0.284 OA
ENDROOT
BRANCH   1  13
ATOM     13  C   UNK d   1      16.293   3.895  11.408  0.00  0.00     0.001 A 
ATOM     14  C   UNK d   1      15.264   4.776  11.655  0.00  0.00     0.033 A 
ATOM     15  C   UNK d   1      15.333   5.792  12.565  0.00  0.00     0.011 A 
ATOM     16 Br   UNK d   1      13.930   7.028  12.929  0.00  0.00    -0.051 Br
ATOM     17  C   UNK d   1      16.520   5.930  13.277  0.00  0.00     0.022 A 
ATOM     18  C   UNK d   1      17.593   5.071  13.072  0.00  0.00     0.039 A 
ATOM     19  C   UNK d   1      17.468   4.072  12.146  0.00  0.00     0.078 A 
BRANCH  19  20
ATOM     20  O   UNK d   1      18.517   3.205  11.915  0.00  0.00    -0.355 OA
ATOM     21  C   UNK d   1      19.746   3.688  11.438  0.00  0.00     0.210 C 
ENDBRANCH  19  20
ENDBRANCH   1  13
BRANCH   9  22
ATOM     22  C   UNK d   1      10.975   2.694  11.087  0.00  0.00     0.279 C 
BRANCH  22  23
ATOM     23  N   UNK d   1      11.565   3.950  11.310  0.00  0.00    -0.063 N 
ATOM     24  C   UNK d   1      11.491   4.880  10.217  0.00  0.00     0.261 C 
ATOM     25  C   UNK d   1      10.181   5.623  10.128  0.00  0.00     0.195 C 
ATOM     26  O   UNK d   1       9.233   5.188  11.043  0.00  0.00    -0.388 OA
ATOM     27  C   UNK d   1       9.793   5.368  12.303  0.00  0.00     0.195 C 
ATOM     28  C   UNK d   1      11.054   4.602  12.530  0.00  0.00     0.261 C 
ATOM     29  H   UNK d   1      12.573   3.818  11.538  0.00  0.00     0.280 HD
ENDBRANCH  22  23
ENDBRANCH   9  22
TORSDOF 4
ENDMDL
