/Users/jonathanwahrer/Desktop/Msc/3_Semester/Drug_Design_Praktikum/waehrer_HTS_screening/HTS_experiment/out/docking_results/vina_output/2jam/2041_docked.pdbqt
 OpenBabel03162218523D

 30 33  0  0  0  0  0  0  0  0999 V2000
   11.4450    3.4820   10.3170 N   0  0  0  0  0  0  0  0  0  0  0  0
   12.0730    4.6990    9.8430 C   0  0  0  0  0  2  0  0  0  0  0  0
   11.3110    5.9180   10.3470 C   0  0  0  0  0  2  0  0  0  0  0  0
   11.3450    5.8900   11.8090 N   0  0  0  0  0  0  0  0  0  0  0  0
   11.8220    4.6660   12.3810 C   0  0  0  0  0  2  0  0  0  0  0  0
   11.1000    3.5300   11.7050 C   0  0  0  0  0  2  0  0  0  0  0  0
   10.9380    7.0210   12.5240 C   0  0  0  0  0  0  0  0  0  0  0  0
   10.5470    8.0690   11.8650 O   0  0  0  0  0  0  0  0  0  0  0  0
   10.8870    7.2140   13.9770 C   0  0  0  0  0  2  0  0  0  0  0  0
    9.3080    6.8260   14.7210 S   0  0  0  0  0  0  0  0  0  0  0  0
    7.9570    7.8360   14.1400 C   0  0  0  0  0  0  0  0  0  0  0  0
    7.6210    8.9600   14.7600 N   0  0  0  0  0  0  0  0  0  0  0  0
    6.6310    9.7600   14.3550 C   0  0  0  0  0  3  0  0  0  0  0  0
    5.9240    9.3990   13.2390 N   0  0  0  0  0  0  0  0  0  0  0  0
    6.2380    8.2720   12.5910 C   0  0  0  0  0  0  0  0  0  0  0  0
    5.7080    7.7010   11.4710 N   0  0  0  0  0  0  0  0  0  0  0  0
    7.2640    7.4470   13.0150 C   0  0  0  0  0  0  0  0  0  0  0  0
    6.3690    6.5890   11.2210 N   0  0  0  0  0  0  0  0  0  0  0  0
    4.6240    8.2320   10.6980 C   0  0  0  0  0  1  0  0  0  0  0  0
    7.3230    6.3990   12.1350 C   0  0  0  0  0  3  0  0  0  0  0  0
   12.4520    2.1300    9.9780 S   0  0  0  0  0  0  0  0  0  0  0  0
   13.5380    2.6150    9.0460 O   0  0  0  0  0  0  0  0  0  0  0  0
   13.1270    1.6090   11.2010 O   0  0  0  0  0  0  0  0  0  0  0  0
   11.5100    0.8780    9.2000 C   0  0  0  0  0  0  0  0  0  0  0  0
   12.0010    0.0210    8.2420 C   0  0  0  0  0  3  0  0  0  0  0  0
   11.2070   -0.9380    7.6600 C   0  0  0  0  0  3  0  0  0  0  0  0
    9.8700   -1.0610    8.0380 C   0  0  0  0  0  0  0  0  0  0  0  0
    9.3570   -0.1970    9.0110 C   0  0  0  0  0  3  0  0  0  0  0  0
    8.8750   -2.2830    7.2920 Cl  0  0  0  0  0  0  0  0  0  0  0  0
   10.1740    0.7560    9.5800 C   0  0  0  0  0  3  0  0  0  0  0  0
  1  6  1  0  0  0  0
  2  1  1  0  0  0  0
  2  3  1  0  0  0  0
  3  4  1  0  0  0  0
  4  5  1  0  0  0  0
  4  7  1  0  0  0  0
  6  5  1  0  0  0  0
  7  9  1  0  0  0  0
  8  7  2  0  0  0  0
  9 10  1  0  0  0  0
 11 10  1  0  0  0  0
 11 12  1  0  0  0  0
 13 12  2  0  0  0  0
 14 13  1  0  0  0  0
 15 17  1  0  0  0  0
 15 14  2  0  0  0  0
 16 15  1  0  0  0  0
 17 11  2  0  0  0  0
 18 16  1  0  0  0  0
 18 20  2  0  0  0  0
 19 16  1  0  0  0  0
 20 17  1  0  0  0  0
 21  1  1  0  0  0  0
 21 23  2  0  0  0  0
 22 21  2  0  0  0  0
 24 30  1  0  0  0  0
 24 21  1  0  0  0  0
 25 24  2  0  0  0  0
 26 27  2  0  0  0  0
 26 25  1  0  0  0  0
 27 28  1  0  0  0  0
 28 30  2  0  0  0  0
 29 27  1  0  0  0  0
M  END
>  <Pose>
1

>  <Score>
-9.351

$$$$
