MODEL 1
REMARK VINA RESULT:    -7.221      0.000      0.000
REMARK INTER + INTRA:         -10.688
REMARK INTER:                  -9.332
REMARK INTRA:                  -1.356
REMARK UNBOUND:                -1.356
REMARK  5 active torsions:
REMARK  status: ('A' for Active; 'I' for Inactive)
REMARK    1  A    between atoms: C_3  and  N_18 
REMARK    2  A    between atoms: C_5  and  N_8 
REMARK    3  A    between atoms: N_8  and  C_9 
REMARK    4  A    between atoms: C_9  and  C_10 
REMARK       I    between atoms: C_10  and  N_12 
REMARK    5  A    between atoms: C_22  and  C_23 
ROOT
ATOM      1 Cl   UNK d   1      12.617   7.355  11.852  0.00  0.00    -0.082 Cl
ATOM      2  C   UNK d   1      11.265   7.043  12.895  0.00  0.00     0.063 A 
ATOM      3  C   UNK d   1      10.250   6.203  12.512  0.00  0.00     0.086 A 
ATOM      4  C   UNK d   1       9.205   5.997  13.384  0.00  0.00     0.062 A 
ATOM      5  C   UNK d   1       9.125   6.591  14.625  0.00  0.00     0.030 A 
ATOM      6  C   UNK d   1      10.151   7.430  14.994  0.00  0.00     0.031 A 
ATOM      7  C   UNK d   1      11.201   7.644  14.127  0.00  0.00     0.028 A 
ENDROOT
BRANCH   5   8
ATOM      8  N   UNK d   1       8.011   6.354  15.523  0.00  0.00    -0.382 N 
ATOM      9  H   UNK d   1       7.851   5.432  15.941  0.00  0.00     0.160 HD
BRANCH   8  10
ATOM     10  C   UNK d   1       7.164   7.464  15.786  0.00  0.00     0.207 C 
BRANCH  10  11
ATOM     11  C   UNK d   1       6.145   7.811  14.800  0.00  0.00     0.171 C 
ATOM     12  O   UNK d   1       4.978   7.285  15.081  0.00  0.00    -0.175 OA
ATOM     13  N   UNK d   1       6.187   8.571  13.658  0.00  0.00    -0.358 N 
ATOM     14  C   UNK d   1       7.300   9.330  13.186  0.00  0.00     0.151 C 
ATOM     15  C   UNK d   1       5.008   8.623  12.766  0.00  0.00     0.151 C 
ATOM     16  C   UNK d   1       7.672   8.825  11.795  0.00  0.00     0.187 C 
ATOM     17  O   UNK d   1       6.546   9.121  10.994  0.00  0.00    -0.388 OA
ATOM     18  C   UNK d   1       5.521   8.278  11.363  0.00  0.00     0.187 C 
ENDBRANCH  10  11
ENDBRANCH   8  10
ENDBRANCH   5   8
BRANCH   3  19
ATOM     19  N   UNK d   1      10.235   5.557  11.263  0.00  0.00    -0.196 N 
ATOM     20  N   UNK d   1       9.739   6.076  10.158  0.00  0.00    -0.039 NA
ATOM     21  N   UNK d   1       9.883   5.231   9.155  0.00  0.00    -0.023 NA
ATOM     22  N   UNK d   1      10.481   4.166   9.650  0.00  0.00    -0.113 NA
ATOM     23  C   UNK d   1      10.714   4.352  10.984  0.00  0.00     0.158 A 
BRANCH  23  24
ATOM     24  C   UNK d   1      11.358   3.339  11.818  0.00  0.00     0.059 A 
ATOM     25  C   UNK d   1      12.273   2.306  11.349  0.00  0.00     0.013 A 
ATOM     26  C   UNK d   1      12.887   3.543  12.025  0.00  0.00     0.013 A 
ENDBRANCH  23  24
ENDBRANCH   3  19
TORSDOF 5
ENDMDL
