/Users/jonathanwahrer/Desktop/Msc/3_Semester/Drug_Design_Praktikum/waehrer_HTS_screening/HTS_experiment/out/docking_results/vina_output/2jam/2063_docked.pdbqt
 OpenBabel03162218533D

 34 37  0  0  1  0  0  0  0  0999 V2000
    7.8690    6.6730   13.2430 C   0  0  0  0  0  0  0  0  0  0  0  0
    8.9490    6.4770   14.0980 C   0  0  0  0  0  3  0  0  0  0  0  0
   10.0350    5.8390   13.7300 O   0  0  0  0  0  0  0  0  0  0  0  0
   10.1900    5.3340   12.5280 C   0  0  0  0  0  0  0  0  0  0  0  0
    9.1750    5.4780   11.6130 C   0  0  0  0  0  0  0  0  0  0  0  0
    9.3800    4.9350   10.3680 C   0  0  0  0  0  3  0  0  0  0  0  0
   10.5280    4.2720   10.0140 C   0  0  0  0  0  3  0  0  0  0  0  0
   11.5810    4.1140   10.9370 C   0  0  0  0  0  0  0  0  0  0  0  0
   11.3680    4.6600   12.1810 C   0  0  0  0  0  3  0  0  0  0  0  0
    8.0210    6.1430   11.9670 C   0  0  0  0  0  0  0  0  0  0  0  0
    7.0890    6.2760   11.1290 O   0  0  0  0  0  0  0  0  0  0  0  0
   12.7190    3.4410   10.5420 O   0  0  0  0  0  0  0  0  0  0  0  0
   12.7810    2.3790    9.6870 C   0  0  2  0  0  3  0  0  0  0  0  0
   11.9900    1.2760   10.1060 O   0  0  0  0  0  0  0  0  0  0  0  0
   11.7340    0.5520    8.9620 C   0  0  1  0  0  3  0  0  0  0  0  0
   12.9480   -0.0420    8.3180 C   0  0  2  0  0  3  0  0  0  0  0  0
   14.1080    0.9230    8.2740 C   0  0  1  0  0  3  0  0  0  0  0  0
   14.1690    1.7900    9.5140 C   0  0  1  0  0  3  0  0  0  0  0  0
   10.6870   -0.5150    9.1610 C   0  0  0  0  0  2  0  0  0  0  0  0
    9.9530   -0.7500    8.0010 O   0  0  0  0  0  0  0  0  0  0  0  0
    9.4680    0.1130    7.8130 H   0  0  0  0  0  0  0  0  0  0  0  0
   12.6120   -0.3250    6.9840 O   0  0  0  0  0  0  0  0  0  0  0  0
   11.9940    0.3600    6.6260 H   0  0  0  0  0  0  0  0  0  0  0  0
   15.2870    0.2220    8.0580 O   0  0  0  0  0  0  0  0  0  0  0  0
   16.0400    0.8260    7.7740 H   0  0  0  0  0  0  0  0  0  0  0  0
   15.1230    2.7770    9.3010 O   0  0  0  0  0  0  0  0  0  0  0  0
   15.8570    2.7040    9.9550 H   0  0  0  0  0  0  0  0  0  0  0  0
    6.6810    7.3810   13.6720 C   0  0  0  0  0  0  0  0  0  0  0  0
    6.2450    8.5510   13.0860 C   0  0  0  0  0  3  0  0  0  0  0  0
    5.0950    9.1800   13.5470 C   0  0  0  0  0  3  0  0  0  0  0  0
    4.3520    8.6760   14.5890 C   0  0  0  0  0  0  0  0  0  0  0  0
    2.7700    9.5530   15.2130 Br  0  0  0  0  0  0  0  0  0  0  0  0
    4.7890    7.5000   15.1800 C   0  0  0  0  0  3  0  0  0  0  0  0
    5.9310    6.8760   14.7210 C   0  0  0  0  0  3  0  0  0  0  0  0
  1 28  1  0  0  0  0
  1  2  2  0  0  0  0
  3  2  1  0  0  0  0
  4  3  1  0  0  0  0
  5 10  1  0  0  0  0
  5  4  2  0  0  0  0
  6  5  1  0  0  0  0
  7  6  2  0  0  0  0
  7  8  1  0  0  0  0
  8  9  2  0  0  0  0
  9  4  1  0  0  0  0
 10  1  1  0  0  0  0
 11 10  2  0  0  0  0
 12  8  1  0  0  0  0
 13 14  1  0  0  0  0
 13 12  1  1  0  0  0
 15 19  1  1  0  0  0
 15 14  1  0  0  0  0
 16 22  1  6  0  0  0
 16 15  1  0  0  0  0
 17 24  1  1  0  0  0
 17 16  1  0  0  0  0
 17 18  1  0  0  0  0
 18 26  1  6  0  0  0
 18 13  1  0  0  0  0
 20 19  1  0  0  0  0
 21 20  1  0  0  0  0
 23 22  1  0  0  0  0
 25 24  1  0  0  0  0
 26 27  1  0  0  0  0
 28 34  1  0  0  0  0
 29 30  1  0  0  0  0
 29 28  2  0  0  0  0
 30 31  2  0  0  0  0
 31 33  1  0  0  0  0
 31 32  1  0  0  0  0
 34 33  2  0  0  0  0
M  END
>  <Pose>
1

>  <Score>
-8.537

$$$$
