MODEL 1
REMARK VINA RESULT:    -8.537      0.000      0.000
REMARK INTER + INTRA:         -12.214
REMARK INTER:                 -11.532
REMARK INTRA:                  -0.682
REMARK UNBOUND:                -0.682
REMARK  8 active torsions:
REMARK  status: ('A' for Active; 'I' for Inactive)
REMARK    1  A    between atoms: C_5  and  C_8 
REMARK    2  A    between atoms: C_15  and  O_17 
REMARK    3  A    between atoms: O_17  and  C_18 
REMARK    4  A    between atoms: C_20  and  C_27 
REMARK    5  A    between atoms: C_21  and  O_26 
REMARK    6  A    between atoms: C_22  and  O_25 
REMARK    7  A    between atoms: C_23  and  O_24 
REMARK    8  A    between atoms: C_27  and  O_28 
ROOT
ATOM      1  C   UNK d   1       7.869   6.673  13.243  0.00  0.00     0.048 A 
ATOM      2  C   UNK d   1       8.949   6.477  14.098  0.00  0.00     0.159 A 
ATOM      3  O   UNK d   1      10.035   5.839  13.730  0.00  0.00    -0.321 OA
ATOM      4  C   UNK d   1      10.190   5.334  12.528  0.00  0.00     0.091 A 
ATOM      5  C   UNK d   1       9.175   5.478  11.613  0.00  0.00     0.049 A 
ATOM      6  C   UNK d   1       9.380   4.935  10.368  0.00  0.00     0.021 A 
ATOM      7  C   UNK d   1      10.528   4.272  10.014  0.00  0.00     0.038 A 
ATOM      8  C   UNK d   1      11.581   4.114  10.937  0.00  0.00     0.074 A 
ATOM      9  C   UNK d   1      11.368   4.660  12.181  0.00  0.00     0.075 A 
ATOM     10  C   UNK d   1       8.021   6.143  11.967  0.00  0.00     0.197 A 
ATOM     11  O   UNK d   1       7.089   6.276  11.129  0.00  0.00    -0.286 OA
ENDROOT
BRANCH   8  12
ATOM     12  O   UNK d   1      12.719   3.441  10.542  0.00  0.00    -0.318 OA
BRANCH  12  13
ATOM     13  C   UNK d   1      12.781   2.379   9.687  0.00  0.00     0.298 C 
ATOM     14  O   UNK d   1      11.990   1.276  10.106  0.00  0.00    -0.348 OA
ATOM     15  C   UNK d   1      11.734   0.552   8.962  0.00  0.00     0.179 C 
ATOM     16  C   UNK d   1      12.948  -0.042   8.318  0.00  0.00     0.180 C 
ATOM     17  C   UNK d   1      14.108   0.923   8.274  0.00  0.00     0.183 C 
ATOM     18  C   UNK d   1      14.169   1.790   9.514  0.00  0.00     0.205 C 
BRANCH  15  19
ATOM     19  C   UNK d   1      10.687  -0.515   9.161  0.00  0.00     0.198 C 
BRANCH  19  20
ATOM     20  O   UNK d   1       9.953  -0.750   8.001  0.00  0.00    -0.398 OA
ATOM     21  H   UNK d   1       9.468   0.113   7.813  0.00  0.00     0.209 HD
ENDBRANCH  19  20
ENDBRANCH  15  19
BRANCH  16  22
ATOM     22  O   UNK d   1      12.612  -0.325   6.984  0.00  0.00    -0.390 OA
ATOM     23  H   UNK d   1      11.994   0.360   6.626  0.00  0.00     0.210 HD
ENDBRANCH  16  22
BRANCH  17  24
ATOM     24  O   UNK d   1      15.287   0.222   8.058  0.00  0.00    -0.390 OA
ATOM     25  H   UNK d   1      16.040   0.826   7.774  0.00  0.00     0.210 HD
ENDBRANCH  17  24
BRANCH  18  26
ATOM     26  O   UNK d   1      15.123   2.777   9.301  0.00  0.00    -0.388 OA
ATOM     27  H   UNK d   1      15.857   2.704   9.955  0.00  0.00     0.210 HD
ENDBRANCH  18  26
ENDBRANCH  12  13
ENDBRANCH   8  12
BRANCH   1  28
ATOM     28  C   UNK d   1       6.681   7.381  13.672  0.00  0.00    -0.020 A 
ATOM     29  C   UNK d   1       6.245   8.551  13.086  0.00  0.00     0.014 A 
ATOM     30  C   UNK d   1       5.095   9.180  13.547  0.00  0.00     0.020 A 
ATOM     31  C   UNK d   1       4.352   8.676  14.589  0.00  0.00     0.011 A 
ATOM     32 Br   UNK d   1       2.770   9.553  15.213  0.00  0.00    -0.051 Br
ATOM     33  C   UNK d   1       4.789   7.500  15.180  0.00  0.00     0.020 A 
ATOM     34  C   UNK d   1       5.931   6.876  14.721  0.00  0.00     0.014 A 
ENDBRANCH   1  28
TORSDOF 8
ENDMDL
