MODEL 1
REMARK VINA RESULT:    -9.097      0.000      0.000
REMARK INTER + INTRA:         -12.432
REMARK INTER:                 -11.756
REMARK INTRA:                  -0.676
REMARK UNBOUND:                -0.676
REMARK  5 active torsions:
REMARK  status: ('A' for Active; 'I' for Inactive)
REMARK    1  A    between atoms: S_1  and  N_4 
REMARK    2  A    between atoms: S_1  and  C_22 
REMARK    3  A    between atoms: N_7  and  C_10 
REMARK    4  A    between atoms: C_10  and  C_11 
REMARK    5  A    between atoms: C_11  and  N_12 
ROOT
ATOM      1  N   UNK d   1       8.109   7.507  12.464  0.00  0.00    -0.203 NA
ATOM      2  C   UNK d   1       9.112   8.229  11.771  0.00  0.00     0.138 C 
ATOM      3  C   UNK d   1      10.304   7.461  11.275  0.00  0.00     0.288 C 
ATOM      4  N   UNK d   1       9.899   6.138  10.932  0.00  0.00     0.092 N 
ATOM      5  C   UNK d   1       9.501   5.499  12.186  0.00  0.00     0.288 C 
ATOM      6  C   UNK d   1       8.237   6.122  12.646  0.00  0.00     0.138 C 
ENDROOT
BRANCH   4   7
ATOM      7  C   UNK d   1      10.874   5.363  10.245  0.00  0.00     0.294 C 
BRANCH   7   8
ATOM      8  C   UNK d   1      11.338   4.202  11.056  0.00  0.00     0.186 C 
BRANCH   8   9
ATOM      9  N   UNK d   1      11.240   2.950  10.336  0.00  0.00    -0.216 N 
ATOM     10  N   UNK d   1      10.184   2.140  10.265  0.00  0.00    -0.149 NA
ATOM     11  C   UNK d   1      10.460   1.079   9.494  0.00  0.00     0.158 A 
ATOM     12  N   UNK d   1      11.721   1.219   9.066  0.00  0.00    -0.256 N 
ATOM     13  C   UNK d   1       9.763  -0.042   9.083  0.00  0.00     0.053 A 
ATOM     14  C   UNK d   1      12.296   0.295   8.258  0.00  0.00     0.103 A 
ATOM     15  C   UNK d   1      12.195   2.385   9.595  0.00  0.00     0.350 A 
ATOM     16  C   UNK d   1      11.622  -0.829   7.836  0.00  0.00     0.018 A 
ATOM     17  C   UNK d   1      10.320  -0.999   8.263  0.00  0.00     0.005 A 
ATOM     18  O   UNK d   1      13.363   2.780   9.367  0.00  0.00    -0.244 OA
ENDBRANCH   8   9
ENDBRANCH   7   8
ENDBRANCH   4   7
BRANCH   1  19
ATOM     19  S   UNK d   1       6.571   7.870  11.778  0.00  0.00     0.250 S 
ATOM     20  O   UNK d   1       6.739   9.017  10.807  0.00  0.00    -0.205 OA
ATOM     21  O   UNK d   1       6.016   6.718  11.027  0.00  0.00    -0.205 OA
BRANCH  19  22
ATOM     22  C   UNK d   1       5.419   8.297  13.052  0.00  0.00     0.116 A 
ATOM     23  S   UNK d   1       5.470   7.942  14.718  0.00  0.00    -0.070 SA
ATOM     24  C   UNK d   1       4.025   8.697  15.206  0.00  0.00     0.052 A 
ATOM     25  C   UNK d   1       3.535   9.214  14.036  0.00  0.00     0.028 A 
ATOM     26 Br   UNK d   1       3.240   8.817  16.962  0.00  0.00    -0.043 Br
ATOM     27  C   UNK d   1       4.253   9.008  12.926  0.00  0.00     0.034 A 
ENDBRANCH  19  22
ENDBRANCH   1  19
TORSDOF 5
ENDMDL
