/Users/jonathanwahrer/Desktop/Msc/3_Semester/Drug_Design_Praktikum/waehrer_HTS_screening/HTS_experiment/out/docking_results/vina_output/2jam/2072_docked.pdbqt
 OpenBabel03162218533D

 27 30  0  0  0  0  0  0  0  0999 V2000
    8.1090    7.5070   12.4640 N   0  0  0  0  0  0  0  0  0  0  0  0
    9.1120    8.2290   11.7710 C   0  0  0  0  0  2  0  0  0  0  0  0
   10.3040    7.4610   11.2750 C   0  0  0  0  0  2  0  0  0  0  0  0
    9.8990    6.1380   10.9320 N   0  0  0  0  0  0  0  0  0  0  0  0
    9.5010    5.4990   12.1860 C   0  0  0  0  0  2  0  0  0  0  0  0
    8.2370    6.1220   12.6460 C   0  0  0  0  0  2  0  0  0  0  0  0
   10.8740    5.3630   10.2450 C   0  0  0  0  0  2  0  0  0  0  0  0
   11.3380    4.2020   11.0560 C   0  0  0  0  0  2  0  0  0  0  0  0
   11.2400    2.9500   10.3360 N   0  0  0  0  0  0  0  0  0  0  0  0
   10.1840    2.1400   10.2650 N   0  0  0  0  0  0  0  0  0  0  0  0
   10.4600    1.0790    9.4940 C   0  0  0  0  0  0  0  0  0  0  0  0
   11.7210    1.2190    9.0660 N   0  0  0  0  0  0  0  0  0  0  0  0
    9.7630   -0.0420    9.0830 C   0  0  0  0  0  3  0  0  0  0  0  0
   12.2960    0.2950    8.2580 C   0  0  0  0  0  3  0  0  0  0  0  0
   12.1950    2.3850    9.5950 C   0  0  0  0  0  0  0  0  0  0  0  0
   11.6220   -0.8290    7.8360 C   0  0  0  0  0  3  0  0  0  0  0  0
   10.3200   -0.9990    8.2630 C   0  0  0  0  0  3  0  0  0  0  0  0
   13.3630    2.7800    9.3670 O   0  0  0  0  0  0  0  0  0  0  0  0
    6.5710    7.8700   11.7780 S   0  0  0  0  0  0  0  0  0  0  0  0
    6.7390    9.0170   10.8070 O   0  0  0  0  0  0  0  0  0  0  0  0
    6.0160    6.7180   11.0270 O   0  0  0  0  0  0  0  0  0  0  0  0
    5.4190    8.2970   13.0520 C   0  0  0  0  0  0  0  0  0  0  0  0
    5.4700    7.9420   14.7180 S   0  0  0  0  0  0  0  0  0  0  0  0
    4.0250    8.6970   15.2060 C   0  0  0  0  0  0  0  0  0  0  0  0
    3.5350    9.2140   14.0360 C   0  0  0  0  0  3  0  0  0  0  0  0
    3.2400    8.8170   16.9620 Br  0  0  0  0  0  0  0  0  0  0  0  0
    4.2530    9.0080   12.9260 C   0  0  0  0  0  3  0  0  0  0  0  0
  1  6  1  0  0  0  0
  2  1  1  0  0  0  0
  3  2  1  0  0  0  0
  4  3  1  0  0  0  0
  4  5  1  0  0  0  0
  5  6  1  0  0  0  0
  7  4  1  0  0  0  0
  7  8  1  0  0  0  0
  9  8  1  0  0  0  0
 10  9  1  0  0  0  0
 11 10  2  0  0  0  0
 12 11  1  0  0  0  0
 12 15  1  0  0  0  0
 13 11  1  0  0  0  0
 14 12  1  0  0  0  0
 15  9  1  0  0  0  0
 16 14  2  0  0  0  0
 16 17  1  0  0  0  0
 17 13  2  0  0  0  0
 18 15  2  0  0  0  0
 19  1  1  0  0  0  0
 19 22  1  0  0  0  0
 20 19  2  0  0  0  0
 21 19  2  0  0  0  0
 22 23  1  0  0  0  0
 23 24  1  0  0  0  0
 24 26  1  0  0  0  0
 25 24  2  0  0  0  0
 27 22  2  0  0  0  0
 27 25  1  0  0  0  0
M  END
>  <Pose>
1

>  <Score>
-9.097

$$$$
