MODEL 1
REMARK VINA RESULT:    -9.154      0.000      0.000
REMARK INTER + INTRA:         -13.261
REMARK INTER:                 -12.098
REMARK INTRA:                  -1.163
REMARK UNBOUND:                -1.163
REMARK  6 active torsions:
REMARK  status: ('A' for Active; 'I' for Inactive)
REMARK    1  A    between atoms: C_5  and  C_8 
REMARK    2  A    between atoms: C_12  and  C_17 
REMARK    3  A    between atoms: C_17  and  N_18 
REMARK    4  A    between atoms: N_21  and  C_24 
REMARK    5  A    between atoms: C_24  and  C_25 
REMARK    6  A    between atoms: C_25  and  O_26 
ROOT
ATOM      1  C   UNK d   1      12.325   1.677   9.720  0.00  0.00     0.051 A 
ATOM      2  C   UNK d   1      13.681   1.449   9.666  0.00  0.00     0.032 A 
ATOM      3  C   UNK d   1      14.539   2.326  10.345  0.00  0.00    -0.000 A 
ATOM      4  C   UNK d   1      14.052   3.403  11.053  0.00  0.00     0.100 A 
ATOM      5  C   UNK d   1      14.824   4.325  11.760  0.00  0.00     0.039 A 
ATOM      6  C   UNK d   1      16.215   4.055  11.703  0.00  0.00     0.118 A 
ATOM      7  C   UNK d   1      16.745   2.975  11.003  0.00  0.00     0.041 A 
ATOM      8  C   UNK d   1      15.894   2.114  10.329  0.00  0.00     0.017 A 
ATOM      9  O   UNK d   1      17.156   4.841  12.337  0.00  0.00    -0.191 OA
ATOM     10  O   UNK d   1      12.793   3.575  11.074  0.00  0.00    -0.273 OA
ATOM     11  C   UNK d   1      11.896   2.795  10.464  0.00  0.00     0.299 A 
ATOM     12  O   UNK d   1      10.683   3.028  10.522  0.00  0.00    -0.259 OA
ENDROOT
BRANCH   5  13
ATOM     13  C   UNK d   1      14.389   5.355  12.637  0.00  0.00     0.279 C 
BRANCH  13  14
ATOM     14  N   UNK d   1      14.946   6.682  12.687  0.00  0.00    -0.064 N 
ATOM     15  C   UNK d   1      14.623   7.459  11.457  0.00  0.00     0.265 C 
ATOM     16  C   UNK d   1      13.222   7.185  11.040  0.00  0.00     0.300 C 
ATOM     17  N   UNK d   1      12.208   7.539  12.007  0.00  0.00     0.093 N 
ATOM     18  C   UNK d   1      12.671   7.467  13.351  0.00  0.00     0.300 C 
ATOM     19  C   UNK d   1      14.097   7.462  13.643  0.00  0.00     0.265 C 
ATOM     20  H   UNK d   1      15.879   6.827  12.996  0.00  0.00     0.280 HD
BRANCH  17  21
ATOM     21  C   UNK d   1      11.019   6.692  11.831  0.00  0.00     0.298 C 
BRANCH  21  22
ATOM     22  C   UNK d   1      10.631   5.983  13.107  0.00  0.00     0.194 C 
BRANCH  22  23
ATOM     23  O   UNK d   1      10.886   4.621  13.063  0.00  0.00    -0.399 OA
ATOM     24  H   UNK d   1      10.858   4.329  12.097  0.00  0.00     0.209 HD
ENDBRANCH  22  23
ENDBRANCH  21  22
ENDBRANCH  17  21
ENDBRANCH  13  14
ENDBRANCH   5  13
BRANCH   1  25
ATOM     25  C   UNK d   1      11.357   0.731   9.130  0.00  0.00    -0.020 A 
ATOM     26  C   UNK d   1      11.839  -0.119   8.117  0.00  0.00     0.014 A 
ATOM     27  C   UNK d   1      11.003  -1.067   7.554  0.00  0.00     0.024 A 
ATOM     28  C   UNK d   1       9.680  -1.215   7.955  0.00  0.00     0.034 A 
ATOM     29 Cl   UNK d   1       8.616  -2.488   7.310  0.00  0.00    -0.084 Cl
ATOM     30  C   UNK d   1       9.213  -0.372   8.948  0.00  0.00     0.024 A 
ATOM     31  C   UNK d   1      10.068   0.569   9.494  0.00  0.00     0.014 A 
ENDBRANCH   1  25
TORSDOF 6
ENDMDL
