/Users/jonathanwahrer/Desktop/Msc/3_Semester/Drug_Design_Praktikum/waehrer_HTS_screening/HTS_experiment/out/docking_results/vina_output/2jam/2079_docked.pdbqt
 OpenBabel03162218533D

 31 34  0  0  0  0  0  0  0  0999 V2000
   12.3250    1.6770    9.7200 C   0  0  0  0  0  0  0  0  0  0  0  0
   13.6810    1.4490    9.6660 C   0  0  0  0  0  3  0  0  0  0  0  0
   14.5390    2.3260   10.3450 C   0  0  0  0  0  0  0  0  0  0  0  0
   14.0520    3.4030   11.0530 C   0  0  0  0  0  0  0  0  0  0  0  0
   14.8240    4.3250   11.7600 C   0  0  0  0  0  0  0  0  0  0  0  0
   16.2150    4.0550   11.7030 C   0  0  0  0  0  0  0  0  0  0  0  0
   16.7450    2.9750   11.0030 C   0  0  0  0  0  3  0  0  0  0  0  0
   15.8940    2.1140   10.3290 C   0  0  0  0  0  3  0  0  0  0  0  0
   17.1560    4.8410   12.3370 O   0  0  0  0  0  1  0  0  0  0  0  0
   12.7930    3.5750   11.0740 O   0  0  0  0  0  0  0  0  0  0  0  0
   11.8960    2.7950   10.4640 C   0  0  0  0  0  0  0  0  0  0  0  0
   10.6830    3.0280   10.5220 O   0  0  0  0  0  0  0  0  0  0  0  0
   14.3890    5.3550   12.6370 C   0  0  0  0  0  2  0  0  0  0  0  0
   14.9460    6.6820   12.6870 N   0  0  0  0  0  4  0  0  0  0  0  0
   14.6230    7.4590   11.4570 C   0  0  0  0  0  2  0  0  0  0  0  0
   13.2220    7.1850   11.0400 C   0  0  0  0  0  2  0  0  0  0  0  0
   12.2080    7.5390   12.0070 N   0  0  0  0  0  0  0  0  0  0  0  0
   12.6710    7.4670   13.3510 C   0  0  0  0  0  2  0  0  0  0  0  0
   14.0970    7.4620   13.6430 C   0  0  0  0  0  2  0  0  0  0  0  0
   15.8790    6.8270   12.9960 H   0  0  0  0  0  0  0  0  0  0  0  0
   11.0190    6.6920   11.8310 C   0  0  0  0  0  2  0  0  0  0  0  0
   10.6310    5.9830   13.1070 C   0  0  0  0  0  2  0  0  0  0  0  0
   10.8860    4.6210   13.0630 O   0  0  0  0  0  0  0  0  0  0  0  0
   10.8580    4.3290   12.0970 H   0  0  0  0  0  0  0  0  0  0  0  0
   11.3570    0.7310    9.1300 C   0  0  0  0  0  0  0  0  0  0  0  0
   11.8390   -0.1190    8.1170 C   0  0  0  0  0  3  0  0  0  0  0  0
   11.0030   -1.0670    7.5540 C   0  0  0  0  0  3  0  0  0  0  0  0
    9.6800   -1.2150    7.9550 C   0  0  0  0  0  0  0  0  0  0  0  0
    8.6160   -2.4880    7.3100 Cl  0  0  0  0  0  0  0  0  0  0  0  0
    9.2130   -0.3720    8.9480 C   0  0  0  0  0  3  0  0  0  0  0  0
   10.0680    0.5690    9.4940 C   0  0  0  0  0  3  0  0  0  0  0  0
  1 11  1  0  0  0  0
  2  1  2  0  0  0  0
  2  3  1  0  0  0  0
  3  4  1  0  0  0  0
  4 10  1  0  0  0  0
  4  5  2  0  0  0  0
  5 13  1  0  0  0  0
  6  5  1  0  0  0  0
  6  9  1  0  0  0  0
  7  6  2  0  0  0  0
  8  3  2  0  0  0  0
  8  7  1  0  0  0  0
 11 12  2  0  0  0  0
 11 10  1  0  0  0  0
 13 14  1  0  0  0  0
 14 20  1  0  0  0  0
 14 19  1  0  0  0  0
 15 14  1  0  0  0  0
 16 15  1  0  0  0  0
 16 17  1  0  0  0  0
 17 18  1  0  0  0  0
 18 19  1  0  0  0  0
 21 17  1  0  0  0  0
 21 22  1  0  0  0  0
 23 22  1  0  0  0  0
 24 23  1  0  0  0  0
 25 31  1  0  0  0  0
 25  1  1  0  0  0  0
 26 25  2  0  0  0  0
 27 28  2  0  0  0  0
 27 26  1  0  0  0  0
 28 30  1  0  0  0  0
 29 28  1  0  0  0  0
 30 31  2  0  0  0  0
M  END
>  <Pose>
1

>  <Score>
-9.154

$$$$
