/Users/jonathanwahrer/Desktop/Msc/3_Semester/Drug_Design_Praktikum/waehrer_HTS_screening/HTS_experiment/out/docking_results/vina_output/2jam/2087_docked.pdbqt
 OpenBabel03162218543D

 32 35  0  0  0  0  0  0  0  0999 V2000
   11.2660    6.7890   11.9930 N   0  0  0  0  0  0  0  0  0  0  0  0
   12.3600    7.3440   12.6090 C   0  0  0  0  0  0  0  0  0  0  0  0
   12.0830    7.5490   13.9460 C   0  0  0  0  0  0  0  0  0  0  0  0
   10.8290    7.1190   14.1150 N   0  0  0  0  0  0  0  0  0  0  0  0
   10.3240    6.6570   12.9270 C   0  0  0  0  0  0  0  0  0  0  0  0
   12.9990    8.0940   14.7690 N   0  0  0  0  0  0  0  0  0  0  0  0
   14.1910    8.4330   14.2560 C   0  0  0  0  0  0  0  0  0  0  0  0
   15.0380    8.9400   15.0340 O   0  0  0  0  0  0  0  0  0  0  0  0
   14.4960    8.2520   12.9670 N   0  0  0  0  0  0  0  0  0  0  0  0
   13.5920    7.7020   12.1020 C   0  0  0  0  0  0  0  0  0  0  0  0
   13.9080    7.5480   10.8980 O   0  0  0  0  0  0  0  0  0  0  0  0
   12.6690    8.2870   16.1690 C   0  0  0  0  0  1  0  0  0  0  0  0
   15.4350    8.5260   12.5810 H   0  0  0  0  0  0  0  0  0  0  0  0
    8.9900    6.2370   12.8070 N   0  0  0  0  0  0  0  0  0  0  0  0
    8.2380    5.9060   11.6490 C   0  0  0  0  0  2  0  0  0  0  0  0
    6.7390    6.1610   11.8390 C   0  0  0  0  0  2  0  0  0  0  0  0
    6.4020    7.1170   12.8110 N   0  0  0  0  0  0  0  0  0  0  0  0
    7.0410    7.0230   14.0640 C   0  0  0  0  0  2  0  0  0  0  0  0
    8.2280    6.0880   14.0770 C   0  0  0  0  0  2  0  0  0  0  0  0
    5.8180    8.3370   12.4310 C   0  0  0  0  0  2  0  0  0  0  0  0
    6.7090    9.3800   11.9010 C   0  0  0  0  0  0  0  0  0  0  0  0
    7.1170    9.3840   10.7090 O   0  0  0  0  0  0  0  0  0  0  0  0
    7.1270   10.4050   12.7220 O   0  0  0  0  0  0  0  0  0  0  0  0
    8.3950   10.4270   13.3180 C   0  0  0  0  0  1  0  0  0  0  0  0
   11.2280    6.4180   10.6020 C   0  0  0  0  0  2  0  0  0  0  0  0
   11.5220    4.9400   10.4190 C   0  0  0  0  0  0  0  0  0  0  0  0
   10.4770    4.1380   10.0660 C   0  0  0  0  0  3  0  0  0  0  0  0
   10.7100    2.7780    9.8540 C   0  0  0  0  0  3  0  0  0  0  0  0
   11.9770    2.2590    9.9990 C   0  0  0  0  0  0  0  0  0  0  0  0
   12.3200    0.4050    9.7130 Br  0  0  0  0  0  0  0  0  0  0  0  0
   13.0140    3.1040   10.3590 C   0  0  0  0  0  3  0  0  0  0  0  0
   12.7840    4.4420   10.5670 C   0  0  0  0  0  3  0  0  0  0  0  0
  1  2  1  0  0  0  0
  1  5  1  0  0  0  0
  2  3  2  0  0  0  0
  3  4  1  0  0  0  0
  3  6  1  0  0  0  0
  5  4  2  0  0  0  0
  6 12  1  0  0  0  0
  7  6  1  0  0  0  0
  7  8  2  0  0  0  0
  9  7  1  0  0  0  0
 10  2  1  0  0  0  0
 10  9  1  0  0  0  0
 11 10  2  0  0  0  0
 13  9  1  0  0  0  0
 14  5  1  0  0  0  0
 14 19  1  0  0  0  0
 15 16  1  0  0  0  0
 15 14  1  0  0  0  0
 16 17  1  0  0  0  0
 17 18  1  0  0  0  0
 18 19  1  0  0  0  0
 20 17  1  0  0  0  0
 21 20  1  0  0  0  0
 21 23  1  0  0  0  0
 22 21  2  0  0  0  0
 23 24  1  0  0  0  0
 25  1  1  0  0  0  0
 26 32  1  0  0  0  0
 26 25  1  0  0  0  0
 27 26  2  0  0  0  0
 28 29  2  0  0  0  0
 28 27  1  0  0  0  0
 29 31  1  0  0  0  0
 30 29  1  0  0  0  0
 31 32  2  0  0  0  0
M  END
>  <Pose>
1

>  <Score>
-7.377

$$$$
