MODEL 1
REMARK VINA RESULT:    -7.326      0.000      0.000
REMARK INTER + INTRA:          -9.499
REMARK INTER:                  -8.611
REMARK INTRA:                  -0.888
REMARK UNBOUND:                -0.888
REMARK  3 active torsions:
REMARK  status: ('A' for Active; 'I' for Inactive)
REMARK    1  A    between atoms: C_5  and  C_8 
REMARK    2  A    between atoms: C_8  and  N_9 
REMARK    3  A    between atoms: C_13  and  N_14 
ROOT
ATOM      1  N   UNK d   1      11.324   5.937  11.435  0.00  0.00    -0.168 N 
ATOM      2  C   UNK d   1      10.172   6.179  12.077  0.00  0.00     0.167 A 
ATOM      3  C   UNK d   1      10.455   6.668  13.333  0.00  0.00     0.185 A 
ATOM      4  N   UNK d   1      11.775   6.709  13.417  0.00  0.00    -0.044 NA
ATOM      5  C   UNK d   1      12.332   6.272  12.278  0.00  0.00     0.707 A 
ATOM      6  N   UNK d   1       9.503   7.022  14.233  0.00  0.00    -0.286 N 
ATOM      7  C   UNK d   1       8.224   6.880  13.851  0.00  0.00     0.330 A 
ATOM      8  O   UNK d   1       7.356   7.211  14.697  0.00  0.00    -0.246 OA
ATOM      9  N   UNK d   1       7.883   6.412  12.637  0.00  0.00    -0.273 N 
ATOM     10  C   UNK d   1       8.819   6.057  11.738  0.00  0.00     0.280 A 
ATOM     11  O   UNK d   1       8.540   5.625  10.611  0.00  0.00    -0.265 OA
ATOM     12  C   UNK d   1       9.896   7.524  15.533  0.00  0.00     0.163 C 
ATOM     13  H   UNK d   1       6.887   6.307  12.349  0.00  0.00     0.173 HD
ENDROOT
BRANCH   1  14
ATOM     14  C   UNK d   1      11.474   5.410  10.101  0.00  0.00     0.186 C 
BRANCH  14  15
ATOM     15  C   UNK d   1      11.480   3.970   9.936  0.00  0.00    -0.039 A 
ATOM     16  C   UNK d   1      10.418   3.134  10.084  0.00  0.00     0.010 A 
ATOM     17  C   UNK d   1      10.486   1.758   9.870  0.00  0.00     0.019 A 
ATOM     18  C   UNK d   1      11.697   1.193   9.483  0.00  0.00     0.011 A 
ATOM     19 Br   UNK d   1      11.876  -0.676   9.155  0.00  0.00    -0.051 Br
ATOM     20  C   UNK d   1      12.798   2.000   9.321  0.00  0.00     0.019 A 
ATOM     21  C   UNK d   1      12.684   3.352   9.544  0.00  0.00     0.010 A 
ENDBRANCH  14  15
ENDBRANCH   1  14
BRANCH   5  22
ATOM     22  N   UNK d   1      13.733   6.168  11.990  0.00  0.00    -0.213 N 
ATOM     23  C   UNK d   1      14.401   4.932  12.333  0.00  0.00     0.160 C 
ATOM     24  C   UNK d   1      15.425   5.242  13.415  0.00  0.00     0.136 C 
ATOM     25  N   UNK d   1      15.836   6.606  13.416  0.00  0.00    -0.414 N 
ATOM     26  C   UNK d   1      15.837   7.262  12.150  0.00  0.00     0.136 C 
ATOM     27  C   UNK d   1      15.509   7.388  14.547  0.00  0.00     0.143 C 
ATOM     28  C   UNK d   1      14.533   7.207  11.397  0.00  0.00     0.160 C 
ENDBRANCH   5  22
TORSDOF 3
ENDMDL
