/Users/jonathanwahrer/Desktop/Msc/3_Semester/Drug_Design_Praktikum/waehrer_HTS_screening/HTS_experiment/out/docking_results/vina_output/2jam/2091_docked.pdbqt
 OpenBabel03162218543D

 28 31  0  0  0  0  0  0  0  0999 V2000
   11.3240    5.9370   11.4350 N   0  0  0  0  0  0  0  0  0  0  0  0
   10.1720    6.1790   12.0770 C   0  0  0  0  0  0  0  0  0  0  0  0
   10.4550    6.6680   13.3330 C   0  0  0  0  0  0  0  0  0  0  0  0
   11.7750    6.7090   13.4170 N   0  0  0  0  0  0  0  0  0  0  0  0
   12.3320    6.2720   12.2780 C   0  0  0  0  0  0  0  0  0  0  0  0
    9.5030    7.0220   14.2330 N   0  0  0  0  0  0  0  0  0  0  0  0
    8.2240    6.8800   13.8510 C   0  0  0  0  0  0  0  0  0  0  0  0
    7.3560    7.2110   14.6970 O   0  0  0  0  0  0  0  0  0  0  0  0
    7.8830    6.4120   12.6370 N   0  0  0  0  0  0  0  0  0  0  0  0
    8.8190    6.0570   11.7380 C   0  0  0  0  0  0  0  0  0  0  0  0
    8.5400    5.6250   10.6110 O   0  0  0  0  0  0  0  0  0  0  0  0
    9.8960    7.5240   15.5330 C   0  0  0  0  0  1  0  0  0  0  0  0
    6.8870    6.3070   12.3490 H   0  0  0  0  0  0  0  0  0  0  0  0
   11.4740    5.4100   10.1010 C   0  0  0  0  0  2  0  0  0  0  0  0
   11.4800    3.9700    9.9360 C   0  0  0  0  0  0  0  0  0  0  0  0
   10.4180    3.1340   10.0840 C   0  0  0  0  0  3  0  0  0  0  0  0
   10.4860    1.7580    9.8700 C   0  0  0  0  0  3  0  0  0  0  0  0
   11.6970    1.1930    9.4830 C   0  0  0  0  0  0  0  0  0  0  0  0
   11.8760   -0.6760    9.1550 Br  0  0  0  0  0  0  0  0  0  0  0  0
   12.7980    2.0000    9.3210 C   0  0  0  0  0  3  0  0  0  0  0  0
   12.6840    3.3520    9.5440 C   0  0  0  0  0  3  0  0  0  0  0  0
   13.7330    6.1680   11.9900 N   0  0  0  0  0  0  0  0  0  0  0  0
   14.4010    4.9320   12.3330 C   0  0  0  0  0  2  0  0  0  0  0  0
   15.4250    5.2420   13.4150 C   0  0  0  0  0  2  0  0  0  0  0  0
   15.8360    6.6060   13.4160 N   0  0  0  0  0  0  0  0  0  0  0  0
   15.8370    7.2620   12.1500 C   0  0  0  0  0  2  0  0  0  0  0  0
   15.5090    7.3880   14.5470 C   0  0  0  0  0  1  0  0  0  0  0  0
   14.5330    7.2070   11.3970 C   0  0  0  0  0  2  0  0  0  0  0  0
  1  2  1  0  0  0  0
  1  5  1  0  0  0  0
  2  3  2  0  0  0  0
  3  4  1  0  0  0  0
  3  6  1  0  0  0  0
  5  4  2  0  0  0  0
  6 12  1  0  0  0  0
  7  6  1  0  0  0  0
  7  8  2  0  0  0  0
  9  7  1  0  0  0  0
 10  2  1  0  0  0  0
 10  9  1  0  0  0  0
 11 10  2  0  0  0  0
 13  9  1  0  0  0  0
 14  1  1  0  0  0  0
 15 16  1  0  0  0  0
 15 14  1  0  0  0  0
 17 16  2  0  0  0  0
 18 17  1  0  0  0  0
 19 18  1  0  0  0  0
 20 18  2  0  0  0  0
 20 21  1  0  0  0  0
 21 15  2  0  0  0  0
 22  5  1  0  0  0  0
 22 23  1  0  0  0  0
 23 24  1  0  0  0  0
 24 25  1  0  0  0  0
 25 27  1  0  0  0  0
 26 25  1  0  0  0  0
 28 22  1  0  0  0  0
 28 26  1  0  0  0  0
M  END
>  <Pose>
1

>  <Score>
-7.326

$$$$
