MODEL 1
REMARK VINA RESULT:    -9.001      0.000      0.000
REMARK INTER + INTRA:         -11.524
REMARK INTER:                 -10.842
REMARK INTRA:                  -0.681
REMARK UNBOUND:                -0.681
REMARK  4 active torsions:
REMARK  status: ('A' for Active; 'I' for Inactive)
REMARK    1  A    between atoms: C_6  and  C_8 
REMARK       I    between atoms: C_8  and  N_10 
REMARK    2  A    between atoms: N_10  and  C_11 
REMARK    3  A    between atoms: C_11  and  C_12 
REMARK    4  A    between atoms: C_15  and  O_24 
ROOT
ATOM      1  C   UNK d   1      12.214   3.142  11.262  0.00  0.00     0.003 A 
ATOM      2  C   UNK d   1      11.510   2.236  10.391  0.00  0.00     0.116 A 
ATOM      3  C   UNK d   1      12.194   1.495   9.499  0.00  0.00     0.139 A 
ATOM      4  C   UNK d   1      13.595   1.587   9.399  0.00  0.00     0.118 A 
ATOM      5  C   UNK d   1      14.282   2.448  10.220  0.00  0.00     0.075 A 
ATOM      6  C   UNK d   1      13.579   3.228  11.153  0.00  0.00    -0.027 A 
ATOM      7  C   UNK d   1      14.294   4.231  11.982  0.00  0.00     0.060 C 
ATOM      8  C   UNK d   1      15.671   4.601  11.442  0.00  0.00     0.130 C 
ATOM      9  N   UNK d   1      16.429   3.431  11.063  0.00  0.00    -0.352 N 
ATOM     10  C   UNK d   1      15.737   2.547  10.170  0.00  0.00     0.256 C 
ATOM     11  O   UNK d   1      16.445   1.892   9.377  0.00  0.00    -0.267 OA
ATOM     12  C   UNK d   1      17.769   3.175  11.545  0.00  0.00     0.152 C 
ATOM     13  O   UNK d   1      11.257   0.720   8.800  0.00  0.00    -0.320 OA
ATOM     14  C   UNK d   1      10.000   0.796   9.438  0.00  0.00     0.352 C 
ATOM     15  O   UNK d   1      10.151   1.934  10.263  0.00  0.00    -0.322 OA
ENDROOT
BRANCH   1  16
ATOM     16  C   UNK d   1      11.304   3.832  12.151  0.00  0.00     0.165 C 
BRANCH  16  17
ATOM     17  N   UNK d   1      10.183   4.568  11.760  0.00  0.00    -0.352 N 
ATOM     18  C   UNK d   1       9.843   5.719  12.623  0.00  0.00     0.253 C 
ATOM     19  O   UNK d   1      10.561   5.949  13.611  0.00  0.00    -0.268 OA
ATOM     20  H   UNK d   1       9.542   4.503  10.956  0.00  0.00     0.163 HD
BRANCH  18  21
ATOM     21  C   UNK d   1       8.705   6.555  12.324  0.00  0.00     0.050 A 
ATOM     22  C   UNK d   1       7.582   5.949  11.772  0.00  0.00     0.133 A 
ATOM     23  N   UNK d   1       6.486   6.656  11.460  0.00  0.00    -0.271 NA
ATOM     24  C   UNK d   1       6.462   7.969  11.681  0.00  0.00     0.135 A 
ATOM     25  C   UNK d   1       7.532   8.612  12.219  0.00  0.00     0.029 A 
ATOM     26 Br   UNK d   1       7.477  10.496  12.528  0.00  0.00    -0.050 Br
ATOM     27  C   UNK d   1       8.689   7.911  12.555  0.00  0.00     0.039 A 
ENDBRANCH  18  21
ENDBRANCH  16  17
ENDBRANCH   1  16
BRANCH   4  28
ATOM     28  O   UNK d   1      14.205   0.813   8.484  0.00  0.00    -0.357 OA
ATOM     29  H   UNK d   1      14.069   0.714   7.537  0.00  0.00     0.217 HD
ENDBRANCH   4  28
TORSDOF 4
ENDMDL
