MODEL 1
REMARK VINA RESULT:    -7.826      0.000      0.000
REMARK INTER + INTRA:          -8.055
REMARK INTER:                  -8.055
REMARK INTRA:                   0.000
REMARK UNBOUND:                 0.000
REMARK  1 active torsions:
REMARK  status: ('A' for Active; 'I' for Inactive)
REMARK    1  A    between atoms: C_12  and  N_16 
ROOT
ATOM      1 Cl   UNK d   1      11.912  10.792  15.330  0.00  0.00    -0.082 Cl
ATOM      2  C   UNK d   1      10.693   9.537  15.411  0.00  0.00     0.061 A 
ATOM      3  C   UNK d   1       9.508   9.649  14.682  0.00  0.00     0.065 A 
ATOM      4  C   UNK d   1       8.535   8.695  14.718  0.00  0.00    -0.002 A 
ATOM      5  C   UNK d   1       8.780   7.591  15.523  0.00  0.00     0.011 A 
ATOM      6  C   UNK d   1       9.943   7.462  16.250  0.00  0.00     0.002 A 
ATOM      7  C   UNK d   1      10.914   8.436  16.200  0.00  0.00     0.026 A 
ATOM      8  C   UNK d   1       7.420   9.113  13.844  0.00  0.00     0.146 A 
ATOM      9  C   UNK d   1       6.165   9.309  14.657  0.00  0.00     0.071 A 
ATOM     10  C   UNK d   1       5.043   8.694  14.407  0.00  0.00     0.060 A 
ATOM     11  N   UNK d   1       4.916   7.772  13.327  0.00  0.00    -0.342 N 
ATOM     12  C   UNK d   1       6.048   7.528  12.512  0.00  0.00     0.118 A 
ATOM     13  C   UNK d   1       7.184   8.143  12.754  0.00  0.00     0.093 A 
ATOM     14  C   UNK d   1       8.323   7.863  11.891  0.00  0.00     0.101 C 
ATOM     15  N   UNK d   1       9.239   7.649  11.217  0.00  0.00    -0.191 NA
ATOM     16  C   UNK d   1       4.032   9.123  15.395  0.00  0.00     0.106 A 
ATOM     17  O   UNK d   1       4.669  10.022  16.216  0.00  0.00    -0.301 OA
ATOM     18  C   UNK d   1       5.975  10.176  15.813  0.00  0.00     0.294 A 
ATOM     19  O   UNK d   1       6.875  10.926  16.330  0.00  0.00    -0.259 OA
ATOM     20  C   UNK d   1       3.492   7.903  16.108  0.00  0.00     0.053 C 
ATOM     21  C   UNK d   1       2.858   9.822  14.735  0.00  0.00     0.053 C 
ATOM     22  C   UNK d   1       7.853  10.419  13.294  0.00  0.00     0.246 A 
ATOM     23  O   UNK d   1       7.195  11.160  12.479  0.00  0.00    -0.271 OA
ATOM     24  N   UNK d   1       9.125  10.712  13.826  0.00  0.00    -0.324 N 
ATOM     25  H   UNK d   1       4.023   7.276  13.122  0.00  0.00     0.167 HD
ATOM     26  H   UNK d   1       9.673  11.595  13.596  0.00  0.00     0.169 HD
ENDROOT
BRANCH  12  27
ATOM     27  N   UNK d   1       5.999   6.617  11.409  0.00  0.00    -0.384 N 
ATOM     28  H   UNK d   1       5.136   6.102  11.190  0.00  0.00     0.157 HD
ATOM     29  H   UNK d   1       6.845   6.490  10.842  0.00  0.00     0.157 HD
ENDBRANCH  12  27
TORSDOF 1
ENDMDL
