/Users/jonathanwahrer/Desktop/Msc/3_Semester/Drug_Design_Praktikum/waehrer_HTS_screening/HTS_experiment/out/docking_results/vina_output/2jam/2109_docked.pdbqt
 OpenBabel03162218543D

 21 24  0  0  1  0  0  0  0  0999 V2000
   11.1610    4.6530   10.5840 N   0  0  0  0  0  0  0  0  0  0  0  0
   10.4330    5.7030    9.9300 C   0  0  0  0  0  0  0  0  0  0  0  0
    9.8360    5.6170    8.8280 O   0  0  0  0  0  0  0  0  0  0  0  0
   10.4810    6.9360   10.7490 C   0  0  1  0  0  3  0  0  0  0  0  0
    9.2210    7.4810   10.9700 O   0  0  0  0  0  0  0  0  0  0  0  0
    8.5360    6.6390   11.7250 N   0  0  1  0  0  0  0  0  0  0  0  0
    9.3850    5.8230   12.4750 C   0  0  1  0  0  3  0  0  0  0  0  0
   10.7780    6.3490   12.1260 C   0  0  1  0  0  3  0  0  0  0  0  0
   11.6960    5.2420   11.7680 C   0  0  0  0  0  0  0  0  0  0  0  0
   12.7510    4.8470   12.3480 O   0  0  0  0  0  0  0  0  0  0  0  0
    9.1690    5.6940   13.9230 C   0  0  0  0  0  2  0  0  0  0  0  0
    8.0080    6.3880   14.5190 C   0  0  0  0  0  2  0  0  0  0  0  0
    6.8770    6.3940   13.5150 C   0  0  0  0  0  2  0  0  0  0  0  0
    7.3740    7.1600   12.3160 C   0  0  0  0  0  2  0  0  0  0  0  0
   11.3280    3.3000   10.1570 C   0  0  0  0  0  0  0  0  0  0  0  0
   12.5320    2.7860    9.7260 C   0  0  0  0  0  3  0  0  0  0  0  0
   12.6840    1.4720    9.3140 C   0  0  0  0  0  3  0  0  0  0  0  0
   11.6060    0.6120    9.3240 C   0  0  0  0  0  0  0  0  0  0  0  0
   11.7860   -1.0540    8.8050 Cl  0  0  0  0  0  0  0  0  0  0  0  0
   10.3950    1.1160    9.7530 C   0  0  0  0  0  3  0  0  0  0  0  0
   10.2490    2.4270   10.1630 C   0  0  0  0  0  3  0  0  0  0  0  0
  1  9  1  0  0  0  0
  2  1  1  0  0  0  0
  3  2  2  0  0  0  0
  4  2  1  6  0  0  0
  4  5  1  0  0  0  0
  4  8  1  0  0  0  0
  5  6  1  0  0  0  0
  6 14  1  1  0  0  0
  6  7  1  0  0  0  0
  7 11  1  1  0  0  0
  8  9  1  6  0  0  0
  8  7  1  0  0  0  0
  9 10  2  0  0  0  0
 11 12  1  0  0  0  0
 13 12  1  0  0  0  0
 14 13  1  0  0  0  0
 15 21  1  0  0  0  0
 15  1  1  0  0  0  0
 16 15  2  0  0  0  0
 17 18  2  0  0  0  0
 17 16  1  0  0  0  0
 18 20  1  0  0  0  0
 19 18  1  0  0  0  0
 20 21  2  0  0  0  0
M  END
>  <Pose>
1

>  <Score>
-8.045

$$$$
