MODEL 1
REMARK VINA RESULT:    -8.045      0.000      0.000
REMARK INTER + INTRA:          -8.852
REMARK INTER:                  -8.516
REMARK INTRA:                  -0.336
REMARK UNBOUND:                -0.336
REMARK  1 active torsions:
REMARK  status: ('A' for Active; 'I' for Inactive)
REMARK    1  A    between atoms: C_5  and  N_8 
ROOT
ATOM      1  N   UNK d   1      11.161   4.653  10.584  0.00  0.00    -0.250 N 
ATOM      2  C   UNK d   1      10.433   5.703   9.930  0.00  0.00     0.263 C 
ATOM      3  O   UNK d   1       9.836   5.617   8.828  0.00  0.00    -0.270 OA
ATOM      4  C   UNK d   1      10.481   6.936  10.749  0.00  0.00     0.259 C 
ATOM      5  O   UNK d   1       9.221   7.481  10.970  0.00  0.00    -0.266 OA
ATOM      6  N   UNK d   1       8.536   6.639  11.725  0.00  0.00    -0.288 N 
ATOM      7  C   UNK d   1       9.385   5.823  12.475  0.00  0.00     0.125 C 
ATOM      8  C   UNK d   1      10.778   6.349  12.126  0.00  0.00     0.144 C 
ATOM      9  C   UNK d   1      11.696   5.242  11.768  0.00  0.00     0.240 C 
ATOM     10  O   UNK d   1      12.751   4.847  12.348  0.00  0.00    -0.272 OA
ATOM     11  C   UNK d   1       9.169   5.694  13.923  0.00  0.00     0.028 C 
ATOM     12  C   UNK d   1       8.008   6.388  14.519  0.00  0.00     0.004 C 
ATOM     13  C   UNK d   1       6.877   6.394  13.515  0.00  0.00     0.022 C 
ATOM     14  C   UNK d   1       7.374   7.160  12.316  0.00  0.00     0.150 C 
ENDROOT
BRANCH   1  15
ATOM     15  C   UNK d   1      11.328   3.300  10.157  0.00  0.00     0.045 A 
ATOM     16  C   UNK d   1      12.532   2.786   9.726  0.00  0.00     0.032 A 
ATOM     17  C   UNK d   1      12.684   1.472   9.314  0.00  0.00     0.026 A 
ATOM     18  C   UNK d   1      11.606   0.612   9.324  0.00  0.00     0.034 A 
ATOM     19 Cl   UNK d   1      11.786  -1.054   8.805  0.00  0.00    -0.084 Cl
ATOM     20  C   UNK d   1      10.395   1.116   9.753  0.00  0.00     0.026 A 
ATOM     21  C   UNK d   1      10.249   2.427  10.163  0.00  0.00     0.032 A 
ENDBRANCH   1  15
TORSDOF 1
ENDMDL
