MODEL 1
REMARK VINA RESULT:    -7.694      0.000      0.000
REMARK INTER + INTRA:          -9.879
REMARK INTER:                  -8.818
REMARK INTRA:                  -1.061
REMARK UNBOUND:                -1.061
REMARK  3 active torsions:
REMARK  status: ('A' for Active; 'I' for Inactive)
REMARK    1  A    between atoms: C_7  and  C_9 
REMARK       I    between atoms: C_9  and  N_11 
REMARK    2  A    between atoms: C_14  and  N_19 
REMARK    3  A    between atoms: C_15  and  O_18 
REMARK       I    between atoms: N_22  and  C_25 
ROOT
ATOM      1  C   UNK d   1      16.513   5.283  12.498  0.00  0.00     0.203 C 
ATOM      2  O   UNK d   1      16.793   4.854  13.736  0.00  0.00    -0.170 OA
ATOM      3  N   UNK d   1      16.766   6.626  12.319  0.00  0.00    -0.358 N 
ATOM      4  C   UNK d   1      17.331   7.242  13.552  0.00  0.00     0.127 C 
ATOM      5  C   UNK d   1      18.843   7.134  13.509  0.00  0.00     0.058 C 
ATOM      6  C   UNK d   1      19.246   6.960  12.095  0.00  0.00     0.253 C 
ATOM      7  C   UNK d   1      18.793   8.112  11.257  0.00  0.00     0.153 C 
ATOM      8  C   UNK d   1      17.771   7.536  10.262  0.00  0.00     0.054 C 
ATOM      9  C   UNK d   1      16.504   7.337  11.115  0.00  0.00     0.127 C 
ENDROOT
BRANCH   1  10
ATOM     10  C   UNK d   1      16.014   4.242  11.641  0.00  0.00     0.088 A 
ATOM     11  N   UNK d   1      16.596   3.602  10.624  0.00  0.00    -0.352 N 
ATOM     12  C   UNK d   1      15.736   2.699  10.061  0.00  0.00     0.043 A 
ATOM     13  H   UNK d   1      17.554   3.704  10.267  0.00  0.00     0.166 HD
ATOM     14  C   UNK d   1      14.574   2.775  10.748  0.00  0.00    -0.005 A 
ATOM     15  C   UNK d   1      15.851   1.825   9.014  0.00  0.00     0.032 A 
ATOM     16  C   UNK d   1      13.463   1.985  10.431  0.00  0.00     0.037 A 
ATOM     17  C   UNK d   1      14.722   3.728  11.737  0.00  0.00     0.048 A 
ATOM     18  C   UNK d   1      13.594   1.124   9.391  0.00  0.00     0.035 A 
ATOM     19 Cl   UNK d   1      12.212   0.112   8.959  0.00  0.00    -0.084 Cl
ATOM     20  C   UNK d   1      14.769   1.028   8.674  0.00  0.00     0.026 A 
ENDBRANCH   1  10
BRANCH   6  21
ATOM     21  N   UNK d   1      20.612   6.649  11.817  0.00  0.00     0.098 N 
ATOM     22  C   UNK d   1      20.814   5.509  10.959  0.00  0.00     0.293 C 
ATOM     23  C   UNK d   1      20.336   4.254  11.584  0.00  0.00     0.156 C 
ATOM     24  N   UNK d   1      21.029   4.138  12.872  0.00  0.00    -0.349 N 
ATOM     25  C   UNK d   1      21.967   5.188  13.175  0.00  0.00     0.156 C 
ATOM     26  C   UNK d   1      20.768   3.023  13.725  0.00  0.00     0.215 C 
ATOM     27  C   UNK d   1      21.439   6.579  12.990  0.00  0.00     0.293 C 
ATOM     28  O   UNK d   1      21.348   2.942  14.816  0.00  0.00    -0.274 OA
ATOM     29  C   UNK d   1      19.794   1.984  13.262  0.00  0.00     0.117 C 
ENDBRANCH   6  21
BRANCH   7  30
ATOM     30  O   UNK d   1      19.826   8.770  10.593  0.00  0.00    -0.393 OA
ATOM     31  H   UNK d   1      20.597   8.116  10.578  0.00  0.00     0.210 HD
ENDBRANCH   7  30
TORSDOF 3
ENDMDL
