MODEL 1
REMARK VINA RESULT:    -9.337      0.000      0.000
REMARK INTER + INTRA:         -12.987
REMARK INTER:                 -12.612
REMARK INTRA:                  -0.376
REMARK UNBOUND:                -0.376
REMARK  6 active torsions:
REMARK  status: ('A' for Active; 'I' for Inactive)
REMARK    1  A    between atoms: N_11  and  C_12 
REMARK    2  A    between atoms: C_12  and  C_13 
REMARK    3  A    between atoms: C_16  and  C_18 
REMARK       I    between atoms: C_18  and  N_20 
REMARK    4  A    between atoms: N_20  and  C_21 
REMARK    5  A    between atoms: C_21  and  C_22 
REMARK    6  A    between atoms: C_22  and  N_23 
ROOT
ATOM      1  C   UNK d   1      12.795   3.191  11.170  0.00  0.00     0.174 A 
ATOM      2  N   UNK d   1      11.865   3.077  12.134  0.00  0.00    -0.109 NA
ATOM      3  O   UNK d   1      10.902   3.933  11.943  0.00  0.00    -0.186 OA
ATOM      4  C   UNK d   1      11.199   4.613  10.853  0.00  0.00     0.264 A 
ATOM      5  N   UNK d   1      12.360   4.170  10.365  0.00  0.00    -0.198 NA
ENDROOT
BRANCH   1   6
ATOM      6  C   UNK d   1      14.019   2.353  11.049  0.00  0.00     0.217 C 
BRANCH   6   7
ATOM      7  N   UNK d   1      13.988   1.593   9.833  0.00  0.00    -0.283 N 
ATOM      8  C   UNK d   1      12.987   0.915   9.264  0.00  0.00     0.075 A 
ATOM      9  C   UNK d   1      11.665   0.713   9.635  0.00  0.00     0.056 A 
ATOM     10  C   UNK d   1      13.439   0.333   8.078  0.00  0.00     0.108 A 
ATOM     11  C   UNK d   1      10.856  -0.058   8.805  0.00  0.00     0.036 A 
ATOM     12 Cl   UNK d   1       9.182  -0.318   9.269  0.00  0.00    -0.084 Cl
ATOM     13  C   UNK d   1      11.335  -0.620   7.635  0.00  0.00     0.026 A 
ATOM     14  C   UNK d   1      12.632  -0.421   7.275  0.00  0.00     0.041 A 
ATOM     15  O   UNK d   1      14.683   0.691   8.000  0.00  0.00    -0.259 OA
ATOM     16  C   UNK d   1      15.043   1.435   9.015  0.00  0.00     0.373 A 
ATOM     17  O   UNK d   1      16.203   1.904   9.161  0.00  0.00    -0.237 OA
ENDBRANCH   6   7
ENDBRANCH   1   6
BRANCH   4  18
ATOM     18  C   UNK d   1      10.293   5.693  10.334  0.00  0.00     0.297 C 
ATOM     19  O   UNK d   1      10.175   5.608   9.063  0.00  0.00    -0.264 OA
ATOM     20  N   UNK d   1       9.731   6.576  11.180  0.00  0.00    -0.352 N 
ATOM     21  H   UNK d   1       9.056   7.140  10.127  0.00  0.00     0.162 HD
BRANCH  20  22
ATOM     22  C   UNK d   1       9.145   7.490  12.034  0.00  0.00     0.142 C 
BRANCH  22  23
ATOM     23  C   UNK d   1       8.010   6.897  12.877  0.00  0.00     0.136 C 
BRANCH  23  24
ATOM     24  N   UNK d   1       6.785   7.590  12.797  0.00  0.00    -0.407 N 
ATOM     25  C   UNK d   1       6.060   7.220  11.645  0.00  0.00     0.143 C 
ATOM     26  C   UNK d   1       5.130   8.283  11.167  0.00  0.00     0.187 C 
ATOM     27  O   UNK d   1       4.518   8.862  12.249  0.00  0.00    -0.388 OA
ATOM     28  C   UNK d   1       5.375   9.578  13.063  0.00  0.00     0.187 C 
ATOM     29  C   UNK d   1       6.703   8.911  13.269  0.00  0.00     0.143 C 
ENDBRANCH  23  24
ENDBRANCH  22  23
ENDBRANCH  20  22
ENDBRANCH   4  18
TORSDOF 6
ENDMDL
