/Users/jonathanwahrer/Desktop/Msc/3_Semester/Drug_Design_Praktikum/waehrer_HTS_screening/HTS_experiment/out/docking_results/vina_output/2jam/2122_docked.pdbqt
 OpenBabel03162218553D

 29 32  0  0  0  0  0  0  0  0999 V2000
   12.7950    3.1910   11.1700 C   0  0  0  0  0  0  0  0  0  0  0  0
   11.8650    3.0770   12.1340 N   0  0  0  0  0  0  0  0  0  0  0  0
   10.9020    3.9330   11.9430 O   0  0  0  0  0  0  0  0  0  0  0  0
   11.1990    4.6130   10.8530 C   0  0  0  0  0  0  0  0  0  0  0  0
   12.3600    4.1700   10.3650 N   0  0  0  0  0  0  0  0  0  0  0  0
   14.0190    2.3530   11.0490 C   0  0  0  0  0  2  0  0  0  0  0  0
   13.9880    1.5930    9.8330 N   0  0  0  0  0  0  0  0  0  0  0  0
   12.9870    0.9150    9.2640 C   0  0  0  0  0  0  0  0  0  0  0  0
   11.6650    0.7130    9.6350 C   0  0  0  0  0  3  0  0  0  0  0  0
   13.4390    0.3330    8.0780 C   0  0  0  0  0  0  0  0  0  0  0  0
   10.8560   -0.0580    8.8050 C   0  0  0  0  0  0  0  0  0  0  0  0
    9.1820   -0.3180    9.2690 Cl  0  0  0  0  0  0  0  0  0  0  0  0
   11.3350   -0.6200    7.6350 C   0  0  0  0  0  3  0  0  0  0  0  0
   12.6320   -0.4210    7.2750 C   0  0  0  0  0  3  0  0  0  0  0  0
   14.6830    0.6910    8.0000 O   0  0  0  0  0  0  0  0  0  0  0  0
   15.0430    1.4350    9.0150 C   0  0  0  0  0  0  0  0  0  0  0  0
   16.2030    1.9040    9.1610 O   0  0  0  0  0  0  0  0  0  0  0  0
   10.2930    5.6930   10.3340 C   0  0  0  0  0  0  0  0  0  0  0  0
   10.1750    5.6080    9.0630 O   0  0  0  0  0  0  0  0  0  0  0  0
    9.7310    6.5760   11.1800 N   0  0  0  0  0  0  0  0  0  0  0  0
    9.0560    7.1400   10.1270 H   0  0  0  0  0  0  0  0  0  0  0  0
    9.1450    7.4900   12.0340 C   0  0  0  0  0  2  0  0  0  0  0  0
    8.0100    6.8970   12.8770 C   0  0  0  0  0  2  0  0  0  0  0  0
    6.7850    7.5900   12.7970 N   0  0  0  0  0  0  0  0  0  0  0  0
    6.0600    7.2200   11.6450 C   0  0  0  0  0  2  0  0  0  0  0  0
    5.1300    8.2830   11.1670 C   0  0  0  0  0  2  0  0  0  0  0  0
    4.5180    8.8620   12.2490 O   0  0  0  0  0  0  0  0  0  0  0  0
    5.3750    9.5780   13.0630 C   0  0  0  0  0  2  0  0  0  0  0  0
    6.7030    8.9110   13.2690 C   0  0  0  0  0  2  0  0  0  0  0  0
  1  2  2  0  0  0  0
  3  2  1  0  0  0  0
  4  3  1  0  0  0  0
  5  4  2  0  0  0  0
  5  1  1  0  0  0  0
  6  1  1  0  0  0  0
  7  6  1  0  0  0  0
  8  9  1  0  0  0  0
  8  7  1  0  0  0  0
 10  8  2  0  0  0  0
 11 12  1  0  0  0  0
 11  9  2  0  0  0  0
 13 11  1  0  0  0  0
 14 13  2  0  0  0  0
 14 10  1  0  0  0  0
 15 10  1  0  0  0  0
 15 16  1  0  0  0  0
 16 17  2  0  0  0  0
 16  7  1  0  0  0  0
 18  4  1  0  0  0  0
 18 20  1  0  0  0  0
 19 18  2  0  0  0  0
 20 22  1  0  0  0  0
 21 20  1  0  0  0  0
 22 23  1  0  0  0  0
 24 23  1  0  0  0  0
 24 29  1  0  0  0  0
 25 24  1  0  0  0  0
 26 25  1  0  0  0  0
 26 27  1  0  0  0  0
 27 28  1  0  0  0  0
 28 29  1  0  0  0  0
M  END
>  <Pose>
1

>  <Score>
-9.337

$$$$
