MODEL 1
REMARK VINA RESULT:    -7.933      0.000      0.000
REMARK INTER + INTRA:          -9.181
REMARK INTER:                  -8.861
REMARK INTRA:                  -0.320
REMARK UNBOUND:                -0.320
REMARK  2 active torsions:
REMARK  status: ('A' for Active; 'I' for Inactive)
REMARK    1  A    between atoms: C_5  and  N_8 
REMARK    2  A    between atoms: C_12  and  C_21 
ROOT
ATOM      1  N   UNK d   1      10.655   5.765  11.738  0.00  0.00    -0.252 N 
ATOM      2  C   UNK d   1       9.334   6.193  11.438  0.00  0.00     0.239 C 
ATOM      3  O   UNK d   1       8.482   5.524  10.794  0.00  0.00    -0.272 OA
ATOM      4  C   UNK d   1       9.087   7.564  11.996  0.00  0.00     0.138 C 
ATOM      5  C   UNK d   1       7.912   7.567  12.915  0.00  0.00     0.142 C 
ATOM      6  O   UNK d   1       8.382   8.196  14.094  0.00  0.00    -0.355 OA
ATOM      7  C   UNK d   1       9.512   7.358  14.278  0.00  0.00     0.089 C 
ATOM      8  C   UNK d   1      10.250   7.705  12.989  0.00  0.00     0.133 C 
ATOM      9  C   UNK d   1      11.253   6.724  12.601  0.00  0.00     0.239 C 
ATOM     10  O   UNK d   1      12.451   6.744  12.985  0.00  0.00    -0.272 OA
ATOM     11  C   UNK d   1       8.870   6.024  14.213  0.00  0.00     0.010 C 
ATOM     12  C   UNK d   1       7.771   6.173  13.446  0.00  0.00     0.016 C 
ATOM     13  C   UNK d   1      10.273   7.630  15.508  0.00  0.00     0.051 C 
ENDROOT
BRANCH   1  14
ATOM     14  C   UNK d   1      11.357   4.598  11.302  0.00  0.00     0.045 A 
ATOM     15  C   UNK d   1      11.940   4.488  10.063  0.00  0.00     0.032 A 
ATOM     16  C   UNK d   1      12.615   3.353   9.651  0.00  0.00     0.026 A 
ATOM     17  C   UNK d   1      12.724   2.274  10.495  0.00  0.00     0.034 A 
ATOM     18 Cl   UNK d   1      13.573   0.803  10.010  0.00  0.00    -0.084 Cl
ATOM     19  C   UNK d   1      12.144   2.369  11.740  0.00  0.00     0.026 A 
ATOM     20  C   UNK d   1      11.464   3.513  12.153  0.00  0.00     0.032 A 
ENDBRANCH   1  14
BRANCH   5  21
ATOM     21  C   UNK d   1       6.664   8.150  12.406  0.00  0.00     0.298 C 
ATOM     22  O   UNK d   1       6.282   9.191  13.254  0.00  0.00    -0.356 OA
ATOM     23  C   UNK d   1       6.889  10.343  12.818  0.00  0.00     0.197 C 
ATOM     24  C   UNK d   1       7.074  10.084  11.347  0.00  0.00     0.197 C 
ATOM     25  O   UNK d   1       6.894   8.732  11.159  0.00  0.00    -0.356 OA
ENDBRANCH   5  21
TORSDOF 2
ENDMDL
