MODEL 1
REMARK VINA RESULT:    -8.155      0.000      0.000
REMARK INTER + INTRA:         -11.351
REMARK INTER:                 -10.539
REMARK INTRA:                  -0.813
REMARK UNBOUND:                -0.813
REMARK  5 active torsions:
REMARK  status: ('A' for Active; 'I' for Inactive)
REMARK    1  A    between atoms: C_10  and  C_22 
REMARK    2  A    between atoms: N_15  and  C_18 
REMARK    3  A    between atoms: C_18  and  C_19 
REMARK    4  A    between atoms: C_19  and  O_20 
REMARK    5  A    between atoms: C_22  and  C_23 
ROOT
ATOM      1 Cl   UNK d   1      11.638   8.343  18.232  0.00  0.00    -0.082 Cl
ATOM      2  C   UNK d   1      12.182   8.554  16.581  0.00  0.00     0.061 A 
ATOM      3  C   UNK d   1      11.629   7.866  15.520  0.00  0.00     0.066 A 
ATOM      4  C   UNK d   1      12.085   8.057  14.220  0.00  0.00     0.019 A 
ATOM      5  C   UNK d   1      13.102   8.957  14.053  0.00  0.00     0.013 A 
ATOM      6  C   UNK d   1      13.665   9.652  15.097  0.00  0.00     0.002 A 
ATOM      7  C   UNK d   1      13.214   9.461  16.369  0.00  0.00     0.026 A 
ATOM      8  C   UNK d   1      11.303   7.190  13.331  0.00  0.00     0.279 A 
ATOM      9  N   UNK d   1      12.134   6.258  12.591  0.00  0.00     0.114 N 
ATOM     10  C   UNK d   1      11.218   5.802  11.543  0.00  0.00     0.240 C 
ATOM     11  C   UNK d   1      10.378   6.965  11.173  0.00  0.00     0.128 C 
ATOM     12  C   UNK d   1      10.660   7.987  12.227  0.00  0.00     0.147 C 
ATOM     13  C   UNK d   1       9.393   8.607  12.627  0.00  0.00     0.235 C 
ATOM     14  O   UNK d   1       9.311   9.670  13.292  0.00  0.00    -0.272 OA
ATOM     15  N   UNK d   1       8.354   7.779  12.119  0.00  0.00    -0.286 N 
ATOM     16  C   UNK d   1       8.910   6.691  11.394  0.00  0.00     0.233 C 
ATOM     17  O   UNK d   1       8.340   5.647  10.974  0.00  0.00    -0.272 OA
ATOM     18  C   UNK d   1      10.350   6.462  14.184  0.00  0.00     0.267 A 
ATOM     19  O   UNK d   1       9.498   5.624  13.857  0.00  0.00    -0.270 OA
ATOM     20  N   UNK d   1      10.582   6.906  15.513  0.00  0.00    -0.323 N 
ATOM     21  H   UNK d   1      12.452   5.450  13.193  0.00  0.00     0.318 HD
ATOM     22  H   UNK d   1      10.072   6.590  16.382  0.00  0.00     0.169 HD
ENDROOT
BRANCH  10  23
ATOM     23  C   UNK d   1      11.968   5.269  10.359  0.00  0.00     0.075 C 
BRANCH  23  24
ATOM     24  C   UNK d   1      11.905   3.807  10.201  0.00  0.00    -0.056 A 
ATOM     25  C   UNK d   1      10.647   3.228  10.047  0.00  0.00     0.007 A 
ATOM     26  C   UNK d   1      10.555   1.871   9.876  0.00  0.00     0.001 A 
ATOM     27  C   UNK d   1      11.655   1.047   9.849  0.00  0.00     0.000 A 
ATOM     28  C   UNK d   1      12.881   1.656  10.004  0.00  0.00     0.001 A 
ATOM     29  C   UNK d   1      13.029   3.016  10.179  0.00  0.00     0.007 A 
ENDBRANCH  23  24
ENDBRANCH  10  23
BRANCH  15  30
ATOM     30  C   UNK d   1       6.928   8.024  12.322  0.00  0.00     0.161 C 
BRANCH  30  31
ATOM     31  C   UNK d   1       6.504   9.131  11.367  0.00  0.00     0.187 C 
BRANCH  31  32
ATOM     32  O   UNK d   1       5.724   8.625  10.339  0.00  0.00    -0.394 OA
ATOM     33  C   UNK d   1       4.507   8.212  10.845  0.00  0.00     0.201 C 
ENDBRANCH  31  32
ENDBRANCH  30  31
ENDBRANCH  15  30
TORSDOF 5
ENDMDL
