/Users/jonathanwahrer/Desktop/Msc/3_Semester/Drug_Design_Praktikum/waehrer_HTS_screening/HTS_experiment/out/docking_results/vina_output/2jam/2136_docked.pdbqt
 OpenBabel03162218563D

 33 37  0  0  1  0  0  0  0  0999 V2000
   11.6380    8.3430   18.2320 Cl  0  0  0  0  0  0  0  0  0  0  0  0
   12.1820    8.5540   16.5810 C   0  0  0  0  0  0  0  0  0  0  0  0
   11.6290    7.8660   15.5200 C   0  0  0  0  0  0  0  0  0  0  0  0
   12.0850    8.0570   14.2200 C   0  0  0  0  0  0  0  0  0  0  0  0
   13.1020    8.9570   14.0530 C   0  0  0  0  0  3  0  0  0  0  0  0
   13.6650    9.6520   15.0970 C   0  0  0  0  0  3  0  0  0  0  0  0
   13.2140    9.4610   16.3690 C   0  0  0  0  0  3  0  0  0  0  0  0
   11.3030    7.1900   13.3310 C   0  0  2  0  0  0  0  0  0  0  0  0
   12.1340    6.2580   12.5910 N   0  0  0  0  0  0  0  0  0  0  0  0
   11.2180    5.8020   11.5430 C   0  0  1  0  0  3  0  0  0  0  0  0
   10.3780    6.9650   11.1730 C   0  0  2  0  0  3  0  0  0  0  0  0
   10.6600    7.9870   12.2270 C   0  0  1  0  0  3  0  0  0  0  0  0
    9.3930    8.6070   12.6270 C   0  0  0  0  0  0  0  0  0  0  0  0
    9.3110    9.6700   13.2920 O   0  0  0  0  0  0  0  0  0  0  0  0
    8.3540    7.7790   12.1190 N   0  0  0  0  0  0  0  0  0  0  0  0
    8.9100    6.6910   11.3940 C   0  0  0  0  0  0  0  0  0  0  0  0
    8.3400    5.6470   10.9740 O   0  0  0  0  0  0  0  0  0  0  0  0
   10.3500    6.4620   14.1840 C   0  0  0  0  0  0  0  0  0  0  0  0
    9.4980    5.6240   13.8570 O   0  0  0  0  0  0  0  0  0  0  0  0
   10.5820    6.9060   15.5130 N   0  0  0  0  0  0  0  0  0  0  0  0
   12.4520    5.4500   13.1930 H   0  0  0  0  0  0  0  0  0  0  0  0
   10.0720    6.5900   16.3820 H   0  0  0  0  0  0  0  0  0  0  0  0
   11.9680    5.2690   10.3590 C   0  0  0  0  0  2  0  0  0  0  0  0
   11.9050    3.8070   10.2010 C   0  0  0  0  0  0  0  0  0  0  0  0
   10.6470    3.2280   10.0470 C   0  0  0  0  0  3  0  0  0  0  0  0
   10.5550    1.8710    9.8760 C   0  0  0  0  0  3  0  0  0  0  0  0
   11.6550    1.0470    9.8490 C   0  0  0  0  0  3  0  0  0  0  0  0
   12.8810    1.6560   10.0040 C   0  0  0  0  0  3  0  0  0  0  0  0
   13.0290    3.0160   10.1790 C   0  0  0  0  0  3  0  0  0  0  0  0
    6.9280    8.0240   12.3220 C   0  0  0  0  0  2  0  0  0  0  0  0
    6.5040    9.1310   11.3670 C   0  0  0  0  0  2  0  0  0  0  0  0
    5.7240    8.6250   10.3390 O   0  0  0  0  0  0  0  0  0  0  0  0
    4.5070    8.2120   10.8450 C   0  0  0  0  0  1  0  0  0  0  0  0
  2  1  1  0  0  0  0
  3  2  2  0  0  0  0
  4  3  1  0  0  0  0
  5  4  2  0  0  0  0
  5  6  1  0  0  0  0
  6  7  2  0  0  0  0
  7  2  1  0  0  0  0
  8 18  1  1  0  0  0
  8  4  1  0  0  0  0
  9 21  1  0  0  0  0
  9  8  1  0  0  0  0
 10 23  1  6  0  0  0
 10  9  1  0  0  0  0
 11 16  1  1  0  0  0
 11 10  1  0  0  0  0
 11 12  1  0  0  0  0
 12 13  1  1  0  0  0
 12  8  1  0  0  0  0
 13 14  2  0  0  0  0
 15 30  1  0  0  0  0
 15 13  1  0  0  0  0
 16 15  1  0  0  0  0
 17 16  2  0  0  0  0
 18 20  1  0  0  0  0
 19 18  2  0  0  0  0
 20  3  1  0  0  0  0
 20 22  1  0  0  0  0
 24 23  1  0  0  0  0
 25 24  2  0  0  0  0
 26 25  1  0  0  0  0
 27 26  2  0  0  0  0
 27 28  1  0  0  0  0
 28 29  2  0  0  0  0
 29 24  1  0  0  0  0
 31 30  1  0  0  0  0
 32 33  1  0  0  0  0
 32 31  1  0  0  0  0
M  END
>  <Pose>
1

>  <Score>
-8.155

$$$$
