MODEL 1
REMARK VINA RESULT:    -8.374      0.000      0.000
REMARK INTER + INTRA:         -10.308
REMARK INTER:                 -10.087
REMARK INTRA:                  -0.221
REMARK UNBOUND:                -0.221
REMARK  4 active torsions:
REMARK  status: ('A' for Active; 'I' for Inactive)
REMARK    1  A    between atoms: C_5  and  C_8 
REMARK    2  A    between atoms: C_8  and  N_9 
REMARK    3  A    between atoms: N_12  and  C_15 
REMARK    4  A    between atoms: C_17  and  N_24 
ROOT
ATOM      1  N   UNK d   1      12.556   4.165  11.042  0.00  0.00    -0.405 N 
ATOM      2  C   UNK d   1      11.951   4.668   9.874  0.00  0.00     0.137 C 
ATOM      3  C   UNK d   1      10.735   5.533  10.068  0.00  0.00     0.144 C 
ATOM      4  N   UNK d   1      10.826   6.061  11.454  0.00  0.00    -0.360 N 
ATOM      5  C   UNK d   1      12.140   6.407  11.847  0.00  0.00     0.144 C 
ATOM      6  C   UNK d   1      12.906   5.118  12.056  0.00  0.00     0.137 C 
ENDROOT
BRANCH   4   7
ATOM      7  C   UNK d   1       9.614   6.176  12.166  0.00  0.00     0.176 A 
ATOM      8  N   UNK d   1       8.431   6.021  11.497  0.00  0.00    -0.043 NA
ATOM      9  C   UNK d   1       7.226   6.139  12.040  0.00  0.00     0.724 A 
ATOM     10  N   UNK d   1       7.139   6.433  13.348  0.00  0.00    -0.041 NA
ATOM     11  C   UNK d   1       8.275   6.597  14.062  0.00  0.00     0.200 A 
ATOM     12  N   UNK d   1       8.494   6.877  15.360  0.00  0.00    -0.222 NA
ATOM     13  C   UNK d   1       9.546   6.474  13.497  0.00  0.00     0.129 A 
ATOM     14  C   UNK d   1       9.808   6.924  15.584  0.00  0.00     0.210 A 
ATOM     15  N   UNK d   1      10.476   6.675  14.444  0.00  0.00    -0.344 N 
ATOM     16  H   UNK d   1      11.515   6.647  14.370  0.00  0.00     0.167 HD
BRANCH   9  17
ATOM     17  N   UNK d   1       6.016   5.961  11.274  0.00  0.00    -0.231 N 
ATOM     18  H   UNK d   1       5.535   6.751  10.821  0.00  0.00     0.174 HD
ATOM     19  H   UNK d   1       5.609   5.011  11.168  0.00  0.00     0.174 HD
ENDBRANCH   9  17
ENDBRANCH   4   7
BRANCH   1  20
ATOM     20  C   UNK d   1      12.160   2.888  11.496  0.00  0.00     0.155 C 
BRANCH  20  21
ATOM     21  C   UNK d   1      11.905   1.882  10.467  0.00  0.00    -0.041 A 
ATOM     22  C   UNK d   1      10.622   1.547  10.116  0.00  0.00     0.010 A 
ATOM     23  C   UNK d   1      10.311   0.599   9.147  0.00  0.00     0.024 A 
ATOM     24  C   UNK d   1      11.367  -0.025   8.517  0.00  0.00     0.034 A 
ATOM     25 Cl   UNK d   1      11.054  -1.231   7.286  0.00  0.00    -0.084 Cl
ATOM     26  C   UNK d   1      12.655   0.309   8.868  0.00  0.00     0.024 A 
ATOM     27  C   UNK d   1      12.942   1.248   9.828  0.00  0.00     0.010 A 
ENDBRANCH  20  21
ENDBRANCH   1  20
TORSDOF 4
ENDMDL
