/Users/jonathanwahrer/Desktop/Msc/3_Semester/Drug_Design_Praktikum/waehrer_HTS_screening/HTS_experiment/out/docking_results/vina_output/2jam/2149_docked.pdbqt
 OpenBabel03162218563D

 24 27  0  0  0  0  0  0  0  0999 V2000
   11.9120    2.8800   10.8500 N   0  0  0  0  0  0  0  0  0  0  0  0
   11.7060    2.6190   12.1270 N   0  0  0  0  0  0  0  0  0  0  0  0
   11.0060    3.5790   12.7030 N   0  0  0  0  0  0  0  0  0  0  0  0
   10.7340    4.5110   11.7910 C   0  0  0  0  0  0  0  0  0  0  0  0
   11.3060    4.0720   10.6170 C   0  0  0  0  0  0  0  0  0  0  0  0
   11.1730    4.8430    9.5290 N   0  0  0  0  0  0  0  0  0  0  0  0
   10.5030    6.0070    9.5840 C   0  0  0  0  0  3  0  0  0  0  0  0
    9.9530    6.4160   10.7410 N   0  0  0  0  0  0  0  0  0  0  0  0
   10.0320    5.7060   11.8980 C   0  0  0  0  0  0  0  0  0  0  0  0
   12.6340    2.0850    9.8590 C   0  0  0  0  0  2  0  0  0  0  0  0
   11.6920    1.0690    9.3230 C   0  0  0  0  0  0  0  0  0  0  0  0
   12.1940    0.1210    8.4740 C   0  0  0  0  0  3  0  0  0  0  0  0
   11.3860   -0.8630    7.9290 C   0  0  0  0  0  3  0  0  0  0  0  0
   10.0510   -0.8870    8.2480 C   0  0  0  0  0  0  0  0  0  0  0  0
    9.0060   -2.1290    7.5670 Cl  0  0  0  0  0  0  0  0  0  0  0  0
    9.5550    0.0740    9.1050 C   0  0  0  0  0  3  0  0  0  0  0  0
   10.3560    1.0480    9.6440 C   0  0  0  0  0  3  0  0  0  0  0  0
    9.4590    6.1290   13.1100 N   0  0  0  0  0  0  0  0  0  0  0  0
   10.1450    6.7200   14.2280 C   0  0  0  0  0  2  0  0  0  0  0  0
    9.5660    8.0630   14.4750 C   0  0  0  0  0  2  0  0  0  0  0  0
    8.3130    8.3580   13.9190 N   0  0  0  0  0  0  0  0  0  0  0  0
    7.4550    7.3290   13.5110 C   0  0  0  0  0  2  0  0  0  0  0  0
    8.4820    9.3040   12.8310 C   0  0  0  0  0  1  0  0  0  0  0  0
    8.0390    5.9800   13.3150 C   0  0  0  0  0  2  0  0  0  0  0  0
  1  2  1  0  0  0  0
  2  3  2  0  0  0  0
  4  9  1  0  0  0  0
  4  3  1  0  0  0  0
  5  1  1  0  0  0  0
  5  4  2  0  0  0  0
  6  7  2  0  0  0  0
  6  5  1  0  0  0  0
  7  8  1  0  0  0  0
  8  9  2  0  0  0  0
  9 18  1  0  0  0  0
 10  1  1  0  0  0  0
 11 17  1  0  0  0  0
 11 10  1  0  0  0  0
 12 11  2  0  0  0  0
 13 14  2  0  0  0  0
 13 12  1  0  0  0  0
 14 16  1  0  0  0  0
 15 14  1  0  0  0  0
 16 17  2  0  0  0  0
 18 24  1  0  0  0  0
 18 19  1  0  0  0  0
 19 20  1  0  0  0  0
 21 20  1  0  0  0  0
 22 21  1  0  0  0  0
 23 21  1  0  0  0  0
 24 22  1  0  0  0  0
M  END
>  <Pose>
1

>  <Score>
-8.382

$$$$
