MODEL 1
REMARK VINA RESULT:    -8.574      0.000      0.000
REMARK INTER + INTRA:         -10.547
REMARK INTER:                 -10.077
REMARK INTRA:                  -0.470
REMARK UNBOUND:                -0.470
REMARK  3 active torsions:
REMARK  status: ('A' for Active; 'I' for Inactive)
REMARK    1  A    between atoms: C_4  and  N_8 
REMARK       I    between atoms: N_8  and  C_9 
REMARK    2  A    between atoms: C_9  and  C_11 
REMARK    3  A    between atoms: N_13  and  C_15 
ROOT
ATOM      1  C   UNK d   1      12.252   4.974  11.526  0.00  0.00     0.114 C 
ATOM      2  C   UNK d   1      11.098   4.879  12.490  0.00  0.00     0.140 C 
ATOM      3  N   UNK d   1      10.411   5.995  11.822  0.00  0.00    -0.362 N 
ATOM      4  C   UNK d   1      11.698   6.340  11.246  0.00  0.00     0.140 C 
ENDROOT
BRANCH   1   5
ATOM      5  C   UNK d   1      12.161   4.014  10.370  0.00  0.00     0.229 C 
ATOM      6  N   UNK d   1      12.420   2.652  10.592  0.00  0.00    -0.327 N 
ATOM      7  H   UNK d   1      12.678   2.330  11.595  0.00  0.00     0.169 HD
ATOM      8  O   UNK d   1      11.857   4.527   9.284  0.00  0.00    -0.273 OA
BRANCH   6   9
ATOM      9  C   UNK d   1      12.373   1.644   9.609  0.00  0.00     0.035 A 
ATOM     10  C   UNK d   1      11.203   0.885   9.465  0.00  0.00     0.048 A 
ATOM     11  C   UNK d   1      11.072  -0.117   8.532  0.00  0.00     0.013 A 
ATOM     12 Br   UNK d   1       9.463  -1.125   8.371  0.00  0.00    -0.051 Br
ATOM     13  C   UNK d   1      12.113  -0.405   7.700  0.00  0.00     0.019 A 
ATOM     14  C   UNK d   1      13.259   0.315   7.818  0.00  0.00     0.004 A 
ATOM     15  C   UNK d   1      13.400   1.336   8.762  0.00  0.00     0.029 A 
ENDBRANCH   6   9
ENDBRANCH   1   5
BRANCH   3  16
ATOM     16  C   UNK d   1       9.066   6.456  11.810  0.00  0.00     0.162 A 
ATOM     17  N   UNK d   1       8.054   5.717  11.285  0.00  0.00    -0.222 NA
ATOM     18  C   UNK d   1       6.771   6.182  11.286  0.00  0.00     0.237 A 
ATOM     19  N   UNK d   1       6.467   7.377  11.803  0.00  0.00    -0.220 NA
ATOM     20  C   UNK d   1       7.412   8.155  12.334  0.00  0.00     0.183 A 
ATOM     21  N   UNK d   1       7.365   9.375  12.905  0.00  0.00    -0.236 N 
ATOM     22  C   UNK d   1       8.709   7.683  12.332  0.00  0.00     0.173 A 
ATOM     23  N   UNK d   1       8.598   9.669  13.255  0.00  0.00    -0.064 NA
ATOM     24  C   UNK d   1       6.198  10.229  13.111  0.00  0.00     0.183 C 
ATOM     25  N   UNK d   1       9.429   8.673  12.925  0.00  0.00    -0.124 NA
ENDBRANCH   3  16
TORSDOF 3
ENDMDL
