MODEL 1
REMARK VINA RESULT:    -8.618      0.000      0.000
REMARK INTER + INTRA:         -11.576
REMARK INTER:                 -10.633
REMARK INTRA:                  -0.943
REMARK UNBOUND:                -0.943
REMARK  4 active torsions:
REMARK  status: ('A' for Active; 'I' for Inactive)
REMARK    1  A    between atoms: C_5  and  C_8 
REMARK    2  A    between atoms: C_8  and  C_10 
REMARK    3  A    between atoms: C_10  and  N_11 
REMARK    4  A    between atoms: C_26  and  N_27 
ROOT
ATOM      1  N   UNK d   1      11.841   6.270  11.959  0.00  0.00    -0.092 N 
ATOM      2  N   UNK d   1      10.915   6.987  12.558  0.00  0.00    -0.056 N 
ATOM      3  C   UNK d   1      11.438   7.803  13.484  0.00  0.00     0.767 A 
ATOM      4  N   UNK d   1      10.477   8.524  14.084  0.00  0.00    -0.040 NA
ATOM      5  C   UNK d   1       9.282   8.188  13.553  0.00  0.00     0.188 A 
ATOM      6  C   UNK d   1       9.574   7.216  12.590  0.00  0.00     0.190 A 
ATOM      7  C   UNK d   1       8.482   6.714  11.915  0.00  0.00     0.284 A 
ATOM      8  O   UNK d   1       8.697   5.828  11.034  0.00  0.00    -0.265 OA
ATOM      9  N   UNK d   1       7.203   7.116  12.144  0.00  0.00    -0.269 N 
ATOM     10  C   UNK d   1       7.007   8.054  13.083  0.00  0.00     0.332 A 
ATOM     11  O   UNK d   1       5.802   8.418  13.283  0.00  0.00    -0.246 OA
ATOM     12  N   UNK d   1       8.020   8.587  13.782  0.00  0.00    -0.285 N 
ATOM     13  C   UNK d   1       7.741   9.588  14.776  0.00  0.00     0.163 C 
ATOM     14  C   UNK d   1       6.113   6.541  11.390  0.00  0.00     0.164 C 
ATOM     15  N   UNK d   1      12.774   7.566  13.450  0.00  0.00     0.132 NA
ATOM     16  C   UNK d   1      13.033   6.632  12.525  0.00  0.00     0.736 A 
ENDROOT
BRANCH   1  17
ATOM     17  C   UNK d   1      11.724   5.276  10.916  0.00  0.00     0.253 C 
BRANCH  17  18
ATOM     18  C   UNK d   1      11.453   3.919  11.421  0.00  0.00     0.179 C 
ATOM     19  O   UNK d   1      11.090   3.695  12.597  0.00  0.00    -0.290 OA
BRANCH  18  20
ATOM     20  C   UNK d   1      11.619   2.801  10.501  0.00  0.00     0.011 A 
ATOM     21  C   UNK d   1      10.552   2.059  10.040  0.00  0.00     0.017 A 
ATOM     22  C   UNK d   1      10.715   1.002   9.167  0.00  0.00     0.025 A 
ATOM     23  C   UNK d   1      11.979   0.644   8.718  0.00  0.00     0.034 A 
ATOM     24 Cl   UNK d   1      12.213  -0.696   7.608  0.00  0.00    -0.084 Cl
ATOM     25  C   UNK d   1      13.060   1.374   9.168  0.00  0.00     0.025 A 
ATOM     26  C   UNK d   1      12.888   2.429  10.039  0.00  0.00     0.017 A 
ENDBRANCH  18  20
ENDBRANCH  17  18
ENDBRANCH   1  17
BRANCH  16  27
ATOM     27  N   UNK d   1      14.293   6.081  12.155  0.00  0.00    -0.210 N 
ATOM     28  C   UNK d   1      14.690   4.741  12.555  0.00  0.00     0.167 C 
ATOM     29  C   UNK d   1      16.158   4.782  12.903  0.00  0.00     0.188 C 
ATOM     30  O   UNK d   1      16.894   5.287  11.819  0.00  0.00    -0.388 OA
ATOM     31  C   UNK d   1      16.646   6.626  11.612  0.00  0.00     0.188 C 
ATOM     32  C   UNK d   1      15.199   6.865  11.359  0.00  0.00     0.167 C 
ENDBRANCH  16  27
TORSDOF 4
ENDMDL
