MODEL 1
REMARK VINA RESULT:    -9.919      0.000      0.000
REMARK INTER + INTRA:         -11.616
REMARK INTER:                 -11.079
REMARK INTRA:                  -0.537
REMARK UNBOUND:                -0.537
REMARK  2 active torsions:
REMARK  status: ('A' for Active; 'I' for Inactive)
REMARK    1  A    between atoms: C_10  and  N_11 
REMARK    2  A    between atoms: N_14  and  C_17 
ROOT
ATOM      1  N   UNK d   1      10.892   6.572  12.685  0.00  0.00    -0.384 N 
ATOM      2  C   UNK d   1      10.622   7.839  12.047  0.00  0.00     0.142 C 
ATOM      3  C   UNK d   1       9.326   7.717  11.289  0.00  0.00     0.144 C 
ATOM      4  N   UNK d   1       8.281   7.054  12.044  0.00  0.00    -0.362 N 
ATOM      5  C   UNK d   1       8.586   5.802  12.707  0.00  0.00     0.144 C 
ATOM      6  C   UNK d   1       9.855   5.981  13.499  0.00  0.00     0.142 C 
ENDROOT
BRANCH   1   7
ATOM      7  C   UNK d   1      12.169   5.983  12.479  0.00  0.00     0.134 C 
ATOM      8  C   UNK d   1      12.390   4.880  11.801  0.00  0.00     0.124 A 
ATOM      9  N   UNK d   1      11.347   4.136  11.180  0.00  0.00    -0.340 N 
ATOM     10  N   UNK d   1      13.716   4.391  11.667  0.00  0.00    -0.308 N 
ATOM     11  C   UNK d   1      11.550   2.942  10.439  0.00  0.00     0.049 A 
ATOM     12  H   UNK d   1      10.380   4.509  11.286  0.00  0.00     0.167 HD
ATOM     13  C   UNK d   1      12.836   2.459  10.305  0.00  0.00     0.060 A 
ATOM     14  C   UNK d   1      10.543   2.219   9.837  0.00  0.00     0.032 A 
ATOM     15  C   UNK d   1      13.093   1.308   9.600  0.00  0.00     0.043 A 
ATOM     16  C   UNK d   1      13.940   3.209  10.937  0.00  0.00     0.259 A 
ATOM     17  C   UNK d   1      12.074   0.598   9.004  0.00  0.00     0.035 A 
ATOM     18 Cl   UNK d   1      12.449  -0.876   8.106  0.00  0.00    -0.084 Cl
ATOM     19  C   UNK d   1      10.785   1.064   9.127  0.00  0.00     0.026 A 
ATOM     20  O   UNK d   1      15.101   2.711  10.776  0.00  0.00    -0.267 OA
ATOM     21  H   UNK d   1      14.534   4.881  12.094  0.00  0.00     0.170 HD
ENDBRANCH   1   7
BRANCH   4  22
ATOM     22  C   UNK d   1       6.978   7.636  12.121  0.00  0.00     0.142 A 
ATOM     23  N   UNK d   1       6.185   7.602  11.032  0.00  0.00    -0.224 NA
ATOM     24  C   UNK d   1       4.936   8.146  11.062  0.00  0.00     0.237 A 
ATOM     25  N   UNK d   1       4.466   8.732  12.184  0.00  0.00    -0.222 NA
ATOM     26  C   UNK d   1       5.205   8.797  13.297  0.00  0.00     0.162 A 
ATOM     27  N   UNK d   1       4.990   9.309  14.522  0.00  0.00    -0.256 N 
ATOM     28  C   UNK d   1       6.482   8.235  13.249  0.00  0.00     0.076 A 
ATOM     29  N   UNK d   1       6.079   9.090  15.238  0.00  0.00    -0.182 NA
ATOM     30  C   UNK d   1       3.785   9.990  15.005  0.00  0.00     0.182 C 
ATOM     31  C   UNK d   1       7.008   8.434  14.487  0.00  0.00     0.158 A 
ENDBRANCH   4  22
TORSDOF 2
ENDMDL
