MODEL 1
REMARK VINA RESULT:    -9.667      0.000      0.000
REMARK INTER + INTRA:         -12.589
REMARK INTER:                 -11.928
REMARK INTRA:                  -0.661
REMARK UNBOUND:                -0.661
REMARK  4 active torsions:
REMARK  status: ('A' for Active; 'I' for Inactive)
REMARK    1  A    between atoms: C_13  and  C_14 
REMARK    2  A    between atoms: C_14  and  N_15 
REMARK    3  A    between atoms: N_18  and  C_21 
REMARK    4  A    between atoms: C_24  and  O_27 
ROOT
ATOM      1  N   UNK d   1      12.363   4.593  11.420  0.00  0.00    -0.064 N 
ATOM      2  C   UNK d   1      11.732   5.294  12.429  0.00  0.00     0.255 C 
ATOM      3  C   UNK d   1      11.388   6.749  11.956  0.00  0.00     0.150 C 
ATOM      4  N   UNK d   1      10.257   6.389  10.974  0.00  0.00    -0.378 N 
ATOM      5  C   UNK d   1      10.736   5.723   9.863  0.00  0.00     0.150 C 
ATOM      6  C   UNK d   1      12.212   5.381  10.162  0.00  0.00     0.255 C 
ATOM      7  H   UNK d   1      13.418   4.675  11.586  0.00  0.00     0.280 HD
ENDROOT
BRANCH   1   8
ATOM      8  C   UNK d   1      12.135   3.254  11.092  0.00  0.00     0.274 C 
BRANCH   8   9
ATOM      9  C   UNK d   1      13.093   2.456  10.310  0.00  0.00    -0.014 A 
ATOM     10  C   UNK d   1      12.458   1.439   9.529  0.00  0.00     0.008 A 
ATOM     11  C   UNK d   1      11.130   1.228   9.659  0.00  0.00     0.041 A 
ATOM     12  C   UNK d   1      13.215   0.677   8.682  0.00  0.00     0.093 A 
ATOM     13  C   UNK d   1      10.496   0.246   8.946  0.00  0.00     0.071 A 
ATOM     14 Cl   UNK d   1       8.778  -0.131   9.109  0.00  0.00    -0.081 Cl
ATOM     15  C   UNK d   1      11.219  -0.559   8.059  0.00  0.00     0.131 A 
ATOM     16  C   UNK d   1      12.563  -0.338   7.941  0.00  0.00     0.080 A 
ATOM     17  O   UNK d   1      10.595  -1.564   7.287  0.00  0.00    -0.190 OA
ATOM     18  O   UNK d   1      14.501   0.833   8.550  0.00  0.00    -0.275 OA
ATOM     19  C   UNK d   1      15.135   1.764   9.254  0.00  0.00     0.288 A 
ATOM     20  O   UNK d   1      16.357   1.895   9.113  0.00  0.00    -0.260 OA
ATOM     21  C   UNK d   1      14.428   2.591  10.152  0.00  0.00     0.092 A 
ENDBRANCH   8   9
ENDBRANCH   1   8
BRANCH   4  22
ATOM     22  C   UNK d   1       8.983   6.755  11.461  0.00  0.00     0.030 A 
ATOM     23  C   UNK d   1       7.969   5.919  11.771  0.00  0.00     0.032 A 
ATOM     24  C   UNK d   1       6.820   6.366  12.487  0.00  0.00     0.039 A 
ATOM     25  C   UNK d   1       6.691   7.667  12.894  0.00  0.00     0.068 A 
ATOM     26  C   UNK d   1       7.727   8.538  12.571  0.00  0.00     0.039 A 
ATOM     27  C   UNK d   1       8.839   8.094  11.871  0.00  0.00     0.032 A 
BRANCH  25  28
ATOM     28  O   UNK d   1       5.551   8.055  13.587  0.00  0.00    -0.356 OA
ATOM     29  C   UNK d   1       4.552   8.877  12.963  0.00  0.00     0.210 C 
ENDBRANCH  25  28
ENDBRANCH   4  22
TORSDOF 4
ENDMDL
