/Users/jonathanwahrer/Desktop/Msc/3_Semester/Drug_Design_Praktikum/waehrer_HTS_screening/HTS_experiment/out/docking_results/vina_output/2jam/2195_docked.pdbqt
 OpenBabel03162218573D

 29 32  0  0  1  0  0  0  0  0999 V2000
   13.1140    5.8510   12.0440 C   0  0  0  0  0  0  0  0  0  0  0  0
   13.0300    4.6050   11.5830 N   0  0  0  0  0  0  0  0  0  0  0  0
   12.0250    4.2100   10.7830 C   0  0  0  0  0  0  0  0  0  0  0  0
   11.7050    3.0290   10.1860 N   0  0  0  0  0  0  0  0  0  0  0  0
   10.5940    3.2420    9.5130 N   0  0  0  0  0  0  0  0  0  0  0  0
   10.1820    4.4890    9.6430 N   0  0  0  0  0  0  0  0  0  0  0  0
   11.0490    5.1330   10.4320 C   0  0  0  0  0  0  0  0  0  0  0  0
   11.1240    6.4320   10.9030 C   0  0  0  0  0  0  0  0  0  0  0  0
   12.1650    6.7240   11.6950 N   0  0  0  0  0  0  0  0  0  0  0  0
   14.2160    6.3250   12.9250 C   0  0  1  0  0  3  0  0  0  0  0  0
   15.4420    5.5270   12.8750 C   0  0  0  0  0  2  0  0  0  0  0  0
   16.5920    6.0130   12.2570 N   0  0  0  0  0  0  0  0  0  0  0  0
   16.5630    7.1500   11.4620 C   0  0  0  0  0  2  0  0  0  0  0  0
   15.2370    7.8400   11.3210 C   0  0  0  0  0  2  0  0  0  0  0  0
   14.4940    7.7720   12.6070 C   0  0  0  0  0  2  0  0  0  0  0  0
   17.7590    4.8350   11.9070 S   0  0  0  0  0  0  0  0  0  0  0  0
   18.6100    4.4810   13.0770 O   0  0  0  0  0  0  0  0  0  0  0  0
   18.6130    5.3440   10.7630 O   0  0  0  0  0  0  0  0  0  0  0  0
   16.9900    3.3300   11.2890 C   0  0  0  0  0  1  0  0  0  0  0  0
   10.1590    7.3690   10.5630 O   0  0  0  0  0  0  0  0  0  0  0  0
   10.1310    8.2610   11.0330 H   0  0  0  0  0  0  0  0  0  0  0  0
   12.4390    1.8060   10.2790 C   0  0  0  0  0  2  0  0  0  0  0  0
   11.9650    0.7550    9.3460 C   0  0  0  0  0  0  0  0  0  0  0  0
   12.7330    0.4580    8.2490 C   0  0  0  0  0  0  0  0  0  0  0  0
   12.3610   -0.5140    7.3230 C   0  0  0  0  0  3  0  0  0  0  0  0
   14.2380    1.3100    7.9700 Cl  0  0  0  0  0  0  0  0  0  0  0  0
   11.1860   -1.2140    7.4950 C   0  0  0  0  0  3  0  0  0  0  0  0
   10.4100   -0.9220    8.5950 C   0  0  0  0  0  3  0  0  0  0  0  0
   10.7920    0.0530    9.5140 C   0  0  0  0  0  3  0  0  0  0  0  0
  2  1  2  0  0  0  0
  3  2  1  0  0  0  0
  4 22  1  0  0  0  0
  4  3  1  0  0  0  0
  5  6  2  0  0  0  0
  5  4  1  0  0  0  0
  6  7  1  0  0  0  0
  7  3  2  0  0  0  0
  7  8  1  0  0  0  0
  8  9  2  0  0  0  0
  9  1  1  0  0  0  0
 10  1  1  6  0  0  0
 11 10  1  0  0  0  0
 12 11  1  0  0  0  0
 13 12  1  0  0  0  0
 14 13  1  0  0  0  0
 14 15  1  0  0  0  0
 15 10  1  0  0  0  0
 16 12  1  0  0  0  0
 16 17  2  0  0  0  0
 18 16  2  0  0  0  0
 19 16  1  0  0  0  0
 20  8  1  0  0  0  0
 20 21  1  0  0  0  0
 23 29  1  0  0  0  0
 23 22  1  0  0  0  0
 24 23  2  0  0  0  0
 25 27  2  0  0  0  0
 25 24  1  0  0  0  0
 26 24  1  0  0  0  0
 27 28  1  0  0  0  0
 28 29  2  0  0  0  0
M  END
>  <Pose>
1

>  <Score>
-8.981

$$$$
