MODEL 1
REMARK VINA RESULT:    -8.981      0.000      0.000
REMARK INTER + INTRA:         -11.918
REMARK INTER:                 -11.344
REMARK INTRA:                  -0.574
REMARK UNBOUND:                -0.574
REMARK  5 active torsions:
REMARK  status: ('A' for Active; 'I' for Inactive)
REMARK    1  A    between atoms: S_1  and  N_4 
REMARK    2  A    between atoms: C_6  and  C_10 
REMARK    3  A    between atoms: N_13  and  C_20 
REMARK    4  A    between atoms: C_17  and  O_19 
REMARK    5  A    between atoms: C_20  and  C_21 
ROOT
ATOM      1  C   UNK d   1      13.114   5.851  12.044  0.00  0.00     0.137 A 
ATOM      2  N   UNK d   1      13.030   4.605  11.583  0.00  0.00    -0.211 NA
ATOM      3  C   UNK d   1      12.025   4.210  10.783  0.00  0.00     0.184 A 
ATOM      4  N   UNK d   1      11.705   3.029  10.186  0.00  0.00    -0.227 N 
ATOM      5  N   UNK d   1      10.594   3.242   9.513  0.00  0.00    -0.063 NA
ATOM      6  N   UNK d   1      10.182   4.489   9.643  0.00  0.00    -0.124 NA
ATOM      7  C   UNK d   1      11.049   5.133  10.432  0.00  0.00     0.180 A 
ATOM      8  C   UNK d   1      11.124   6.432  10.903  0.00  0.00     0.199 A 
ATOM      9  N   UNK d   1      12.165   6.724  11.695  0.00  0.00    -0.207 NA
ENDROOT
BRANCH   1  10
ATOM     10  C   UNK d   1      14.216   6.325  12.925  0.00  0.00     0.076 C 
ATOM     11  C   UNK d   1      15.442   5.527  12.875  0.00  0.00     0.147 C 
ATOM     12  N   UNK d   1      16.592   6.013  12.257  0.00  0.00    -0.310 N 
ATOM     13  C   UNK d   1      16.563   7.150  11.462  0.00  0.00     0.135 C 
ATOM     14  C   UNK d   1      15.237   7.840  11.321  0.00  0.00     0.021 C 
ATOM     15  C   UNK d   1      14.494   7.772  12.607  0.00  0.00     0.015 C 
BRANCH  12  16
ATOM     16  S   UNK d   1      17.759   4.835  11.907  0.00  0.00     0.224 S 
ATOM     17  O   UNK d   1      18.610   4.481  13.077  0.00  0.00    -0.206 OA
ATOM     18  O   UNK d   1      18.613   5.344  10.763  0.00  0.00    -0.206 OA
ATOM     19  C   UNK d   1      16.990   3.330  11.289  0.00  0.00     0.186 C 
ENDBRANCH  12  16
ENDBRANCH   1  10
BRANCH   8  20
ATOM     20  O   UNK d   1      10.159   7.369  10.563  0.00  0.00    -0.343 OA
ATOM     21  H   UNK d   1      10.131   8.261  11.033  0.00  0.00     0.219 HD
ENDBRANCH   8  20
BRANCH   4  22
ATOM     22  C   UNK d   1      12.439   1.806  10.279  0.00  0.00     0.195 C 
BRANCH  22  23
ATOM     23  C   UNK d   1      11.965   0.755   9.346  0.00  0.00    -0.017 A 
ATOM     24  C   UNK d   1      12.733   0.458   8.249  0.00  0.00     0.042 A 
ATOM     25  C   UNK d   1      12.361  -0.514   7.323  0.00  0.00     0.024 A 
ATOM     26 Cl   UNK d   1      14.238   1.310   7.970  0.00  0.00    -0.084 Cl
ATOM     27  C   UNK d   1      11.186  -1.214   7.495  0.00  0.00     0.002 A 
ATOM     28  C   UNK d   1      10.410  -0.922   8.595  0.00  0.00     0.001 A 
ATOM     29  C   UNK d   1      10.792   0.053   9.514  0.00  0.00     0.010 A 
ENDBRANCH  22  23
ENDBRANCH   4  22
TORSDOF 5
ENDMDL
