/Users/jonathanwahrer/Desktop/Msc/3_Semester/Drug_Design_Praktikum/waehrer_HTS_screening/HTS_experiment/out/docking_results/vina_output/2jam/2197_docked.pdbqt
 OpenBabel03162218583D

 28 31  0  0  1  0  0  0  0  0999 V2000
   12.1530    2.9890   11.6300 N   0  0  0  0  0  0  0  0  0  0  0  0
   11.5870    4.0440   12.4960 C   0  0  0  0  0  2  0  0  0  0  0  0
   11.9720    5.3500   11.9060 C   0  0  2  0  0  3  0  0  0  0  0  0
   13.2510    5.5450   11.5370 O   0  0  0  0  0  0  0  0  0  0  0  0
   14.0780    4.5000   11.3800 C   0  0  0  0  0  2  0  0  0  0  0  0
   13.5560    3.1520   11.7390 C   0  0  0  0  0  2  0  0  0  0  0  0
   11.5830    6.4040   12.8890 C   0  0  0  0  0  0  0  0  0  0  0  0
   12.5150    7.0620   13.4240 O   0  0  0  0  0  0  0  0  0  0  0  0
   10.2600    6.7120   13.2560 N   0  0  0  0  0  0  0  0  0  0  0  0
    9.0880    6.0410   12.7260 C   0  0  0  0  0  2  0  0  0  0  0  0
    9.9580    7.7690   14.2330 C   0  0  0  0  0  2  0  0  0  0  0  0
    7.8850    6.5870   13.4690 C   0  0  0  0  0  2  0  0  0  0  0  0
    7.7110    8.0150   13.2790 N   0  0  0  0  0  0  0  0  0  0  0  0
    8.9520    8.6810   13.5190 C   0  0  0  0  0  2  0  0  0  0  0  0
    7.1430    8.2310   11.9880 C   0  0  0  0  0  2  0  0  0  0  0  0
    5.7170    7.7680   11.8660 C   0  0  0  0  0  3  0  0  0  0  0  0
    4.9990    8.3500   10.6480 C   0  0  0  0  0  2  0  0  0  0  0  0
    4.5760    8.6680   12.0480 C   0  0  0  0  0  2  0  0  0  0  0  0
   11.4370    2.9880   10.1060 S   0  0  0  0  0  0  0  0  0  0  0  0
   10.0260    3.5700   10.2640 O   0  0  0  0  0  0  0  0  0  0  0  0
   12.1070    3.9190    9.1240 O   0  0  0  0  0  0  0  0  0  0  0  0
   11.2140    1.4040    9.4350 C   0  0  0  0  0  0  0  0  0  0  0  0
   12.2300    0.7410    8.7830 C   0  0  0  0  0  0  0  0  0  0  0  0
   12.0450   -0.4960    8.1950 C   0  0  0  0  0  3  0  0  0  0  0  0
   13.8700    1.4170    8.7390 Cl  0  0  0  0  0  0  0  0  0  0  0  0
   10.8130   -1.0980    8.2590 C   0  0  0  0  0  3  0  0  0  0  0  0
    9.7790   -0.4460    8.9140 C   0  0  0  0  0  3  0  0  0  0  0  0
    9.9680    0.7780    9.4920 C   0  0  0  0  0  3  0  0  0  0  0  0
  1  6  1  0  0  0  0
  1  2  1  0  0  0  0
  3  2  1  0  0  0  0
  3  7  1  1  0  0  0
  4  3  1  0  0  0  0
  5  4  1  0  0  0  0
  5  6  1  0  0  0  0
  7  9  1  0  0  0  0
  7  8  2  0  0  0  0
  9 11  1  0  0  0  0
 10  9  1  0  0  0  0
 10 12  1  0  0  0  0
 13 12  1  0  0  0  0
 13 14  1  0  0  0  0
 14 11  1  0  0  0  0
 15 13  1  0  0  0  0
 16 15  1  0  0  0  0
 16 18  1  0  0  0  0
 17 16  1  0  0  0  0
 17 18  1  0  0  0  0
 19 20  2  0  0  0  0
 19  1  1  0  0  0  0
 21 19  2  0  0  0  0
 22 28  1  0  0  0  0
 22 19  1  0  0  0  0
 23 22  2  0  0  0  0
 24 26  2  0  0  0  0
 24 23  1  0  0  0  0
 25 23  1  0  0  0  0
 26 27  1  0  0  0  0
 27 28  2  0  0  0  0
M  END
>  <Pose>
1

>  <Score>
-8.283

$$$$
