MODEL 1
REMARK VINA RESULT:    -8.238      0.000      0.000
REMARK INTER + INTRA:         -11.964
REMARK INTER:                 -11.368
REMARK INTRA:                  -0.596
REMARK UNBOUND:                -0.596
REMARK  7 active torsions:
REMARK  status: ('A' for Active; 'I' for Inactive)
REMARK    1  A    between atoms: C_4  and  C_10 
REMARK    2  A    between atoms: C_5  and  O_8 
REMARK    3  A    between atoms: C_18  and  C_19 
REMARK    4  A    between atoms: C_19  and  N_20 
REMARK    5  A    between atoms: N_23  and  C_26 
REMARK    6  A    between atoms: C_26  and  C_27 
REMARK    7  A    between atoms: C_27  and  O_28 
ROOT
ATOM      1  C   UNK d   1      16.937   2.824  10.287  0.00  0.00     0.055 C 
ATOM      2  C   UNK d   1      15.678   2.397  10.131  0.00  0.00     0.128 A 
ATOM      3  O   UNK d   1      14.584   2.941  10.795  0.00  0.00    -0.305 OA
ATOM      4  C   UNK d   1      13.425   2.275  10.372  0.00  0.00     0.101 A 
ATOM      5  C   UNK d   1      13.689   1.303   9.457  0.00  0.00     0.051 A 
ATOM      6  C   UNK d   1      12.691   0.543   8.893  0.00  0.00     0.021 A 
ATOM      7  C   UNK d   1      11.367   0.761   9.257  0.00  0.00     0.041 A 
ATOM      8  C   UNK d   1      11.103   1.757  10.198  0.00  0.00     0.118 A 
ATOM      9  C   UNK d   1      12.092   2.503  10.754  0.00  0.00     0.039 A 
ATOM     10  O   UNK d   1       9.753   1.912  10.510  0.00  0.00    -0.191 OA
ATOM     11  C   UNK d   1      15.170   1.347   9.274  0.00  0.00     0.218 A 
ATOM     12  O   UNK d   1      15.843   0.620   8.532  0.00  0.00    -0.284 OA
ENDROOT
BRANCH   9  13
ATOM     13  C   UNK d   1      11.909   3.435  11.887  0.00  0.00     0.279 C 
BRANCH  13  14
ATOM     14  N   UNK d   1      11.889   4.772  11.518  0.00  0.00    -0.064 N 
ATOM     15  C   UNK d   1      11.682   4.947  10.046  0.00  0.00     0.254 C 
ATOM     16  C   UNK d   1      10.556   6.006   9.950  0.00  0.00     0.144 C 
ATOM     17  N   UNK d   1      10.412   6.657  11.214  0.00  0.00    -0.407 N 
ATOM     18  C   UNK d   1      11.609   7.098  11.813  0.00  0.00     0.144 C 
ATOM     19  C   UNK d   1      12.603   5.867  11.981  0.00  0.00     0.254 C 
ATOM     20  H   UNK d   1      10.809   4.996  11.831  0.00  0.00     0.280 HD
BRANCH  17  21
ATOM     21  C   UNK d   1       9.155   6.797  11.760  0.00  0.00     0.143 C 
BRANCH  21  22
ATOM     22  C   UNK d   1       8.191   5.654  11.747  0.00  0.00     0.183 C 
BRANCH  22  23
ATOM     23  O   UNK d   1       7.102   5.924  10.902  0.00  0.00    -0.399 OA
ATOM     24  H   UNK d   1       6.608   5.057  10.723  0.00  0.00     0.209 HD
ENDBRANCH  22  23
ENDBRANCH  21  22
ENDBRANCH  17  21
ENDBRANCH  13  14
ENDBRANCH   9  13
BRANCH   1  25
ATOM     25  C   UNK d   1      17.102   3.950  11.223  0.00  0.00     0.001 A 
ATOM     26  C   UNK d   1      16.447   5.106  10.990  0.00  0.00     0.033 A 
ATOM     27  C   UNK d   1      16.687   6.200  11.838  0.00  0.00     0.011 A 
ATOM     28 Br   UNK d   1      15.777   7.846  11.535  0.00  0.00    -0.051 Br
ATOM     29  C   UNK d   1      17.568   6.122  12.889  0.00  0.00     0.022 A 
ATOM     30  C   UNK d   1      18.224   4.925  13.094  0.00  0.00     0.039 A 
ATOM     31  C   UNK d   1      17.997   3.819  12.262  0.00  0.00     0.078 A 
BRANCH  31  32
ATOM     32  O   UNK d   1      18.656   2.616  12.466  0.00  0.00    -0.355 OA
ATOM     33  C   UNK d   1      19.929   2.451  12.985  0.00  0.00     0.210 C 
ENDBRANCH  31  32
ENDBRANCH   1  25
TORSDOF 7
ENDMDL
