MODEL 1
REMARK VINA RESULT:    -7.583      0.000      0.000
REMARK INTER + INTRA:          -7.889
REMARK INTER:                  -8.026
REMARK INTRA:                   0.137
REMARK UNBOUND:                 0.137
REMARK  1 active torsions:
REMARK  status: ('A' for Active; 'I' for Inactive)
REMARK    1  A    between atoms: C_9  and  C_21 
ROOT
ATOM      1 Cl   UNK d   1       5.591   7.422  11.096  0.00  0.00    -0.081 Cl
ATOM      2  C   UNK d   1       5.516   8.450  12.510  0.00  0.00     0.070 A 
ATOM      3  C   UNK d   1       6.724   8.858  13.095  0.00  0.00     0.107 A 
ATOM      4  C   UNK d   1       6.699   9.662  14.204  0.00  0.00    -0.007 A 
ATOM      5  C   UNK d   1       5.443  10.036  14.695  0.00  0.00     0.035 A 
ATOM      6  C   UNK d   1       4.264   9.629  14.112  0.00  0.00     0.036 A 
ATOM      7  C   UNK d   1       4.284   8.817  12.993  0.00  0.00     0.050 A 
ATOM      8 Cl   UNK d   1       2.696  10.112  14.748  0.00  0.00    -0.084 Cl
ATOM      9  C   UNK d   1       7.915  10.137  14.882  0.00  0.00     0.107 A 
ATOM     10  C   UNK d   1       9.126   9.635  14.211  0.00  0.00     0.075 A 
ATOM     11  C   UNK d   1       9.129   8.837  13.111  0.00  0.00     0.167 A 
ATOM     12  N   UNK d   1      10.282   8.398  12.527  0.00  0.00    -0.283 N 
ATOM     13  C   UNK d   1      11.433   8.780  13.075  0.00  0.00     0.332 A 
ATOM     14  O   UNK d   1      12.533   8.397  12.566  0.00  0.00    -0.246 OA
ATOM     15  N   UNK d   1      11.477   9.571  14.166  0.00  0.00    -0.270 N 
ATOM     16  C   UNK d   1      10.353  10.008  14.746  0.00  0.00     0.262 A 
ATOM     17  O   UNK d   1      10.393  10.746  15.763  0.00  0.00    -0.267 OA
ATOM     18  C   UNK d   1      12.768   9.956  14.717  0.00  0.00     0.164 C 
ATOM     19  C   UNK d   1      10.249   7.548  11.356  0.00  0.00     0.163 C 
ATOM     20  O   UNK d   1       7.935   8.455  12.562  0.00  0.00    -0.290 OA
ENDROOT
BRANCH   9  21
ATOM     21  C   UNK d   1       7.905   9.779  16.339  0.00  0.00     0.078 A 
ATOM     22  C   UNK d   1       8.036   8.481  16.770  0.00  0.00     0.197 A 
ATOM     23  N   UNK d   1       8.020   8.128  18.064  0.00  0.00    -0.281 N 
ATOM     24  O   UNK d   1       8.194   7.486  15.826  0.00  0.00    -0.171 OA
ATOM     25  C   UNK d   1       7.866   9.099  18.985  0.00  0.00     0.332 A 
ATOM     26  C   UNK d   1       8.165   6.748  18.487  0.00  0.00     0.163 C 
ATOM     27  O   UNK d   1       7.851   8.755  20.203  0.00  0.00    -0.246 OA
ATOM     28  N   UNK d   1       7.733  10.383  18.608  0.00  0.00    -0.270 N 
ATOM     29  C   UNK d   1       7.748  10.756  17.321  0.00  0.00     0.262 A 
ATOM     30  C   UNK d   1       7.568  11.388  19.633  0.00  0.00     0.164 C 
ATOM     31  O   UNK d   1       7.627  11.945  16.940  0.00  0.00    -0.267 OA
ENDBRANCH   9  21
TORSDOF 1
ENDMDL
