MODEL 1
REMARK VINA RESULT:    -8.923      0.000      0.000
REMARK INTER + INTRA:         -11.868
REMARK INTER:                 -11.010
REMARK INTRA:                  -0.858
REMARK UNBOUND:                -0.858
REMARK  4 active torsions:
REMARK  status: ('A' for Active; 'I' for Inactive)
REMARK    1  A    between atoms: C_13  and  C_27 
REMARK    2  A    between atoms: N_18  and  C_21 
REMARK    3  A    between atoms: C_21  and  C_22 
REMARK    4  A    between atoms: C_27  and  C_28 
REMARK       I    between atoms: C_28  and  N_30 
ROOT
ATOM      1 Cl   UNK d   1      14.861   1.055   7.618  0.00  0.00    -0.084 Cl
ATOM      2  C   UNK d   1      13.622   1.515   8.766  0.00  0.00     0.034 A 
ATOM      3  C   UNK d   1      13.623   2.730   9.395  0.00  0.00     0.036 A 
ATOM      4  C   UNK d   1      12.614   3.056  10.305  0.00  0.00     0.019 A 
ATOM      5  C   UNK d   1      11.641   2.131  10.540  0.00  0.00     0.044 A 
ATOM      6  C   UNK d   1      11.637   0.883   9.896  0.00  0.00     0.032 A 
ATOM      7  C   UNK d   1      12.624   0.564   9.006  0.00  0.00     0.026 A 
ATOM      8  N   UNK d   1      10.725   2.664  11.492  0.00  0.00    -0.324 N 
ATOM      9  C   UNK d   1      11.134   3.958  11.864  0.00  0.00     0.267 A 
ATOM     10  O   UNK d   1      10.515   4.686  12.703  0.00  0.00    -0.270 OA
ATOM     11  C   UNK d   1      12.358   4.260  11.114  0.00  0.00     0.279 A 
ATOM     12  N   UNK d   1      13.506   4.433  11.976  0.00  0.00     0.114 N 
ATOM     13  C   UNK d   1      13.989   5.775  11.883  0.00  0.00     0.245 C 
ATOM     14  C   UNK d   1      12.970   6.511  11.108  0.00  0.00     0.128 C 
ATOM     15  C   UNK d   1      12.232   5.504  10.269  0.00  0.00     0.147 C 
ATOM     16  C   UNK d   1      10.856   6.047  10.250  0.00  0.00     0.235 C 
ATOM     17  O   UNK d   1       9.926   5.790   9.445  0.00  0.00    -0.272 OA
ATOM     18  N   UNK d   1      10.682   6.974  11.343  0.00  0.00    -0.285 N 
ATOM     19  C   UNK d   1      11.910   6.992  12.062  0.00  0.00     0.233 C 
ATOM     20  O   UNK d   1      12.038   7.349  13.256  0.00  0.00    -0.272 OA
ATOM     21  H   UNK d   1       9.859   2.179  11.876  0.00  0.00     0.169 HD
ATOM     22  H   UNK d   1      14.296   3.793  11.737  0.00  0.00     0.318 HD
ENDROOT
BRANCH  13  23
ATOM     23  C   UNK d   1      15.383   5.857  11.320  0.00  0.00     0.139 C 
BRANCH  23  24
ATOM     24  C   UNK d   1      16.230   4.717  11.615  0.00  0.00     0.217 C 
ATOM     25  O   UNK d   1      16.408   4.355  12.797  0.00  0.00    -0.274 OA
ATOM     26  N   UNK d   1      16.869   3.998  10.581  0.00  0.00    -0.370 N 
ATOM     27  H   UNK d   1      16.755   2.958  10.533  0.00  0.00     0.159 HD
ATOM     28  H   UNK d   1      17.458   4.430   9.845  0.00  0.00     0.159 HD
ENDBRANCH  23  24
ENDBRANCH  13  23
BRANCH  18  29
ATOM     29  C   UNK d   1       9.480   7.727  11.632  0.00  0.00     0.166 C 
BRANCH  29  30
ATOM     30  C   UNK d   1       8.542   7.010  12.564  0.00  0.00     0.140 C 
ATOM     31  O   UNK d   1       7.974   7.924  13.448  0.00  0.00    -0.384 OA
ATOM     32  C   UNK d   1       6.799   8.362  12.881  0.00  0.00     0.168 C 
ATOM     33  C   UNK d   1       6.272   7.264  11.983  0.00  0.00     0.029 C 
ATOM     34  C   UNK d   1       7.429   6.289  11.889  0.00  0.00     0.035 C 
ENDBRANCH  29  30
ENDBRANCH  18  29
TORSDOF 4
ENDMDL
