/Users/jonathanwahrer/Desktop/Msc/3_Semester/Drug_Design_Praktikum/waehrer_HTS_screening/HTS_experiment/out/docking_results/vina_output/2jam/2214_docked.pdbqt
 OpenBabel03162218583D

 34 38  0  0  1  0  0  0  0  0999 V2000
   14.8610    1.0550    7.6180 Cl  0  0  0  0  0  0  0  0  0  0  0  0
   13.6220    1.5150    8.7660 C   0  0  0  0  0  0  0  0  0  0  0  0
   13.6230    2.7300    9.3950 C   0  0  0  0  0  3  0  0  0  0  0  0
   12.6140    3.0560   10.3050 C   0  0  0  0  0  0  0  0  0  0  0  0
   11.6410    2.1310   10.5400 C   0  0  0  0  0  0  0  0  0  0  0  0
   11.6370    0.8830    9.8960 C   0  0  0  0  0  3  0  0  0  0  0  0
   12.6240    0.5640    9.0060 C   0  0  0  0  0  3  0  0  0  0  0  0
   10.7250    2.6640   11.4920 N   0  0  0  0  0  0  0  0  0  0  0  0
   11.1340    3.9580   11.8640 C   0  0  0  0  0  0  0  0  0  0  0  0
   10.5150    4.6860   12.7030 O   0  0  0  0  0  0  0  0  0  0  0  0
   12.3580    4.2600   11.1140 C   0  0  1  0  0  0  0  0  0  0  0  0
   13.5060    4.4330   11.9760 N   0  0  0  0  0  0  0  0  0  0  0  0
   13.9890    5.7750   11.8830 C   0  0  2  0  0  3  0  0  0  0  0  0
   12.9700    6.5110   11.1080 C   0  0  1  0  0  3  0  0  0  0  0  0
   12.2320    5.5040   10.2690 C   0  0  2  0  0  3  0  0  0  0  0  0
   10.8560    6.0470   10.2500 C   0  0  0  0  0  0  0  0  0  0  0  0
    9.9260    5.7900    9.4450 O   0  0  0  0  0  0  0  0  0  0  0  0
   10.6820    6.9740   11.3430 N   0  0  0  0  0  0  0  0  0  0  0  0
   11.9100    6.9920   12.0620 C   0  0  0  0  0  0  0  0  0  0  0  0
   12.0380    7.3490   13.2560 O   0  0  0  0  0  0  0  0  0  0  0  0
    9.8590    2.1790   11.8760 H   0  0  0  0  0  0  0  0  0  0  0  0
   14.2960    3.7930   11.7370 H   0  0  0  0  0  0  0  0  0  0  0  0
   15.3830    5.8570   11.3200 C   0  0  0  0  0  2  0  0  0  0  0  0
   16.2300    4.7170   11.6150 C   0  0  0  0  0  0  0  0  0  0  0  0
   16.4080    4.3550   12.7970 O   0  0  0  0  0  0  0  0  0  0  0  0
   16.8690    3.9980   10.5810 N   0  0  0  0  0  0  0  0  0  0  0  0
   16.7550    2.9580   10.5330 H   0  0  0  0  0  0  0  0  0  0  0  0
   17.4580    4.4300    9.8450 H   0  0  0  0  0  0  0  0  0  0  0  0
    9.4800    7.7270   11.6320 C   0  0  0  0  0  2  0  0  0  0  0  0
    8.5420    7.0100   12.5640 C   0  0  1  0  0  3  0  0  0  0  0  0
    7.9740    7.9240   13.4480 O   0  0  0  0  0  0  0  0  0  0  0  0
    6.7990    8.3620   12.8810 C   0  0  0  0  0  2  0  0  0  0  0  0
    6.2720    7.2640   11.9830 C   0  0  0  0  0  2  0  0  0  0  0  0
    7.4290    6.2890   11.8890 C   0  0  0  0  0  2  0  0  0  0  0  0
  1  2  1  0  0  0  0
  2  7  2  0  0  0  0
  2  3  1  0  0  0  0
  3  4  2  0  0  0  0
  4  5  1  0  0  0  0
  5  8  1  0  0  0  0
  6  5  2  0  0  0  0
  7  6  1  0  0  0  0
  8  9  1  0  0  0  0
  8 21  1  0  0  0  0
  9 10  2  0  0  0  0
 11  4  1  6  0  0  0
 11  9  1  0  0  0  0
 11 12  1  0  0  0  0
 13 23  1  6  0  0  0
 13 12  1  0  0  0  0
 14 13  1  0  0  0  0
 14 19  1  1  0  0  0
 15 16  1  1  0  0  0
 15 14  1  0  0  0  0
 15 11  1  0  0  0  0
 16 18  1  0  0  0  0
 17 16  2  0  0  0  0
 18 29  1  0  0  0  0
 18 19  1  0  0  0  0
 19 20  2  0  0  0  0
 22 12  1  0  0  0  0
 23 24  1  0  0  0  0
 24 25  2  0  0  0  0
 26 24  1  0  0  0  0
 27 26  1  0  0  0  0
 28 26  1  0  0  0  0
 30 29  1  6  0  0  0
 30 31  1  0  0  0  0
 32 31  1  0  0  0  0
 33 32  1  0  0  0  0
 34 33  1  0  0  0  0
 34 30  1  0  0  0  0
M  END
>  <Pose>
1

>  <Score>
-8.923

$$$$
