MODEL 1
REMARK VINA RESULT:    -8.472      0.000      0.000
REMARK INTER + INTRA:         -11.686
REMARK INTER:                 -10.949
REMARK INTRA:                  -0.738
REMARK UNBOUND:                -0.738
REMARK  5 active torsions:
REMARK  status: ('A' for Active; 'I' for Inactive)
REMARK    1  A    between atoms: C_5  and  O_8 
REMARK    2  A    between atoms: O_8  and  C_9 
REMARK    3  A    between atoms: C_9  and  C_10 
REMARK       I    between atoms: C_10  and  N_12 
REMARK    4  A    between atoms: N_15  and  C_18 
REMARK    5  A    between atoms: C_20  and  N_24 
ROOT
ATOM      1  C   UNK d   1      12.162   5.359  12.045  0.00  0.00     0.177 C 
ATOM      2  O   UNK d   1      12.926   6.146  12.750  0.00  0.00    -0.175 OA
ATOM      3  N   UNK d   1      11.192   5.985  11.279  0.00  0.00    -0.358 N 
ATOM      4  C   UNK d   1      11.109   7.476  11.351  0.00  0.00     0.144 C 
ATOM      5  C   UNK d   1       9.638   7.806  11.383  0.00  0.00     0.144 C 
ATOM      6  N   UNK d   1       8.813   6.691  11.811  0.00  0.00    -0.362 N 
ATOM      7  C   UNK d   1       8.832   5.507  10.995  0.00  0.00     0.144 C 
ATOM      8  C   UNK d   1      10.221   5.412  10.385  0.00  0.00     0.144 C 
ENDROOT
BRANCH   6   9
ATOM      9  C   UNK d   1       8.038   6.793  12.986  0.00  0.00     0.146 A 
ATOM     10  N   UNK d   1       7.018   7.691  13.084  0.00  0.00    -0.045 NA
ATOM     11  C   UNK d   1       6.261   7.821  14.164  0.00  0.00     0.726 A 
ATOM     12  N   UNK d   1       6.532   7.009  15.218  0.00  0.00    -0.075 NA
ATOM     13  C   UNK d   1       7.504   6.114  15.199  0.00  0.00     0.140 A 
ATOM     14  C   UNK d   1       8.295   5.983  14.062  0.00  0.00     0.071 A 
BRANCH  11  15
ATOM     15  N   UNK d   1       5.197   8.750  14.282  0.00  0.00    -0.210 N 
ATOM     16  C   UNK d   1       5.039   9.521  15.510  0.00  0.00     0.167 C 
ATOM     17  C   UNK d   1       3.589   9.289  15.944  0.00  0.00     0.188 C 
ATOM     18  O   UNK d   1       2.730   9.733  14.974  0.00  0.00    -0.388 OA
ATOM     19  C   UNK d   1       2.820   9.070  13.773  0.00  0.00     0.188 C 
ATOM     20  C   UNK d   1       4.232   8.987  13.238  0.00  0.00     0.167 C 
ENDBRANCH  11  15
ENDBRANCH   6   9
BRANCH   1  21
ATOM     21  C   UNK d   1      12.482   3.926  12.196  0.00  0.00     0.262 C 
BRANCH  21  22
ATOM     22  O   UNK d   1      12.172   3.017  11.343  0.00  0.00    -0.343 OA
BRANCH  22  23
ATOM     23  C   UNK d   1      11.898   2.100  10.472  0.00  0.00     0.069 A 
ATOM     24  C   UNK d   1      10.592   1.707  10.109  0.00  0.00     0.038 A 
ATOM     25  C   UNK d   1      10.370   0.734   9.182  0.00  0.00     0.026 A 
ATOM     26  C   UNK d   1      11.396   0.075   8.546  0.00  0.00     0.034 A 
ATOM     27 Cl   UNK d   1      11.093  -1.172   7.362  0.00  0.00    -0.084 Cl
ATOM     28  C   UNK d   1      12.677   0.443   8.887  0.00  0.00     0.026 A 
ATOM     29  C   UNK d   1      12.937   1.413   9.809  0.00  0.00     0.038 A 
ENDBRANCH  22  23
ENDBRANCH  21  22
ENDBRANCH   1  21
TORSDOF 5
ENDMDL
