/Users/jonathanwahrer/Desktop/Msc/3_Semester/Drug_Design_Praktikum/waehrer_HTS_screening/HTS_experiment/out/docking_results/vina_output/2jam/2231_docked.pdbqt
 OpenBabel03162218593D

 27 31  0  0  0  0  0  0  0  0999 V2000
   13.3750    1.2570    9.2810 N   0  0  0  0  0  0  0  0  0  0  0  0
   14.5990    1.2550    8.7840 N   0  0  0  0  0  0  0  0  0  0  0  0
   15.3820    2.1110    9.4120 N   0  0  0  0  0  0  0  0  0  0  0  0
   14.6790    2.7270   10.3770 C   0  0  0  0  0  0  0  0  0  0  0  0
   13.4170    2.1770   10.2790 C   0  0  0  0  0  0  0  0  0  0  0  0
   12.4720    2.6130   11.1420 N   0  0  0  0  0  0  0  0  0  0  0  0
   12.7910    3.5530   12.0500 C   0  0  0  0  0  3  0  0  0  0  0  0
   14.0320    4.0910   12.1410 N   0  0  0  0  0  0  0  0  0  0  0  0
   15.0100    3.6920   11.3070 C   0  0  0  0  0  0  0  0  0  0  0  0
   16.3230    4.2470   11.3880 N   0  0  0  0  0  0  0  0  0  0  0  0
   16.4190    5.6930   11.3290 C   0  0  0  0  0  2  0  0  0  0  0  0
   17.7010    6.1810   11.9990 C   0  0  0  0  0  2  0  0  0  0  0  0
   18.7780    5.2850   11.7740 N   0  0  0  0  0  0  0  0  0  0  0  0
   18.5430    3.9320   12.3660 C   0  0  0  0  0  2  0  0  0  0  0  0
   19.9490    5.5540   11.0860 C   0  0  0  0  0  0  0  0  0  0  0  0
   17.4260    3.3480   11.5220 C   0  0  0  0  0  2  0  0  0  0  0  0
   20.7880    4.5340   11.0280 O   0  0  0  0  0  0  0  0  0  0  0  0
   20.4480    6.7390   10.4050 C   0  0  0  0  0  3  0  0  0  0  0  0
   20.7980    7.9310   11.2140 C   0  0  0  0  0  2  0  0  0  0  0  0
   21.8230    7.2250   10.3560 C   0  0  0  0  0  2  0  0  0  0  0  0
   12.2700    0.4710    8.8610 C   0  0  0  0  0  0  0  0  0  0  0  0
   11.0470    0.4520    9.4920 C   0  0  0  0  0  3  0  0  0  0  0  0
   10.0100   -0.3330    9.0390 C   0  0  0  0  0  3  0  0  0  0  0  0
   10.1790   -1.1230    7.9310 C   0  0  0  0  0  0  0  0  0  0  0  0
    8.8670   -2.1100    7.3640 Cl  0  0  0  0  0  0  0  0  0  0  0  0
   11.3800   -1.1260    7.2820 C   0  0  0  0  0  3  0  0  0  0  0  0
   12.4090   -0.3320    7.7520 C   0  0  0  0  0  3  0  0  0  0  0  0
  1  5  1  0  0  0  0
  2  1  1  0  0  0  0
  2  3  2  0  0  0  0
  3  4  1  0  0  0  0
  4  9  1  0  0  0  0
  5  4  2  0  0  0  0
  5  6  1  0  0  0  0
  6  7  2  0  0  0  0
  7  8  1  0  0  0  0
  9 10  1  0  0  0  0
  9  8  2  0  0  0  0
 10 16  1  0  0  0  0
 11 10  1  0  0  0  0
 11 12  1  0  0  0  0
 13 12  1  0  0  0  0
 13 14  1  0  0  0  0
 15 13  1  0  0  0  0
 16 14  1  0  0  0  0
 17 15  2  0  0  0  0
 18 15  1  0  0  0  0
 18 19  1  0  0  0  0
 20 18  1  0  0  0  0
 20 19  1  0  0  0  0
 21  1  1  0  0  0  0
 21 22  1  0  0  0  0
 23 22  2  0  0  0  0
 24 23  1  0  0  0  0
 25 24  1  0  0  0  0
 26 27  1  0  0  0  0
 26 24  2  0  0  0  0
 27 21  2  0  0  0  0
M  END
>  <Pose>
1

>  <Score>
-8.714

$$$$
