/Users/jonathanwahrer/Desktop/Msc/3_Semester/Drug_Design_Praktikum/waehrer_HTS_screening/HTS_experiment/out/docking_results/vina_output/2jam/2242_docked.pdbqt
 OpenBabel03162218593D

 32 35  0  0  0  0  0  0  0  0999 V2000
   10.0190    5.9830   12.2290 N   0  0  0  0  0  0  0  0  0  0  0  0
   10.4760    5.6840   10.9440 C   0  0  0  0  0  0  0  0  0  0  0  0
   10.1810    6.3580    9.9460 O   0  0  0  0  0  0  0  0  0  0  0  0
   10.3250    5.3420   13.0270 H   0  0  0  0  0  0  0  0  0  0  0  0
   11.3620    4.5100   10.7110 C   0  0  0  0  0  0  0  0  0  0  0  0
   10.8590    3.4510   10.1570 N   0  0  0  0  0  0  0  0  0  0  0  0
   11.6190    2.3100    9.9050 N   0  0  0  0  0  0  0  0  0  0  0  0
   12.9830    2.3060   10.2630 C   0  0  0  0  0  0  0  0  0  0  0  0
   13.6590    1.2730    9.9330 O   0  0  0  0  0  0  0  0  0  0  0  0
   13.6220    3.4250   10.9840 C   0  0  0  0  0  2  0  0  0  0  0  0
   12.7310    4.5280   11.0800 N   0  0  0  0  0  0  0  0  0  0  0  0
   13.1000    5.4400   11.4550 H   0  0  0  0  0  0  0  0  0  0  0  0
   11.0210    1.1440    9.2900 C   0  0  0  0  0  0  0  0  0  0  0  0
   11.6990    0.3950    8.3580 C   0  0  0  0  0  3  0  0  0  0  0  0
   11.1010   -0.7300    7.7810 C   0  0  0  0  0  3  0  0  0  0  0  0
    9.8220   -1.1100    8.1320 C   0  0  0  0  0  0  0  0  0  0  0  0
    9.1560   -0.3500    9.0650 C   0  0  0  0  0  3  0  0  0  0  0  0
    9.1400   -2.3040    7.5480 C   0  0  0  0  0  1  0  0  0  0  0  0
    9.7450    0.7450    9.6240 C   0  0  0  0  0  3  0  0  0  0  0  0
    9.1870    7.0620   12.5560 C   0  0  0  0  0  0  0  0  0  0  0  0
    9.7920    8.2900   12.8340 C   0  0  0  0  0  0  0  0  0  0  0  0
   11.5360    8.4280   12.7780 Cl  0  0  0  0  0  0  0  0  0  0  0  0
    9.0610    9.4000   13.1540 C   0  0  0  0  0  3  0  0  0  0  0  0
    7.6960    9.3680   13.2190 C   0  0  0  0  0  0  0  0  0  0  0  0
    7.0650    8.1820   12.9520 C   0  0  0  0  0  0  0  0  0  0  0  0
    6.9060   10.5180   13.5410 N   0  0  0  0  0  0  0  0  0  0  0  0
    7.8220    7.0440   12.6230 C   0  0  0  0  0  3  0  0  0  0  0  0
    5.6790    8.0630   12.9960 O   0  0  0  0  0  0  0  0  0  0  0  0
    4.8110    9.2050   12.9500 C   0  0  0  0  0  2  0  0  0  0  0  0
    5.4890   10.3820   13.5710 C   0  0  0  0  0  0  0  0  0  0  0  0
    4.7800   11.2540   14.1240 O   0  0  0  0  0  0  0  0  0  0  0  0
    7.3570   11.4300   13.7500 H   0  0  0  0  0  0  0  0  0  0  0  0
  1 20  1  0  0  0  0
  1  4  1  0  0  0  0
  2  1  1  0  0  0  0
  3  2  2  0  0  0  0
  5  2  1  0  0  0  0
  5 11  1  0  0  0  0
  6  5  2  0  0  0  0
  7  6  1  0  0  0  0
  7  8  1  0  0  0  0
  8 10  1  0  0  0  0
  9  8  2  0  0  0  0
 10 11  1  0  0  0  0
 11 12  1  0  0  0  0
 13 19  1  0  0  0  0
 13  7  1  0  0  0  0
 14 13  2  0  0  0  0
 15 16  2  0  0  0  0
 15 14  1  0  0  0  0
 16 17  1  0  0  0  0
 17 19  2  0  0  0  0
 18 16  1  0  0  0  0
 20 27  2  0  0  0  0
 20 21  1  0  0  0  0
 21 23  2  0  0  0  0
 22 21  1  0  0  0  0
 23 24  1  0  0  0  0
 24 26  1  0  0  0  0
 25 28  1  0  0  0  0
 25 24  2  0  0  0  0
 26 30  1  0  0  0  0
 26 32  1  0  0  0  0
 27 25  1  0  0  0  0
 29 28  1  0  0  0  0
 29 30  1  0  0  0  0
 30 31  2  0  0  0  0
M  END
>  <Pose>
1

>  <Score>
-10.609

$$$$
