MODEL 1
REMARK VINA RESULT:   -10.609      0.000      0.000
REMARK INTER + INTRA:         -12.320
REMARK INTER:                 -12.470
REMARK INTRA:                   0.150
REMARK UNBOUND:                 0.150
REMARK  3 active torsions:
REMARK  status: ('A' for Active; 'I' for Inactive)
REMARK    1  A    between atoms: C_7  and  N_8 
REMARK       I    between atoms: N_8  and  C_9 
REMARK    2  A    between atoms: C_9  and  C_11 
REMARK    3  A    between atoms: N_13  and  C_18 
ROOT
ATOM      1  N   UNK d   1      10.019   5.983  12.229  0.00  0.00    -0.319 N 
ATOM      2  C   UNK d   1      10.476   5.684  10.944  0.00  0.00     0.293 C 
ATOM      3  O   UNK d   1      10.181   6.358   9.946  0.00  0.00    -0.264 OA
ATOM      4  H   UNK d   1      10.325   5.342  13.027  0.00  0.00     0.169 HD
ENDROOT
BRANCH   2   5
ATOM      5  C   UNK d   1      11.362   4.510  10.711  0.00  0.00     0.213 C 
ATOM      6  N   UNK d   1      10.859   3.451  10.157  0.00  0.00    -0.141 NA
ATOM      7  N   UNK d   1      11.619   2.310   9.905  0.00  0.00    -0.198 N 
ATOM      8  C   UNK d   1      12.983   2.306  10.263  0.00  0.00     0.262 C 
ATOM      9  O   UNK d   1      13.659   1.273   9.933  0.00  0.00    -0.269 OA
ATOM     10  C   UNK d   1      13.622   3.425  10.984  0.00  0.00     0.226 C 
ATOM     11  N   UNK d   1      12.731   4.528  11.080  0.00  0.00    -0.360 N 
ATOM     12  H   UNK d   1      13.100   5.440  11.455  0.00  0.00     0.161 HD
BRANCH   7  13
ATOM     13  C   UNK d   1      11.021   1.144   9.290  0.00  0.00     0.062 A 
ATOM     14  C   UNK d   1      11.699   0.395   8.358  0.00  0.00     0.032 A 
ATOM     15  C   UNK d   1      11.101  -0.730   7.781  0.00  0.00     0.009 A 
ATOM     16  C   UNK d   1       9.822  -1.110   8.132  0.00  0.00    -0.062 A 
ATOM     17  C   UNK d   1       9.156  -0.350   9.065  0.00  0.00     0.009 A 
ATOM     18  C   UNK d   1       9.140  -2.304   7.548  0.00  0.00     0.048 C 
ATOM     19  C   UNK d   1       9.745   0.745   9.624  0.00  0.00     0.032 A 
ENDBRANCH   7  13
ENDBRANCH   2   5
BRANCH   1  20
ATOM     20  C   UNK d   1       9.187   7.062  12.556  0.00  0.00     0.059 A 
ATOM     21  C   UNK d   1       9.792   8.290  12.834  0.00  0.00     0.063 A 
ATOM     22 Cl   UNK d   1      11.536   8.428  12.778  0.00  0.00    -0.082 Cl
ATOM     23  C   UNK d   1       9.061   9.400  13.154  0.00  0.00     0.058 A 
ATOM     24  C   UNK d   1       7.696   9.368  13.219  0.00  0.00     0.070 A 
ATOM     25  C   UNK d   1       7.065   8.182  12.952  0.00  0.00     0.098 A 
ATOM     26  N   UNK d   1       6.906  10.518  13.541  0.00  0.00    -0.323 N 
ATOM     27  C   UNK d   1       7.822   7.044  12.623  0.00  0.00     0.070 A 
ATOM     28  O   UNK d   1       5.679   8.063  12.996  0.00  0.00    -0.340 OA
ATOM     29  C   UNK d   1       4.811   9.205  12.950  0.00  0.00     0.278 C 
ATOM     30  C   UNK d   1       5.489  10.382  13.571  0.00  0.00     0.246 C 
ATOM     31  O   UNK d   1       4.780  11.254  14.124  0.00  0.00    -0.271 OA
ATOM     32  H   UNK d   1       7.357  11.430  13.750  0.00  0.00     0.169 HD
ENDBRANCH   1  20
TORSDOF 3
ENDMDL
