MODEL 1
REMARK VINA RESULT:    -8.846      0.000      0.000
REMARK INTER + INTRA:         -10.882
REMARK INTER:                 -10.398
REMARK INTRA:                  -0.484
REMARK UNBOUND:                -0.484
REMARK  3 active torsions:
REMARK  status: ('A' for Active; 'I' for Inactive)
REMARK    1  A    between atoms: S_1  and  N_4 
REMARK    2  A    between atoms: S_1  and  C_18 
REMARK    3  A    between atoms: C_19  and  O_25 
ROOT
ATOM      1  N   UNK d   1      11.884   4.214  10.509  0.00  0.00    -0.301 N 
ATOM      2  C   UNK d   1      12.675   5.195  11.137  0.00  0.00     0.140 C 
ATOM      3  C   UNK d   1      12.222   6.616  10.866  0.00  0.00     0.067 C 
ATOM      4  C   UNK d   1      10.770   6.658  11.212  0.00  0.00     0.040 A 
ATOM      5  C   UNK d   1       9.989   5.630  10.725  0.00  0.00     0.067 A 
ATOM      6  N   UNK d   1       8.685   5.610  10.998  0.00  0.00    -0.231 NA
ATOM      7  C   UNK d   1       8.172   6.606  11.748  0.00  0.00     0.154 A 
ATOM      8  N   UNK d   1       8.911   7.619  12.235  0.00  0.00    -0.202 N 
ATOM      9  N   UNK d   1       8.134   8.459  12.944  0.00  0.00    -0.301 N 
ATOM     10  C   UNK d   1       6.865   8.024  12.943  0.00  0.00     0.112 A 
ATOM     11  C   UNK d   1       6.871   6.866  12.200  0.00  0.00     0.071 A 
ATOM     12  C   UNK d   1      10.236   7.671  11.978  0.00  0.00     0.276 A 
ATOM     13  O   UNK d   1      10.979   8.592  12.405  0.00  0.00    -0.266 OA
ATOM     14  C   UNK d   1      10.672   4.596   9.911  0.00  0.00     0.195 C 
ATOM     15  H   UNK d   1       8.495   9.319  13.416  0.00  0.00     0.186 HD
ENDROOT
BRANCH   1  16
ATOM     16  S   UNK d   1      12.113   2.613  10.953  0.00  0.00     0.264 S 
ATOM     17  O   UNK d   1      13.397   2.422  11.748  0.00  0.00    -0.200 OA
ATOM     18  O   UNK d   1      11.006   2.235  11.932  0.00  0.00    -0.200 OA
BRANCH  16  19
ATOM     19  C   UNK d   1      12.127   1.453   9.681  0.00  0.00     0.114 A 
ATOM     20  C   UNK d   1      13.191   1.389   8.785  0.00  0.00     0.091 A 
ATOM     21  C   UNK d   1      13.168   0.450   7.777  0.00  0.00     0.040 A 
ATOM     22  C   UNK d   1      12.141  -0.423   7.623  0.00  0.00     0.026 A 
ATOM     23  C   UNK d   1      11.082  -0.386   8.486  0.00  0.00     0.035 A 
ATOM     24  C   UNK d   1      11.104   0.553   9.495  0.00  0.00     0.052 A 
ATOM     25 Cl   UNK d   1       9.731  -1.512   8.309  0.00  0.00    -0.084 Cl
BRANCH  20  26
ATOM     26  O   UNK d   1      14.270   2.236   8.870  0.00  0.00    -0.354 OA
ATOM     27  C   UNK d   1      15.551   1.693   9.098  0.00  0.00     0.210 C 
ENDBRANCH  20  26
ENDBRANCH  16  19
ENDBRANCH   1  16
TORSDOF 3
ENDMDL
