MODEL 1
REMARK VINA RESULT:    -7.366      0.000      0.000
REMARK INTER + INTRA:          -9.482
REMARK INTER:                  -9.088
REMARK INTRA:                  -0.394
REMARK UNBOUND:                -0.394
REMARK  4 active torsions:
REMARK  status: ('A' for Active; 'I' for Inactive)
REMARK    1  A    between atoms: C_3  and  O_20 
REMARK    2  A    between atoms: C_5  and  C_8 
REMARK       I    between atoms: C_8  and  N_10 
REMARK    3  A    between atoms: N_10  and  C_11 
REMARK    4  A    between atoms: C_11  and  C_12 
ROOT
ATOM      1  C   UNK d   1      11.223   3.136  11.727  0.00  0.00     0.251 C 
ATOM      2  O   UNK d   1      11.363   2.760  12.925  0.00  0.00    -0.268 OA
ATOM      3  N   UNK d   1      10.919   4.494  11.404  0.00  0.00    -0.355 N 
ATOM      4  H   UNK d   1      10.815   4.748  10.422  0.00  0.00     0.162 HD
ENDROOT
BRANCH   1   5
ATOM      5  C   UNK d   1      11.372   2.169  10.669  0.00  0.00     0.034 A 
ATOM      6  C   UNK d   1      12.667   1.904  10.210  0.00  0.00     0.055 A 
ATOM      7  C   UNK d   1      12.938   1.005   9.204  0.00  0.00     0.090 A 
ATOM      8  C   UNK d   1      11.886   0.332   8.620  0.00  0.00     0.067 A 
ATOM      9 Cl   UNK d   1      12.208  -0.824   7.330  0.00  0.00    -0.081 Cl
ATOM     10  C   UNK d   1      10.594   0.580   9.060  0.00  0.00     0.028 A 
ATOM     11  C   UNK d   1      10.337   1.498  10.085  0.00  0.00     0.019 A 
BRANCH   7  12
ATOM     12  O   UNK d   1      14.234   0.763   8.769  0.00  0.00    -0.354 OA
ATOM     13  C   UNK d   1      15.048   1.804   8.263  0.00  0.00     0.210 C 
ENDBRANCH   7  12
ENDBRANCH   1   5
BRANCH   3  14
ATOM     14  C   UNK d   1      10.779   5.424  12.484  0.00  0.00     0.160 C 
BRANCH  14  15
ATOM     15  C   UNK d   1       9.412   5.868  12.821  0.00  0.00     0.268 C 
ATOM     16  N   UNK d   1       8.697   6.611  11.829  0.00  0.00     0.100 N 
ATOM     17  C   UNK d   1       7.291   6.154  11.945  0.00  0.00     0.303 C 
ATOM     18  C   UNK d   1       8.605   8.035  12.081  0.00  0.00     0.303 C 
ATOM     19  C   UNK d   1       7.015   6.192  13.453  0.00  0.00     0.302 C 
ATOM     20  N   UNK d   1       7.901   7.106  14.147  0.00  0.00     0.094 N 
ATOM     21  C   UNK d   1       9.292   6.647  14.121  0.00  0.00     0.309 C 
ATOM     22  C   UNK d   1       7.896   8.347  13.393  0.00  0.00     0.302 C 
ENDBRANCH  14  15
ENDBRANCH   3  14
TORSDOF 4
ENDMDL
