/Users/jonathanwahrer/Desktop/Msc/3_Semester/Drug_Design_Praktikum/waehrer_HTS_screening/HTS_experiment/out/docking_results/vina_output/2jam/2271_docked.pdbqt
 OpenBabel03162219003D

 27 30  0  0  1  0  0  0  0  0999 V2000
   11.3880    5.8040   10.3990 C   0  0  2  0  0  0  0  0  0  0  0  0
   12.3170    4.8030   10.2210 N   0  0  0  0  0  4  0  0  0  0  0  0
   13.3150    5.0310   11.2460 C   0  0  0  0  0  0  0  0  0  0  0  0
   13.9800    4.2930   12.0740 C   0  0  0  0  0  3  0  0  0  0  0  0
   14.9660    4.8160   13.0370 C   0  0  0  0  0  2  0  0  0  0  0  0
   15.1540    6.2920   13.0300 C   0  0  0  0  0  2  0  0  0  0  0  0
   14.7410    6.9650   11.7650 C   0  0  0  0  0  2  0  0  0  0  0  0
   13.5060    6.4340   11.2270 N   0  0  0  0  0  0  0  0  0  0  0  0
   12.3170    7.0310   10.6250 C   0  0  0  0  0  2  0  0  0  0  0  0
   12.8780    5.0700    9.3310 H   0  0  0  0  0  0  0  0  0  0  0  0
   10.4370    5.8430   11.4920 C   0  0  0  0  0  0  0  0  0  0  0  0
    9.0850    5.8420   11.2090 C   0  0  0  0  0  3  0  0  0  0  0  0
    8.1650    5.9000   12.2140 C   0  0  0  0  0  3  0  0  0  0  0  0
    8.5370    5.9610   13.5510 C   0  0  0  0  0  0  0  0  0  0  0  0
    7.3810    6.0350   14.8570 Cl  0  0  0  0  0  0  0  0  0  0  0  0
    9.8760    5.9620   13.8300 C   0  0  0  0  0  3  0  0  0  0  0  0
   10.8120    5.9040   12.8110 C   0  0  0  0  0  3  0  0  0  0  0  0
   10.7300    6.1390    9.1820 O   0  0  0  0  0  0  0  0  0  0  0  0
   11.4430    6.4730    8.5790 H   0  0  0  0  0  0  0  0  0  0  0  0
   12.0050    3.4630   10.0530 C   0  0  0  0  0  0  0  0  0  0  0  0
   10.8650    2.8360   10.4270 C   0  0  0  0  0  3  0  0  0  0  0  0
   10.6920    1.4760   10.1760 C   0  0  0  0  0  3  0  0  0  0  0  0
   11.6550    0.7070    9.5450 C   0  0  0  0  0  0  0  0  0  0  0  0
   12.8060    1.3730    9.1770 C   0  0  0  0  0  3  0  0  0  0  0  0
   13.0060    2.7080    9.4090 C   0  0  0  0  0  3  0  0  0  0  0  0
   11.4430   -0.6420    9.3170 O   0  0  0  0  0  0  0  0  0  0  0  0
   10.2460   -1.0590    8.7110 C   0  0  0  0  0  1  0  0  0  0  0  0
  1 18  1  6  0  0  0
  1  9  1  0  0  0  0
  1 11  1  0  0  0  0
  2  1  1  0  0  0  0
  2  3  1  0  0  0  0
  3  4  2  0  0  0  0
  4  5  1  0  0  0  0
  6  5  1  0  0  0  0
  7  6  1  0  0  0  0
  8  3  1  0  0  0  0
  8  7  1  0  0  0  0
  9  8  1  0  0  0  0
 10  2  1  0  0  0  0
 11 17  1  0  0  0  0
 12 11  2  0  0  0  0
 12 13  1  0  0  0  0
 13 14  2  0  0  0  0
 14 16  1  0  0  0  0
 14 15  1  0  0  0  0
 17 16  2  0  0  0  0
 19 18  1  0  0  0  0
 20  2  1  0  0  0  0
 20 21  1  0  0  0  0
 22 21  2  0  0  0  0
 23 22  1  0  0  0  0
 24 25  1  0  0  0  0
 24 23  2  0  0  0  0
 25 20  2  0  0  0  0
 26 23  1  0  0  0  0
 27 26  1  0  0  0  0
M  END
>  <Pose>
1

>  <Score>
-7.543

$$$$
