/Users/jonathanwahrer/Desktop/Msc/3_Semester/Drug_Design_Praktikum/waehrer_HTS_screening/HTS_experiment/out/docking_results/vina_output/2jam/2272_docked.pdbqt
 OpenBabel03162219003D

 29 32  0  0  0  0  0  0  0  0999 V2000
   12.4710    4.6230   11.0160 C   0  0  0  0  0  0  0  0  0  0  0  0
   13.1010    4.4160   12.1230 O   0  0  0  0  0  0  0  0  0  0  0  0
   11.5450    5.6680   11.0350 N   0  0  0  0  0  0  0  0  0  0  0  0
   10.5690    5.9390    9.9630 C   0  0  0  0  0  2  0  0  0  0  0  0
    9.2700    5.5190   10.7190 C   0  0  0  0  0  2  0  0  0  0  0  0
    9.0610    6.4770   11.7960 N   0  0  0  0  0  0  0  0  0  0  0  0
   10.1010    7.1710   12.3260 C   0  0  0  0  0  2  0  0  0  0  0  0
   11.4850    6.6320   12.0990 C   0  0  0  0  0  2  0  0  0  0  0  0
   12.8490    3.7480    9.9330 C   0  0  0  0  0  2  0  0  0  0  0  0
   13.4210    2.4250   10.1650 C   0  0  0  0  0  2  0  0  0  0  0  0
   13.1590    1.3990    9.1700 N   0  0  0  0  0  0  0  0  0  0  0  0
   12.0730    0.6780    8.9070 C   0  0  0  0  0  0  0  0  0  0  0  0
   12.3380   -0.2350    7.9140 C   0  0  0  0  0  0  0  0  0  0  0  0
   10.7800    0.7350    9.4560 C   0  0  0  0  0  3  0  0  0  0  0  0
   11.3630   -1.1170    7.4310 C   0  0  0  0  0  3  0  0  0  0  0  0
   13.5920   -0.0440    7.6000 O   0  0  0  0  0  0  0  0  0  0  0  0
   10.1020   -1.0740    7.9580 C   0  0  0  0  0  0  0  0  0  0  0  0
    8.8570   -2.1480    7.3700 Cl  0  0  0  0  0  0  0  0  0  0  0  0
    9.8410   -0.1510    8.9550 C   0  0  0  0  0  3  0  0  0  0  0  0
   14.1240    0.9150    8.3170 C   0  0  0  0  0  0  0  0  0  0  0  0
   15.3160    1.3340    8.2530 O   0  0  0  0  0  0  0  0  0  0  0  0
    7.8390    6.1960   12.3850 C   0  0  0  0  0  2  0  0  0  0  0  0
    6.7480    7.1660   11.9290 C   0  0  0  0  0  0  0  0  0  0  0  0
    5.9960    6.6910   10.9950 O   0  0  0  0  0  0  0  0  0  0  0  0
    6.6300    8.3750   12.4660 N   0  0  0  0  0  0  0  0  0  0  0  0
    5.4570    8.5920   11.8160 H   0  0  0  0  0  0  0  0  0  0  0  0
    6.5060    9.6620   13.0370 C   0  0  0  0  0  3  0  0  0  0  0  0
    7.5420   10.7230   12.5000 C   0  0  0  0  0  2  0  0  0  0  0  0
    7.6690   10.1980   13.8460 C   0  0  0  0  0  2  0  0  0  0  0  0
  1  3  1  0  0  0  0
  1  2  2  0  0  0  0
  3  8  1  0  0  0  0
  4  5  1  0  0  0  0
  4  3  1  0  0  0  0
  5  6  1  0  0  0  0
  6  7  1  0  0  0  0
  6 22  1  0  0  0  0
  8  7  1  0  0  0  0
  9 10  1  0  0  0  0
  9  1  1  0  0  0  0
 11 10  1  0  0  0  0
 12 11  1  0  0  0  0
 12 14  1  0  0  0  0
 13 12  2  0  0  0  0
 15 13  1  0  0  0  0
 15 17  2  0  0  0  0
 16 13  1  0  0  0  0
 16 20  1  0  0  0  0
 17 19  1  0  0  0  0
 18 17  1  0  0  0  0
 19 14  2  0  0  0  0
 20 11  1  0  0  0  0
 21 20  2  0  0  0  0
 23 22  1  0  0  0  0
 23 25  1  0  0  0  0
 24 23  2  0  0  0  0
 25 27  1  0  0  0  0
 26 25  1  0  0  0  0
 27 29  1  0  0  0  0
 28 27  1  0  0  0  0
 28 29  1  0  0  0  0
M  END
>  <Pose>
1

>  <Score>
-9.108

$$$$
