MODEL 1
REMARK VINA RESULT:    -9.108      0.000      0.000
REMARK INTER + INTRA:         -13.065
REMARK INTER:                 -12.303
REMARK INTRA:                  -0.762
REMARK UNBOUND:                -0.762
REMARK  6 active torsions:
REMARK  status: ('A' for Active; 'I' for Inactive)
REMARK    1  A    between atoms: N_8  and  C_12 
REMARK    2  A    between atoms: C_12  and  C_13 
REMARK    3  A    between atoms: C_13  and  C_14 
REMARK       I    between atoms: C_14  and  N_16 
REMARK    4  A    between atoms: N_19  and  C_22 
REMARK    5  A    between atoms: C_22  and  C_23 
REMARK       I    between atoms: C_23  and  N_25 
REMARK    6  A    between atoms: N_25  and  C_26 
ROOT
ATOM      1  C   UNK d   1      12.471   4.623  11.016  0.00  0.00     0.221 C 
ATOM      2  O   UNK d   1      13.101   4.416  12.123  0.00  0.00    -0.273 OA
ATOM      3  N   UNK d   1      11.545   5.668  11.035  0.00  0.00    -0.349 N 
ATOM      4  C   UNK d   1      10.569   5.939   9.963  0.00  0.00     0.145 C 
ATOM      5  C   UNK d   1       9.270   5.519  10.719  0.00  0.00     0.137 C 
ATOM      6  N   UNK d   1       9.061   6.477  11.796  0.00  0.00    -0.401 N 
ATOM      7  C   UNK d   1      10.101   7.171  12.326  0.00  0.00     0.137 C 
ATOM      8  C   UNK d   1      11.485   6.632  12.099  0.00  0.00     0.145 C 
ENDROOT
BRANCH   1   9
ATOM      9  C   UNK d   1      12.849   3.748   9.933  0.00  0.00     0.123 C 
BRANCH   9  10
ATOM     10  C   UNK d   1      13.421   2.425  10.165  0.00  0.00     0.144 C 
BRANCH  10  11
ATOM     11  N   UNK d   1      13.159   1.399   9.170  0.00  0.00    -0.290 N 
ATOM     12  C   UNK d   1      12.073   0.678   8.907  0.00  0.00     0.073 A 
ATOM     13  C   UNK d   1      12.338  -0.235   7.914  0.00  0.00     0.109 A 
ATOM     14  C   UNK d   1      10.780   0.735   9.456  0.00  0.00     0.034 A 
ATOM     15  C   UNK d   1      11.363  -1.117   7.431  0.00  0.00     0.063 A 
ATOM     16  O   UNK d   1      13.592  -0.044   7.600  0.00  0.00    -0.259 OA
ATOM     17  C   UNK d   1      10.102  -1.074   7.958  0.00  0.00     0.036 A 
ATOM     18 Cl   UNK d   1       8.857  -2.148   7.370  0.00  0.00    -0.084 Cl
ATOM     19  C   UNK d   1       9.841  -0.151   8.955  0.00  0.00     0.026 A 
ATOM     20  C   UNK d   1      14.124   0.915   8.317  0.00  0.00     0.372 A 
ATOM     21  O   UNK d   1      15.316   1.334   8.253  0.00  0.00    -0.237 OA
ENDBRANCH  10  11
ENDBRANCH   9  10
ENDBRANCH   1   9
BRANCH   6  22
ATOM     22  C   UNK d   1       7.839   6.196  12.385  0.00  0.00     0.219 C 
BRANCH  22  23
ATOM     23  C   UNK d   1       6.748   7.166  11.929  0.00  0.00     0.235 C 
ATOM     24  O   UNK d   1       5.996   6.691  10.995  0.00  0.00    -0.272 OA
ATOM     25  N   UNK d   1       6.630   8.375  12.466  0.00  0.00    -0.355 N 
ATOM     26  H   UNK d   1       5.457   8.592  11.816  0.00  0.00     0.162 HD
BRANCH  25  27
ATOM     27  C   UNK d   1       6.506   9.662  13.037  0.00  0.00     0.084 A 
ATOM     28  C   UNK d   1       7.542  10.723  12.500  0.00  0.00     0.027 A 
ATOM     29  C   UNK d   1       7.669  10.198  13.846  0.00  0.00     0.027 A 
ENDBRANCH  25  27
ENDBRANCH  22  23
ENDBRANCH   6  22
TORSDOF 6
ENDMDL
