/Users/jonathanwahrer/Desktop/Msc/3_Semester/Drug_Design_Praktikum/waehrer_HTS_screening/HTS_experiment/out/docking_results/vina_output/2jam/2275_docked.pdbqt
 OpenBabel03162219003D

 21 23  0  0  1  0  0  0  0  0999 V2000
   14.9380    1.0360    9.9660 Cl  0  0  0  0  0  0  0  0  0  0  0  0
   13.4970    1.9630   10.3220 C   0  0  0  0  0  0  0  0  0  0  0  0
   12.2510    1.4140   10.1000 C   0  0  0  0  0  0  0  0  0  0  0  0
   11.1610    2.1990   10.4070 C   0  0  0  0  0  0  0  0  0  0  0  0
    9.9700    1.7920   10.2420 O   0  0  0  0  0  0  0  0  0  0  0  0
   11.3410    3.4340   10.8970 N   0  0  0  0  0  0  0  0  0  0  0  0
   12.5110    3.9970   11.1250 N   0  0  0  0  0  0  0  0  0  0  0  0
   12.6600    5.3410   11.6590 C   0  0  1  0  0  3  0  0  0  0  0  0
   12.3050    6.4070   10.6440 C   0  0  0  0  0  2  0  0  0  0  0  0
   10.8010    6.6090   10.5890 C   0  0  0  0  0  2  0  0  0  0  0  0
   10.0900    5.3410   10.1770 C   0  0  0  0  0  2  0  0  0  0  0  0
   10.1620    4.2540   11.2170 C   0  0  2  0  0  3  0  0  0  0  0  0
   10.4450    4.8890   12.5310 C   0  0  0  0  0  3  0  0  0  0  0  0
   11.6250    5.4560   12.7530 C   0  0  0  0  0  3  0  0  0  0  0  0
   13.6080    3.2400   10.8280 C   0  0  0  0  0  0  0  0  0  0  0  0
   14.7560    3.7590   11.0380 O   0  0  0  0  0  0  0  0  0  0  0  0
   12.0590    0.1040    9.5750 N   0  0  0  0  0  0  0  0  0  0  0  0
   12.3210   -0.6760   10.2500 H   0  0  0  0  0  0  0  0  0  0  0  0
   11.5590   -0.1830    8.2580 C   0  0  0  0  0  3  0  0  0  0  0  0
   12.6430   -0.7320    7.3470 C   0  0  0  0  0  1  0  0  0  0  0  0
   10.4070   -1.1310    8.2270 C   0  0  0  0  0  1  0  0  0  0  0  0
  1  2  1  0  0  0  0
  2 15  1  0  0  0  0
  3  2  2  0  0  0  0
  3  4  1  0  0  0  0
  4  6  1  0  0  0  0
  5  4  2  0  0  0  0
  6  7  1  0  0  0  0
  6 12  1  0  0  0  0
  7  8  1  0  0  0  0
  8  9  1  6  0  0  0
  8 14  1  0  0  0  0
 10  9  1  0  0  0  0
 11 10  1  0  0  0  0
 12 11  1  6  0  0  0
 12 13  1  0  0  0  0
 13 14  2  0  0  0  0
 15 16  2  0  0  0  0
 15  7  1  0  0  0  0
 17  3  1  0  0  0  0
 17 18  1  0  0  0  0
 19 17  1  0  0  0  0
 20 19  1  0  0  0  0
 21 19  1  0  0  0  0
M  END
>  <Pose>
1

>  <Score>
-6.833

$$$$
