MODEL 1
REMARK VINA RESULT:    -6.833      0.000      0.000
REMARK INTER + INTRA:          -7.849
REMARK INTER:                  -7.632
REMARK INTRA:                  -0.218
REMARK UNBOUND:                -0.218
REMARK  2 active torsions:
REMARK  status: ('A' for Active; 'I' for Inactive)
REMARK    1  A    between atoms: C_3  and  N_17 
REMARK    2  A    between atoms: N_17  and  C_18 
ROOT
ATOM      1 Cl   UNK d   1      14.938   1.036   9.966  0.00  0.00    -0.076 Cl
ATOM      2  C   UNK d   1      13.497   1.963  10.322  0.00  0.00     0.135 A 
ATOM      3  C   UNK d   1      12.251   1.414  10.100  0.00  0.00     0.126 A 
ATOM      4  C   UNK d   1      11.161   2.199  10.407  0.00  0.00     0.291 A 
ATOM      5  O   UNK d   1       9.970   1.792  10.242  0.00  0.00    -0.264 OA
ATOM      6  N   UNK d   1      11.341   3.434  10.897  0.00  0.00    -0.241 N 
ATOM      7  N   UNK d   1      12.511   3.997  11.125  0.00  0.00    -0.242 N 
ATOM      8  C   UNK d   1      12.660   5.341  11.659  0.00  0.00     0.134 C 
ATOM      9  C   UNK d   1      12.305   6.407  10.644  0.00  0.00     0.031 C 
ATOM     10  C   UNK d   1      10.801   6.609  10.589  0.00  0.00     0.005 C 
ATOM     11  C   UNK d   1      10.090   5.341  10.177  0.00  0.00     0.031 C 
ATOM     12  C   UNK d   1      10.162   4.254  11.217  0.00  0.00     0.134 C 
ATOM     13  C   UNK d   1      10.445   4.889  12.531  0.00  0.00    -0.002 C 
ATOM     14  C   UNK d   1      11.625   5.456  12.753  0.00  0.00    -0.002 C 
ATOM     15  C   UNK d   1      13.608   3.240  10.828  0.00  0.00     0.287 A 
ATOM     16  O   UNK d   1      14.756   3.759  11.038  0.00  0.00    -0.265 OA
ENDROOT
BRANCH   3  17
ATOM     17  N   UNK d   1      12.059   0.104   9.575  0.00  0.00    -0.380 N 
ATOM     18  H   UNK d   1      12.321  -0.676  10.250  0.00  0.00     0.160 HD
BRANCH  17  19
ATOM     19  C   UNK d   1      11.559  -0.183   8.258  0.00  0.00     0.073 C 
ATOM     20  C   UNK d   1      12.643  -0.732   7.347  0.00  0.00     0.031 C 
ATOM     21  C   UNK d   1      10.407  -1.131   8.227  0.00  0.00     0.031 C 
ENDBRANCH  17  19
ENDBRANCH   3  17
TORSDOF 2
ENDMDL
