MODEL 1
REMARK VINA RESULT:    -6.874      0.000      0.000
REMARK INTER + INTRA:          -7.944
REMARK INTER:                  -7.678
REMARK INTRA:                  -0.266
REMARK UNBOUND:                -0.266
REMARK  2 active torsions:
REMARK  status: ('A' for Active; 'I' for Inactive)
REMARK    1  A    between atoms: C_3  and  N_17 
REMARK    2  A    between atoms: N_17  and  C_18 
ROOT
ATOM      1 Cl   UNK d   1      14.707   1.093  10.134  0.00  0.00    -0.076 Cl
ATOM      2  C   UNK d   1      13.281   2.081  10.383  0.00  0.00     0.135 A 
ATOM      3  C   UNK d   1      12.052   1.529  10.090  0.00  0.00     0.126 A 
ATOM      4  C   UNK d   1      10.958   2.376  10.307  0.00  0.00     0.291 A 
ATOM      5  O   UNK d   1       9.822   1.927  10.058  0.00  0.00    -0.264 OA
ATOM      6  N   UNK d   1      11.123   3.622  10.766  0.00  0.00    -0.241 N 
ATOM      7  N   UNK d   1      12.307   4.145  11.046  0.00  0.00    -0.241 N 
ATOM      8  C   UNK d   1      12.309   5.514  11.544  0.00  0.00     0.139 C 
ATOM      9  C   UNK d   1      11.604   6.354  10.495  0.00  0.00     0.021 A 
ATOM     10  C   UNK d   1      10.310   5.762  10.137  0.00  0.00     0.021 A 
ATOM     11  C   UNK d   1       9.996   4.528  10.994  0.00  0.00     0.139 C 
ATOM     12  C   UNK d   1      10.162   4.970  12.422  0.00  0.00    -0.001 C 
ATOM     13  C   UNK d   1      11.349   5.477  12.710  0.00  0.00    -0.001 C 
ATOM     14  C   UNK d   1      10.384   7.118  10.853  0.00  0.00     0.015 A 
ATOM     15  C   UNK d   1      13.381   3.386  10.858  0.00  0.00     0.287 A 
ATOM     16  O   UNK d   1      14.510   3.874  11.121  0.00  0.00    -0.265 OA
ENDROOT
BRANCH   3  17
ATOM     17  N   UNK d   1      11.860   0.203   9.605  0.00  0.00    -0.380 N 
ATOM     18  H   UNK d   1      11.915  -0.546  10.327  0.00  0.00     0.160 HD
BRANCH  17  19
ATOM     19  C   UNK d   1      11.609  -0.151   8.255  0.00  0.00     0.073 C 
ATOM     20  C   UNK d   1      12.793  -0.732   7.526  0.00  0.00     0.031 C 
ATOM     21  C   UNK d   1      10.473  -1.153   8.099  0.00  0.00     0.031 C 
ENDBRANCH  17  19
ENDBRANCH   3  17
TORSDOF 2
ENDMDL
