MODEL 1
REMARK VINA RESULT:    -9.062      0.000      0.000
REMARK INTER + INTRA:         -12.521
REMARK INTER:                 -11.711
REMARK INTRA:                  -0.809
REMARK UNBOUND:                -0.809
REMARK  5 active torsions:
REMARK  status: ('A' for Active; 'I' for Inactive)
REMARK    1  A    between atoms: C_3  and  N_15 
REMARK    2  A    between atoms: N_6  and  C_9 
REMARK    3  A    between atoms: N_18  and  C_21 
REMARK    4  A    between atoms: C_21  and  C_22 
REMARK       I    between atoms: C_22  and  N_24 
REMARK       I    between atoms: N_24  and  C_25 
REMARK       I    between atoms: C_25  and  N_27 
REMARK    5  A    between atoms: N_27  and  C_28 
ROOT
ATOM      1  N   UNK d   1       6.823   7.642  13.006  0.00  0.00    -0.375 N 
ATOM      2  C   UNK d   1       6.761   6.344  12.480  0.00  0.00     0.153 C 
ATOM      3  C   UNK d   1       8.151   6.057  11.802  0.00  0.00     0.292 C 
ATOM      4  N   UNK d   1       9.173   6.946  12.052  0.00  0.00     0.100 N 
ATOM      5  C   UNK d   1       8.859   8.312  12.372  0.00  0.00     0.292 C 
ATOM      6  C   UNK d   1       7.377   8.622  11.978  0.00  0.00     0.153 C 
ENDROOT
BRANCH   1   7
ATOM      7  C   UNK d   1       6.677   8.197  14.267  0.00  0.00     0.077 A 
ATOM      8  C   UNK d   1       7.036   7.660  15.425  0.00  0.00     0.131 A 
ATOM      9 Cl   UNK d   1       8.245   6.315  15.373  0.00  0.00    -0.076 Cl
ATOM     10  C   UNK d   1       6.553   8.080  16.665  0.00  0.00     0.292 A 
ATOM     11  N   UNK d   1       5.703   9.069  16.707  0.00  0.00    -0.197 N 
ATOM     12  O   UNK d   1       6.966   7.450  17.697  0.00  0.00    -0.264 OA
ATOM     13  N   UNK d   1       5.322   9.659  15.544  0.00  0.00    -0.174 NA
ATOM     14  C   UNK d   1       5.724   9.328  14.375  0.00  0.00     0.170 A 
BRANCH  11  15
ATOM     15  C   UNK d   1       4.930   9.407  17.900  0.00  0.00     0.062 A 
ATOM     16  C   UNK d   1       5.445  10.123  18.932  0.00  0.00     0.032 A 
ATOM     17  C   UNK d   1       4.658  10.530  19.987  0.00  0.00     0.002 A 
ATOM     18  C   UNK d   1       3.300  10.217  20.024  0.00  0.00     0.000 A 
ATOM     19  C   UNK d   1       2.800   9.474  18.954  0.00  0.00     0.002 A 
ATOM     20  C   UNK d   1       3.584   9.088  17.938  0.00  0.00     0.032 A 
ENDBRANCH  11  15
ENDBRANCH   1   7
BRANCH   4  21
ATOM     21  C   UNK d   1      10.164   7.107  10.936  0.00  0.00     0.375 C 
BRANCH  21  22
ATOM     22  C   UNK d   1      11.149   6.037  10.995  0.00  0.00     0.254 C 
ATOM     23  O   UNK d   1      11.881   5.667  11.753  0.00  0.00    -0.271 OA
ATOM     24  N   UNK d   1      11.138   5.159   9.530  0.00  0.00    -0.278 N 
ATOM     25  C   UNK d   1      11.935   4.005  10.077  0.00  0.00     0.323 C 
ATOM     26  H   UNK d   1      10.730   5.755   9.254  0.00  0.00     0.173 HD
ATOM     27  O   UNK d   1      12.783   4.079  10.923  0.00  0.00    -0.247 OA
ATOM     28  N   UNK d   1      11.523   2.772   9.447  0.00  0.00    -0.338 N 
ATOM     29  H   UNK d   1      10.777   2.879   8.682  0.00  0.00     0.164 HD
BRANCH  28  30
ATOM     30  C   UNK d   1      12.004   1.467   9.706  0.00  0.00     0.086 C 
ATOM     31  C   UNK d   1      11.164   0.300   9.383  0.00  0.00     0.025 C 
ATOM     32  C   UNK d   1      11.520  -0.142   7.960  0.00  0.00     0.002 C 
ATOM     33  C   UNK d   1      12.994   0.184   7.912  0.00  0.00     0.002 C 
ATOM     34  C   UNK d   1      13.247   1.318   8.805  0.00  0.00     0.025 C 
ENDBRANCH  28  30
ENDBRANCH  21  22
ENDBRANCH   4  21
TORSDOF 5
ENDMDL
