/Users/jonathanwahrer/Desktop/Msc/3_Semester/Drug_Design_Praktikum/waehrer_HTS_screening/HTS_experiment/out/docking_results/vina_output/2jam/2282_docked.pdbqt
 OpenBabel03162219013D

 31 34  0  0  1  0  0  0  0  0999 V2000
   10.4160    6.0030   12.0360 N   0  0  0  0  0  0  0  0  0  0  0  0
   10.1430    5.9470   13.4520 C   0  0  0  0  0  2  0  0  0  0  0  0
    8.8370    6.6140   13.7480 C   0  0  0  0  0  2  0  0  0  0  0  0
    8.1740    6.8390   12.4870 N   0  0  0  0  0  0  0  0  0  0  0  0
    8.8710    7.8500   11.7770 C   0  0  0  0  0  2  0  0  0  0  0  0
   10.2050    7.2440   11.3320 C   0  0  0  0  0  2  0  0  0  0  0  0
   10.8880    4.8840   11.3020 C   0  0  0  0  0  0  0  0  0  0  0  0
   12.2000    4.4330   11.4100 C   0  0  0  0  0  0  0  0  0  0  0  0
   13.2600    5.3140   12.4890 Cl  0  0  0  0  0  0  0  0  0  0  0  0
   12.6310    3.3360   10.6890 C   0  0  0  0  0  0  0  0  0  0  0  0
   11.8090    2.6650    9.8610 N   0  0  0  0  0  0  0  0  0  0  0  0
   13.8240    2.9320   10.7910 O   0  0  0  0  0  0  0  0  0  0  0  0
   10.5670    3.1090    9.7730 N   0  0  0  0  0  0  0  0  0  0  0  0
   10.0810    4.1680   10.4440 C   0  0  0  0  0  3  0  0  0  0  0  0
   12.2560    1.5250    9.1160 C   0  0  0  0  0  0  0  0  0  0  0  0
   11.4730    0.3960    9.0450 C   0  0  0  0  0  3  0  0  0  0  0  0
   11.9000   -0.7230    8.3210 C   0  0  0  0  0  3  0  0  0  0  0  0
   13.1070   -0.7290    7.6610 C   0  0  0  0  0  3  0  0  0  0  0  0
   13.8970    0.3970    7.7260 C   0  0  0  0  0  3  0  0  0  0  0  0
   13.4630    1.5020    8.4500 C   0  0  0  0  0  3  0  0  0  0  0  0
    6.7670    6.8810   12.5170 C   0  0  0  0  0  2  0  0  0  0  0  0
    6.1930    8.2290   12.5680 C   0  0  0  0  0  0  0  0  0  0  0  0
    5.5770    8.6160   11.5180 O   0  0  0  0  0  0  0  0  0  0  0  0
    6.2560    9.1260   13.6620 N   0  0  0  0  0  0  0  0  0  0  0  0
    6.7500    8.8040   14.5190 H   0  0  0  0  0  0  0  0  0  0  0  0
    5.6740   10.4440   13.6650 C   0  0  0  0  0  2  0  0  0  0  0  0
    4.4960   10.4690   14.5900 C   0  0  1  0  0  3  0  0  0  0  0  0
    3.3730   10.0840   13.9070 O   0  0  0  0  0  0  0  0  0  0  0  0
    2.7840    9.0030   14.5020 C   0  0  0  0  0  2  0  0  0  0  0  0
    3.1810    9.1450   15.9560 C   0  0  0  0  0  2  0  0  0  0  0  0
    4.6640    9.4940   15.7460 C   0  0  0  0  0  2  0  0  0  0  0  0
  1  2  1  0  0  0  0
  2  3  1  0  0  0  0
  4 21  1  0  0  0  0
  4  3  1  0  0  0  0
  5  4  1  0  0  0  0
  6  5  1  0  0  0  0
  6  1  1  0  0  0  0
  7  8  2  0  0  0  0
  7  1  1  0  0  0  0
  8  9  1  0  0  0  0
 10 12  2  0  0  0  0
 10  8  1  0  0  0  0
 11 10  1  0  0  0  0
 13 11  1  0  0  0  0
 13 14  2  0  0  0  0
 14  7  1  0  0  0  0
 15 11  1  0  0  0  0
 16 15  1  0  0  0  0
 17 16  2  0  0  0  0
 18 19  2  0  0  0  0
 18 17  1  0  0  0  0
 19 20  1  0  0  0  0
 20 15  2  0  0  0  0
 21 22  1  0  0  0  0
 22 24  1  0  0  0  0
 23 22  2  0  0  0  0
 24 26  1  0  0  0  0
 24 25  1  0  0  0  0
 27 26  1  6  0  0  0
 27 31  1  0  0  0  0
 28 29  1  0  0  0  0
 28 27  1  0  0  0  0
 29 30  1  0  0  0  0
 31 30  1  0  0  0  0
M  END
>  <Pose>
1

>  <Score>
-8.532

$$$$
