MODEL 1
REMARK VINA RESULT:    -9.027      0.000      0.000
REMARK INTER + INTRA:         -12.831
REMARK INTER:                 -11.665
REMARK INTRA:                  -1.166
REMARK UNBOUND:                -1.166
REMARK  5 active torsions:
REMARK  status: ('A' for Active; 'I' for Inactive)
REMARK    1  A    between atoms: S_1  and  N_4 
REMARK    2  A    between atoms: S_1  and  C_28 
REMARK    3  A    between atoms: N_7  and  C_10 
REMARK    4  A    between atoms: C_10  and  C_11 
REMARK    5  A    between atoms: C_17  and  C_21 
ROOT
ATOM      1  C   UNK d   1      10.749   7.003  13.226  0.00  0.00     0.060 A 
ATOM      2  C   UNK d   1       9.639   6.755  12.444  0.00  0.00     0.105 A 
ATOM      3  C   UNK d   1       9.542   5.736  11.530  0.00  0.00     0.272 A 
ATOM      4  O   UNK d   1       8.462   5.606  10.865  0.00  0.00    -0.266 OA
ATOM      5  N   UNK d   1      10.597   4.887  11.354  0.00  0.00    -0.171 N 
ATOM      6  N   UNK d   1      10.635   3.906  10.543  0.00  0.00    -0.154 NA
ATOM      7  C   UNK d   1      11.675   3.134  10.426  0.00  0.00     0.132 A 
ATOM      8  S   UNK d   1      12.716   3.874  11.588  0.00  0.00    -0.028 SA
ATOM      9  C   UNK d   1      11.668   5.129  12.112  0.00  0.00     0.199 A 
ATOM     10  N   UNK d   1      11.760   6.135  13.010  0.00  0.00    -0.225 NA
ENDROOT
BRANCH   1  11
ATOM     11  C   UNK d   1      10.803   8.120  14.199  0.00  0.00     0.176 C 
BRANCH  11  12
ATOM     12  N   UNK d   1       9.532   8.771  14.222  0.00  0.00    -0.404 N 
ATOM     13  C   UNK d   1       9.511  10.131  13.858  0.00  0.00     0.137 C 
ATOM     14  C   UNK d   1       8.070  10.525  13.516  0.00  0.00     0.155 C 
ATOM     15  N   UNK d   1       7.196  10.138  14.536  0.00  0.00    -0.302 N 
ATOM     16  C   UNK d   1       7.827   9.623  15.678  0.00  0.00     0.155 C 
ATOM     17  C   UNK d   1       8.692   8.439  15.309  0.00  0.00     0.137 C 
BRANCH  15  18
ATOM     18  S   UNK d   1       5.598   9.813  14.229  0.00  0.00     0.280 S 
ATOM     19  O   UNK d   1       4.908  11.110  13.818  0.00  0.00    -0.199 OA
ATOM     20  O   UNK d   1       4.889   9.216  15.417  0.00  0.00    -0.199 OA
BRANCH  18  21
ATOM     21  C   UNK d   1       5.422   8.740  12.858  0.00  0.00     0.188 A 
ATOM     22  N   UNK d   1       4.569   8.893  11.807  0.00  0.00    -0.229 NA
ATOM     23  C   UNK d   1       4.705   7.878  10.951  0.00  0.00     0.208 A 
ATOM     24  N   UNK d   1       5.642   7.034  11.403  0.00  0.00    -0.358 N 
ATOM     25  C   UNK d   1       6.080   7.567  12.577  0.00  0.00     0.134 A 
ATOM     26  H   UNK d   1       5.961   6.161  10.952  0.00  0.00     0.166 HD
ENDBRANCH  18  21
ENDBRANCH  15  18
ENDBRANCH  11  12
ENDBRANCH   1  11
BRANCH   7  27
ATOM     27  C   UNK d   1      11.941   1.968   9.575  0.00  0.00     0.002 A 
ATOM     28  C   UNK d   1      10.897   1.126   9.261  0.00  0.00     0.016 A 
ATOM     29  C   UNK d   1      11.083   0.007   8.461  0.00  0.00     0.024 A 
ATOM     30  C   UNK d   1      12.338  -0.277   7.963  0.00  0.00     0.034 A 
ATOM     31  C   UNK d   1      13.403   0.555   8.265  0.00  0.00     0.024 A 
ATOM     32 Cl   UNK d   1      12.587  -1.671   6.962  0.00  0.00    -0.084 Cl
ATOM     33  C   UNK d   1      13.168   1.651   9.063  0.00  0.00     0.016 A 
ENDBRANCH   7  27
TORSDOF 5
ENDMDL
