/Users/jonathanwahrer/Desktop/Msc/3_Semester/Drug_Design_Praktikum/waehrer_HTS_screening/HTS_experiment/out/docking_results/vina_output/2jam/2285_docked.pdbqt
 OpenBabel03162219013D

 32 35  0  0  0  0  0  0  0  0999 V2000
    7.8520    6.9650   12.2210 N   0  0  0  0  0  0  0  0  0  0  0  0
    7.8960    5.8110   11.3740 C   0  0  0  0  0  2  0  0  0  0  0  0
    9.2970    5.1890   11.2310 C   0  0  0  0  0  2  0  0  0  0  0  0
   10.1590    6.2330   10.7710 N   0  0  0  0  0  0  0  0  0  0  0  0
   10.2930    7.1930   11.8320 C   0  0  0  0  0  2  0  0  0  0  0  0
    8.9690    7.9060   11.8550 C   0  0  0  0  0  2  0  0  0  0  0  0
    6.4150    7.8790   11.7060 S   0  0  0  0  0  0  0  0  0  0  0  0
    6.9130    9.1620   11.0670 O   0  0  0  0  0  0  0  0  0  0  0  0
    5.6780    7.0700   10.6990 O   0  0  0  0  0  0  0  0  0  0  0  0
    5.3940    8.2770   13.0310 C   0  0  0  0  0  0  0  0  0  0  0  0
    5.8360    7.8220   14.2810 C   0  0  0  0  0  3  0  0  0  0  0  0
    5.1930    8.1290   15.4830 C   0  0  0  0  0  0  0  0  0  0  0  0
    4.0550    8.9280   15.4320 C   0  0  0  0  0  0  0  0  0  0  0  0
    5.6580    7.6570   16.6990 O   0  0  0  0  0  0  0  0  0  0  0  0
    3.6280    9.3640   14.1910 C   0  0  0  0  0  3  0  0  0  0  0  0
    3.4740    9.1960   16.6570 O   0  0  0  0  0  0  0  0  0  0  0  0
    4.2780    9.0550   13.0020 C   0  0  0  0  0  3  0  0  0  0  0  0
    4.3650    9.4370   17.7790 C   0  0  0  0  0  2  0  0  0  0  0  0
    5.5190    8.4920   17.8220 C   0  0  0  0  0  2  0  0  0  0  0  0
   11.1840    5.9310    9.8920 C   0  0  0  0  0  2  0  0  0  0  0  0
   11.9330    4.6930   10.1210 C   0  0  0  0  0  0  0  0  0  0  0  0
   12.7220    4.7680   11.1630 O   0  0  0  0  0  0  0  0  0  0  0  0
   11.9500    3.4970    9.4640 N   0  0  0  0  0  0  0  0  0  0  0  0
   11.3930    3.2870    8.5710 H   0  0  0  0  0  0  0  0  0  0  0  0
   12.6860    2.3090    9.9040 C   0  0  0  0  0  2  0  0  0  0  0  0
   12.1050    1.1160    9.2560 C   0  0  0  0  0  0  0  0  0  0  0  0
   12.8150    0.4110    8.2570 C   0  0  0  0  0  0  0  0  0  0  0  0
   12.2730   -0.5910    7.5480 C   0  0  0  0  0  3  0  0  0  0  0  0
   14.5080    0.8750    7.9560 Cl  0  0  0  0  0  0  0  0  0  0  0  0
   10.9230   -0.9970    7.7840 C   0  0  0  0  0  3  0  0  0  0  0  0
   10.2330   -0.3350    8.7180 C   0  0  0  0  0  3  0  0  0  0  0  0
   10.7730    0.7170    9.4700 C   0  0  0  0  0  3  0  0  0  0  0  0
  2  1  1  0  0  0  0
  3  2  1  0  0  0  0
  4  3  1  0  0  0  0
  4  5  1  0  0  0  0
  5  6  1  0  0  0  0
  6  1  1  0  0  0  0
  7  1  1  0  0  0  0
  7 10  1  0  0  0  0
  8  7  2  0  0  0  0
  9  7  2  0  0  0  0
 10 11  1  0  0  0  0
 11 12  2  0  0  0  0
 12 14  1  0  0  0  0
 13 12  1  0  0  0  0
 13 16  1  0  0  0  0
 14 19  1  0  0  0  0
 15 13  2  0  0  0  0
 16 18  1  0  0  0  0
 17 10  2  0  0  0  0
 17 15  1  0  0  0  0
 18 19  1  0  0  0  0
 20 21  1  0  0  0  0
 20  4  1  0  0  0  0
 21 22  2  0  0  0  0
 23 25  1  0  0  0  0
 23 21  1  0  0  0  0
 24 23  1  0  0  0  0
 26 32  1  0  0  0  0
 26 25  1  0  0  0  0
 27 26  2  0  0  0  0
 28 30  2  0  0  0  0
 28 27  1  0  0  0  0
 29 27  1  0  0  0  0
 30 31  1  0  0  0  0
 31 32  2  0  0  0  0
M  END
>  <Pose>
1

>  <Score>
-9.718

$$$$
