MODEL 1
REMARK VINA RESULT:    -9.317      0.000      0.000
REMARK INTER + INTRA:         -12.003
REMARK INTER:                 -11.496
REMARK INTRA:                  -0.507
REMARK UNBOUND:                -0.507
REMARK  4 active torsions:
REMARK  status: ('A' for Active; 'I' for Inactive)
REMARK    1  A    between atoms: S_1  and  N_4 
REMARK    2  A    between atoms: S_1  and  C_26 
REMARK       I    between atoms: N_7  and  C_10 
REMARK    3  A    between atoms: C_10  and  C_12 
REMARK    4  A    between atoms: C_12  and  N_13 
ROOT
ATOM      1  N   UNK d   1      11.887   5.311  10.724  0.00  0.00    -0.303 N 
ATOM      2  C   UNK d   1      10.820   5.257   9.792  0.00  0.00     0.155 C 
ATOM      3  C   UNK d   1       9.461   5.496  10.394  0.00  0.00     0.146 C 
ATOM      4  N   UNK d   1       9.486   6.530  11.407  0.00  0.00    -0.348 N 
ATOM      5  C   UNK d   1      10.700   7.320  11.484  0.00  0.00     0.146 C 
ATOM      6  C   UNK d   1      11.928   6.448  11.572  0.00  0.00     0.155 C 
ATOM      7  C   UNK d   1       8.376   6.714  12.241  0.00  0.00     0.238 C 
ATOM      8  O   UNK d   1       7.372   5.977  12.093  0.00  0.00    -0.272 OA
ENDROOT
BRANCH   7   9
ATOM      9  C   UNK d   1       8.339   7.756  13.300  0.00  0.00     0.239 C 
BRANCH   9  10
ATOM     10  N   UNK d   1       7.010   7.974  13.799  0.00  0.00    -0.259 N 
ATOM     11  C   UNK d   1       5.965   8.588  13.060  0.00  0.00     0.328 C 
ATOM     12  O   UNK d   1       6.078   9.020  11.864  0.00  0.00    -0.247 OA
ATOM     13  N   UNK d   1       4.764   8.666  13.817  0.00  0.00    -0.320 N 
ATOM     14  C   UNK d   1       5.101   8.289  15.177  0.00  0.00     0.118 C 
ATOM     15  C   UNK d   1       3.452   9.053  13.298  0.00  0.00     0.155 C 
ATOM     16  C   UNK d   1       4.155   7.267  15.736  0.00  0.00     0.041 C 
ATOM     17  C   UNK d   1       5.150   9.562  15.989  0.00  0.00     0.041 C 
ATOM     18  C   UNK d   1       6.440   7.658  15.062  0.00  0.00     0.257 C 
ATOM     19  C   UNK d   1       2.911   7.856  16.333  0.00  0.00     0.003 C 
ATOM     20  C   UNK d   1       3.175   8.970  17.302  0.00  0.00     0.000 C 
ATOM     21  C   UNK d   1       4.644   9.322  17.394  0.00  0.00     0.003 C 
ATOM     22  O   UNK d   1       7.013   6.949  15.922  0.00  0.00    -0.270 OA
ENDBRANCH   9  10
ENDBRANCH   7   9
BRANCH   1  23
ATOM     23  S   UNK d   1      12.228   3.832  11.514  0.00  0.00     0.267 S 
ATOM     24  O   UNK d   1      11.326   3.686  12.701  0.00  0.00    -0.200 OA
ATOM     25  O   UNK d   1      13.647   3.786  11.999  0.00  0.00    -0.200 OA
BRANCH  23  26
ATOM     26  C   UNK d   1      12.022   2.449  10.426  0.00  0.00     0.121 A 
ATOM     27  S   UNK d   1      13.169   1.718   9.408  0.00  0.00    -0.064 SA
ATOM     28  C   UNK d   1      12.198   0.500   8.726  0.00  0.00     0.075 A 
ATOM     29  C   UNK d   1      10.980   0.696   9.320  0.00  0.00     0.033 A 
ATOM     30 Cl   UNK d   1      12.625  -0.743   7.531  0.00  0.00    -0.076 Cl
ATOM     31  C   UNK d   1      10.889   1.713  10.207  0.00  0.00     0.035 A 
ENDBRANCH  23  26
ENDBRANCH   1  23
TORSDOF 4
ENDMDL
