MODEL 1
REMARK VINA RESULT:    -9.367      0.000      0.000
REMARK INTER + INTRA:         -14.020
REMARK INTER:                 -13.201
REMARK INTRA:                  -0.819
REMARK UNBOUND:                -0.819
REMARK  7 active torsions:
REMARK  status: ('A' for Active; 'I' for Inactive)
REMARK    1  A    between atoms: S_1  and  N_4 
REMARK    2  A    between atoms: S_1  and  C_27 
REMARK    3  A    between atoms: N_7  and  C_10 
REMARK    4  A    between atoms: C_10  and  C_11 
REMARK       I    between atoms: C_11  and  N_13 
REMARK    5  A    between atoms: N_13  and  C_14 
REMARK    6  A    between atoms: C_14  and  C_15 
REMARK    7  A    between atoms: C_15  and  N_21 
ROOT
ATOM      1  C   UNK d   1      10.082   4.485  11.096  0.00  0.00     0.374 C 
ENDROOT
BRANCH   1   2
ATOM      2  N   UNK d   1      11.187   4.341  11.999  0.00  0.00     0.100 N 
ATOM      3  C   UNK d   1      11.462   3.000  12.373  0.00  0.00     0.293 C 
ATOM      4  C   UNK d   1      12.833   2.490  12.017  0.00  0.00     0.165 C 
ATOM      5  N   UNK d   1      13.176   2.865  10.735  0.00  0.00    -0.303 N 
ATOM      6  C   UNK d   1      13.005   4.213  10.402  0.00  0.00     0.165 C 
ATOM      7  C   UNK d   1      12.360   5.008  11.533  0.00  0.00     0.293 C 
BRANCH   5   8
ATOM      8  S   UNK d   1      13.767   1.808   9.596  0.00  0.00     0.260 S 
ATOM      9  O   UNK d   1      14.327   2.486   8.370  0.00  0.00    -0.200 OA
ATOM     10  O   UNK d   1      14.873   0.908  10.100  0.00  0.00    -0.200 OA
BRANCH   8  11
ATOM     11  C   UNK d   1      12.469   0.769   9.015  0.00  0.00     0.079 A 
ATOM     12  C   UNK d   1      11.205   0.855   9.531  0.00  0.00     0.027 A 
ATOM     13  C   UNK d   1      10.192   0.049   9.082  0.00  0.00     0.025 A 
ATOM     14  C   UNK d   1      10.460  -0.868   8.090  0.00  0.00     0.034 A 
ATOM     15  C   UNK d   1      11.736  -0.958   7.567  0.00  0.00     0.025 A 
ATOM     16 Cl   UNK d   1       9.142  -1.886   7.537  0.00  0.00    -0.084 Cl
ATOM     17  C   UNK d   1      12.742  -0.146   8.023  0.00  0.00     0.027 A 
ENDBRANCH   8  11
ENDBRANCH   5   8
ENDBRANCH   1   2
BRANCH   1  18
ATOM     18  C   UNK d   1       9.635   5.916  11.010  0.00  0.00     0.246 C 
ATOM     19  O   UNK d   1       9.836   6.507   9.927  0.00  0.00    -0.272 OA
ATOM     20  N   UNK d   1       9.014   6.562  12.108  0.00  0.00    -0.357 N 
ATOM     21  H   UNK d   1       8.873   6.005  12.993  0.00  0.00     0.162 HD
BRANCH  20  22
ATOM     22  C   UNK d   1       8.621   7.930  11.937  0.00  0.00     0.164 C 
BRANCH  22  23
ATOM     23  C   UNK d   1       8.019   8.601  13.112  0.00  0.00     0.175 C 
ATOM     24  C   UNK d   1       8.633   9.969  13.280  0.00  0.00     0.043 C 
ATOM     25  C   UNK d   1       9.853   9.945  14.206  0.00  0.00     0.003 C 
ATOM     26  C   UNK d   1       9.426   9.631  15.626  0.00  0.00     0.000 C 
ATOM     27  C   UNK d   1       8.221   8.712  15.542  0.00  0.00     0.003 C 
ATOM     28  C   UNK d   1       8.468   7.806  14.354  0.00  0.00     0.043 C 
BRANCH  23  29
ATOM     29  N   UNK d   1       6.611   8.681  13.182  0.00  0.00     0.103 N 
ATOM     30  C   UNK d   1       6.010   9.966  13.256  0.00  0.00     0.299 C 
ATOM     31  C   UNK d   1       4.574   9.732  13.759  0.00  0.00     0.198 C 
ATOM     32  O   UNK d   1       3.871   8.980  12.849  0.00  0.00    -0.388 OA
ATOM     33  C   UNK d   1       4.600   8.583  11.757  0.00  0.00     0.198 C 
ATOM     34  C   UNK d   1       5.923   7.928  12.155  0.00  0.00     0.299 C 
ENDBRANCH  23  29
ENDBRANCH  22  23
ENDBRANCH  20  22
ENDBRANCH   1  18
TORSDOF 7
ENDMDL
