/Users/jonathanwahrer/Desktop/Msc/3_Semester/Drug_Design_Praktikum/waehrer_HTS_screening/HTS_experiment/out/docking_results/vina_output/2jam/2298_docked.pdbqt
 OpenBabel03162219023D

 34 37  0  0  0  0  0  0  0  0999 V2000
   10.0820    4.4850   11.0960 C   0  0  0  0  0  2  0  0  0  0  0  0
   11.1870    4.3410   11.9990 N   0  0  0  0  0  0  0  0  0  0  0  0
   11.4620    3.0000   12.3730 C   0  0  0  0  0  2  0  0  0  0  0  0
   12.8330    2.4900   12.0170 C   0  0  0  0  0  2  0  0  0  0  0  0
   13.1760    2.8650   10.7350 N   0  0  0  0  0  0  0  0  0  0  0  0
   13.0050    4.2130   10.4020 C   0  0  0  0  0  2  0  0  0  0  0  0
   12.3600    5.0080   11.5330 C   0  0  0  0  0  2  0  0  0  0  0  0
   13.7670    1.8080    9.5960 S   0  0  0  0  0  0  0  0  0  0  0  0
   14.3270    2.4860    8.3700 O   0  0  0  0  0  0  0  0  0  0  0  0
   14.8730    0.9080   10.1000 O   0  0  0  0  0  0  0  0  0  0  0  0
   12.4690    0.7690    9.0150 C   0  0  0  0  0  0  0  0  0  0  0  0
   11.2050    0.8550    9.5310 C   0  0  0  0  0  3  0  0  0  0  0  0
   10.1920    0.0490    9.0820 C   0  0  0  0  0  3  0  0  0  0  0  0
   10.4600   -0.8680    8.0900 C   0  0  0  0  0  0  0  0  0  0  0  0
   11.7360   -0.9580    7.5670 C   0  0  0  0  0  3  0  0  0  0  0  0
    9.1420   -1.8860    7.5370 Cl  0  0  0  0  0  0  0  0  0  0  0  0
   12.7420   -0.1460    8.0230 C   0  0  0  0  0  3  0  0  0  0  0  0
    9.6350    5.9160   11.0100 C   0  0  0  0  0  0  0  0  0  0  0  0
    9.8360    6.5070    9.9270 O   0  0  0  0  0  0  0  0  0  0  0  0
    9.0140    6.5620   12.1080 N   0  0  0  0  0  0  0  0  0  0  0  0
    8.8730    6.0050   12.9930 H   0  0  0  0  0  0  0  0  0  0  0  0
    8.6210    7.9300   11.9370 C   0  0  0  0  0  2  0  0  0  0  0  0
    8.0190    8.6010   13.1120 C   0  0  0  0  0  0  0  0  0  0  0  0
    8.6330    9.9690   13.2800 C   0  0  0  0  0  2  0  0  0  0  0  0
    9.8530    9.9450   14.2060 C   0  0  0  0  0  2  0  0  0  0  0  0
    9.4260    9.6310   15.6260 C   0  0  0  0  0  2  0  0  0  0  0  0
    8.2210    8.7120   15.5420 C   0  0  0  0  0  2  0  0  0  0  0  0
    8.4680    7.8060   14.3540 C   0  0  0  0  0  2  0  0  0  0  0  0
    6.6110    8.6810   13.1820 N   0  0  0  0  0  0  0  0  0  0  0  0
    6.0100    9.9660   13.2560 C   0  0  0  0  0  2  0  0  0  0  0  0
    4.5740    9.7320   13.7590 C   0  0  0  0  0  2  0  0  0  0  0  0
    3.8710    8.9800   12.8490 O   0  0  0  0  0  0  0  0  0  0  0  0
    4.6000    8.5830   11.7570 C   0  0  0  0  0  2  0  0  0  0  0  0
    5.9230    7.9280   12.1550 C   0  0  0  0  0  2  0  0  0  0  0  0
  1  2  1  0  0  0  0
  2  3  1  0  0  0  0
  4  3  1  0  0  0  0
  5  4  1  0  0  0  0
  6  5  1  0  0  0  0
  6  7  1  0  0  0  0
  7  2  1  0  0  0  0
  8 10  2  0  0  0  0
  8  5  1  0  0  0  0
  9  8  2  0  0  0  0
 11 12  1  0  0  0  0
 11  8  1  0  0  0  0
 13 12  2  0  0  0  0
 14 13  1  0  0  0  0
 15 17  1  0  0  0  0
 15 14  2  0  0  0  0
 16 14  1  0  0  0  0
 17 11  2  0  0  0  0
 18  1  1  0  0  0  0
 18 20  1  0  0  0  0
 19 18  2  0  0  0  0
 20 21  1  0  0  0  0
 22 20  1  0  0  0  0
 22 23  1  0  0  0  0
 23 29  1  0  0  0  0
 23 24  1  0  0  0  0
 23 28  1  0  0  0  0
 24 25  1  0  0  0  0
 25 26  1  0  0  0  0
 27 26  1  0  0  0  0
 28 27  1  0  0  0  0
 29 30  1  0  0  0  0
 30 31  1  0  0  0  0
 32 31  1  0  0  0  0
 33 34  1  0  0  0  0
 33 32  1  0  0  0  0
 34 29  1  0  0  0  0
M  END
>  <Pose>
1

>  <Score>
-9.367

$$$$
