MODEL 1
REMARK VINA RESULT:    -8.478      0.000      0.000
REMARK INTER + INTRA:         -10.142
REMARK INTER:                  -9.718
REMARK INTRA:                  -0.425
REMARK UNBOUND:                -0.425
REMARK  3 active torsions:
REMARK  status: ('A' for Active; 'I' for Inactive)
REMARK    1  A    between atoms: C_5  and  C_8 
REMARK    2  A    between atoms: C_8  and  O_23 
REMARK    3  A    between atoms: N_11  and  C_14 
ROOT
ATOM      1  C   UNK d   1      11.092   5.758  12.290  0.00  0.00     0.088 C 
ATOM      2  C   UNK d   1       9.927   5.733  13.223  0.00  0.00     0.062 C 
ATOM      3  C   UNK d   1       8.614   5.953  12.452  0.00  0.00     0.128 C 
ATOM      4  N   UNK d   1       8.761   7.326  11.948  0.00  0.00    -0.364 N 
ATOM      5  C   UNK d   1       9.798   7.494  10.979  0.00  0.00     0.128 C 
ATOM      6  C   UNK d   1      11.129   6.960  11.422  0.00  0.00     0.062 C 
ENDROOT
BRANCH   1   7
ATOM      7  C   UNK d   1      11.189   4.468  11.587  0.00  0.00    -0.024 A 
ATOM      8  C   UNK d   1      10.527   4.131  10.442  0.00  0.00     0.012 A 
ATOM      9  C   UNK d   1      10.712   2.891   9.897  0.00  0.00     0.024 A 
ATOM     10  C   UNK d   1      11.548   1.925  10.440  0.00  0.00     0.034 A 
ATOM     11 Cl   UNK d   1      11.761   0.353   9.699  0.00  0.00    -0.084 Cl
ATOM     12  C   UNK d   1      12.209   2.271  11.593  0.00  0.00     0.024 A 
ATOM     13  C   UNK d   1      12.035   3.519  12.159  0.00  0.00     0.012 A 
ENDBRANCH   1   7
BRANCH   1  14
ATOM     14  O   UNK d   1      12.243   5.802  13.118  0.00  0.00    -0.385 OA
ATOM     15  H   UNK d   1      13.038   5.840  12.501  0.00  0.00     0.211 HD
ENDBRANCH   1  14
BRANCH   4  16
ATOM     16  C   UNK d   1       7.898   8.331  12.446  0.00  0.00     0.148 A 
ATOM     17  N   UNK d   1       6.591   8.063  12.608  0.00  0.00    -0.129 NA
ATOM     18  N   UNK d   1       5.692   8.908  13.072  0.00  0.00    -0.108 N 
ATOM     19  N   UNK d   1       4.379   8.855  13.314  0.00  0.00    -0.021 NA
ATOM     20  C   UNK d   1       6.070  10.137  13.419  0.00  0.00     0.196 A 
ATOM     21  N   UNK d   1       3.949  10.002  13.790  0.00  0.00    -0.021 NA
ATOM     22  N   UNK d   1       4.976  10.804  13.863  0.00  0.00    -0.107 NA
ATOM     23  C   UNK d   1       7.402  10.488  13.280  0.00  0.00     0.060 A 
ATOM     24  C   UNK d   1       8.328   9.590  12.792  0.00  0.00     0.056 A 
ENDBRANCH   4  16
TORSDOF 3
ENDMDL
