/Users/jonathanwahrer/Desktop/Msc/3_Semester/Drug_Design_Praktikum/waehrer_HTS_screening/HTS_experiment/out/docking_results/vina_output/2jam/2304_docked.pdbqt
 OpenBabel03162219023D

 28 31  0  0  1  0  0  0  0  0999 V2000
   11.5740    4.6950   11.2100 N   0  0  0  0  0  0  0  0  0  0  0  0
   12.2860    5.8090   11.7110 C   0  0  0  0  0  2  0  0  0  0  0  0
   11.4570    7.0470   11.9290 C   0  0  0  0  0  2  0  0  0  0  0  0
   10.1810    6.7750   12.5280 N   0  0  0  0  0  0  0  0  0  0  0  0
    9.7660    5.3950   12.5820 C   0  0  0  0  0  2  0  0  0  0  0  0
   10.1550    4.7670   11.2470 C   0  0  0  0  0  2  0  0  0  0  0  0
    9.3950    7.8280   13.0250 C   0  0  0  0  0  0  0  0  0  0  0  0
    9.8580    8.9980   12.9100 O   0  0  0  0  0  0  0  0  0  0  0  0
    8.0660    7.6490   13.6710 C   0  0  2  0  0  3  0  0  0  0  0  0
    7.0120    8.1110   12.8440 N   0  0  0  0  0  0  0  0  0  0  0  0
    6.6370    9.4790   12.9920 C   0  0  2  0  0  0  0  0  0  0  0  0
    6.1320    7.5970   11.8170 C   0  0  0  0  0  0  0  0  0  0  0  0
    6.9810    9.8000   14.7350 S   0  0  0  0  0  0  0  0  0  0  0  0
    5.1290    9.4320   12.8370 C   0  0  0  0  0  2  0  0  0  0  0  0
    7.2710   10.4380   12.0650 C   0  0  0  0  0  1  0  0  0  0  0  0
    7.9950    8.2950   15.0220 C   0  0  0  0  0  2  0  0  0  0  0  0
    5.0460    8.5460   11.5860 C   0  0  0  0  0  2  0  0  0  0  0  0
    6.2490    6.5000   11.1920 O   0  0  0  0  0  0  0  0  0  0  0  0
   12.2430    3.1750   11.5550 S   0  0  0  0  0  0  0  0  0  0  0  0
   13.7270    3.2680   11.7240 O   0  0  0  0  0  0  0  0  0  0  0  0
   11.6870    2.6990   12.8740 O   0  0  0  0  0  0  0  0  0  0  0  0
   11.8210    1.9500   10.3620 C   0  0  0  0  0  0  0  0  0  0  0  0
   12.8040    1.3030    9.6460 C   0  0  0  0  0  3  0  0  0  0  0  0
   12.5090    0.3440    8.7060 C   0  0  0  0  0  3  0  0  0  0  0  0
   11.2020   -0.0190    8.4360 C   0  0  0  0  0  0  0  0  0  0  0  0
   10.2370    0.6490    9.1710 C   0  0  0  0  0  3  0  0  0  0  0  0
   10.7900   -1.2360    7.2460 Cl  0  0  0  0  0  0  0  0  0  0  0  0
   10.5170    1.6080   10.1120 C   0  0  0  0  0  3  0  0  0  0  0  0
  1  6  1  0  0  0  0
  1 19  1  0  0  0  0
  1  2  1  0  0  0  0
  2  3  1  0  0  0  0
  3  4  1  0  0  0  0
  4  5  1  0  0  0  0
  4  7  1  0  0  0  0
  6  5  1  0  0  0  0
  8  7  2  0  0  0  0
  9  7  1  6  0  0  0
  9 16  1  0  0  0  0
 10 11  1  0  0  0  0
 10  9  1  0  0  0  0
 11 15  1  6  0  0  0
 11 13  1  0  0  0  0
 12 10  1  0  0  0  0
 13 16  1  0  0  0  0
 14 11  1  0  0  0  0
 17 12  1  0  0  0  0
 17 14  1  0  0  0  0
 18 12  2  0  0  0  0
 19 20  2  0  0  0  0
 19 21  2  0  0  0  0
 22 19  1  0  0  0  0
 23 22  2  0  0  0  0
 24 23  1  0  0  0  0
 25 24  2  0  0  0  0
 25 26  1  0  0  0  0
 26 28  2  0  0  0  0
 27 25  1  0  0  0  0
 28 22  1  0  0  0  0
M  END
>  <Pose>
1

>  <Score>
-9.600

$$$$
