MODEL 1
REMARK VINA RESULT:    -9.343      0.000      0.000
REMARK INTER + INTRA:         -12.645
REMARK INTER:                 -12.074
REMARK INTRA:                  -0.571
REMARK UNBOUND:                -0.571
REMARK  5 active torsions:
REMARK  status: ('A' for Active; 'I' for Inactive)
REMARK    1  A    between atoms: C_3  and  C_13 
REMARK    2  A    between atoms: C_5  and  C_8 
REMARK       I    between atoms: C_13  and  N_15 
REMARK    3  A    between atoms: N_15  and  C_16 
REMARK    4  A    between atoms: C_16  and  C_17 
REMARK    5  A    between atoms: C_17  and  C_18 
ROOT
ATOM      1  C   UNK d   1      11.457   3.307  11.790  0.00  0.00     0.253 C 
ATOM      2  O   UNK d   1      11.314   2.940  12.979  0.00  0.00    -0.268 OA
ATOM      3  N   UNK d   1      11.185   4.632  11.446  0.00  0.00    -0.356 N 
ATOM      4  H   UNK d   1      11.352   4.846  10.398  0.00  0.00     0.162 HD
ENDROOT
BRANCH   1   5
ATOM      5  C   UNK d   1      11.912   2.292  10.822  0.00  0.00     0.054 A 
ATOM      6  C   UNK d   1      13.248   2.103  10.536  0.00  0.00     0.049 A 
ATOM      7 Cl   UNK d   1      14.410   3.122  11.372  0.00  0.00    -0.083 Cl
ATOM      8  C   UNK d   1      13.677   1.145   9.621  0.00  0.00     0.026 A 
ATOM      9  C   UNK d   1      12.740   0.371   8.989  0.00  0.00     0.017 A 
ATOM     10  C   UNK d   1      11.373   0.523   9.245  0.00  0.00     0.016 A 
ATOM     11  C   UNK d   1      11.017   1.483  10.155  0.00  0.00     0.034 A 
BRANCH  10  12
ATOM     12  C   UNK d   1      10.410  -0.320   8.551  0.00  0.00     0.197 A 
ATOM     13  N   UNK d   1      10.610  -1.222   7.586  0.00  0.00    -0.139 NA
ATOM     14  N   UNK d   1       9.430  -1.765   7.244  0.00  0.00    -0.200 N 
ATOM     15  N   UNK d   1       8.490  -1.210   7.988  0.00  0.00     0.022 NA
ATOM     16  H   UNK d   1       9.262  -2.498   6.518  0.00  0.00     0.208 HD
ATOM     17  N   UNK d   1       9.089  -0.326   8.790  0.00  0.00    -0.136 NA
ENDBRANCH  10  12
ENDBRANCH   1   5
BRANCH   3  18
ATOM     18  C   UNK d   1      10.738   5.718  12.219  0.00  0.00     0.130 C 
BRANCH  18  19
ATOM     19  C   UNK d   1      10.089   6.878  11.595  0.00  0.00     0.100 C 
BRANCH  19  20
ATOM     20  C   UNK d   1       8.644   7.050  11.715  0.00  0.00     0.136 A 
ATOM     21  N   UNK d   1       7.982   8.116  12.178  0.00  0.00    -0.292 N 
ATOM     22  C   UNK d   1       6.685   7.877  12.076  0.00  0.00     0.157 A 
ATOM     23  C   UNK d   1       8.417   9.287  12.683  0.00  0.00     0.100 A 
ATOM     24  N   UNK d   1       6.536   6.655  11.548  0.00  0.00    -0.130 NA
ATOM     25  C   UNK d   1       5.730   8.789  12.472  0.00  0.00     0.053 A 
ATOM     26  N   UNK d   1       7.724   6.158  11.331  0.00  0.00    -0.134 NA
ATOM     27  C   UNK d   1       6.176   9.990  12.991  0.00  0.00     0.005 A 
ATOM     28  C   UNK d   1       7.519  10.228  13.093  0.00  0.00     0.018 A 
ENDBRANCH  19  20
ENDBRANCH  18  19
ENDBRANCH   3  18
TORSDOF 5
ENDMDL
