MODEL 1
REMARK VINA RESULT:    -9.475      0.000      0.000
REMARK INTER + INTRA:         -11.608
REMARK INTER:                 -11.691
REMARK INTRA:                   0.083
REMARK UNBOUND:                 0.083
REMARK  4 active torsions:
REMARK  status: ('A' for Active; 'I' for Inactive)
REMARK    1  A    between atoms: S_1  and  N_4 
REMARK    2  A    between atoms: S_1  and  C_18 
REMARK    3  A    between atoms: C_6  and  C_10 
REMARK       I    between atoms: C_10  and  N_12 
REMARK    4  A    between atoms: C_22  and  C_24 
ROOT
ATOM      1  S   UNK d   1      11.102   5.961  10.513  0.00  0.00     0.245 S 
ATOM      2  O   UNK d   1      12.516   6.507  10.299  0.00  0.00    -0.206 OA
ATOM      3  O   UNK d   1      10.395   6.228   9.179  0.00  0.00    -0.206 OA
ENDROOT
BRANCH   1   4
ATOM      4  N   UNK d   1      11.263   4.292  10.763  0.00  0.00    -0.206 NA
ATOM      5  C   UNK d   1      11.962   3.562   9.767  0.00  0.00     0.121 C 
ATOM      6  C   UNK d   1      12.088   2.090  10.083  0.00  0.00     0.092 C 
ATOM      7  C   UNK d   1      12.725   1.897  11.416  0.00  0.00     0.016 C 
ATOM      8  C   UNK d   1      12.056   2.740  12.487  0.00  0.00     0.016 C 
ATOM      9  C   UNK d   1      12.013   4.156  12.028  0.00  0.00     0.107 C 
BRANCH   6  10
ATOM     10  C   UNK d   1      10.849   1.316   9.864  0.00  0.00     0.225 C 
ATOM     11  O   UNK d   1       9.774   1.876  10.294  0.00  0.00    -0.273 OA
ATOM     12  N   UNK d   1      10.722   0.077   9.253  0.00  0.00    -0.348 N 
ATOM     13  C   UNK d   1       9.449  -0.547   9.072  0.00  0.00     0.152 C 
ATOM     14  C   UNK d   1      11.868  -0.661   8.781  0.00  0.00     0.152 C 
ATOM     15  C   UNK d   1       9.331  -1.318   7.786  0.00  0.00     0.187 C 
ATOM     16  O   UNK d   1      10.504  -1.748   7.250  0.00  0.00    -0.388 OA
ATOM     17  C   UNK d   1      11.565  -0.868   7.288  0.00  0.00     0.187 C 
ENDBRANCH   6  10
ENDBRANCH   1   4
BRANCH   1  18
ATOM     18  C   UNK d   1      10.303   6.870  11.725  0.00  0.00     0.097 A 
ATOM     19  C   UNK d   1      10.960   7.406  12.806  0.00  0.00     0.057 A 
ATOM     20  C   UNK d   1      10.268   8.188  13.719  0.00  0.00     0.026 A 
ATOM     21 Cl   UNK d   1      12.646   7.094  13.161  0.00  0.00    -0.083 Cl
ATOM     22  C   UNK d   1       8.903   8.446  13.569  0.00  0.00     0.017 A 
ATOM     23  C   UNK d   1       8.232   7.913  12.492  0.00  0.00     0.016 A 
ATOM     24  C   UNK d   1       8.935   7.141  11.598  0.00  0.00     0.042 A 
BRANCH  23  25
ATOM     25  C   UNK d   1       6.808   8.165  12.313  0.00  0.00     0.189 A 
ATOM     26  N   UNK d   1       6.130   8.093  11.155  0.00  0.00    -0.106 NA
ATOM     27  O   UNK d   1       4.874   8.381  11.357  0.00  0.00    -0.196 OA
ATOM     28  C   UNK d   1       4.696   8.642  12.625  0.00  0.00     0.169 A 
ATOM     29  N   UNK d   1       5.892   8.512  13.231  0.00  0.00    -0.204 NA
ATOM     30  C   UNK d   1       3.404   9.020  13.296  0.00  0.00     0.102 C 
ENDBRANCH  23  25
ENDBRANCH   1  18
TORSDOF 4
ENDMDL
