MODEL 1
REMARK VINA RESULT:    -8.357      0.000      0.000
REMARK INTER + INTRA:         -12.885
REMARK INTER:                 -11.777
REMARK INTRA:                  -1.108
REMARK UNBOUND:                -1.108
REMARK  7 active torsions:
REMARK  status: ('A' for Active; 'I' for Inactive)
REMARK    1  A    between atoms: S_1  and  N_4 
REMARK    2  A    between atoms: S_1  and  C_21 
REMARK    3  A    between atoms: C_6  and  C_10 
REMARK       I    between atoms: C_10  and  N_12 
REMARK    4  A    between atoms: N_12  and  C_13 
REMARK    5  A    between atoms: C_13  and  C_14 
REMARK    6  A    between atoms: C_14  and  N_15 
REMARK       I    between atoms: N_30  and  C_31 
REMARK    7  A    between atoms: C_31  and  C_33 
ROOT
ATOM      1  N   UNK d   1       9.361   6.762  12.855  0.00  0.00    -0.306 N 
ATOM      2  C   UNK d   1       8.580   7.928  12.984  0.00  0.00     0.149 C 
ATOM      3  C   UNK d   1       9.273   9.042  13.738  0.00  0.00     0.096 C 
ATOM      4  C   UNK d   1      10.281   8.577  14.718  0.00  0.00     0.017 C 
ATOM      5  C   UNK d   1      10.228   7.147  15.115  0.00  0.00     0.021 C 
ATOM      6  C   UNK d   1       9.865   6.178  14.019  0.00  0.00     0.135 C 
ENDROOT
BRANCH   1   7
ATOM      7  S   UNK d   1       9.717   6.163  11.346  0.00  0.00     0.262 S 
ATOM      8  O   UNK d   1       9.721   7.320  10.349  0.00  0.00    -0.200 OA
ATOM      9  O   UNK d   1       8.551   5.298  10.883  0.00  0.00    -0.200 OA
BRANCH   7  10
ATOM     10  C   UNK d   1      11.167   5.240  11.196  0.00  0.00     0.099 A 
ATOM     11  C   UNK d   1      11.107   3.893  10.875  0.00  0.00     0.057 A 
ATOM     12  C   UNK d   1      12.232   3.117  10.730  0.00  0.00     0.045 A 
ATOM     13  C   UNK d   1      13.487   3.708  10.915  0.00  0.00    -0.028 A 
ATOM     14  N   UNK d   1      12.495   1.759  10.408  0.00  0.00    -0.317 N 
ATOM     15  C   UNK d   1      13.536   5.026  11.229  0.00  0.00     0.030 A 
ATOM     16  C   UNK d   1      14.566   2.703  10.715  0.00  0.00     0.061 C 
ATOM     17  C   UNK d   1      12.401   5.807  11.374  0.00  0.00     0.035 A 
ATOM     18 Br   UNK d   1      12.595   7.673  11.827  0.00  0.00    -0.049 Br
ATOM     19  C   UNK d   1      13.818   1.405  10.936  0.00  0.00     0.137 C 
ATOM     20  C   UNK d   1      11.684   0.864   9.712  0.00  0.00     0.224 C 
ATOM     21  O   UNK d   1      12.108  -0.318   9.469  0.00  0.00    -0.273 OA
BRANCH  20  22
ATOM     22  C   UNK d   1      10.346   1.184   9.221  0.00  0.00     0.099 C 
ATOM     23  C   UNK d   1       9.454  -0.052   9.143  0.00  0.00     0.014 C 
ENDBRANCH  20  22
ENDBRANCH   7  10
ENDBRANCH   1   7
BRANCH   3  24
ATOM     24  C   UNK d   1       8.283   9.927  14.404  0.00  0.00     0.223 C 
ATOM     25  O   UNK d   1       7.740  10.826  13.716  0.00  0.00    -0.273 OA
ATOM     26  N   UNK d   1       7.963   9.746  15.802  0.00  0.00    -0.359 N 
ATOM     27  H   UNK d   1       8.469   8.992  16.272  0.00  0.00     0.162 HD
BRANCH  26  28
ATOM     28  C   UNK d   1       7.008  10.626  16.371  0.00  0.00     0.142 C 
BRANCH  28  29
ATOM     29  C   UNK d   1       5.879  10.058  17.143  0.00  0.00     0.136 C 
BRANCH  29  30
ATOM     30  N   UNK d   1       4.891   9.301  16.468  0.00  0.00    -0.407 N 
ATOM     31  C   UNK d   1       5.162   7.970  16.176  0.00  0.00     0.143 C 
ATOM     32  C   UNK d   1       5.279   7.609  14.724  0.00  0.00     0.187 C 
ATOM     33  O   UNK d   1       4.346   8.266  13.934  0.00  0.00    -0.388 OA
ATOM     34  C   UNK d   1       4.633   9.627  14.034  0.00  0.00     0.187 C 
ATOM     35  C   UNK d   1       4.236  10.058  15.427  0.00  0.00     0.143 C 
ENDBRANCH  29  30
ENDBRANCH  28  29
ENDBRANCH  26  28
ENDBRANCH   3  24
TORSDOF 7
ENDMDL
