MODEL 1
REMARK VINA RESULT:    -9.292      0.000      0.000
REMARK INTER + INTRA:         -10.074
REMARK INTER:                  -9.836
REMARK INTRA:                  -0.238
REMARK UNBOUND:                -0.238
REMARK  1 active torsions:
REMARK  status: ('A' for Active; 'I' for Inactive)
REMARK    1  A    between atoms: C_5  and  N_8 
ROOT
ATOM      1  N   UNK d   1       6.398   8.012  12.739  0.00  0.00    -0.231 N 
ATOM      2  C   UNK d   1       5.312   8.285  11.842  0.00  0.00     0.357 A 
ATOM      3  O   UNK d   1       5.442   7.988  10.622  0.00  0.00    -0.244 OA
ATOM      4  N   UNK d   1       4.154   8.878  12.404  0.00  0.00    -0.169 NA
ATOM      5  C   UNK d   1       4.010   9.189  13.616  0.00  0.00     0.202 A 
ATOM      6  C   UNK d   1       5.037   9.000  14.698  0.00  0.00     0.140 A 
ATOM      7  C   UNK d   1       5.407  10.395  15.114  0.00  0.00     0.269 C 
ATOM      8  N   UNK d   1       5.930  10.569  16.414  0.00  0.00    -0.043 N 
ATOM      9  C   UNK d   1       5.320   9.807  17.439  0.00  0.00     0.140 A 
ATOM     10  C   UNK d   1       4.608   8.694  17.129  0.00  0.00    -0.021 A 
ATOM     11  C   UNK d   1       4.024   7.970  18.165  0.00  0.00     0.016 A 
ATOM     12  C   UNK d   1       4.177   8.390  19.471  0.00  0.00    -0.061 A 
ATOM     13  C   UNK d   1       4.904   9.528  19.786  0.00  0.00     0.009 A 
ATOM     14  C   UNK d   1       5.483  10.243  18.740  0.00  0.00     0.038 A 
ATOM     15  C   UNK d   1       3.553   7.639  20.606  0.00  0.00     0.048 C 
ATOM     16  C   UNK d   1       4.405   8.181  15.756  0.00  0.00     0.070 C 
ATOM     17  C   UNK d   1       7.377  10.471  16.525  0.00  0.00     0.276 C 
ATOM     18  C   UNK d   1       6.228   8.343  14.106  0.00  0.00     0.251 A 
ATOM     19  O   UNK d   1       7.224   8.018  14.847  0.00  0.00    -0.271 OA
ATOM     20  O   UNK d   1       2.808   9.769  14.061  0.00  0.00    -0.173 OA
ATOM     21  H   UNK d   1       5.727  11.583  16.690  0.00  0.00     0.286 HD
ENDROOT
BRANCH   1  22
ATOM     22  C   UNK d   1       7.574   7.460  12.181  0.00  0.00     0.047 A 
ATOM     23  C   UNK d   1       8.675   8.256  11.859  0.00  0.00     0.032 A 
ATOM     24  C   UNK d   1       9.826   7.744  11.324  0.00  0.00     0.026 A 
ATOM     25  C   UNK d   1       9.968   6.380  11.065  0.00  0.00     0.034 A 
ATOM     26 Cl   UNK d   1      11.456   5.745  10.388  0.00  0.00    -0.084 Cl
ATOM     27  C   UNK d   1       8.879   5.592  11.382  0.00  0.00     0.026 A 
ATOM     28  C   UNK d   1       7.724   6.108  11.920  0.00  0.00     0.032 A 
ENDBRANCH   1  22
TORSDOF 1
ENDMDL
