MODEL 1
REMARK VINA RESULT:    -9.067      0.000      0.000
REMARK INTER + INTRA:         -13.082
REMARK INTER:                 -11.982
REMARK INTRA:                  -1.100
REMARK UNBOUND:                -1.100
REMARK  6 active torsions:
REMARK  status: ('A' for Active; 'I' for Inactive)
REMARK    1  A    between atoms: C_5  and  N_8 
REMARK    2  A    between atoms: C_14  and  C_17 
REMARK    3  A    between atoms: C_19  and  C_22 
REMARK    4  A    between atoms: C_24  and  O_31 
REMARK    5  A    between atoms: C_25  and  O_30 
REMARK    6  A    between atoms: C_26  and  O_28 
ROOT
ATOM      1  C   UNK d   1       9.554   6.462  11.770  0.00  0.00     0.041 C 
ATOM      2  C   UNK d   1       9.190   6.529  13.036  0.00  0.00     0.026 C 
ATOM      3  C   UNK d   1       7.732   6.278  13.159  0.00  0.00     0.134 C 
ATOM      4  N   UNK d   1       7.418   5.623  11.919  0.00  0.00    -0.228 NA
ATOM      5  N   UNK d   1       8.371   6.160  11.039  0.00  0.00    -0.323 N 
ATOM      6  H   UNK d   1       6.455   5.722  11.605  0.00  0.00     0.147 HD
ATOM      7  H   UNK d   1       8.218   6.305  10.022  0.00  0.00     0.180 HD
ENDROOT
BRANCH   1   8
ATOM      8  C   UNK d   1      10.930   6.651  11.194  0.00  0.00     0.221 C 
ATOM      9  C   UNK d   1      11.933   6.754  12.278  0.00  0.00     0.244 C 
ATOM     10  N   UNK d   1      12.536   5.583  12.792  0.00  0.00    -0.277 N 
ATOM     11  O   UNK d   1      12.235   7.875  12.730  0.00  0.00    -0.272 OA
ATOM     12  C   UNK d   1      12.483   4.380  12.081  0.00  0.00     0.336 C 
ATOM     13  H   UNK d   1      13.043   5.583  13.724  0.00  0.00     0.173 HD
ATOM     14  N   UNK d   1      11.824   4.304  10.825  0.00  0.00    -0.233 N 
ATOM     15  O   UNK d   1      13.021   3.305  12.522  0.00  0.00    -0.246 OA
ATOM     16  C   UNK d   1      11.223   5.488  10.323  0.00  0.00     0.251 C 
ATOM     17  O   UNK d   1      10.931   5.559   9.116  0.00  0.00    -0.271 OA
BRANCH  14  18
ATOM     18  C   UNK d   1      11.781   3.072  10.118  0.00  0.00     0.047 A 
ATOM     19  C   UNK d   1      12.897   2.599   9.477  0.00  0.00     0.032 A 
ATOM     20  C   UNK d   1      12.888   1.405   8.785  0.00  0.00     0.026 A 
ATOM     21  C   UNK d   1      11.742   0.652   8.724  0.00  0.00     0.034 A 
ATOM     22 Cl   UNK d   1      11.707  -0.881   7.843  0.00  0.00    -0.084 Cl
ATOM     23  C   UNK d   1      10.612   1.108   9.359  0.00  0.00     0.026 A 
ATOM     24  C   UNK d   1      10.640   2.322  10.058  0.00  0.00     0.032 A 
ENDBRANCH  14  18
ENDBRANCH   1   8
BRANCH   3  25
ATOM     25  C   UNK d   1       7.054   7.552  13.364  0.00  0.00    -0.030 A 
ATOM     26  C   UNK d   1       7.756   8.583  13.951  0.00  0.00     0.049 A 
ATOM     27  C   UNK d   1       7.206   9.826  14.186  0.00  0.00     0.104 A 
ATOM     28  C   UNK d   1       5.873  10.031  13.806  0.00  0.00     0.133 A 
ATOM     29  C   UNK d   1       5.129   9.032  13.217  0.00  0.00     0.104 A 
ATOM     30  C   UNK d   1       5.747   7.814  13.013  0.00  0.00     0.049 A 
BRANCH  27  31
ATOM     31  O   UNK d   1       7.905  10.871  14.776  0.00  0.00    -0.353 OA
ATOM     32  C   UNK d   1       8.511  10.608  16.024  0.00  0.00     0.210 C 
ENDBRANCH  27  31
BRANCH  28  33
ATOM     33  O   UNK d   1       5.278  11.254  14.019  0.00  0.00    -0.356 OA
ATOM     34  H   UNK d   1       5.750  11.953  14.577  0.00  0.00     0.218 HD
ENDBRANCH  28  33
BRANCH  29  35
ATOM     35  O   UNK d   1       3.836   9.282  12.867  0.00  0.00    -0.353 OA
ATOM     36  C   UNK d   1       2.696   9.011  13.630  0.00  0.00     0.210 C 
ENDBRANCH  29  35
ENDBRANCH   3  25
TORSDOF 6
ENDMDL
