/Users/jonathanwahrer/Desktop/Msc/3_Semester/Drug_Design_Praktikum/waehrer_HTS_screening/HTS_experiment/out/docking_results/vina_output/2jam/2358_docked.pdbqt
 OpenBabel03162219053D

 34 37  0  0  1  0  0  0  0  0999 V2000
   12.5660    3.1740   10.4110 N   0  0  0  0  0  0  0  0  0  0  0  0
   13.7590    3.0030   11.1640 C   0  0  0  0  0  0  0  0  0  0  0  0
   14.1990    1.8280   11.3290 O   0  0  0  0  0  0  0  0  0  0  0  0
   14.4460    4.1050   11.7210 N   0  0  0  0  0  0  0  0  0  0  0  0
   13.9600    5.4210   11.5410 C   0  0  0  0  0  0  0  0  0  0  0  0
   14.6560    6.4410   11.8800 O   0  0  0  0  0  0  0  0  0  0  0  0
   12.6430    5.6780   10.9600 C   0  0  1  0  0  3  0  0  0  0  0  0
   12.1080    4.5090   10.2510 C   0  0  0  0  0  0  0  0  0  0  0  0
   11.1530    4.6690    9.4140 O   0  0  0  0  0  0  0  0  0  0  0  0
   15.3280    3.9570   12.2770 H   0  0  0  0  0  0  0  0  0  0  0  0
   11.7050    6.1800   12.0070 C   0  0  1  0  0  3  0  0  0  0  0  0
   11.4510    7.4180   12.3390 C   0  0  0  0  0  2  0  0  0  0  0  0
   10.4490    7.3820   13.4330 C   0  0  2  0  0  3  0  0  0  0  0  0
   10.5310    6.0280   13.9370 N   0  0  0  0  0  0  0  0  0  0  0  0
   10.9310    5.2980   12.8130 N   0  0  0  0  0  0  0  0  0  0  0  0
   11.2280    5.9510   14.7160 H   0  0  0  0  0  0  0  0  0  0  0  0
   10.6760    4.2890   12.6490 H   0  0  0  0  0  0  0  0  0  0  0  0
    9.0840    7.6530   12.9030 C   0  0  0  0  0  0  0  0  0  0  0  0
    8.1910    6.6450   12.6220 C   0  0  0  0  0  3  0  0  0  0  0  0
    6.9210    6.8860   12.1280 C   0  0  0  0  0  0  0  0  0  0  0  0
    6.5060    8.1780   11.9000 C   0  0  0  0  0  0  0  0  0  0  0  0
    7.3830    9.1990   12.1750 C   0  0  0  0  0  3  0  0  0  0  0  0
    8.6450    8.9480   12.6660 C   0  0  0  0  0  3  0  0  0  0  0  0
    6.0690    5.8310   11.8650 O   0  0  0  0  0  0  0  0  0  0  0  0
    5.0800    5.9670   11.7920 H   0  0  0  0  0  0  0  0  0  0  0  0
    5.2440    8.4410   11.4080 O   0  0  0  0  0  0  0  0  0  0  0  0
    4.2130    8.8080   12.2960 C   0  0  0  0  0  1  0  0  0  0  0  0
   11.8550    2.0860    9.8360 C   0  0  0  0  0  0  0  0  0  0  0  0
   12.4310    1.2450    8.8910 C   0  0  0  0  0  3  0  0  0  0  0  0
   11.7540    0.2000    8.3370 C   0  0  0  0  0  3  0  0  0  0  0  0
   10.4440   -0.0480    8.7190 C   0  0  0  0  0  0  0  0  0  0  0  0
    9.5390   -1.3830    8.0300 Cl  0  0  0  0  0  0  0  0  0  0  0  0
    9.8390    0.7710    9.6590 C   0  0  0  0  0  3  0  0  0  0  0  0
   10.5540    1.8360   10.2120 C   0  0  0  0  0  3  0  0  0  0  0  0
  1  2  1  0  0  0  0
  2  3  2  0  0  0  0
  2  4  1  0  0  0  0
  4 10  1  0  0  0  0
  5  4  1  0  0  0  0
  5  6  2  0  0  0  0
  7  8  1  1  0  0  0
  7  5  1  0  0  0  0
  7 11  1  0  0  0  0
  8  1  1  0  0  0  0
  9  8  2  0  0  0  0
 11 12  1  6  0  0  0
 11 15  1  0  0  0  0
 12 13  1  0  0  0  0
 13 18  1  6  0  0  0
 13 14  1  0  0  0  0
 14 16  1  0  0  0  0
 15 14  1  0  0  0  0
 17 15  1  0  0  0  0
 19 18  2  0  0  0  0
 20 19  1  0  0  0  0
 21 20  2  0  0  0  0
 21 22  1  0  0  0  0
 22 23  2  0  0  0  0
 23 18  1  0  0  0  0
 24 20  1  0  0  0  0
 25 24  1  0  0  0  0
 26 21  1  0  0  0  0
 26 27  1  0  0  0  0
 28 34  1  0  0  0  0
 28  1  1  0  0  0  0
 29 28  2  0  0  0  0
 30 31  2  0  0  0  0
 30 29  1  0  0  0  0
 31 33  1  0  0  0  0
 32 31  1  0  0  0  0
 33 34  2  0  0  0  0
M  END
>  <Pose>
1

>  <Score>
-9.691

$$$$
