/Users/jonathanwahrer/Desktop/Msc/3_Semester/Drug_Design_Praktikum/waehrer_HTS_screening/HTS_experiment/out/docking_results/vina_output/2jam/2359_docked.pdbqt
 OpenBabel03162219053D

 32 35  0  0  1  0  0  0  0  0999 V2000
   10.1810    7.7390   12.7810 N   0  0  0  0  0  0  0  0  0  0  0  0
   11.3210    8.5990   12.9310 C   0  0  0  0  0  0  0  0  0  0  0  0
   11.1940    9.8120   13.2840 O   0  0  0  0  0  0  0  0  0  0  0  0
   12.5920    8.0260   12.6640 N   0  0  0  0  0  0  0  0  0  0  0  0
   12.7080    6.6420   12.2630 C   0  0  0  0  0  0  0  0  0  0  0  0
   13.7930    6.0880   12.4800 O   0  0  0  0  0  0  0  0  0  0  0  0
   11.5750    5.9850   11.6400 C   0  0  2  0  0  3  0  0  0  0  0  0
   10.3450    6.3860   12.3860 C   0  0  0  0  0  0  0  0  0  0  0  0
    9.4230    5.5890   12.6950 O   0  0  0  0  0  0  0  0  0  0  0  0
   13.4270    8.6290   12.7660 H   0  0  0  0  0  0  0  0  0  0  0  0
   11.6590    4.5600   11.4130 C   0  0  2  0  0  3  0  0  0  0  0  0
   11.5030    3.8860   10.2970 C   0  0  0  0  0  2  0  0  0  0  0  0
   11.6770    2.4300   10.5180 C   0  0  2  0  0  3  0  0  0  0  0  0
   12.2200    2.3740   11.8550 N   0  0  0  0  0  0  0  0  0  0  0  0
   11.9360    3.5990   12.4540 N   0  0  0  0  0  0  0  0  0  0  0  0
   13.2350    2.1310   11.8720 H   0  0  0  0  0  0  0  0  0  0  0  0
   11.9380    3.7360   13.4860 H   0  0  0  0  0  0  0  0  0  0  0  0
   12.6570    1.8210    9.6100 C   0  0  0  0  0  0  0  0  0  0  0  0
   13.9470    2.3300    9.6030 C   0  0  0  0  0  3  0  0  0  0  0  0
   14.8890    1.7820    8.7650 C   0  0  0  0  0  0  0  0  0  0  0  0
   14.5880    0.7350    7.9260 C   0  0  0  0  0  3  0  0  0  0  0  0
   13.3130    0.2190    7.9210 C   0  0  0  0  0  3  0  0  0  0  0  0
   12.3600    0.7780    8.7720 C   0  0  0  0  0  3  0  0  0  0  0  0
   16.1960    2.2870    8.7490 O   0  0  0  0  0  0  0  0  0  0  0  0
   16.5950    2.5850    7.8760 H   0  0  0  0  0  0  0  0  0  0  0  0
    8.8830    8.3170   13.0500 C   0  0  0  0  0  0  0  0  0  0  0  0
    8.3720    8.3840   14.3320 C   0  0  0  0  0  3  0  0  0  0  0  0
    7.1350    8.9270   14.6220 C   0  0  0  0  0  3  0  0  0  0  0  0
    6.3580    9.4340   13.5890 C   0  0  0  0  0  0  0  0  0  0  0  0
    4.8050   10.1110   13.9830 Cl  0  0  0  0  0  0  0  0  0  0  0  0
    6.8530    9.3770   12.2880 C   0  0  0  0  0  3  0  0  0  0  0  0
    8.0960    8.8260   12.0360 C   0  0  0  0  0  3  0  0  0  0  0  0
  1  2  1  0  0  0  0
  1 26  1  0  0  0  0
  2  3  2  0  0  0  0
  4 10  1  0  0  0  0
  4  2  1  0  0  0  0
  5  6  2  0  0  0  0
  5  4  1  0  0  0  0
  7  5  1  1  0  0  0
  7  8  1  0  0  0  0
  8  9  2  0  0  0  0
  8  1  1  0  0  0  0
 11 12  1  1  0  0  0
 11  7  1  0  0  0  0
 11 15  1  0  0  0  0
 12 13  1  0  0  0  0
 13 18  1  6  0  0  0
 13 14  1  0  0  0  0
 14 16  1  0  0  0  0
 14 15  1  0  0  0  0
 15 17  1  0  0  0  0
 19 18  1  0  0  0  0
 20 19  2  0  0  0  0
 21 20  1  0  0  0  0
 22 21  2  0  0  0  0
 22 23  1  0  0  0  0
 23 18  2  0  0  0  0
 24 20  1  0  0  0  0
 25 24  1  0  0  0  0
 26 27  1  0  0  0  0
 27 28  2  0  0  0  0
 29 30  1  0  0  0  0
 29 28  1  0  0  0  0
 31 29  2  0  0  0  0
 32 31  1  0  0  0  0
 32 26  2  0  0  0  0
M  END
>  <Pose>
1

>  <Score>
-8.881

$$$$
