MODEL 1
REMARK VINA RESULT:    -8.881      0.000      0.000
REMARK INTER + INTRA:         -11.939
REMARK INTER:                 -10.698
REMARK INTRA:                  -1.241
REMARK UNBOUND:                -1.241
REMARK  4 active torsions:
REMARK  status: ('A' for Active; 'I' for Inactive)
REMARK    1  A    between atoms: C_5  and  N_8 
REMARK    2  A    between atoms: C_14  and  C_17 
REMARK    3  A    between atoms: C_19  and  C_22 
REMARK    4  A    between atoms: C_24  and  O_28 
ROOT
ATOM      1  N   UNK d   1      10.181   7.739  12.781  0.00  0.00    -0.233 N 
ATOM      2  C   UNK d   1      11.321   8.599  12.931  0.00  0.00     0.336 C 
ATOM      3  O   UNK d   1      11.194   9.812  13.284  0.00  0.00    -0.246 OA
ATOM      4  N   UNK d   1      12.592   8.026  12.664  0.00  0.00    -0.277 N 
ATOM      5  C   UNK d   1      12.708   6.642  12.263  0.00  0.00     0.244 C 
ATOM      6  O   UNK d   1      13.793   6.088  12.480  0.00  0.00    -0.272 OA
ATOM      7  C   UNK d   1      11.575   5.985  11.640  0.00  0.00     0.221 C 
ATOM      8  C   UNK d   1      10.345   6.386  12.386  0.00  0.00     0.251 C 
ATOM      9  O   UNK d   1       9.423   5.589  12.695  0.00  0.00    -0.271 OA
ATOM     10  H   UNK d   1      13.427   8.629  12.766  0.00  0.00     0.173 HD
ENDROOT
BRANCH   7  11
ATOM     11  C   UNK d   1      11.659   4.560  11.413  0.00  0.00     0.041 C 
ATOM     12  C   UNK d   1      11.503   3.886  10.297  0.00  0.00     0.026 C 
ATOM     13  C   UNK d   1      11.677   2.430  10.518  0.00  0.00     0.134 C 
ATOM     14  N   UNK d   1      12.220   2.374  11.855  0.00  0.00    -0.228 NA
ATOM     15  N   UNK d   1      11.936   3.599  12.454  0.00  0.00    -0.323 N 
ATOM     16  H   UNK d   1      13.235   2.131  11.872  0.00  0.00     0.147 HD
ATOM     17  H   UNK d   1      11.938   3.736  13.486  0.00  0.00     0.180 HD
BRANCH  13  18
ATOM     18  C   UNK d   1      12.657   1.821   9.610  0.00  0.00    -0.033 A 
ATOM     19  C   UNK d   1      13.947   2.330   9.603  0.00  0.00     0.045 A 
ATOM     20  C   UNK d   1      14.889   1.782   8.765  0.00  0.00     0.066 A 
ATOM     21  C   UNK d   1      14.588   0.735   7.926  0.00  0.00     0.036 A 
ATOM     22  C   UNK d   1      13.313   0.219   7.921  0.00  0.00     0.003 A 
ATOM     23  C   UNK d   1      12.360   0.778   8.772  0.00  0.00     0.009 A 
BRANCH  20  24
ATOM     24  O   UNK d   1      16.196   2.287   8.749  0.00  0.00    -0.361 OA
ATOM     25  H   UNK d   1      16.595   2.585   7.876  0.00  0.00     0.217 HD
ENDBRANCH  20  24
ENDBRANCH  13  18
ENDBRANCH   7  11
BRANCH   1  26
ATOM     26  C   UNK d   1       8.883   8.317  13.050  0.00  0.00     0.047 A 
ATOM     27  C   UNK d   1       8.372   8.384  14.332  0.00  0.00     0.032 A 
ATOM     28  C   UNK d   1       7.135   8.927  14.622  0.00  0.00     0.026 A 
ATOM     29  C   UNK d   1       6.358   9.434  13.589  0.00  0.00     0.034 A 
ATOM     30 Cl   UNK d   1       4.805  10.111  13.983  0.00  0.00    -0.084 Cl
ATOM     31  C   UNK d   1       6.853   9.377  12.288  0.00  0.00     0.026 A 
ATOM     32  C   UNK d   1       8.096   8.826  12.036  0.00  0.00     0.032 A 
ENDBRANCH   1  26
TORSDOF 4
ENDMDL
