MODEL 1
REMARK VINA RESULT:    -8.994      0.000      0.000
REMARK INTER + INTRA:         -11.667
REMARK INTER:                 -10.572
REMARK INTRA:                  -1.095
REMARK UNBOUND:                -1.095
REMARK  3 active torsions:
REMARK  status: ('A' for Active; 'I' for Inactive)
REMARK    1  A    between atoms: C_5  and  N_8 
REMARK    2  A    between atoms: C_14  and  C_17 
REMARK    3  A    between atoms: C_19  and  C_22 
ROOT
ATOM      1  N   UNK d   1      10.169   6.739  11.919  0.00  0.00    -0.233 N 
ATOM      2  C   UNK d   1      10.955   6.671  13.095  0.00  0.00     0.336 C 
ATOM      3  O   UNK d   1      10.470   7.014  14.201  0.00  0.00    -0.246 OA
ATOM      4  N   UNK d   1      12.311   6.201  12.997  0.00  0.00    -0.277 N 
ATOM      5  C   UNK d   1      12.863   5.811  11.747  0.00  0.00     0.244 C 
ATOM      6  O   UNK d   1      14.110   5.732  11.619  0.00  0.00    -0.272 OA
ATOM      7  C   UNK d   1      11.962   5.507  10.623  0.00  0.00     0.221 C 
ATOM      8  C   UNK d   1      10.751   6.343  10.689  0.00  0.00     0.251 C 
ATOM      9  O   UNK d   1      10.192   6.734   9.607  0.00  0.00    -0.271 OA
ATOM     10  H   UNK d   1      12.926   6.134  13.837  0.00  0.00     0.173 HD
ENDROOT
BRANCH   7  11
ATOM     11  C   UNK d   1      11.585   4.054  10.618  0.00  0.00     0.041 C 
ATOM     12  C   UNK d   1      12.295   3.028  11.012  0.00  0.00     0.026 C 
ATOM     13  C   UNK d   1      11.515   1.796  10.818  0.00  0.00     0.135 C 
ATOM     14  N   UNK d   1      10.173   2.263  10.612  0.00  0.00    -0.228 NA
ATOM     15  N   UNK d   1      10.327   3.584  10.163  0.00  0.00    -0.323 N 
ATOM     16  H   UNK d   1       9.603   2.214  11.462  0.00  0.00     0.147 HD
ATOM     17  H   UNK d   1       9.595   4.069   9.595  0.00  0.00     0.180 HD
BRANCH  13  18
ATOM     18  C   UNK d   1      12.027   1.147   9.583  0.00  0.00    -0.018 A 
ATOM     19  C   UNK d   1      11.199   0.357   8.822  0.00  0.00     0.125 A 
ATOM     20  N   UNK d   1      11.661  -0.241   7.690  0.00  0.00    -0.273 NA
ATOM     21  C   UNK d   1      12.926  -0.097   7.263  0.00  0.00     0.116 A 
ATOM     22  C   UNK d   1      13.783   0.688   8.002  0.00  0.00     0.020 A 
ATOM     23  C   UNK d   1      13.322   1.311   9.170  0.00  0.00     0.012 A 
ENDBRANCH  13  18
ENDBRANCH   7  11
BRANCH   1  24
ATOM     24  C   UNK d   1       8.801   7.211  11.971  0.00  0.00     0.047 A 
ATOM     25  C   UNK d   1       8.489   8.552  11.922  0.00  0.00     0.032 A 
ATOM     26  C   UNK d   1       7.170   8.990  11.974  0.00  0.00     0.026 A 
ATOM     27  C   UNK d   1       6.127   8.094  12.075  0.00  0.00     0.034 A 
ATOM     28 Cl   UNK d   1       4.460   8.641  12.138  0.00  0.00    -0.084 Cl
ATOM     29  C   UNK d   1       6.445   6.754  12.124  0.00  0.00     0.026 A 
ATOM     30  C   UNK d   1       7.756   6.319  12.072  0.00  0.00     0.032 A 
ENDBRANCH   1  24
TORSDOF 3
ENDMDL
