/Users/jonathanwahrer/Desktop/Msc/3_Semester/Drug_Design_Praktikum/waehrer_HTS_screening/HTS_experiment/out/docking_results/vina_output/2jam/2361_docked.pdbqt
 OpenBabel03162219053D

 30 33  0  0  1  0  0  0  0  0999 V2000
   10.1690    6.7390   11.9190 N   0  0  0  0  0  0  0  0  0  0  0  0
   10.9550    6.6710   13.0950 C   0  0  0  0  0  0  0  0  0  0  0  0
   10.4700    7.0140   14.2010 O   0  0  0  0  0  0  0  0  0  0  0  0
   12.3110    6.2010   12.9970 N   0  0  0  0  0  0  0  0  0  0  0  0
   12.8630    5.8110   11.7470 C   0  0  0  0  0  0  0  0  0  0  0  0
   14.1100    5.7320   11.6190 O   0  0  0  0  0  0  0  0  0  0  0  0
   11.9620    5.5070   10.6230 C   0  0  2  0  0  3  0  0  0  0  0  0
   10.7510    6.3430   10.6890 C   0  0  0  0  0  0  0  0  0  0  0  0
   10.1920    6.7340    9.6070 O   0  0  0  0  0  0  0  0  0  0  0  0
   12.9260    6.1340   13.8370 H   0  0  0  0  0  0  0  0  0  0  0  0
   11.5850    4.0540   10.6180 C   0  0  1  0  0  3  0  0  0  0  0  0
   12.2950    3.0280   11.0120 C   0  0  0  0  0  2  0  0  0  0  0  0
   11.5150    1.7960   10.8180 C   0  0  1  0  0  3  0  0  0  0  0  0
   10.1730    2.2630   10.6120 N   0  0  0  0  0  0  0  0  0  0  0  0
   10.3270    3.5840   10.1630 N   0  0  0  0  0  0  0  0  0  0  0  0
    9.6030    2.2140   11.4620 H   0  0  0  0  0  0  0  0  0  0  0  0
    9.5950    4.0690    9.5950 H   0  0  0  0  0  0  0  0  0  0  0  0
   12.0270    1.1470    9.5830 C   0  0  0  0  0  0  0  0  0  0  0  0
   11.1990    0.3570    8.8220 C   0  0  0  0  0  3  0  0  0  0  0  0
   11.6610   -0.2410    7.6900 N   0  0  0  0  0  0  0  0  0  0  0  0
   12.9260   -0.0970    7.2630 C   0  0  0  0  0  3  0  0  0  0  0  0
   13.7830    0.6880    8.0020 C   0  0  0  0  0  3  0  0  0  0  0  0
   13.3220    1.3110    9.1700 C   0  0  0  0  0  3  0  0  0  0  0  0
    8.8010    7.2110   11.9710 C   0  0  0  0  0  0  0  0  0  0  0  0
    8.4890    8.5520   11.9220 C   0  0  0  0  0  3  0  0  0  0  0  0
    7.1700    8.9900   11.9740 C   0  0  0  0  0  3  0  0  0  0  0  0
    6.1270    8.0940   12.0750 C   0  0  0  0  0  0  0  0  0  0  0  0
    4.4600    8.6410   12.1380 Cl  0  0  0  0  0  0  0  0  0  0  0  0
    6.4450    6.7540   12.1240 C   0  0  0  0  0  3  0  0  0  0  0  0
    7.7560    6.3190   12.0720 C   0  0  0  0  0  3  0  0  0  0  0  0
  1 24  1  0  0  0  0
  1  2  1  0  0  0  0
  2  3  2  0  0  0  0
  4  2  1  0  0  0  0
  4 10  1  0  0  0  0
  5  4  1  0  0  0  0
  6  5  2  0  0  0  0
  7  8  1  1  0  0  0
  7  5  1  0  0  0  0
  8  1  1  0  0  0  0
  9  8  2  0  0  0  0
 11  7  1  0  0  0  0
 11 12  1  1  0  0  0
 13 18  1  6  0  0  0
 13 12  1  0  0  0  0
 14 13  1  0  0  0  0
 14 16  1  0  0  0  0
 15 14  1  0  0  0  0
 15 11  1  0  0  0  0
 17 15  1  0  0  0  0
 19 18  2  0  0  0  0
 20 19  1  0  0  0  0
 21 20  2  0  0  0  0
 21 22  1  0  0  0  0
 22 23  2  0  0  0  0
 23 18  1  0  0  0  0
 24 30  1  0  0  0  0
 25 24  2  0  0  0  0
 25 26  1  0  0  0  0
 26 27  2  0  0  0  0
 27 29  1  0  0  0  0
 27 28  1  0  0  0  0
 30 29  2  0  0  0  0
M  END
>  <Pose>
1

>  <Score>
-8.994

$$$$
