MODEL 1
REMARK VINA RESULT:    -9.385      0.000      0.000
REMARK INTER + INTRA:         -12.938
REMARK INTER:                 -12.402
REMARK INTRA:                  -0.536
REMARK UNBOUND:                -0.536
REMARK  6 active torsions:
REMARK  status: ('A' for Active; 'I' for Inactive)
REMARK    1  A    between atoms: C_4  and  C_8 
REMARK    2  A    between atoms: C_8  and  N_9 
REMARK    3  A    between atoms: N_16  and  C_18 
REMARK    4  A    between atoms: C_18  and  C_19 
REMARK    5  A    between atoms: C_21  and  O_25 
REMARK    6  A    between atoms: C_30  and  O_32 
ROOT
ATOM      1  N   UNK d   1       8.994   6.072  12.902  0.00  0.00    -0.280 N 
ATOM      2  C   UNK d   1      10.104   6.543  13.657  0.00  0.00     0.260 C 
ATOM      3  O   UNK d   1       9.898   7.243  14.700  0.00  0.00    -0.270 OA
ATOM      4  C   UNK d   1      11.498   6.263  13.300  0.00  0.00     0.319 C 
ATOM      5  N   UNK d   1      11.685   5.682  12.011  0.00  0.00     0.127 N 
ATOM      6  C   UNK d   1      10.650   4.816  11.547  0.00  0.00     0.292 A 
ATOM      7  C   UNK d   1      10.773   3.366  11.946  0.00  0.00     0.326 A 
ATOM      8  N   UNK d   1      11.037   3.019  10.587  0.00  0.00     0.098 N 
ATOM      9  C   UNK d   1      10.971   4.353  10.136  0.00  0.00     0.326 A 
ATOM     10  C   UNK d   1       9.283   5.379  11.694  0.00  0.00     0.270 C 
ATOM     11  O   UNK d   1       8.392   5.267  10.814  0.00  0.00    -0.270 OA
ATOM     12  C   UNK d   1      11.884   6.742  11.065  0.00  0.00     0.307 C 
ATOM     13  C   UNK d   1      11.887   8.043  11.817  0.00  0.00     0.149 C 
ATOM     14  C   UNK d   1      12.213   7.619  13.220  0.00  0.00     0.079 C 
ENDROOT
BRANCH   8  15
ATOM     15  C   UNK d   1      12.151   2.197  10.282  0.00  0.00     0.311 C 
BRANCH  15  16
ATOM     16  C   UNK d   1      11.905   1.099   9.341  0.00  0.00    -0.028 A 
ATOM     17  C   UNK d   1      10.688   0.463   9.329  0.00  0.00     0.045 A 
ATOM     18  C   UNK d   1      10.427  -0.587   8.444  0.00  0.00     0.068 A 
ATOM     19  C   UNK d   1      11.413  -0.985   7.570  0.00  0.00     0.037 A 
ATOM     20  C   UNK d   1      12.640  -0.366   7.561  0.00  0.00     0.003 A 
ATOM     21  C   UNK d   1      12.867   0.677   8.457  0.00  0.00     0.009 A 
BRANCH  18  22
ATOM     22  O   UNK d   1       9.205  -1.229   8.429  0.00  0.00    -0.356 OA
ATOM     23  C   UNK d   1       8.852  -1.984   7.285  0.00  0.00     0.210 C 
ENDBRANCH  18  22
ENDBRANCH  15  16
ENDBRANCH   8  15
BRANCH   1  24
ATOM     24  C   UNK d   1       7.622   6.285  13.330  0.00  0.00     0.173 C 
BRANCH  24  25
ATOM     25  C   UNK d   1       7.254   7.733  13.165  0.00  0.00    -0.038 A 
ATOM     26  C   UNK d   1       6.483   8.379  14.105  0.00  0.00     0.032 A 
ATOM     27  C   UNK d   1       6.131   9.707  13.976  0.00  0.00     0.034 A 
ATOM     28 Cl   UNK d   1       5.150  10.495  15.192  0.00  0.00    -0.084 Cl
ATOM     29  C   UNK d   1       6.552  10.426  12.883  0.00  0.00     0.024 A 
ATOM     30  C   UNK d   1       7.321   9.762  11.955  0.00  0.00     0.002 A 
ATOM     31  C   UNK d   1       7.675   8.454  12.069  0.00  0.00     0.009 A 
ENDBRANCH  24  25
ENDBRANCH   1  24
BRANCH  13  32
ATOM     32  O   UNK d   1      12.798   8.959  11.310  0.00  0.00    -0.394 OA
ATOM     33  H   UNK d   1      13.593   8.451  11.017  0.00  0.00     0.210 HD
ENDBRANCH  13  32
TORSDOF 6
ENDMDL
