/Users/jonathanwahrer/Desktop/Msc/3_Semester/Drug_Design_Praktikum/waehrer_HTS_screening/HTS_experiment/out/docking_results/vina_output/2jam/2373_docked.pdbqt
 OpenBabel03162219063D

 28 31  0  0  1  0  0  0  0  0999 V2000
   12.1760    4.4020   10.4510 N   0  0  0  0  0  0  0  0  0  0  0  0
   12.7530    5.1610   11.3660 C   0  0  2  0  0  3  0  0  0  0  0  0
   11.8630    6.0380   11.9040 N   0  0  0  0  0  0  0  0  0  0  0  0
   10.7020    5.8380   11.3190 C   0  0  0  0  0  0  0  0  0  0  0  0
   10.9040    4.7920   10.3940 C   0  0  0  0  0  3  0  0  0  0  0  0
   12.1860    6.9570   12.9580 C   0  0  0  0  0  2  0  0  0  0  0  0
   13.0180    8.1170   12.4160 C   0  0  0  0  0  2  0  0  0  0  0  0
   13.9120    7.4870   11.3430 C   0  0  0  0  0  2  0  0  0  0  0  0
   14.7690    6.4450   12.0080 C   0  0  0  0  0  2  0  0  0  0  0  0
   14.2040    5.0480   11.7100 C   0  0  0  0  0  2  0  0  0  0  0  0
   12.7110    3.3320    9.6040 C   0  0  0  0  0  2  0  0  0  0  0  0
   12.3650    2.0360   10.2260 C   0  0  0  0  0  0  0  0  0  0  0  0
   12.8360    1.8060   11.3900 O   0  0  0  0  0  0  0  0  0  0  0  0
   11.5360    1.0320    9.5960 C   0  0  0  0  0  0  0  0  0  0  0  0
   12.1530    0.0300    8.8380 C   0  0  0  0  0  3  0  0  0  0  0  0
   11.4200   -0.9470    8.2130 C   0  0  0  0  0  3  0  0  0  0  0  0
   10.0510   -0.9870    8.3000 C   0  0  0  0  0  0  0  0  0  0  0  0
    9.0600   -2.1990    7.5300 Cl  0  0  0  0  0  0  0  0  0  0  0  0
    9.4490    0.0100    9.0530 C   0  0  0  0  0  3  0  0  0  0  0  0
   10.1760    0.9940    9.6840 C   0  0  0  0  0  3  0  0  0  0  0  0
    9.4030    6.4840   11.5270 C   0  0  0  0  0  0  0  0  0  0  0  0
    9.1870    7.8150   11.6890 C   0  0  0  0  0  3  0  0  0  0  0  0
    7.9310    8.3600   11.9540 C   0  0  0  0  0  3  0  0  0  0  0  0
    6.8330    7.5510   12.0620 C   0  0  0  0  0  0  0  0  0  0  0  0
    7.0180    6.1990   11.9020 C   0  0  0  0  0  3  0  0  0  0  0  0
    8.2670    5.6760   11.6420 C   0  0  0  0  0  3  0  0  0  0  0  0
    5.5560    8.0730   12.3290 O   0  0  0  0  0  0  0  0  0  0  0  0
    5.3570    9.3640   12.8400 C   0  0  0  0  0  1  0  0  0  0  0  0
  1  2  1  0  0  0  0
  2 10  1  6  0  0  0
  2  3  1  0  0  0  0
  3  6  1  0  0  0  0
  4 21  1  0  0  0  0
  4  3  1  0  0  0  0
  5  1  1  0  0  0  0
  5  4  2  0  0  0  0
  7  6  1  0  0  0  0
  8  9  1  0  0  0  0
  8  7  1  0  0  0  0
 10  9  1  0  0  0  0
 11 12  1  0  0  0  0
 11  1  1  0  0  0  0
 12 13  2  0  0  0  0
 14 20  1  0  0  0  0
 14 12  1  0  0  0  0
 15 14  2  0  0  0  0
 16 17  2  0  0  0  0
 16 15  1  0  0  0  0
 17 19  1  0  0  0  0
 18 17  1  0  0  0  0
 19 20  2  0  0  0  0
 21 26  2  0  0  0  0
 21 22  1  0  0  0  0
 22 23  2  0  0  0  0
 23 24  1  0  0  0  0
 24 27  1  0  0  0  0
 25 24  2  0  0  0  0
 26 25  1  0  0  0  0
 27 28  1  0  0  0  0
M  END
>  <Pose>
1

>  <Score>
-9.124

$$$$
