MODEL 1
REMARK VINA RESULT:   -10.160      0.000      0.000
REMARK INTER + INTRA:         -13.539
REMARK INTER:                 -12.833
REMARK INTRA:                  -0.706
REMARK UNBOUND:                -0.706
REMARK  5 active torsions:
REMARK  status: ('A' for Active; 'I' for Inactive)
REMARK    1  A    between atoms: C_5  and  C_8 
REMARK    2  A    between atoms: C_8  and  O_33 
REMARK       I    between atoms: N_11  and  C_14 
REMARK    3  A    between atoms: C_14  and  C_16 
REMARK    4  A    between atoms: C_16  and  N_17 
REMARK       I    between atoms: N_17  and  C_18 
REMARK    5  A    between atoms: C_20  and  C_21 
ROOT
ATOM      1  C   UNK d   1      10.938   6.636  12.310  0.00  0.00     0.172 C 
ATOM      2  C   UNK d   1      11.889   7.465  12.991  0.00  0.00     0.042 C 
ENDROOT
BRANCH   1   3
ATOM      3  C   UNK d   1       9.759   7.308  11.622  0.00  0.00     0.242 C 
ATOM      4  N   UNK d   1       8.632   7.713  12.377  0.00  0.00    -0.350 N 
ATOM      5  C   UNK d   1       7.336   8.025  11.871  0.00  0.00     0.129 C 
ATOM      6  C   UNK d   1       8.853   8.146  13.771  0.00  0.00     0.129 C 
ATOM      7  C   UNK d   1       6.180   7.695  12.783  0.00  0.00     0.062 C 
ATOM      8  C   UNK d   1       6.498   7.250  14.147  0.00  0.00     0.088 C 
ATOM      9  C   UNK d   1       7.850   7.647  14.689  0.00  0.00     0.062 C 
ATOM     10  O   UNK d   1       9.811   7.493  10.408  0.00  0.00    -0.271 OA
BRANCH   8  11
ATOM     11  C   UNK d   1       5.529   7.698  15.173  0.00  0.00    -0.024 A 
ATOM     12  C   UNK d   1       5.834   8.881  15.829  0.00  0.00     0.012 A 
ATOM     13  C   UNK d   1       4.982   9.428  16.801  0.00  0.00     0.024 A 
ATOM     14  C   UNK d   1       3.808   8.788  17.121  0.00  0.00     0.034 A 
ATOM     15 Cl   UNK d   1       2.706   9.478  18.337  0.00  0.00    -0.084 Cl
ATOM     16  C   UNK d   1       3.503   7.608  16.466  0.00  0.00     0.024 A 
ATOM     17  C   UNK d   1       4.366   7.085  15.511  0.00  0.00     0.012 A 
ENDBRANCH   8  11
BRANCH   8  18
ATOM     18  O   UNK d   1       6.450   5.823  14.141  0.00  0.00    -0.385 OA
ATOM     19  H   UNK d   1       5.562   5.496  14.363  0.00  0.00     0.211 HD
ENDBRANCH   8  18
ENDBRANCH   1   3
BRANCH   1  20
ATOM     20  N   UNK d   1      11.326   5.461  11.565  0.00  0.00    -0.356 N 
ATOM     21  C   UNK d   1      11.132   4.146  11.983  0.00  0.00     0.177 C 
ATOM     22  O   UNK d   1      10.575   4.145  13.246  0.00  0.00    -0.172 OA
ATOM     23  C   UNK d   1      11.299   2.851  11.516  0.00  0.00     0.090 C 
ATOM     24  H   UNK d   1      11.846   5.742  10.667  0.00  0.00     0.162 HD
BRANCH  23  25
ATOM     25  C   UNK d   1      11.582   2.035  10.545  0.00  0.00     0.063 A 
ATOM     26  N   UNK d   1      10.485   1.366   9.831  0.00  0.00    -0.297 N 
ATOM     27  N   UNK d   1      10.681   0.556   8.730  0.00  0.00    -0.265 N 
ATOM     28  H   UNK d   1       9.518   1.546  10.213  0.00  0.00     0.187 HD
ATOM     29  C   UNK d   1      11.942   0.309   8.210  0.00  0.00     0.271 A 
ATOM     30  H   UNK d   1       9.844   0.106   8.266  0.00  0.00     0.190 HD
ATOM     31  O   UNK d   1      12.166  -0.425   7.215  0.00  0.00    -0.266 OA
ATOM     32  C   UNK d   1      13.113   0.941   8.864  0.00  0.00     0.046 A 
ATOM     33  C   UNK d   1      12.873   1.743   9.955  0.00  0.00     0.008 A 
ATOM     34  C   UNK d   1      14.353   0.757   8.301  0.00  0.00     0.018 A 
ATOM     35  C   UNK d   1      13.996   2.396  10.475  0.00  0.00     0.015 A 
ATOM     36  C   UNK d   1      15.255   2.221   9.918  0.00  0.00     0.001 A 
ATOM     37  C   UNK d   1      15.447   1.403   8.835  0.00  0.00     0.001 A 
ENDBRANCH  23  25
ENDBRANCH   1  20
TORSDOF 5
ENDMDL
