/Users/jonathanwahrer/Desktop/Msc/3_Semester/Drug_Design_Praktikum/waehrer_HTS_screening/HTS_experiment/out/docking_results/vina_output/2jam/2377_docked.pdbqt
 OpenBabel03162219073D

 33 36  0  0  0  0  0  0  0  0999 V2000
   10.8630    6.0080   12.0710 N   0  0  0  0  0  0  0  0  0  0  0  0
   10.7140    7.2880   11.3860 C   0  0  0  0  0  2  0  0  0  0  0  0
    9.3730    7.9280   11.6640 C   0  0  0  0  0  2  0  0  0  0  0  0
    8.8210    7.3060   12.8430 N   0  0  0  0  0  0  0  0  0  0  0  0
    9.7450    7.1080   13.9450 C   0  0  0  0  0  2  0  0  0  0  0  0
   10.6900    5.9810   13.5300 C   0  0  0  0  0  2  0  0  0  0  0  0
    7.4770    6.8980   12.9690 C   0  0  0  0  0  0  0  0  0  0  0  0
    7.1000    6.3680   14.0370 O   0  0  0  0  0  0  0  0  0  0  0  0
   11.1260    4.8380   11.3340 C   0  0  0  0  0  0  0  0  0  0  0  0
   12.3530    4.2120   11.3010 C   0  0  0  0  0  0  0  0  0  0  0  0
   13.6720    4.9470   12.1760 Cl  0  0  0  0  0  0  0  0  0  0  0  0
   12.5360    3.0320   10.5750 C   0  0  0  0  0  0  0  0  0  0  0  0
   11.5520    2.4490    9.8800 N   0  0  0  0  0  0  0  0  0  0  0  0
   13.6830    2.5190   10.5940 O   0  0  0  0  0  0  0  0  0  0  0  0
   10.3830    3.0530    9.9150 N   0  0  0  0  0  0  0  0  0  0  0  0
   10.1290    4.1890   10.5900 C   0  0  0  0  0  3  0  0  0  0  0  0
   11.7320    1.2470    9.1370 C   0  0  0  0  0  0  0  0  0  0  0  0
   12.8750    1.0080    8.3890 C   0  0  0  0  0  3  0  0  0  0  0  0
   13.0660   -0.1510    7.6640 C   0  0  0  0  0  3  0  0  0  0  0  0
   12.0720   -1.1070    7.6910 C   0  0  0  0  0  3  0  0  0  0  0  0
   10.9190   -0.9000    8.4260 C   0  0  0  0  0  3  0  0  0  0  0  0
   10.7550    0.2860    9.1510 C   0  0  0  0  0  3  0  0  0  0  0  0
    6.4700    7.0640   11.8930 C   0  0  0  0  0  2  0  0  0  0  0  0
    5.9170    8.4710   11.8870 C   0  0  0  0  0  2  0  0  0  0  0  0
    4.6070    8.5750   12.6110 C   0  0  0  0  0  2  0  0  0  0  0  0
    4.7200    9.0880   13.9580 N   0  0  0  0  0  0  0  0  0  0  0  0
    4.4970    8.3580   15.1510 C   0  0  0  0  0  0  0  0  0  0  0  0
    4.1570    7.1300   15.2380 O   0  0  0  0  0  0  0  0  0  0  0  0
    4.6980    9.1640   16.2910 N   0  0  0  0  0  0  0  0  0  0  0  0
    5.0590   10.4930   15.8490 C   0  0  0  0  0  2  0  0  0  0  0  0
    4.5700    8.7490   17.6730 C   0  0  0  0  0  1  0  0  0  0  0  0
    5.0770   10.4110   14.3720 C   0  0  0  0  0  0  0  0  0  0  0  0
    5.3590   11.3470   13.5930 O   0  0  0  0  0  0  0  0  0  0  0  0
  1  6  1  0  0  0  0
  2  3  1  0  0  0  0
  2  1  1  0  0  0  0
  3  4  1  0  0  0  0
  4  7  1  0  0  0  0
  4  5  1  0  0  0  0
  6  5  1  0  0  0  0
  7  8  2  0  0  0  0
  9  1  1  0  0  0  0
 10  9  2  0  0  0  0
 10 11  1  0  0  0  0
 12 14  2  0  0  0  0
 12 10  1  0  0  0  0
 13 15  1  0  0  0  0
 13 12  1  0  0  0  0
 15 16  2  0  0  0  0
 16  9  1  0  0  0  0
 17 22  1  0  0  0  0
 17 13  1  0  0  0  0
 18 17  2  0  0  0  0
 19 20  2  0  0  0  0
 19 18  1  0  0  0  0
 20 21  1  0  0  0  0
 21 22  2  0  0  0  0
 23  7  1  0  0  0  0
 24 23  1  0  0  0  0
 24 25  1  0  0  0  0
 25 26  1  0  0  0  0
 26 32  1  0  0  0  0
 26 27  1  0  0  0  0
 27 28  2  0  0  0  0
 27 29  1  0  0  0  0
 29 31  1  0  0  0  0
 30 29  1  0  0  0  0
 32 30  1  0  0  0  0
 33 32  2  0  0  0  0
M  END
>  <Pose>
1

>  <Score>
-9.143

$$$$
