MODEL 1
REMARK VINA RESULT:    -8.849      0.000      0.000
REMARK INTER + INTRA:         -10.691
REMARK INTER:                 -10.401
REMARK INTRA:                  -0.290
REMARK UNBOUND:                -0.290
REMARK  3 active torsions:
REMARK  status: ('A' for Active; 'I' for Inactive)
REMARK    1  A    between atoms: C_3  and  N_15 
REMARK    2  A    between atoms: N_6  and  C_9 
REMARK       I    between atoms: N_18  and  C_21 
REMARK    3  A    between atoms: C_21  and  C_23 
ROOT
ATOM      1 Cl   UNK d   1      13.456   4.749  12.507  0.00  0.00    -0.076 Cl
ATOM      2  C   UNK d   1      12.284   4.071  11.381  0.00  0.00     0.131 A 
ATOM      3  C   UNK d   1      11.084   4.726  11.238  0.00  0.00     0.077 A 
ATOM      4  C   UNK d   1      10.183   4.166  10.346  0.00  0.00     0.170 A 
ATOM      5  N   UNK d   1      10.504   3.045   9.677  0.00  0.00    -0.174 NA
ATOM      6  N   UNK d   1      11.656   2.406   9.805  0.00  0.00    -0.197 N 
ATOM      7  C   UNK d   1      12.552   2.922  10.664  0.00  0.00     0.292 A 
ATOM      8  O   UNK d   1      13.674   2.367  10.838  0.00  0.00    -0.264 OA
ENDROOT
BRANCH   3   9
ATOM      9  N   UNK d   1      10.828   5.898  11.981  0.00  0.00    -0.375 N 
ATOM     10  C   UNK d   1      10.268   5.846  13.327  0.00  0.00     0.143 C 
ATOM     11  C   UNK d   1       8.859   6.454  13.192  0.00  0.00     0.145 C 
ATOM     12  N   UNK d   1       8.928   7.733  12.558  0.00  0.00    -0.347 N 
ATOM     13  C   UNK d   1      10.275   8.262  12.258  0.00  0.00     0.145 C 
ATOM     14  C   UNK d   1       7.786   8.503  12.214  0.00  0.00     0.248 C 
ATOM     15  C   UNK d   1      11.092   7.239  11.493  0.00  0.00     0.143 C 
ATOM     16  O   UNK d   1       7.897   9.634  11.652  0.00  0.00    -0.270 OA
BRANCH  14  17
ATOM     17  C   UNK d   1       6.409   8.053  12.482  0.00  0.00     0.213 C 
ATOM     18  O   UNK d   1       5.609   9.097  12.830  0.00  0.00    -0.376 OA
ATOM     19  C   UNK d   1       4.321   8.830  12.384  0.00  0.00     0.168 C 
ATOM     20  C   UNK d   1       4.603   8.270  10.997  0.00  0.00     0.029 C 
ATOM     21  C   UNK d   1       5.786   7.371  11.284  0.00  0.00     0.043 C 
ENDBRANCH  14  17
ENDBRANCH   3   9
BRANCH   6  22
ATOM     22  C   UNK d   1      11.939   1.212   9.061  0.00  0.00     0.062 A 
ATOM     23  C   UNK d   1      11.043   0.163   9.061  0.00  0.00     0.032 A 
ATOM     24  C   UNK d   1      11.306  -1.006   8.341  0.00  0.00     0.002 A 
ATOM     25  C   UNK d   1      12.467  -1.128   7.621  0.00  0.00     0.000 A 
ATOM     26  C   UNK d   1      13.368  -0.094   7.613  0.00  0.00     0.002 A 
ATOM     27  C   UNK d   1      13.094   1.048   8.324  0.00  0.00     0.032 A 
ENDBRANCH   6  22
TORSDOF 3
ENDMDL
