MODEL 1
REMARK VINA RESULT:    -8.762      0.000      0.000
REMARK INTER + INTRA:         -12.212
REMARK INTER:                 -11.323
REMARK INTRA:                  -0.889
REMARK UNBOUND:                -0.889
REMARK  5 active torsions:
REMARK  status: ('A' for Active; 'I' for Inactive)
REMARK    1  A    between atoms: C_3  and  N_15 
REMARK    2  A    between atoms: N_6  and  C_9 
REMARK       I    between atoms: N_18  and  C_21 
REMARK    3  A    between atoms: C_21  and  C_23 
REMARK    4  A    between atoms: C_23  and  O_24 
REMARK    5  A    between atoms: O_24  and  C_25 
ROOT
ATOM      1  N   UNK d   1      12.316   4.282  11.922  0.00  0.00    -0.375 N 
ATOM      2  C   UNK d   1      13.653   4.713  12.222  0.00  0.00     0.143 C 
ATOM      3  C   UNK d   1      14.657   4.118  11.261  0.00  0.00     0.145 C 
ATOM      4  N   UNK d   1      14.281   2.790  10.843  0.00  0.00    -0.347 N 
ATOM      5  C   UNK d   1      13.240   2.104  11.568  0.00  0.00     0.145 C 
ATOM      6  C   UNK d   1      11.990   2.942  11.478  0.00  0.00     0.143 C 
ATOM      7  C   UNK d   1      14.929   2.180   9.739  0.00  0.00     0.244 C 
ATOM      8  O   UNK d   1      15.848   2.780   9.094  0.00  0.00    -0.271 OA
ENDROOT
BRANCH   1   9
ATOM      9  C   UNK d   1      11.250   5.222  12.067  0.00  0.00     0.077 A 
ATOM     10  C   UNK d   1      10.880   6.083  11.054  0.00  0.00     0.131 A 
ATOM     11 Cl   UNK d   1      11.741   6.023   9.533  0.00  0.00    -0.076 Cl
ATOM     12  C   UNK d   1       9.835   6.968  11.272  0.00  0.00     0.292 A 
ATOM     13  N   UNK d   1       9.154   7.035  12.430  0.00  0.00    -0.197 N 
ATOM     14  O   UNK d   1       9.496   7.751  10.360  0.00  0.00    -0.264 OA
ATOM     15  N   UNK d   1       9.521   6.202  13.390  0.00  0.00    -0.174 NA
ATOM     16  C   UNK d   1      10.527   5.319  13.243  0.00  0.00     0.170 A 
BRANCH  13  17
ATOM     17  C   UNK d   1       8.084   7.970  12.596  0.00  0.00     0.062 A 
ATOM     18  C   UNK d   1       6.776   7.597  12.366  0.00  0.00     0.032 A 
ATOM     19  C   UNK d   1       5.738   8.493  12.524  0.00  0.00     0.002 A 
ATOM     20  C   UNK d   1       5.957   9.797  12.916  0.00  0.00     0.000 A 
ATOM     21  C   UNK d   1       7.262  10.176  13.148  0.00  0.00     0.002 A 
ATOM     22  C   UNK d   1       8.293   9.279  12.989  0.00  0.00     0.032 A 
ENDBRANCH  13  17
ENDBRANCH   1   9
BRANCH   7  23
ATOM     23  C   UNK d   1      14.580   0.814   9.267  0.00  0.00     0.280 C 
BRANCH  23  24
ATOM     24  O   UNK d   1      13.836   0.843   8.080  0.00  0.00    -0.324 OA
BRANCH  24  25
ATOM     25  C   UNK d   1      12.633   0.170   7.988  0.00  0.00     0.194 A 
ATOM     26  N   UNK d   1      12.279  -0.850   7.198  0.00  0.00    -0.103 NA
ATOM     27  O   UNK d   1      11.052  -1.190   7.426  0.00  0.00    -0.216 OA
ATOM     28  C   UNK d   1      10.511  -0.439   8.363  0.00  0.00     0.079 A 
ATOM     29  C   UNK d   1      11.502   0.443   8.745  0.00  0.00     0.094 A 
ATOM     30  C   UNK d   1       9.124  -0.594   8.836  0.00  0.00     0.079 C 
ENDBRANCH  24  25
ENDBRANCH  23  24
ENDBRANCH   7  23
TORSDOF 5
ENDMDL
