MODEL 1
REMARK VINA RESULT:    -8.445      0.000      0.000
REMARK INTER + INTRA:         -11.117
REMARK INTER:                 -10.420
REMARK INTRA:                  -0.697
REMARK UNBOUND:                -0.697
REMARK  4 active torsions:
REMARK  status: ('A' for Active; 'I' for Inactive)
REMARK       I    between atoms: N_11  and  C_13 
REMARK    1  A    between atoms: C_13  and  C_15 
REMARK    2  A    between atoms: C_15  and  C_16 
REMARK    3  A    between atoms: C_16  and  C_17 
REMARK    4  A    between atoms: C_17  and  N_18 
ROOT
ATOM      1 Cl   UNK d   1      10.854   1.141   9.125  0.00  0.00    -0.084 Cl
ATOM      2  C   UNK d   1      11.382   2.473  10.148  0.00  0.00     0.034 A 
ATOM      3  C   UNK d   1      10.741   3.698   9.977  0.00  0.00     0.035 A 
ATOM      4  C   UNK d   1      11.143   4.750  10.769  0.00  0.00    -0.005 A 
ATOM      5  C   UNK d   1      12.156   4.577  11.702  0.00  0.00     0.078 A 
ATOM      6  C   UNK d   1      12.791   3.352  11.866  0.00  0.00     0.039 A 
ATOM      7  C   UNK d   1      12.387   2.296  11.070  0.00  0.00     0.026 A 
ATOM      8  O   UNK d   1      12.616   5.585  12.534  0.00  0.00    -0.338 OA
ATOM      9  C   UNK d   1      12.640   6.971  12.338  0.00  0.00     0.088 C 
ATOM     10  C   UNK d   1      11.322   7.626  12.134  0.00  0.00     0.164 C 
ATOM     11  N   UNK d   1      10.263   6.802  11.648  0.00  0.00    -0.345 N 
ATOM     12  C   UNK d   1      10.347   5.964  10.445  0.00  0.00     0.167 C 
ATOM     13  C   UNK d   1       9.030   6.780  12.356  0.00  0.00     0.220 C 
ATOM     14  O   UNK d   1       8.949   7.503  13.375  0.00  0.00    -0.273 OA
ATOM     15  C   UNK d   1      13.324   7.611  13.561  0.00  0.00     0.066 C 
ATOM     16  C   UNK d   1      14.614   6.863  13.765  0.00  0.00     0.170 C 
ATOM     17  O   UNK d   1      14.869   5.954  12.754  0.00  0.00    -0.391 OA
ATOM     18  C   UNK d   1      14.893   6.541  11.501  0.00  0.00     0.170 C 
ATOM     19  C   UNK d   1      13.612   7.283  11.189  0.00  0.00     0.066 C 
ENDROOT
BRANCH  13  20
ATOM     20  C   UNK d   1       7.900   5.967  11.933  0.00  0.00     0.104 C 
BRANCH  20  21
ATOM     21  C   UNK d   1       6.545   6.394  12.326  0.00  0.00     0.029 C 
BRANCH  21  22
ATOM     22  C   UNK d   1       5.917   7.546  11.660  0.00  0.00     0.137 C 
BRANCH  22  23
ATOM     23  N   UNK d   1       6.202   8.865  12.087  0.00  0.00    -0.269 N 
ATOM     24  C   UNK d   1       5.631   9.509  13.211  0.00  0.00     0.325 C 
ATOM     25  O   UNK d   1       4.787   9.053  14.038  0.00  0.00    -0.247 OA
ATOM     26  N   UNK d   1       6.183  10.813  13.269  0.00  0.00    -0.334 N 
ATOM     27  C   UNK d   1       7.367  10.859  12.414  0.00  0.00     0.227 C 
ATOM     28  H   UNK d   1       5.837  11.627  13.813  0.00  0.00     0.164 HD
ATOM     29  C   UNK d   1       7.095   9.764  11.459  0.00  0.00     0.245 C 
ATOM     30  O   UNK d   1       7.594   9.673  10.280  0.00  0.00    -0.271 OA
ENDBRANCH  22  23
ENDBRANCH  21  22
ENDBRANCH  20  21
ENDBRANCH  13  20
TORSDOF 4
ENDMDL
