MODEL 1
REMARK VINA RESULT:    -8.493      0.000      0.000
REMARK INTER + INTRA:          -9.945
REMARK INTER:                  -9.486
REMARK INTRA:                  -0.459
REMARK UNBOUND:                -0.459
REMARK  2 active torsions:
REMARK  status: ('A' for Active; 'I' for Inactive)
REMARK    1  A    between atoms: C_7  and  C_11 
REMARK    2  A    between atoms: C_11  and  N_12 
ROOT
ATOM      1  N   UNK d   1      10.000   6.362  12.503  0.00  0.00    -0.328 N 
ATOM      2  C   UNK d   1       8.780   6.826  12.810  0.00  0.00     0.151 A 
ATOM      3  C   UNK d   1       8.362   7.774  11.882  0.00  0.00     0.167 A 
ATOM      4  N   UNK d   1       9.380   7.870  10.995  0.00  0.00    -0.223 NA
ATOM      5  C   UNK d   1      10.355   7.033  11.360  0.00  0.00     0.213 A 
ATOM      6  N   UNK d   1       7.174   8.409  11.949  0.00  0.00    -0.286 N 
ATOM      7  C   UNK d   1       6.379   8.080  12.984  0.00  0.00     0.332 A 
ATOM      8  O   UNK d   1       5.264   8.663  13.063  0.00  0.00    -0.246 OA
ATOM      9  N   UNK d   1       6.735   7.173  13.907  0.00  0.00    -0.269 N 
ATOM     10  C   UNK d   1       7.922   6.536  13.842  0.00  0.00     0.282 A 
ATOM     11  O   UNK d   1       8.271   5.692  14.691  0.00  0.00    -0.265 OA
ATOM     12  C   UNK d   1       5.875   6.821  15.023  0.00  0.00     0.164 C 
ATOM     13  C   UNK d   1       6.797   9.388  10.947  0.00  0.00     0.163 C 
ENDROOT
BRANCH   1  14
ATOM     14  C   UNK d   1      10.816   5.361  13.161  0.00  0.00     0.189 C 
BRANCH  14  15
ATOM     15  C   UNK d   1      11.398   4.374  12.191  0.00  0.00     0.060 A 
ATOM     16  N   UNK d   1      10.573   3.517  11.564  0.00  0.00    -0.233 NA
ATOM     17  C   UNK d   1      11.052   2.606  10.667  0.00  0.00     0.137 A 
ATOM     18  N   UNK d   1      12.362   2.541  10.386  0.00  0.00    -0.272 N 
ATOM     19  C   UNK d   1      10.159   1.746  10.049  0.00  0.00     0.052 A 
ATOM     20  C   UNK d   1      12.837   1.641   9.499  0.00  0.00     0.121 A 
ATOM     21  C   UNK d   1      13.251   3.383  10.989  0.00  0.00     0.255 A 
ATOM     22  C   UNK d   1      11.962   0.788   8.885  0.00  0.00     0.027 A 
ATOM     23 Br   UNK d   1      12.662  -0.472   7.638  0.00  0.00    -0.050 Br
ATOM     24  C   UNK d   1      10.611   0.819   9.143  0.00  0.00     0.024 A 
ATOM     25  C   UNK d   1      12.735   4.290  11.889  0.00  0.00     0.103 A 
ATOM     26  O   UNK d   1      14.453   3.290  10.701  0.00  0.00    -0.268 OA
ENDBRANCH  14  15
ENDBRANCH   1  14
TORSDOF 2
ENDMDL
