MODEL 1
REMARK VINA RESULT:   -10.644      0.000      0.000
REMARK INTER + INTRA:         -13.774
REMARK INTER:                 -13.133
REMARK INTRA:                  -0.641
REMARK UNBOUND:                -0.641
REMARK  4 active torsions:
REMARK  status: ('A' for Active; 'I' for Inactive)
REMARK    1  A    between atoms: S_1  and  N_4 
REMARK    2  A    between atoms: S_1  and  C_26 
REMARK       I    between atoms: N_7  and  C_10 
REMARK    3  A    between atoms: C_10  and  C_12 
REMARK    4  A    between atoms: C_12  and  C_13 
ROOT
ATOM      1  N   UNK d   1       8.231   7.343  12.354  0.00  0.00    -0.304 N 
ATOM      2  C   UNK d   1       9.282   8.245  12.493  0.00  0.00     0.155 C 
ATOM      3  C   UNK d   1      10.569   7.466  12.800  0.00  0.00     0.146 C 
ATOM      4  N   UNK d   1      10.613   6.254  11.980  0.00  0.00    -0.349 N 
ATOM      5  C   UNK d   1       9.497   5.342  12.129  0.00  0.00     0.146 C 
ATOM      6  C   UNK d   1       8.437   6.090  12.951  0.00  0.00     0.155 C 
ATOM      7  C   UNK d   1      11.697   6.031  11.086  0.00  0.00     0.222 C 
ATOM      8  O   UNK d   1      12.593   6.906  11.033  0.00  0.00    -0.273 OA
ENDROOT
BRANCH   7   9
ATOM      9  C   UNK d   1      11.752   4.822  10.264  0.00  0.00     0.138 C 
BRANCH   9  10
ATOM     10  C   UNK d   1      12.623   3.716  10.841  0.00  0.00     0.186 C 
ATOM     11  N   UNK d   1      13.637   3.250   9.933  0.00  0.00    -0.343 N 
ATOM     12  C   UNK d   1      13.807   2.025   9.233  0.00  0.00     0.254 C 
ATOM     13  H   UNK d   1      14.438   3.922   9.712  0.00  0.00     0.163 HD
ATOM     14  O   UNK d   1      14.947   1.690   8.816  0.00  0.00    -0.268 OA
ATOM     15  C   UNK d   1      12.761   1.030   8.913  0.00  0.00     0.058 A 
ATOM     16  C   UNK d   1      11.558   0.828   9.599  0.00  0.00     0.050 A 
ATOM     17  C   UNK d   1      13.040   0.258   7.815  0.00  0.00     0.019 A 
ATOM     18  C   UNK d   1      10.690  -0.134   9.165  0.00  0.00     0.030 A 
ATOM     19  N   UNK d   1      11.123   1.543  10.745  0.00  0.00    -0.324 N 
ATOM     20  C   UNK d   1      10.949  -0.935   8.051  0.00  0.00     0.002 A 
ATOM     21  C   UNK d   1      12.155  -0.708   7.387  0.00  0.00     0.001 A 
ATOM     22  C   UNK d   1      11.758   2.651  11.392  0.00  0.00     0.245 C 
ATOM     23  H   UNK d   1      10.244   1.219  11.147  0.00  0.00     0.169 HD
ATOM     24  O   UNK d   1      11.511   2.687  12.649  0.00  0.00    -0.271 OA
ENDBRANCH   9  10
ENDBRANCH   7   9
BRANCH   1  25
ATOM     25  S   UNK d   1       6.733   7.805  11.815  0.00  0.00     0.260 S 
ATOM     26  O   UNK d   1       6.883   9.045  10.953  0.00  0.00    -0.200 OA
ATOM     27  O   UNK d   1       6.050   6.781  10.934  0.00  0.00    -0.200 OA
BRANCH  25  28
ATOM     28  C   UNK d   1       5.607   8.234  13.107  0.00  0.00     0.079 A 
ATOM     29  C   UNK d   1       4.475   8.975  12.860  0.00  0.00     0.027 A 
ATOM     30  C   UNK d   1       3.629   9.289  13.901  0.00  0.00     0.025 A 
ATOM     31  C   UNK d   1       3.855   8.893  15.207  0.00  0.00     0.034 A 
ATOM     32  C   UNK d   1       4.999   8.144  15.454  0.00  0.00     0.025 A 
ATOM     33 Cl   UNK d   1       2.796   9.282  16.522  0.00  0.00    -0.084 Cl
ATOM     34  C   UNK d   1       5.841   7.834  14.410  0.00  0.00     0.027 A 
ENDBRANCH  25  28
ENDBRANCH   1  25
TORSDOF 4
ENDMDL
