/Users/jonathanwahrer/Desktop/Msc/3_Semester/Drug_Design_Praktikum/waehrer_HTS_screening/HTS_experiment/out/docking_results/vina_output/2jam/2417_docked.pdbqt
 OpenBabel03162219093D

 27 30  0  0  1  0  0  0  0  0999 V2000
   11.8170    4.6810   11.3320 N   0  0  0  0  0  0  0  0  0  0  0  0
   10.9470    5.0130   12.4840 C   0  0  0  0  0  2  0  0  0  0  0  0
    9.9360    5.8780   11.8830 C   0  0  2  0  0  3  0  0  0  0  0  0
   10.8180    6.8870   11.1640 C   0  0  2  0  0  3  0  0  0  0  0  0
   11.7860    5.8130   10.5090 C   0  0  0  0  0  2  0  0  0  0  0  0
   11.3150    3.4050   10.8000 C   0  0  0  0  0  2  0  0  0  0  0  0
   12.1870    2.6770    9.9140 C   0  0  0  0  0  0  0  0  0  0  0  0
   12.0130    1.4800    9.2570 C   0  0  0  0  0  0  0  0  0  0  0  0
   10.8900    0.7090    9.0710 C   0  0  0  0  0  0  0  0  0  0  0  0
   13.1680    1.0800    8.6250 C   0  0  0  0  0  0  0  0  0  0  0  0
    9.4440    1.1440    9.9760 Cl  0  0  0  0  0  0  0  0  0  0  0  0
   10.8970   -0.4070    8.2790 C   0  0  0  0  0  3  0  0  0  0  0  0
   12.0750   -0.7920    7.6470 C   0  0  0  0  0  3  0  0  0  0  0  0
   13.2290   -0.0240    7.8290 C   0  0  0  0  0  3  0  0  0  0  0  0
   14.0730    2.0400    8.9140 N   0  0  0  0  0  0  0  0  0  0  0  0
   13.5130    2.9650    9.6480 N   0  0  0  0  0  0  0  0  0  0  0  0
   15.4980    1.9680    8.5480 C   0  0  0  0  0  1  0  0  0  0  0  0
    9.0140    6.5820   12.8470 C   0  0  0  0  0  2  0  0  0  0  0  0
    8.1560    7.4480   12.1010 N   0  0  0  0  0  0  0  0  0  0  0  0
    6.7790    7.0030   12.0830 C   0  0  0  0  0  2  0  0  0  0  0  0
    5.8070    8.0150   12.6440 C   0  0  0  0  0  2  0  0  0  0  0  0
    5.8980    9.2600   12.0630 O   0  0  0  0  0  0  0  0  0  0  0  0
    7.2040    9.6060   11.7280 C   0  0  0  0  0  2  0  0  0  0  0  0
    8.1580    8.8150   12.5690 C   0  0  0  0  0  2  0  0  0  0  0  0
   11.7070    7.6230   12.1250 C   0  0  0  0  0  2  0  0  0  0  0  0
   12.4620    8.5910   11.4110 O   0  0  0  0  0  0  0  0  0  0  0  0
   11.8860    9.4490   11.4290 H   0  0  0  0  0  0  0  0  0  0  0  0
  1  2  1  0  0  0  0
  3  2  1  0  0  0  0
  3 18  1  1  0  0  0
  4  3  1  0  0  0  0
  4 25  1  1  0  0  0
  5  4  1  0  0  0  0
  5  1  1  0  0  0  0
  6  1  1  0  0  0  0
  7  6  1  0  0  0  0
  8  7  1  0  0  0  0
  9  8  1  0  0  0  0
  9 11  1  0  0  0  0
 10 15  1  0  0  0  0
 10  8  2  0  0  0  0
 12  9  2  0  0  0  0
 13 14  2  0  0  0  0
 13 12  1  0  0  0  0
 14 10  1  0  0  0  0
 15 16  1  0  0  0  0
 16  7  2  0  0  0  0
 17 15  1  0  0  0  0
 19 24  1  0  0  0  0
 19 18  1  0  0  0  0
 20 19  1  0  0  0  0
 20 21  1  0  0  0  0
 22 21  1  0  0  0  0
 23 22  1  0  0  0  0
 23 24  1  0  0  0  0
 26 27  1  0  0  0  0
 26 25  1  0  0  0  0
M  END
>  <Pose>
1

>  <Score>
-8.117

$$$$
