MODEL 1
REMARK VINA RESULT:    -9.385      0.000      0.000
REMARK INTER + INTRA:         -13.345
REMARK INTER:                 -12.677
REMARK INTRA:                  -0.667
REMARK UNBOUND:                -0.667
REMARK  6 active torsions:
REMARK  status: ('A' for Active; 'I' for Inactive)
REMARK    1  A    between atoms: C_5  and  C_8 
REMARK    2  A    between atoms: N_15  and  C_16 
REMARK    3  A    between atoms: C_16  and  C_17 
REMARK    4  A    between atoms: C_17  and  C_18 
REMARK    5  A    between atoms: C_18  and  N_19 
REMARK    6  A    between atoms: N_19  and  C_20 
ROOT
ATOM      1  C   UNK d   1      13.740   2.776  10.899  0.00  0.00     0.078 A 
ATOM      2  C   UNK d   1      13.674   1.571  10.180  0.00  0.00     0.146 A 
ATOM      3  N   UNK d   1      12.388   1.326   9.965  0.00  0.00    -0.153 N 
ATOM      4  C   UNK d   1      11.600   0.379   9.369  0.00  0.00     0.083 A 
ATOM      5  C   UNK d   1      10.311   0.809   9.562  0.00  0.00     0.077 A 
ATOM      6  N   UNK d   1      10.370   1.947  10.236  0.00  0.00    -0.189 N 
ATOM      7  C   UNK d   1      11.666   2.284  10.496  0.00  0.00     0.692 A 
ATOM      8  N   UNK d   1      12.486   3.203  11.085  0.00  0.00    -0.180 N 
ATOM      9  C   UNK d   1       9.221   0.078   9.080  0.00  0.00     0.032 A 
ATOM     10  C   UNK d   1       9.437  -1.098   8.395  0.00  0.00     0.002 A 
ATOM     11  C   UNK d   1      10.739  -1.507   8.216  0.00  0.00     0.002 A 
ATOM     12  C   UNK d   1      11.828  -0.787   8.692  0.00  0.00     0.033 A 
ATOM     13  H   UNK d   1       9.525   2.477  10.522  0.00  0.00     0.184 HD
ENDROOT
BRANCH   8  14
ATOM     14  C   UNK d   1      11.957   4.351  11.756  0.00  0.00     0.149 C 
BRANCH  14  15
ATOM     15  C   UNK d   1      11.959   5.630  11.021  0.00  0.00     0.048 C 
BRANCH  15  16
ATOM     16  C   UNK d   1      10.680   6.138  10.461  0.00  0.00     0.234 C 
BRANCH  16  17
ATOM     17  N   UNK d   1      10.334   7.438  10.994  0.00  0.00    -0.071 N 
ATOM     18  H   UNK d   1      10.990   7.847  11.655  0.00  0.00     0.277 HD
ATOM     19  H   UNK d   1      10.381   8.110  10.144  0.00  0.00     0.277 HD
BRANCH  17  20
ATOM     20  C   UNK d   1       8.978   7.521  11.449  0.00  0.00     0.185 C 
ATOM     21  C   UNK d   1       8.433   6.261  12.060  0.00  0.00     0.033 C 
ATOM     22  C   UNK d   1       6.904   6.393  12.018  0.00  0.00     0.002 C 
ATOM     23  C   UNK d   1       6.507   7.562  12.850  0.00  0.00     0.000 C 
ATOM     24  C   UNK d   1       7.226   8.841  12.489  0.00  0.00     0.002 C 
ATOM     25  C   UNK d   1       8.743   8.620  12.476  0.00  0.00     0.033 C 
ENDBRANCH  17  20
ENDBRANCH  16  17
ENDBRANCH  15  16
ENDBRANCH  14  15
ENDBRANCH   8  14
BRANCH   1  26
ATOM     26  C   UNK d   1      14.990   3.363  11.333  0.00  0.00    -0.007 A 
ATOM     27  C   UNK d   1      16.163   2.920  10.757  0.00  0.00     0.015 A 
ATOM     28  C   UNK d   1      17.380   3.431  11.106  0.00  0.00     0.020 A 
ATOM     29  C   UNK d   1      17.495   4.409  12.046  0.00  0.00     0.011 A 
ATOM     30 Br   UNK d   1      19.208   5.135  12.543  0.00  0.00    -0.051 Br
ATOM     31  C   UNK d   1      16.357   4.875  12.641  0.00  0.00     0.020 A 
ATOM     32  C   UNK d   1      15.102   4.335  12.268  0.00  0.00     0.015 A 
ENDBRANCH   1  26
TORSDOF 6
ENDMDL
