MODEL 1
REMARK VINA RESULT:    -7.599      0.000      0.000
REMARK INTER + INTRA:         -11.064
REMARK INTER:                  -9.821
REMARK INTRA:                  -1.243
REMARK UNBOUND:                -1.243
REMARK  5 active torsions:
REMARK  status: ('A' for Active; 'I' for Inactive)
REMARK    1  A    between atoms: C_7  and  N_11 
REMARK    2  A    between atoms: C_13  and  C_17 
REMARK       I    between atoms: C_17  and  N_19 
REMARK    3  A    between atoms: N_19  and  C_20 
REMARK    4  A    between atoms: C_20  and  C_21 
REMARK    5  A    between atoms: C_21  and  N_22 
ROOT
ATOM      1  N   UNK d   1      11.072   5.095  11.285  0.00  0.00    -0.299 N 
ATOM      2  C   UNK d   1      10.614   5.441  12.630  0.00  0.00     0.148 C 
ATOM      3  C   UNK d   1      10.552   6.952  12.589  0.00  0.00     0.105 C 
ATOM      4  C   UNK d   1       9.928   7.210  11.222  0.00  0.00     0.119 C 
ATOM      5  C   UNK d   1      10.382   6.013  10.432  0.00  0.00     0.226 C 
ATOM      6  O   UNK d   1      10.189   5.834   9.192  0.00  0.00    -0.273 OA
ENDROOT
BRANCH   3   7
ATOM      7  C   UNK d   1      11.901   7.562  12.662  0.00  0.00     0.223 C 
ATOM      8  O   UNK d   1      12.101   8.634  12.037  0.00  0.00    -0.273 OA
ATOM      9  N   UNK d   1      12.959   6.986  13.401  0.00  0.00    -0.359 N 
ATOM     10  H   UNK d   1      12.754   6.088  13.909  0.00  0.00     0.162 HD
BRANCH   9  11
ATOM     11  C   UNK d   1      14.271   7.575  13.477  0.00  0.00     0.152 C 
BRANCH  11  12
ATOM     12  C   UNK d   1      15.311   6.543  13.092  0.00  0.00     0.292 C 
BRANCH  12  13
ATOM     13  N   UNK d   1      15.620   6.556  11.683  0.00  0.00     0.094 N 
ATOM     14  C   UNK d   1      15.803   7.949  11.290  0.00  0.00     0.298 C 
ATOM     15  C   UNK d   1      17.229   8.401  11.589  0.00  0.00     0.198 C 
ATOM     16  O   UNK d   1      18.161   7.775  10.796  0.00  0.00    -0.388 OA
ATOM     17  C   UNK d   1      17.644   6.591  10.326  0.00  0.00     0.198 C 
ATOM     18  C   UNK d   1      16.847   5.854  11.384  0.00  0.00     0.298 C 
ENDBRANCH  12  13
ENDBRANCH  11  12
ENDBRANCH   9  11
ENDBRANCH   3   7
BRANCH   1  19
ATOM     19  C   UNK d   1      11.990   4.075  10.928  0.00  0.00     0.165 A 
ATOM     20  N   UNK d   1      13.329   4.053  10.982  0.00  0.00    -0.155 NA
ATOM     21  N   UNK d   1      13.791   2.893  10.543  0.00  0.00    -0.275 N 
ATOM     22  C   UNK d   1      12.747   2.097  10.176  0.00  0.00     0.065 A 
ATOM     23  H   UNK d   1      14.777   2.542  10.450  0.00  0.00     0.189 HD
ATOM     24  C   UNK d   1      12.625   0.837   9.669  0.00  0.00     0.051 A 
ATOM     25  C   UNK d   1      11.617   2.838  10.418  0.00  0.00     0.040 A 
ATOM     26  C   UNK d   1      11.393   0.288   9.391  0.00  0.00     0.013 A 
ATOM     27 Br   UNK d   1      11.248  -1.472   8.683  0.00  0.00    -0.051 Br
ATOM     28  C   UNK d   1      10.239   1.036   9.634  0.00  0.00     0.020 A 
ATOM     29  C   UNK d   1      10.361   2.308  10.147  0.00  0.00     0.019 A 
ENDBRANCH   1  19
TORSDOF 5
ENDMDL
