/Users/jonathanwahrer/Desktop/Msc/3_Semester/Drug_Design_Praktikum/waehrer_HTS_screening/HTS_experiment/out/docking_results/vina_output/2jam/2432_docked.pdbqt
 OpenBabel03162219093D

 26 29  0  0  0  0  0  0  0  0999 V2000
   11.8320    3.1590   11.2760 C   0  0  0  0  0  0  0  0  0  0  0  0
   12.0590    2.7090   12.4970 O   0  0  0  0  0  0  0  0  0  0  0  0
   12.0150    4.5160   11.0630 N   0  0  0  0  0  0  0  0  0  0  0  0
   12.4030    5.3520   12.2240 C   0  0  0  0  0  2  0  0  0  0  0  0
   11.2960    6.3570   12.4000 C   0  0  0  0  0  2  0  0  0  0  0  0
   10.3030    6.3380   11.3720 N   0  0  0  0  0  0  0  0  0  0  0  0
   10.5700    5.9990    9.9820 C   0  0  0  0  0  2  0  0  0  0  0  0
   11.8970    5.2640    9.8670 C   0  0  0  0  0  2  0  0  0  0  0  0
   11.4250    2.1110   10.3760 C   0  0  0  0  0  0  0  0  0  0  0  0
   10.2460    1.5120   10.2030 N   0  0  0  0  0  0  0  0  0  0  0  0
   10.2940    0.5730    9.2180 C   0  0  0  0  0  0  0  0  0  0  0  0
    9.3480    1.6580   10.7070 H   0  0  0  0  0  0  0  0  0  0  0  0
    9.0050   -0.4600    8.6380 Cl  0  0  0  0  0  0  0  0  0  0  0  0
   11.5650    0.5470    8.7140 C   0  0  0  0  0  0  0  0  0  0  0  0
   12.2560    1.4960    9.4310 C   0  0  0  0  0  3  0  0  0  0  0  0
   12.1610   -0.4830    7.4300 Cl  0  0  0  0  0  0  0  0  0  0  0  0
    8.9560    6.6650   11.6860 C   0  0  0  0  0  0  0  0  0  0  0  0
    7.9520    5.8090   11.4150 N   0  0  0  0  0  0  0  0  0  0  0  0
    6.6620    6.1050   11.7040 C   0  0  0  0  0  3  0  0  0  0  0  0
    6.3460    7.2770   12.2790 N   0  0  0  0  0  0  0  0  0  0  0  0
    7.2890    8.1840   12.5810 C   0  0  0  0  0  0  0  0  0  0  0  0
    7.2390    9.4040   13.1470 N   0  0  0  0  0  0  0  0  0  0  0  0
    8.6160    7.8630   12.2760 C   0  0  0  0  0  0  0  0  0  0  0  0
    8.4760    9.8560   13.2060 N   0  0  0  0  0  0  0  0  0  0  0  0
    6.0560   10.1250   13.6200 C   0  0  0  0  0  1  0  0  0  0  0  0
    9.3390    8.9510   12.6880 C   0  0  0  0  0  3  0  0  0  0  0  0
  1  2  2  0  0  0  0
  3  1  1  0  0  0  0
  3  4  1  0  0  0  0
  4  5  1  0  0  0  0
  6 17  1  0  0  0  0
  6  5  1  0  0  0  0
  7  6  1  0  0  0  0
  8  7  1  0  0  0  0
  8  3  1  0  0  0  0
  9  1  1  0  0  0  0
 10  9  1  0  0  0  0
 10 12  1  0  0  0  0
 11 10  1  0  0  0  0
 13 11  1  0  0  0  0
 14 11  2  0  0  0  0
 14 15  1  0  0  0  0
 15  9  2  0  0  0  0
 16 14  1  0  0  0  0
 17 23  1  0  0  0  0
 18 17  2  0  0  0  0
 18 19  1  0  0  0  0
 19 20  2  0  0  0  0
 20 21  1  0  0  0  0
 21 22  1  0  0  0  0
 22 24  1  0  0  0  0
 22 25  1  0  0  0  0
 23 21  2  0  0  0  0
 23 26  1  0  0  0  0
 26 24  2  0  0  0  0
M  END
>  <Pose>
1

>  <Score>
-8.856

$$$$
