MODEL 1
REMARK VINA RESULT:    -8.856      0.000      0.000
REMARK INTER + INTRA:         -10.217
REMARK INTER:                  -9.892
REMARK INTRA:                  -0.326
REMARK UNBOUND:                -0.326
REMARK  2 active torsions:
REMARK  status: ('A' for Active; 'I' for Inactive)
REMARK    1  A    between atoms: C_4  and  C_8 
REMARK       I    between atoms: C_8  and  N_10 
REMARK    2  A    between atoms: N_13  and  C_16 
ROOT
ATOM      1  C   UNK d   1      11.832   3.159  11.276  0.00  0.00     0.204 C 
ATOM      2  O   UNK d   1      12.059   2.709  12.497  0.00  0.00    -0.170 OA
ATOM      3  N   UNK d   1      12.015   4.516  11.063  0.00  0.00    -0.355 N 
ATOM      4  C   UNK d   1      12.403   5.352  12.224  0.00  0.00     0.145 C 
ATOM      5  C   UNK d   1      11.296   6.357  12.400  0.00  0.00     0.144 C 
ATOM      6  N   UNK d   1      10.303   6.338  11.372  0.00  0.00    -0.362 N 
ATOM      7  C   UNK d   1      10.570   5.999   9.982  0.00  0.00     0.144 C 
ATOM      8  C   UNK d   1      11.897   5.264   9.867  0.00  0.00     0.145 C 
ENDROOT
BRANCH   1   9
ATOM      9  C   UNK d   1      11.425   2.111  10.376  0.00  0.00     0.089 A 
ATOM     10  N   UNK d   1      10.246   1.512  10.203  0.00  0.00    -0.342 N 
ATOM     11  C   UNK d   1      10.294   0.573   9.218  0.00  0.00     0.126 A 
ATOM     12  H   UNK d   1       9.348   1.658  10.707  0.00  0.00     0.167 HD
ATOM     13 Cl   UNK d   1       9.005  -0.460   8.638  0.00  0.00    -0.063 Cl
ATOM     14  C   UNK d   1      11.565   0.547   8.714  0.00  0.00     0.074 A 
ATOM     15  C   UNK d   1      12.256   1.496   9.431  0.00  0.00     0.061 A 
ATOM     16 Cl   UNK d   1      12.161  -0.483   7.430  0.00  0.00    -0.081 Cl
ENDBRANCH   1   9
BRANCH   6  17
ATOM     17  C   UNK d   1       8.956   6.665  11.686  0.00  0.00     0.142 A 
ATOM     18  N   UNK d   1       7.952   5.809  11.415  0.00  0.00    -0.224 NA
ATOM     19  C   UNK d   1       6.662   6.105  11.704  0.00  0.00     0.237 A 
ATOM     20  N   UNK d   1       6.346   7.277  12.279  0.00  0.00    -0.222 NA
ATOM     21  C   UNK d   1       7.289   8.184  12.581  0.00  0.00     0.162 A 
ATOM     22  N   UNK d   1       7.239   9.404  13.147  0.00  0.00    -0.256 N 
ATOM     23  C   UNK d   1       8.616   7.863  12.276  0.00  0.00     0.076 A 
ATOM     24  N   UNK d   1       8.476   9.856  13.206  0.00  0.00    -0.182 NA
ATOM     25  C   UNK d   1       6.056  10.125  13.620  0.00  0.00     0.182 C 
ATOM     26  C   UNK d   1       9.339   8.951  12.688  0.00  0.00     0.158 A 
ENDBRANCH   6  17
TORSDOF 2
ENDMDL
