/Users/jonathanwahrer/Desktop/Msc/3_Semester/Drug_Design_Praktikum/waehrer_HTS_screening/HTS_experiment/out/docking_results/vina_output/2jam/2447_docked.pdbqt
 OpenBabel03162219103D

 33 36  0  0  1  0  0  0  0  0999 V2000
    6.4600    8.2380   12.6320 C   0  0  1  0  0  3  0  0  0  0  0  0
    5.8830    7.7970   11.3290 C   0  0  0  0  0  0  0  0  0  0  0  0
    5.2330    8.5670   10.5830 O   0  0  0  0  0  0  0  0  0  0  0  0
    6.1330    6.4610   11.0280 O   0  0  0  0  0  0  0  0  0  0  0  0
    7.2310    5.7500   11.4640 C   0  0  0  0  0  3  0  0  0  0  0  0
    8.1310    6.3940   12.2390 C   0  0  0  0  0  0  0  0  0  0  0  0
    7.8950    7.7840   12.5640 C   0  0  0  0  0  0  0  0  0  0  0  0
    8.8190    8.5860   12.7790 O   0  0  0  0  0  0  0  0  0  0  0  0
    9.3360    5.7100   12.7300 C   0  0  0  0  0  2  0  0  0  0  0  0
   10.4600    5.7900   11.8910 N   0  0  0  0  0  0  0  0  0  0  0  0
   10.3250    5.7940   10.4970 C   0  0  0  0  0  2  0  0  0  0  0  0
   11.6450    5.3520    9.8270 C   0  0  0  0  0  2  0  0  0  0  0  0
   12.0370    4.1580   10.5320 N   0  0  0  0  0  0  0  0  0  0  0  0
   12.4710    4.3870   11.9030 C   0  0  0  0  0  2  0  0  0  0  0  0
   11.7440    5.6030   12.4600 C   0  0  0  0  0  2  0  0  0  0  0  0
   11.9900    2.8770    9.9480 C   0  0  0  0  0  0  0  0  0  0  0  0
   10.8430    2.1230    9.8450 C   0  0  0  0  0  3  0  0  0  0  0  0
   10.8550    0.8780    9.2610 C   0  0  0  0  0  0  0  0  0  0  0  0
   12.0020    0.3180    8.7500 C   0  0  0  0  0  3  0  0  0  0  0  0
    9.3700   -0.0290    9.1620 Cl  0  0  0  0  0  0  0  0  0  0  0  0
   13.1610    1.0440    8.8380 C   0  0  0  0  0  3  0  0  0  0  0  0
   13.1530    2.3010    9.4260 C   0  0  0  0  0  3  0  0  0  0  0  0
    6.3590    9.7060   12.8530 C   0  0  0  0  0  2  0  0  0  0  0  0
    5.7790    9.9450   14.1270 N   0  0  0  0  0  0  0  0  0  0  0  0
    6.6880    9.8600   15.2430 C   0  0  0  0  0  2  0  0  0  0  0  0
    6.3140    8.6220   16.0350 C   0  0  0  0  0  2  0  0  0  0  0  0
    5.0620    8.8510   16.6740 N   0  0  0  0  0  0  0  0  0  0  0  0
    4.1700    9.6050   15.8530 C   0  0  0  0  0  2  0  0  0  0  0  0
    4.4780    9.4390   14.3650 C   0  0  0  0  0  2  0  0  0  0  0  0
    5.1710    9.3730   18.2870 S   0  0  0  0  0  0  0  0  0  0  0  0
    6.0780    8.5080   19.1370 O   0  0  0  0  0  0  0  0  0  0  0  0
    5.7980   10.7600   18.2910 O   0  0  0  0  0  0  0  0  0  0  0  0
    3.6210    9.5030   19.0970 C   0  0  0  0  0  1  0  0  0  0  0  0
  1 23  1  6  0  0  0
  2  1  1  0  0  0  0
  3  2  2  0  0  0  0
  4  2  1  0  0  0  0
  4  5  1  0  0  0  0
  5  6  2  0  0  0  0
  6  7  1  0  0  0  0
  6  9  1  0  0  0  0
  7  1  1  0  0  0  0
  7  8  2  0  0  0  0
 10 15  1  0  0  0  0
 10  9  1  0  0  0  0
 11 10  1  0  0  0  0
 12 11  1  0  0  0  0
 12 13  1  0  0  0  0
 13 14  1  0  0  0  0
 14 15  1  0  0  0  0
 16 13  1  0  0  0  0
 17 16  1  0  0  0  0
 18 17  2  0  0  0  0
 19 21  2  0  0  0  0
 19 18  1  0  0  0  0
 20 18  1  0  0  0  0
 21 22  1  0  0  0  0
 22 16  2  0  0  0  0
 23 24  1  0  0  0  0
 24 29  1  0  0  0  0
 24 25  1  0  0  0  0
 25 26  1  0  0  0  0
 26 27  1  0  0  0  0
 27 30  1  0  0  0  0
 28 27  1  0  0  0  0
 29 28  1  0  0  0  0
 30 32  2  0  0  0  0
 30 33  1  0  0  0  0
 30 31  2  0  0  0  0
M  END
>  <Pose>
1

>  <Score>
-9.141

$$$$
