MODEL 1
REMARK VINA RESULT:    -7.846      0.000      0.000
REMARK INTER + INTRA:         -12.392
REMARK INTER:                 -11.057
REMARK INTRA:                  -1.335
REMARK UNBOUND:                -1.335
REMARK  8 active torsions:
REMARK  status: ('A' for Active; 'I' for Inactive)
REMARK    1  A    between atoms: C_6  and  C_9 
REMARK    2  A    between atoms: C_7  and  O_8 
REMARK    3  A    between atoms: N_10  and  N_11 
REMARK       I    between atoms: N_11  and  C_12 
REMARK    4  A    between atoms: C_12  and  C_14 
REMARK    5  A    between atoms: N_17  and  C_26 
REMARK    6  A    between atoms: C_18  and  C_19 
REMARK    7  A    between atoms: C_19  and  N_20 
REMARK    8  A    between atoms: C_30  and  N_31 
ROOT
ATOM      1  C   UNK d   1       6.219   6.364 -13.603  0.00  0.00     0.162 A 
ATOM      2  N   UNK d   1       7.331   7.178 -13.570  0.00  0.00    -0.125 NA
ATOM      3  N   UNK d   1       8.373   6.419 -13.450  0.00  0.00    -0.058 NA
ATOM      4  N   UNK d   1       7.980   5.116 -13.403  0.00  0.00    -0.191 N 
ATOM      5  C   UNK d   1       6.653   5.049 -13.496  0.00  0.00     0.101 A 
ENDROOT
BRANCH   1   6
ATOM      6  C   UNK d   1       4.880   6.884 -13.739  0.00  0.00     0.228 C 
ATOM      7  N   UNK d   1       3.692   6.507 -13.101  0.00  0.00    -0.253 N 
ATOM      8  H   UNK d   1       3.602   5.779 -12.411  0.00  0.00     0.191 HD
ATOM      9  O   UNK d   1       4.771   7.865 -14.593  0.00  0.00    -0.168 OA
BRANCH   7  10
ATOM     10  N   UNK d   1       2.510   7.237 -13.468  0.00  0.00    -0.184 NA
ATOM     11  C   UNK d   1       1.366   6.893 -13.009  0.00  0.00     0.153 C 
BRANCH  11  12
ATOM     12  C   UNK d   1       0.130   7.607 -13.354  0.00  0.00     0.019 A 
ATOM     13  C   UNK d   1      -1.002   6.956 -13.801  0.00  0.00     0.038 A 
ATOM     14  C   UNK d   1      -2.164   7.637 -14.124  0.00  0.00     0.049 A 
ATOM     15  C   UNK d   1      -2.228   9.009 -14.007  0.00  0.00     0.144 A 
ATOM     16 Br   UNK d   1      -3.731   6.734 -14.743  0.00  0.00    -0.048 Br
ATOM     17  C   UNK d   1      -1.097   9.665 -13.560  0.00  0.00     0.082 A 
ATOM     18  O   UNK d   1      -3.382   9.728 -14.324  0.00  0.00    -0.189 OA
ATOM     19 Br   UNK d   1      -1.156  11.576 -13.387  0.00  0.00    -0.045 Br
ATOM     20  C   UNK d   1       0.058   8.980 -13.239  0.00  0.00     0.097 A 
BRANCH  20  21
ATOM     21  O   UNK d   1       1.213   9.640 -12.783  0.00  0.00    -0.358 OA
ATOM     22  H   UNK d   1       1.360  10.606 -13.031  0.00  0.00     0.217 HD
ENDBRANCH  20  21
ENDBRANCH  11  12
ENDBRANCH   7  10
ENDBRANCH   1   6
BRANCH   5  23
ATOM     23  C   UNK d   1       5.788   3.870 -13.496  0.00  0.00     0.296 C 
BRANCH  23  24
ATOM     24  N   UNK d   1       6.351   2.586 -13.680  0.00  0.00    -0.062 N 
ATOM     25  C   UNK d   1       5.608   1.758 -14.619  0.00  0.00     0.261 C 
ATOM     26  C   UNK d   1       4.174   1.707 -14.273  0.00  0.00     0.195 C 
ATOM     27  O   UNK d   1       3.779   1.761 -12.999  0.00  0.00    -0.388 OA
ATOM     28  C   UNK d   1       4.700   1.922 -12.015  0.00  0.00     0.195 C 
ATOM     29  C   UNK d   1       6.121   1.839 -12.400  0.00  0.00     0.261 C 
ATOM     30  H   UNK d   1       7.343   2.604 -13.862  0.00  0.00     0.280 HD
ENDBRANCH  23  24
ENDBRANCH   5  23
BRANCH   4  31
ATOM     31  C   UNK d   1       8.964   4.089 -13.263  0.00  0.00     0.229 A 
ATOM     32  N   UNK d   1       9.474   3.226 -14.132  0.00  0.00    -0.081 NA
ATOM     33  O   UNK d   1      10.364   2.524 -13.510  0.00  0.00    -0.103 OA
ATOM     34  N   UNK d   1      10.472   2.877 -12.268  0.00  0.00    -0.083 NA
ATOM     35  C   UNK d   1       9.616   3.863 -12.040  0.00  0.00     0.201 A 
BRANCH  35  36
ATOM     36  N   UNK d   1       9.363   4.580 -10.842  0.00  0.00    -0.379 N 
ATOM     37  H   UNK d   1      10.010   5.343 -10.556  0.00  0.00     0.158 HD
ATOM     38  H   UNK d   1       8.533   4.370 -10.216  0.00  0.00     0.158 HD
ENDBRANCH  35  36
ENDBRANCH   4  31
TORSDOF 8
ENDMDL
