MODEL 1
REMARK VINA RESULT:    -7.370      0.000      0.000
REMARK INTER + INTRA:         -12.106
REMARK INTER:                 -10.601
REMARK INTRA:                  -1.505
REMARK UNBOUND:                -1.505
REMARK  9 active torsions:
REMARK  status: ('A' for Active; 'I' for Inactive)
REMARK    1  A    between atoms: C_3  and  O_33 
REMARK    2  A    between atoms: C_6  and  C_9 
REMARK    3  A    between atoms: C_7  and  O_8 
REMARK    4  A    between atoms: N_10  and  N_11 
REMARK       I    between atoms: N_11  and  C_12 
REMARK    5  A    between atoms: C_12  and  C_14 
REMARK    6  A    between atoms: N_17  and  C_26 
REMARK    7  A    between atoms: C_18  and  C_19 
REMARK    8  A    between atoms: C_19  and  N_20 
REMARK    9  A    between atoms: C_30  and  N_31 
ROOT
ATOM      1  C   UNK d   1       6.226   6.811 -13.460  0.00  0.00     0.176 A 
ATOM      2  N   UNK d   1       7.332   7.550 -13.122  0.00  0.00    -0.124 NA
ATOM      3  N   UNK d   1       8.366   6.761 -13.022  0.00  0.00    -0.058 NA
ATOM      4  N   UNK d   1       8.041   5.505 -13.275  0.00  0.00    -0.191 N 
ATOM      5  C   UNK d   1       6.725   5.507 -13.547  0.00  0.00     0.104 A 
ENDROOT
BRANCH   1   6
ATOM      6  C   UNK d   1       4.891   7.344 -13.655  0.00  0.00     0.294 C 
ATOM      7  N   UNK d   1       3.680   6.865 -13.174  0.00  0.00    -0.242 N 
ATOM      8  H   UNK d   1       3.523   6.017 -12.579  0.00  0.00     0.192 HD
ATOM      9  O   UNK d   1       4.843   8.409 -14.378  0.00  0.00    -0.264 OA
BRANCH   7  10
ATOM     10  N   UNK d   1       2.498   7.602 -13.526  0.00  0.00    -0.183 NA
ATOM     11  C   UNK d   1       1.355   7.189 -13.109  0.00  0.00     0.153 C 
BRANCH  11  12
ATOM     12  C   UNK d   1       0.099   7.860 -13.406  0.00  0.00     0.019 A 
ATOM     13  C   UNK d   1      -0.998   7.157 -13.828  0.00  0.00     0.038 A 
ATOM     14  C   UNK d   1      -2.208   7.781 -14.117  0.00  0.00     0.046 A 
ATOM     15  C   UNK d   1      -2.322   9.161 -13.977  0.00  0.00     0.103 A 
ATOM     16 Br   UNK d   1      -3.702   6.769 -14.699  0.00  0.00    -0.048 Br
ATOM     17  C   UNK d   1      -1.233   9.869 -13.557  0.00  0.00     0.079 A 
ATOM     18 Br   UNK d   1      -1.346  11.749 -13.352  0.00  0.00    -0.045 Br
ATOM     19  C   UNK d   1      -0.028   9.224 -13.272  0.00  0.00     0.097 A 
BRANCH  15  20
ATOM     20  O   UNK d   1      -3.536   9.764 -14.270  0.00  0.00    -0.358 OA
ATOM     21  H   UNK d   1      -4.304   9.230 -14.645  0.00  0.00     0.217 HD
ENDBRANCH  15  20
BRANCH  19  22
ATOM     22  O   UNK d   1       1.089   9.925 -12.845  0.00  0.00    -0.358 OA
ATOM     23  H   UNK d   1       1.663   9.561 -12.095  0.00  0.00     0.217 HD
ENDBRANCH  19  22
ENDBRANCH  11  12
ENDBRANCH   7  10
ENDBRANCH   1   6
BRANCH   5  24
ATOM     24  C   UNK d   1       5.902   4.353 -13.923  0.00  0.00     0.334 C 
BRANCH  24  25
ATOM     25  N   UNK d   1       5.516   3.496 -12.800  0.00  0.00     0.098 N 
ATOM     26  C   UNK d   1       6.261   2.226 -12.903  0.00  0.00     0.299 C 
ATOM     27  C   UNK d   1       6.188   1.709 -14.298  0.00  0.00     0.198 C 
ATOM     28  O   UNK d   1       4.874   1.619 -14.688  0.00  0.00    -0.388 OA
ATOM     29  C   UNK d   1       3.969   1.815 -13.679  0.00  0.00     0.198 C 
ATOM     30  C   UNK d   1       4.087   3.138 -12.967  0.00  0.00     0.299 C 
ENDBRANCH  24  25
ENDBRANCH   5  24
BRANCH   4  31
ATOM     31  C   UNK d   1       8.966   4.431 -13.274  0.00  0.00     0.229 A 
ATOM     32  N   UNK d   1       9.457   3.721 -14.312  0.00  0.00    -0.081 NA
ATOM     33  O   UNK d   1      10.297   2.821 -13.875  0.00  0.00    -0.103 OA
ATOM     34  N   UNK d   1      10.400   2.889 -12.572  0.00  0.00    -0.083 NA
ATOM     35  C   UNK d   1       9.587   3.878 -12.165  0.00  0.00     0.201 A 
BRANCH  35  36
ATOM     36  N   UNK d   1       9.419   4.264 -10.818  0.00  0.00    -0.379 N 
ATOM     37  H   UNK d   1       9.829   3.672 -10.073  0.00  0.00     0.158 HD
ATOM     38  H   UNK d   1       8.901   5.118 -10.542  0.00  0.00     0.158 HD
ENDBRANCH  35  36
ENDBRANCH   4  31
TORSDOF 9
ENDMDL
