/Users/jonathanwahrer/Desktop/Msc/3_Semester/Drug_Design_Praktikum/waehrer_HTS_screening/HTS_experiment/out/docking_results/vina_output/6q9y/0004_docked.pdbqt
 OpenBabel03222218583D

 34 37  0  0  0  0  0  0  0  0999 V2000
    2.1990   10.1230  -14.4640 C   0  0  0  0  0  0  0  0  0  0  0  0
    2.0220   11.3360  -13.9470 N   0  0  0  0  0  4  0  0  0  0  0  0
    0.9110   11.6770  -13.2340 C   0  0  0  0  0  0  0  0  0  0  0  0
   -0.0020   10.7210  -13.0780 N   0  0  0  0  0  0  0  0  0  0  0  0
    0.0990    9.4640  -13.5670 C   0  0  0  0  0  0  0  0  0  0  0  0
    1.2430    9.2070  -14.2690 N   0  0  0  0  0  2  0  0  0  0  0  0
    3.3730    9.8070  -15.2020 N   0  0  0  0  0  0  0  0  0  0  0  0
    3.7930   10.4180  -15.9100 H   0  0  0  0  0  0  0  0  0  0  0  0
    4.0230    8.5800  -14.9630 N   0  0  0  0  0  0  0  0  0  0  0  0
    4.8900    8.4180  -14.0430 C   0  0  0  0  0  3  0  0  0  0  0  0
    5.5740    7.1630  -13.7770 C   0  0  0  0  0  0  0  0  0  0  0  0
    6.9470    7.1070  -13.8250 C   0  0  0  0  0  3  0  0  0  0  0  0
    7.6220    5.9260  -13.5750 C   0  0  0  0  0  0  0  0  0  0  0  0
    6.9490    4.7630  -13.2720 C   0  0  0  0  0  0  0  0  0  0  0  0
    9.5350    5.8750  -13.6480 Br  0  0  0  0  0  0  0  0  0  0  0  0
    5.5690    4.8100  -13.2210 C   0  0  0  0  0  0  0  0  0  0  0  0
    4.6420    3.1930  -12.7990 Br  0  0  0  0  0  0  0  0  0  0  0  0
    4.9010    5.9980  -13.4730 C   0  0  0  0  0  0  0  0  0  0  0  0
    7.6120    3.5650  -13.0170 O   0  0  0  0  0  0  0  0  0  0  0  0
    8.4490    3.5710  -12.4590 H   0  0  0  0  0  0  0  0  0  0  0  0
    3.5280    6.0300  -13.4200 O   0  0  0  0  0  0  0  0  0  0  0  0
    3.0050    6.7980  -13.8520 H   0  0  0  0  0  0  0  0  0  0  0  0
    0.7420   12.9700  -12.6940 N   0  0  0  0  0  0  0  0  0  0  0  0
   -0.5290   13.6330  -12.7820 C   0  0  0  0  0  2  0  0  0  0  0  0
   -0.2670   15.0510  -13.2640 C   0  0  0  0  0  2  0  0  0  0  0  0
    0.7750   15.6520  -12.5680 O   0  0  0  0  0  0  0  0  0  0  0  0
    1.9800   15.0040  -12.7160 C   0  0  0  0  0  2  0  0  0  0  0  0
    1.8460   13.6270  -12.0540 C   0  0  0  0  0  2  0  0  0  0  0  0
   -0.8930    8.4840  -13.3760 N   0  0  0  0  0  0  0  0  0  0  0  0
   -0.5730    7.2250  -12.7790 C   0  0  0  0  0  2  0  0  0  0  0  0
   -1.1190    6.1350  -13.7060 C   0  0  0  0  0  2  0  0  0  0  0  0
   -1.6730    6.6620  -14.8530 O   0  0  0  0  0  0  0  0  0  0  0  0
   -2.6890    7.5580  -14.6340 C   0  0  0  0  0  2  0  0  0  0  0  0
   -2.2420    8.7380  -13.7790 C   0  0  0  0  0  2  0  0  0  0  0  0
  1  6  1  0  0  0  0
  1  2  2  0  0  0  0
  2  3  2  0  0  0  0
  3  4  1  0  0  0  0
  3 23  1  0  0  0  0
  5 29  1  0  0  0  0
  5  4  2  0  0  0  0
  6  5  1  0  0  0  0
  7  9  1  0  0  0  0
  7  1  1  0  0  0  0
  8  7  1  0  0  0  0
  9 10  2  0  0  0  0
 10 11  1  0  0  0  0
 11 18  1  0  0  0  0
 12 11  2  0  0  0  0
 12 13  1  0  0  0  0
 13 14  2  0  0  0  0
 14 16  1  0  0  0  0
 14 19  1  0  0  0  0
 15 13  1  0  0  0  0
 16 17  1  0  0  0  0
 18 21  1  0  0  0  0
 18 16  2  0  0  0  0
 19 20  1  0  0  0  0
 22 21  1  0  0  0  0
 23 28  1  0  0  0  0
 24 23  1  0  0  0  0
 25 24  1  0  0  0  0
 25 26  1  0  0  0  0
 27 26  1  0  0  0  0
 27 28  1  0  0  0  0
 29 30  1  0  0  0  0
 31 30  1  0  0  0  0
 32 33  1  0  0  0  0
 32 31  1  0  0  0  0
 33 34  1  0  0  0  0
 34 29  1  0  0  0  0
M  END
>  <Pose>
1

>  <Score>
-8.124

$$$$
