MODEL 1
REMARK VINA RESULT:    -8.124      0.000      0.000
REMARK INTER + INTRA:         -12.164
REMARK INTER:                 -10.974
REMARK INTRA:                  -1.189
REMARK UNBOUND:                -1.189
REMARK  7 active torsions:
REMARK  status: ('A' for Active; 'I' for Inactive)
REMARK    1  A    between atoms: C_3  and  O_31 
REMARK    2  A    between atoms: C_6  and  C_9 
REMARK    3  A    between atoms: C_7  and  O_8 
REMARK    4  A    between atoms: N_10  and  N_11 
REMARK    5  A    between atoms: N_11  and  C_12 
REMARK    6  A    between atoms: C_14  and  N_24 
REMARK    7  A    between atoms: C_16  and  N_18 
ROOT
ATOM      1  C   UNK d   1       2.199  10.123 -14.464  0.00  0.00     0.774 A 
ATOM      2  N   UNK d   1       2.022  11.336 -13.947  0.00  0.00     0.133 NA
ATOM      3  C   UNK d   1       0.911  11.677 -13.234  0.00  0.00     0.756 A 
ATOM      4  N   UNK d   1      -0.002  10.721 -13.078  0.00  0.00     0.131 NA
ATOM      5  C   UNK d   1       0.099   9.464 -13.567  0.00  0.00     0.756 A 
ATOM      6  N   UNK d   1       1.243   9.207 -14.269  0.00  0.00     0.133 NA
ENDROOT
BRANCH   1   7
ATOM      7  N   UNK d   1       3.373   9.807 -15.202  0.00  0.00    -0.105 N 
ATOM      8  H   UNK d   1       3.793  10.418 -15.910  0.00  0.00     0.208 HD
BRANCH   7   9
ATOM      9  N   UNK d   1       4.023   8.580 -14.963  0.00  0.00    -0.171 NA
ATOM     10  C   UNK d   1       4.890   8.418 -14.043  0.00  0.00     0.153 C 
BRANCH  10  11
ATOM     11  C   UNK d   1       5.574   7.163 -13.777  0.00  0.00     0.019 A 
ATOM     12  C   UNK d   1       6.947   7.107 -13.825  0.00  0.00     0.038 A 
ATOM     13  C   UNK d   1       7.622   5.926 -13.575  0.00  0.00     0.046 A 
ATOM     14  C   UNK d   1       6.949   4.763 -13.272  0.00  0.00     0.103 A 
ATOM     15 Br   UNK d   1       9.535   5.875 -13.648  0.00  0.00    -0.048 Br
ATOM     16  C   UNK d   1       5.569   4.810 -13.221  0.00  0.00     0.079 A 
ATOM     17 Br   UNK d   1       4.642   3.193 -12.799  0.00  0.00    -0.045 Br
ATOM     18  C   UNK d   1       4.901   5.998 -13.473  0.00  0.00     0.097 A 
BRANCH  14  19
ATOM     19  O   UNK d   1       7.612   3.565 -13.017  0.00  0.00    -0.358 OA
ATOM     20  H   UNK d   1       8.449   3.571 -12.459  0.00  0.00     0.217 HD
ENDBRANCH  14  19
BRANCH  18  21
ATOM     21  O   UNK d   1       3.528   6.030 -13.420  0.00  0.00    -0.358 OA
ATOM     22  H   UNK d   1       3.005   6.798 -13.852  0.00  0.00     0.217 HD
ENDBRANCH  18  21
ENDBRANCH  10  11
ENDBRANCH   7   9
ENDBRANCH   1   7
BRANCH   3  23
ATOM     23  N   UNK d   1       0.742  12.970 -12.694  0.00  0.00    -0.209 N 
ATOM     24  C   UNK d   1      -0.529  13.633 -12.782  0.00  0.00     0.167 C 
ATOM     25  C   UNK d   1      -0.267  15.051 -13.264  0.00  0.00     0.188 C 
ATOM     26  O   UNK d   1       0.775  15.652 -12.568  0.00  0.00    -0.388 OA
ATOM     27  C   UNK d   1       1.980  15.004 -12.716  0.00  0.00     0.188 C 
ATOM     28  C   UNK d   1       1.846  13.627 -12.054  0.00  0.00     0.167 C 
ENDBRANCH   3  23
BRANCH   5  29
ATOM     29  N   UNK d   1      -0.893   8.484 -13.376  0.00  0.00    -0.209 N 
ATOM     30  C   UNK d   1      -0.573   7.225 -12.779  0.00  0.00     0.167 C 
ATOM     31  C   UNK d   1      -1.119   6.135 -13.706  0.00  0.00     0.188 C 
ATOM     32  O   UNK d   1      -1.673   6.662 -14.853  0.00  0.00    -0.388 OA
ATOM     33  C   UNK d   1      -2.689   7.558 -14.634  0.00  0.00     0.188 C 
ATOM     34  C   UNK d   1      -2.242   8.738 -13.779  0.00  0.00     0.167 C 
ENDBRANCH   5  29
TORSDOF 7
ENDMDL
