MODEL 1
REMARK VINA RESULT:    -9.044      0.000      0.000
REMARK INTER + INTRA:         -14.923
REMARK INTER:                 -13.802
REMARK INTRA:                  -1.121
REMARK UNBOUND:                -1.121
REMARK  10 active torsions:
REMARK  status: ('A' for Active; 'I' for Inactive)
REMARK    1  A    between atoms: C_3  and  O_10 
REMARK    2  A    between atoms: O_10  and  C_11 
REMARK    3  A    between atoms: C_11  and  C_12 
REMARK    4  A    between atoms: C_12  and  O_13 
REMARK    5  A    between atoms: C_12  and  C_14 
REMARK    6  A    between atoms: C_14  and  N_15 
REMARK    7  A    between atoms: C_19  and  N_20 
REMARK    8  A    between atoms: N_23  and  C_26 
REMARK    9  A    between atoms: C_26  and  C_27 
REMARK   10  A    between atoms: C_27  and  O_28 
ROOT
ATOM      1  N   UNK d   1      -0.039   7.766 -13.703  0.00  0.00    -0.171 N 
ATOM      2  C   UNK d   1      -1.324   7.469 -14.035  0.00  0.00     0.154 A 
ATOM      3  C   UNK d   1      -2.082   8.608 -13.989  0.00  0.00     0.184 A 
ATOM      4  N   UNK d   1      -1.250   9.567 -13.638  0.00  0.00    -0.044 NA
ATOM      5  C   UNK d   1       0.011   9.089 -13.457  0.00  0.00     0.707 A 
ATOM      6  N   UNK d   1      -3.418   8.659 -14.284  0.00  0.00    -0.284 N 
ATOM      7  C   UNK d   1      -3.996   7.505 -14.640  0.00  0.00     0.352 A 
ATOM      8  O   UNK d   1      -5.229   7.554 -14.910  0.00  0.00    -0.244 OA
ATOM      9  N   UNK d   1      -3.293   6.358 -14.704  0.00  0.00    -0.164 NA
ATOM     10  C   UNK d   1      -1.983   6.294 -14.417  0.00  0.00     0.236 A 
ATOM     11  O   UNK d   1      -1.286   5.109 -14.496  0.00  0.00    -0.167 OA
ATOM     12  C   UNK d   1      -4.127   9.927 -14.192  0.00  0.00     0.163 C 
ENDROOT
BRANCH   1  13
ATOM     13  C   UNK d   1       1.036   6.842 -13.641  0.00  0.00     0.182 C 
BRANCH  13  14
ATOM     14  C   UNK d   1       1.366   6.104 -12.433  0.00  0.00     0.161 C 
BRANCH  14  15
ATOM     15  C   UNK d   1       2.703   5.622 -12.062  0.00  0.00     0.209 C 
BRANCH  15  16
ATOM     16  O   UNK d   1       3.471   5.332 -13.227  0.00  0.00    -0.346 OA
BRANCH  16  17
ATOM     17  C   UNK d   1       4.789   5.038 -13.268  0.00  0.00     0.103 A 
ATOM     18  C   UNK d   1       5.705   6.051 -13.593  0.00  0.00     0.047 A 
ATOM     19 Br   UNK d   1       5.006   7.795 -13.955  0.00  0.00    -0.048 Br
ATOM     20  C   UNK d   1       7.054   5.810 -13.651  0.00  0.00     0.041 A 
ATOM     21  C   UNK d   1       7.552   4.551 -13.389  0.00  0.00     0.013 A 
ATOM     22  C   UNK d   1       6.675   3.542 -13.068  0.00  0.00     0.041 A 
ATOM     23 Br   UNK d   1       9.439   4.310 -13.493  0.00  0.00    -0.051 Br
ATOM     24  C   UNK d   1       5.300   3.806 -13.015  0.00  0.00     0.047 A 
ATOM     25 Br   UNK d   1       4.175   2.358 -12.588  0.00  0.00    -0.048 Br
ENDBRANCH  16  17
ENDBRANCH  15  16
ENDBRANCH  14  15
BRANCH  14  26
ATOM     26  O   UNK d   1       0.729   6.459 -11.230  0.00  0.00    -0.392 OA
ATOM     27  H   UNK d   1       1.367   6.712 -10.539  0.00  0.00     0.210 HD
ENDBRANCH  14  26
ENDBRANCH  13  14
ENDBRANCH   1  13
BRANCH   5  28
ATOM     28  N   UNK d   1       1.127   9.957 -13.185  0.00  0.00    -0.212 N 
ATOM     29  C   UNK d   1       2.263   9.679 -12.394  0.00  0.00     0.169 C 
ATOM     30  C   UNK d   1       3.216  10.901 -12.492  0.00  0.00     0.255 C 
ATOM     31  N   UNK d   1       2.462  12.000 -11.921  0.00  0.00    -0.066 N 
ATOM     32  C   UNK d   1       1.575  12.407 -13.027  0.00  0.00     0.255 C 
ATOM     33  H   UNK d   1       1.827  11.716 -11.145  0.00  0.00     0.280 HD
ATOM     34  C   UNK d   1       1.102  11.271 -13.842  0.00  0.00     0.169 C 
BRANCH  31  35
ATOM     35  C   UNK d   1       3.323  13.107 -11.555  0.00  0.00     0.260 C 
BRANCH  35  36
ATOM     36  C   UNK d   1       2.535  14.394 -11.661  0.00  0.00     0.192 C 
BRANCH  36  37
ATOM     37  O   UNK d   1       2.285  14.884 -10.373  0.00  0.00    -0.399 OA
ATOM     38  H   UNK d   1       3.139  15.087  -9.901  0.00  0.00     0.209 HD
ENDBRANCH  36  37
ENDBRANCH  35  36
ENDBRANCH  31  35
ENDBRANCH   5  28
TORSDOF 10
ENDMDL
