MODEL 1
REMARK VINA RESULT:    -8.341      0.000      0.000
REMARK INTER + INTRA:         -12.001
REMARK INTER:                 -11.022
REMARK INTRA:                  -0.979
REMARK UNBOUND:                -0.979
REMARK  6 active torsions:
REMARK  status: ('A' for Active; 'I' for Inactive)
REMARK    1  A    between atoms: C_4  and  C_9 
REMARK    2  A    between atoms: N_10  and  N_11 
REMARK       I    between atoms: N_11  and  C_12 
REMARK    3  A    between atoms: C_12  and  C_14 
REMARK    4  A    between atoms: C_14  and  N_15 
REMARK    5  A    between atoms: C_19  and  C_20 
REMARK    6  A    between atoms: C_24  and  N_25 
ROOT
ATOM      1  N   UNK d   1       1.277  10.659 -13.918  0.00  0.00    -0.319 N 
ATOM      2  C   UNK d   1       2.196  11.538 -13.438  0.00  0.00     0.065 A 
ATOM      3  C   UNK d   1       1.584  12.478 -12.657  0.00  0.00     0.086 A 
ATOM      4  N   UNK d   1       0.281  12.156 -12.670  0.00  0.00    -0.226 NA
ATOM      5  C   UNK d   1       0.089  11.040 -13.443  0.00  0.00     0.167 A 
ATOM      6  C   UNK d   1       2.355  13.463 -12.076  0.00  0.00     0.034 A 
ATOM      7  C   UNK d   1       3.726  13.526 -12.261  0.00  0.00     0.002 A 
ATOM      8  C   UNK d   1       4.318  12.561 -13.057  0.00  0.00     0.002 A 
ATOM      9  C   UNK d   1       3.548  11.574 -13.640  0.00  0.00     0.032 A 
ENDROOT
BRANCH   1  10
ATOM     10  C   UNK d   1       1.508   9.533 -14.767  0.00  0.00     0.235 C 
BRANCH  10  11
ATOM     11  C   UNK d   1       2.348   8.490 -14.232  0.00  0.00     0.256 C 
ATOM     12  N   UNK d   1       3.667   8.243 -14.684  0.00  0.00    -0.246 N 
ATOM     13  H   UNK d   1       4.035   8.854 -15.444  0.00  0.00     0.192 HD
ATOM     14  O   UNK d   1       1.917   7.747 -13.318  0.00  0.00    -0.270 OA
BRANCH  12  15
ATOM     15  N   UNK d   1       4.496   7.250 -14.189  0.00  0.00    -0.184 NA
ATOM     16  C   UNK d   1       5.742   7.411 -13.957  0.00  0.00     0.153 C 
BRANCH  16  17
ATOM     17  C   UNK d   1       6.514   6.299 -13.438  0.00  0.00     0.022 A 
ATOM     18  C   UNK d   1       7.761   6.511 -12.936  0.00  0.00     0.136 A 
ATOM     19  C   UNK d   1       8.487   5.447 -12.445  0.00  0.00     0.049 A 
ATOM     20  O   UNK d   1       8.306   7.783 -12.912  0.00  0.00    -0.190 OA
ATOM     21 Br   UNK d   1      10.223   5.765 -11.749  0.00  0.00    -0.048 Br
ATOM     22  C   UNK d   1       7.952   4.170 -12.463  0.00  0.00     0.041 A 
ATOM     23  C   UNK d   1       6.693   3.977 -12.974  0.00  0.00     0.013 A 
ATOM     24  C   UNK d   1       5.948   5.020 -13.469  0.00  0.00     0.035 A 
ATOM     25 Br   UNK d   1       5.966   2.208 -12.992  0.00  0.00    -0.051 Br
ENDBRANCH  16  17
ENDBRANCH  12  15
ENDBRANCH  10  11
ENDBRANCH   1  10
BRANCH   5  26
ATOM     26  C   UNK d   1      -1.212  10.423 -13.667  0.00  0.00     0.187 A 
ATOM     27  N   UNK d   1      -2.247  10.993 -14.298  0.00  0.00    -0.097 NA
ATOM     28  O   UNK d   1      -3.258  10.142 -14.314  0.00  0.00    -0.104 OA
ATOM     29  N   UNK d   1      -2.925   9.040 -13.719  0.00  0.00    -0.077 NA
ATOM     30  C   UNK d   1      -1.648   9.171 -13.296  0.00  0.00     0.285 A 
BRANCH  30  31
ATOM     31  N   UNK d   1      -0.890   8.200 -12.598  0.00  0.00    -0.028 N 
ATOM     32  H   UNK d   1      -0.213   7.713 -13.201  0.00  0.00     0.283 HD
ATOM     33  H   UNK d   1      -1.581   7.469 -12.274  0.00  0.00     0.283 HD
ATOM     34  H   UNK d   1      -0.430   8.587 -11.734  0.00  0.00     0.283 HD
ENDBRANCH  30  31
ENDBRANCH   5  26
TORSDOF 6
ENDMDL
