/Users/jonathanwahrer/Desktop/Msc/3_Semester/Drug_Design_Praktikum/waehrer_HTS_screening/HTS_experiment/out/docking_results/vina_output/6q9y/0006_docked.pdbqt
 OpenBabel03222218593D

 34 37  0  0  0  0  0  0  0  0999 V2000
    1.2770   10.6590  -13.9180 N   0  0  0  0  0  0  0  0  0  0  0  0
    2.1960   11.5380  -13.4380 C   0  0  0  0  0  0  0  0  0  0  0  0
    1.5840   12.4780  -12.6570 C   0  0  0  0  0  0  0  0  0  0  0  0
    0.2810   12.1560  -12.6700 N   0  0  0  0  0  0  0  0  0  0  0  0
    0.0890   11.0400  -13.4430 C   0  0  0  0  0  0  0  0  0  0  0  0
    2.3550   13.4630  -12.0760 C   0  0  0  0  0  3  0  0  0  0  0  0
    3.7260   13.5260  -12.2610 C   0  0  0  0  0  3  0  0  0  0  0  0
    4.3180   12.5610  -13.0570 C   0  0  0  0  0  3  0  0  0  0  0  0
    3.5480   11.5740  -13.6400 C   0  0  0  0  0  3  0  0  0  0  0  0
    1.5080    9.5330  -14.7670 C   0  0  0  0  0  2  0  0  0  0  0  0
    2.3480    8.4900  -14.2320 C   0  0  0  0  0  0  0  0  0  0  0  0
    3.6670    8.2430  -14.6840 N   0  0  0  0  0  0  0  0  0  0  0  0
    4.0350    8.8540  -15.4440 H   0  0  0  0  0  0  0  0  0  0  0  0
    1.9170    7.7470  -13.3180 O   0  0  0  0  0  0  0  0  0  0  0  0
    4.4960    7.2500  -14.1890 N   0  0  0  0  0  0  0  0  0  0  0  0
    5.7420    7.4110  -13.9570 C   0  0  0  0  0  3  0  0  0  0  0  0
    6.5140    6.2990  -13.4380 C   0  0  0  0  0  0  0  0  0  0  0  0
    7.7610    6.5110  -12.9360 C   0  0  0  0  0  0  0  0  0  0  0  0
    8.4870    5.4470  -12.4450 C   0  0  0  0  0  0  0  0  0  0  0  0
    8.3060    7.7830  -12.9120 O   0  0  0  0  0  1  0  0  0  0  0  0
   10.2230    5.7650  -11.7490 Br  0  0  0  0  0  0  0  0  0  0  0  0
    7.9520    4.1700  -12.4630 C   0  0  0  0  0  3  0  0  0  0  0  0
    6.6930    3.9770  -12.9740 C   0  0  0  0  0  0  0  0  0  0  0  0
    5.9480    5.0200  -13.4690 C   0  0  0  0  0  3  0  0  0  0  0  0
    5.9660    2.2080  -12.9920 Br  0  0  0  0  0  0  0  0  0  0  0  0
   -1.2120   10.4230  -13.6670 C   0  0  0  0  0  0  0  0  0  0  0  0
   -2.2470   10.9930  -14.2980 N   0  0  0  0  0  0  0  0  0  0  0  0
   -3.2580   10.1420  -14.3140 O   0  0  0  0  0  0  0  0  0  0  0  0
   -2.9250    9.0400  -13.7190 N   0  0  0  0  0  0  0  0  0  0  0  0
   -1.6480    9.1710  -13.2960 C   0  0  0  0  0  0  0  0  0  0  0  0
   -0.8900    8.2000  -12.5980 N   0  0  0  0  0  4  0  0  0  0  0  0
   -0.2130    7.7130  -13.2010 H   0  0  0  0  0  0  0  0  0  0  0  0
   -1.5810    7.4690  -12.2740 H   0  0  0  0  0  0  0  0  0  0  0  0
   -0.4300    8.5870  -11.7340 H   0  0  0  0  0  0  0  0  0  0  0  0
  1  5  1  0  0  0  0
  1  2  1  0  0  0  0
  2  3  1  0  0  0  0
  3  6  2  0  0  0  0
  4  3  1  0  0  0  0
  5  4  2  0  0  0  0
  7  6  1  0  0  0  0
  8  7  2  0  0  0  0
  9  2  2  0  0  0  0
  9  8  1  0  0  0  0
 10 11  1  0  0  0  0
 10  1  1  0  0  0  0
 11 14  2  0  0  0  0
 12 11  1  0  0  0  0
 12 15  1  0  0  0  0
 13 12  1  0  0  0  0
 15 16  2  0  0  0  0
 16 17  1  0  0  0  0
 17 18  1  0  0  0  0
 18 20  1  0  0  0  0
 18 19  2  0  0  0  0
 19 21  1  0  0  0  0
 22 19  1  0  0  0  0
 23 22  2  0  0  0  0
 24 17  2  0  0  0  0
 24 23  1  0  0  0  0
 25 23  1  0  0  0  0
 26  5  1  0  0  0  0
 26 30  1  0  0  0  0
 27 26  2  0  0  0  0
 28 27  1  0  0  0  0
 28 29  1  0  0  0  0
 29 30  2  0  0  0  0
 30 31  1  0  0  0  0
 31 33  1  0  0  0  0
 31 34  1  0  0  0  0
 32 31  1  0  0  0  0
M  END
>  <Pose>
1

>  <Score>
-8.341

$$$$
