/Users/jonathanwahrer/Desktop/Msc/3_Semester/Drug_Design_Praktikum/waehrer_HTS_screening/HTS_experiment/out/docking_results/vina_output/6q9y/0011_docked.pdbqt
 OpenBabel03222218593D

 36 39  0  0  0  0  0  0  0  0999 V2000
    0.8280    9.7440  -13.3200 N   0  0  0  0  0  0  0  0  0  0  0  0
   -0.5030    9.4320  -13.5540 C   0  0  0  0  0  0  0  0  0  0  0  0
   -1.1750   10.5950  -13.6220 C   0  0  0  0  0  0  0  0  0  0  0  0
   -0.2920   11.5640  -13.4410 N   0  0  0  0  0  0  0  0  0  0  0  0
    0.9780   11.0390  -13.2470 C   0  0  0  0  0  0  0  0  0  0  0  0
   -2.5400   10.6590  -13.8510 C   0  0  0  0  0  3  0  0  0  0  0  0
   -3.1910    9.4590  -14.0090 C   0  0  0  0  0  3  0  0  0  0  0  0
   -2.5510    8.2360  -13.9450 C   0  0  0  0  0  3  0  0  0  0  0  0
   -1.1760    8.2310  -13.7130 C   0  0  0  0  0  3  0  0  0  0  0  0
    1.7790    8.7150  -13.2260 C   0  0  0  0  0  2  0  0  0  0  0  0
    2.5750    8.5360  -14.5380 C   0  0  0  0  0  0  0  0  0  0  0  0
    3.8660    8.2100  -14.2830 N   0  0  0  0  0  0  0  0  0  0  0  0
    4.0770    8.1480  -15.6720 H   0  0  0  0  0  0  0  0  0  0  0  0
    1.8870    8.7240  -15.5400 O   0  0  0  0  0  0  0  0  0  0  0  0
    5.0410    7.9130  -14.0540 N   0  0  0  0  0  2  0  0  0  0  0  0
    6.1880    7.6690  -13.9120 C   0  0  0  0  0  2  0  0  0  0  0  0
    6.9170    6.5540  -13.4130 C   0  0  0  0  0  0  0  0  0  0  0  0
    6.3240    5.2850  -13.3720 C   0  0  0  0  0  3  0  0  0  0  0  0
    6.9330    4.1460  -12.9310 C   0  0  0  0  0  0  0  0  0  0  0  0
    8.2700    4.2530  -12.4790 C   0  0  0  0  0  0  0  0  0  0  0  0
    8.8920    5.4820  -12.5010 C   0  0  0  0  0  0  0  0  0  0  0  0
    8.8760    3.1110  -12.0440 O   0  0  0  0  0  1  0  0  0  0  0  0
   10.6930    5.6540  -11.9280 Br  0  0  0  0  0  0  0  0  0  0  0  0
    8.2170    6.5970  -12.9600 C   0  0  0  0  0  3  0  0  0  0  0  0
    6.3360    2.9000  -12.9000 O   0  0  0  0  0  0  0  0  0  0  0  0
    5.7360    2.3210  -14.0090 C   0  0  0  0  0  2  0  0  0  0  0  0
    4.2360    2.2410  -13.9840 C   0  0  0  0  0  1  0  0  0  0  0  0
    2.0470   12.0020  -13.0520 C   0  0  0  0  0  0  0  0  0  0  0  0
    3.3540   11.7560  -13.4680 N   0  0  0  0  0  0  0  0  0  0  0  0
    4.0990   12.7540  -13.2100 O   0  0  0  0  0  0  0  0  0  0  0  0
    3.4280   13.6770  -12.6480 N   0  0  0  0  0  0  0  0  0  0  0  0
    2.1270   13.2420  -12.5320 C   0  0  0  0  0  0  0  0  0  0  0  0
    1.1180   14.0500  -11.9670 N   0  0  0  0  0  4  0  0  0  0  0  0
    0.9070   13.6770  -10.9660 H   0  0  0  0  0  0  0  0  0  0  0  0
    0.2310   13.9070  -12.4640 H   0  0  0  0  0  0  0  0  0  0  0  0
    1.4480   14.9940  -11.7820 H   0  0  0  0  0  0  0  0  0  0  0  0
  1  5  1  0  0  0  0
  1 10  1  0  0  0  0
  2  1  1  0  0  0  0
  3  2  1  0  0  0  0
  3  4  1  0  0  0  0
  4  5  2  0  0  0  0
  5 28  1  0  0  0  0
  6  3  2  0  0  0  0
  7  8  2  0  0  0  0
  7  6  1  0  0  0  0
  8  9  1  0  0  0  0
  9  2  2  0  0  0  0
 11 12  1  0  0  0  0
 11 10  1  0  0  0  0
 12 15  1  0  0  0  0
 13 12  1  0  0  0  0
 14 11  2  0  0  0  0
 15 16  1  0  0  0  0
 16 17  1  0  0  0  0
 17 18  2  0  0  0  0
 17 24  1  0  0  0  0
 18 19  1  0  0  0  0
 19 25  1  0  0  0  0
 19 20  2  0  0  0  0
 20 22  1  0  0  0  0
 21 20  1  0  0  0  0
 21 23  1  0  0  0  0
 24 21  2  0  0  0  0
 26 27  1  0  0  0  0
 26 25  1  0  0  0  0
 28 32  1  0  0  0  0
 29 30  1  0  0  0  0
 29 28  2  0  0  0  0
 30 31  1  0  0  0  0
 31 32  2  0  0  0  0
 32 33  1  0  0  0  0
 33 36  1  0  0  0  0
 33 34  1  0  0  0  0
 35 33  1  0  0  0  0
M  END
>  <Pose>
1

>  <Score>
-8.552

$$$$
