MODEL 1
REMARK VINA RESULT:    -8.552      0.000      0.000
REMARK INTER + INTRA:         -13.870
REMARK INTER:                 -12.801
REMARK INTRA:                  -1.069
REMARK UNBOUND:                -1.069
REMARK  9 active torsions:
REMARK  status: ('A' for Active; 'I' for Inactive)
REMARK    1  A    between atoms: C_4  and  O_29 
REMARK    2  A    between atoms: C_6  and  C_8 
REMARK    3  A    between atoms: C_8  and  N_9 
REMARK    4  A    between atoms: N_9  and  N_10 
REMARK       I    between atoms: N_10  and  C_11 
REMARK    5  A    between atoms: C_11  and  C_13 
REMARK    6  A    between atoms: C_13  and  N_14 
REMARK    7  A    between atoms: C_18  and  C_19 
REMARK    8  A    between atoms: C_23  and  N_24 
REMARK    9  A    between atoms: O_29  and  C_30 
ROOT
ATOM      1  N   UNK d   1       0.828   9.744 -13.320  0.00  0.00    -0.319 N 
ATOM      2  C   UNK d   1      -0.503   9.432 -13.554  0.00  0.00     0.065 A 
ATOM      3  C   UNK d   1      -1.175  10.595 -13.622  0.00  0.00     0.086 A 
ATOM      4  N   UNK d   1      -0.292  11.564 -13.441  0.00  0.00    -0.226 NA
ATOM      5  C   UNK d   1       0.978  11.039 -13.247  0.00  0.00     0.167 A 
ATOM      6  C   UNK d   1      -2.540  10.659 -13.851  0.00  0.00     0.034 A 
ATOM      7  C   UNK d   1      -3.191   9.459 -14.009  0.00  0.00     0.002 A 
ATOM      8  C   UNK d   1      -2.551   8.236 -13.945  0.00  0.00     0.002 A 
ATOM      9  C   UNK d   1      -1.176   8.231 -13.713  0.00  0.00     0.032 A 
ENDROOT
BRANCH   1  10
ATOM     10  C   UNK d   1       1.779   8.715 -13.226  0.00  0.00     0.236 C 
BRANCH  10  11
ATOM     11  C   UNK d   1       2.575   8.536 -14.538  0.00  0.00     0.264 C 
ATOM     12  N   UNK d   1       3.866   8.210 -14.283  0.00  0.00    -0.202 N 
ATOM     13  H   UNK d   1       4.077   8.148 -15.672  0.00  0.00     0.205 HD
ATOM     14  O   UNK d   1       1.887   8.724 -15.540  0.00  0.00    -0.269 OA
BRANCH  12  15
ATOM     15  N   UNK d   1       5.041   7.913 -14.054  0.00  0.00    -0.335 NA
BRANCH  15  16
ATOM     16  C   UNK d   1       6.188   7.669 -13.912  0.00  0.00     0.220 C 
BRANCH  16  17
ATOM     17  C   UNK d   1       6.917   6.554 -13.413  0.00  0.00    -0.001 A 
ATOM     18  C   UNK d   1       6.324   5.285 -13.372  0.00  0.00     0.053 A 
ATOM     19  C   UNK d   1       6.933   4.146 -12.931  0.00  0.00     0.107 A 
ATOM     20  C   UNK d   1       8.270   4.253 -12.479  0.00  0.00     0.157 A 
ATOM     21  C   UNK d   1       8.892   5.482 -12.501  0.00  0.00     0.051 A 
ATOM     22  O   UNK d   1       8.876   3.111 -12.044  0.00  0.00    -0.188 OA
ATOM     23 Br   UNK d   1      10.693   5.654 -11.928  0.00  0.00    -0.048 Br
ATOM     24  C   UNK d   1       8.217   6.597 -12.960  0.00  0.00     0.036 A 
BRANCH  19  25
ATOM     25  O   UNK d   1       6.336   2.900 -12.900  0.00  0.00    -0.348 OA
BRANCH  25  26
ATOM     26  C   UNK d   1       5.736   2.321 -14.009  0.00  0.00     0.171 C 
ATOM     27  C   UNK d   1       4.236   2.241 -13.984  0.00  0.00     0.034 C 
ENDBRANCH  25  26
ENDBRANCH  19  25
ENDBRANCH  16  17
ENDBRANCH  15  16
ENDBRANCH  12  15
ENDBRANCH  10  11
ENDBRANCH   1  10
BRANCH   5  28
ATOM     28  C   UNK d   1       2.047  12.002 -13.052  0.00  0.00     0.187 A 
ATOM     29  N   UNK d   1       3.354  11.756 -13.468  0.00  0.00    -0.097 NA
ATOM     30  O   UNK d   1       4.099  12.754 -13.210  0.00  0.00    -0.104 OA
ATOM     31  N   UNK d   1       3.428  13.677 -12.648  0.00  0.00    -0.077 NA
ATOM     32  C   UNK d   1       2.127  13.242 -12.532  0.00  0.00     0.285 A 
BRANCH  32  33
ATOM     33  N   UNK d   1       1.118  14.050 -11.967  0.00  0.00    -0.028 N 
ATOM     34  H   UNK d   1       0.907  13.677 -10.966  0.00  0.00     0.283 HD
ATOM     35  H   UNK d   1       0.231  13.907 -12.464  0.00  0.00     0.283 HD
ATOM     36  H   UNK d   1       1.448  14.994 -11.782  0.00  0.00     0.283 HD
ENDBRANCH  32  33
ENDBRANCH   5  28
TORSDOF 9
ENDMDL
