MODEL 1
REMARK VINA RESULT:    -7.510      0.000      0.000
REMARK INTER + INTRA:         -12.508
REMARK INTER:                 -11.461
REMARK INTRA:                  -1.047
REMARK UNBOUND:                -1.047
REMARK  10 active torsions:
REMARK  status: ('A' for Active; 'I' for Inactive)
REMARK    1  A    between atoms: C_3  and  O_34 
REMARK    2  A    between atoms: C_4  and  O_31 
REMARK    3  A    between atoms: C_6  and  C_8 
REMARK    4  A    between atoms: N_9  and  N_10 
REMARK       I    between atoms: N_10  and  C_11 
REMARK    5  A    between atoms: C_11  and  C_13 
REMARK    6  A    between atoms: N_16  and  C_25 
REMARK    7  A    between atoms: C_17  and  C_18 
REMARK    8  A    between atoms: C_18  and  N_19 
REMARK    9  A    between atoms: C_29  and  N_30 
REMARK   10  A    between atoms: O_31  and  C_32 
ROOT
ATOM      1  C   UNK d   1       6.679   6.661 -13.563  0.00  0.00     0.176 A 
ATOM      2  N   UNK d   1       7.882   7.246 -13.630  0.00  0.00    -0.124 NA
ATOM      3  N   UNK d   1       8.802   6.408 -13.219  0.00  0.00    -0.058 NA
ATOM      4  N   UNK d   1       8.249   5.234 -12.863  0.00  0.00    -0.191 N 
ATOM      5  C   UNK d   1       6.935   5.369 -13.068  0.00  0.00     0.104 A 
ENDROOT
BRANCH   1   6
ATOM      6  C   UNK d   1       5.375   7.209 -13.914  0.00  0.00     0.294 C 
ATOM      7  N   UNK d   1       4.195   6.809 -13.247  0.00  0.00    -0.242 N 
ATOM      8  H   UNK d   1       4.278   6.090 -12.472  0.00  0.00     0.192 HD
ATOM      9  O   UNK d   1       5.299   8.053 -14.828  0.00  0.00    -0.264 OA
BRANCH   7  10
ATOM     10  N   UNK d   1       2.938   7.285 -13.528  0.00  0.00    -0.183 NA
ATOM     11  C   UNK d   1       1.963   7.356 -12.698  0.00  0.00     0.150 C 
BRANCH  11  12
ATOM     12  C   UNK d   1       0.662   7.876 -13.087  0.00  0.00    -0.013 A 
ATOM     13  C   UNK d   1       0.314   9.213 -12.981  0.00  0.00     0.052 A 
ATOM     14  C   UNK d   1      -0.924   9.678 -13.356  0.00  0.00     0.104 A 
ATOM     15  C   UNK d   1      -1.825   8.761 -13.849  0.00  0.00     0.116 A 
ATOM     16  C   UNK d   1      -1.510   7.413 -13.969  0.00  0.00     0.047 A 
ATOM     17 Br   UNK d   1      -2.763   6.151 -14.653  0.00  0.00    -0.048 Br
ATOM     18  C   UNK d   1      -0.270   6.993 -13.586  0.00  0.00     0.035 A 
BRANCH  14  19
ATOM     19  O   UNK d   1      -1.304  10.996 -13.266  0.00  0.00    -0.349 OA
BRANCH  19  20
ATOM     20  C   UNK d   1      -0.569  12.107 -13.660  0.00  0.00     0.171 C 
ATOM     21  C   UNK d   1      -0.734  13.315 -12.795  0.00  0.00     0.034 C 
ENDBRANCH  19  20
ENDBRANCH  14  19
BRANCH  15  22
ATOM     22  O   UNK d   1      -3.094   9.174 -14.245  0.00  0.00    -0.357 OA
ATOM     23  H   UNK d   1      -3.709   9.621 -13.576  0.00  0.00     0.218 HD
ENDBRANCH  15  22
ENDBRANCH  11  12
ENDBRANCH   7  10
ENDBRANCH   1   6
BRANCH   5  24
ATOM     24  C   UNK d   1       5.859   4.408 -12.818  0.00  0.00     0.334 C 
BRANCH  24  25
ATOM     25  N   UNK d   1       5.468   3.564 -13.919  0.00  0.00     0.098 N 
ATOM     26  C   UNK d   1       6.368   2.408 -13.836  0.00  0.00     0.299 C 
ATOM     27  C   UNK d   1       6.265   1.625 -12.588  0.00  0.00     0.198 C 
ATOM     28  O   UNK d   1       4.972   1.635 -12.088  0.00  0.00    -0.388 OA
ATOM     29  C   UNK d   1       4.096   1.687 -13.150  0.00  0.00     0.198 C 
ATOM     30  C   UNK d   1       4.096   3.096 -13.710  0.00  0.00     0.299 C 
ENDBRANCH  24  25
ENDBRANCH   5  24
BRANCH   4  31
ATOM     31  C   UNK d   1       9.009   4.134 -12.353  0.00  0.00     0.229 A 
ATOM     32  N   UNK d   1       8.983   3.585 -11.128  0.00  0.00    -0.081 NA
ATOM     33  O   UNK d   1       9.836   2.589 -11.085  0.00  0.00    -0.103 OA
ATOM     34  N   UNK d   1      10.437   2.450 -12.242  0.00  0.00    -0.083 NA
ATOM     35  C   UNK d   1       9.939   3.402 -13.052  0.00  0.00     0.201 A 
BRANCH  35  36
ATOM     36  N   UNK d   1      10.344   3.571 -14.402  0.00  0.00    -0.379 N 
ATOM     37  H   UNK d   1       9.967   3.014 -15.196  0.00  0.00     0.158 HD
ATOM     38  H   UNK d   1      11.066   4.291 -14.661  0.00  0.00     0.158 HD
ENDBRANCH  35  36
ENDBRANCH   4  31
TORSDOF 10
ENDMDL
