/Users/jonathanwahrer/Desktop/Msc/3_Semester/Drug_Design_Praktikum/waehrer_HTS_screening/HTS_experiment/out/docking_results/vina_output/6q9y/0018_docked.pdbqt
 OpenBabel03222219003D

 37 40  0  0  0  0  0  0  0  0999 V2000
    0.2730    7.5890  -14.1670 C   0  0  0  0  0  0  0  0  0  0  0  0
   -0.3960    6.6320  -14.7050 N   0  0  0  0  0  0  0  0  0  0  0  0
   -1.6920    6.8670  -14.5930 N   0  0  0  0  0  0  0  0  0  0  0  0
   -1.8620    8.0140  -13.9520 N   0  0  0  0  0  0  0  0  0  0  0  0
   -0.7060    8.5660  -13.6110 C   0  0  0  0  0  0  0  0  0  0  0  0
    1.6060    8.1300  -14.3120 C   0  0  0  0  0  0  0  0  0  0  0  0
    2.5760    7.9760  -13.2510 N   0  0  0  0  0  0  0  0  0  0  0  0
    2.7040    7.8260  -12.3400 H   0  0  0  0  0  0  0  0  0  0  0  0
    1.9320    8.6540  -15.3760 O   0  0  0  0  0  0  0  0  0  0  0  0
    3.9580    8.1000  -14.0390 N   0  0  0  0  0  2  0  0  0  0  0  0
    4.5160    7.0090  -13.4830 C   0  0  0  0  0  2  0  0  0  0  0  0
    5.6250    6.2120  -13.4340 C   0  0  0  0  0  0  0  0  0  0  0  0
    6.9590    6.5750  -13.3790 C   0  0  0  0  0  3  0  0  0  0  0  0
    8.0050    5.6830  -13.3320 C   0  0  0  0  0  0  0  0  0  0  0  0
    7.7100    4.3480  -13.3360 C   0  0  0  0  0  0  0  0  0  0  0  0
    6.3960    3.9330  -13.3920 C   0  0  0  0  0  0  0  0  0  0  0  0
    6.0210    2.0400  -13.4260 Br  0  0  0  0  0  0  0  0  0  0  0  0
    5.3810    4.7890  -13.4390 C   0  0  0  0  0  3  0  0  0  0  0  0
    9.3270    6.1430  -13.2930 O   0  0  0  0  0  0  0  0  0  0  0  0
    9.9980    6.4270  -14.5380 C   0  0  0  0  0  1  0  0  0  0  0  0
    8.7320    3.3960  -13.2840 O   0  0  0  0  0  0  0  0  0  0  0  0
    9.7150    3.7370  -13.2170 H   0  0  0  0  0  0  0  0  0  0  0  0
   -0.3040    9.8250  -13.0540 C   0  0  0  0  0  2  0  0  0  0  0  0
   -0.2940   10.9950  -13.9350 N   0  0  0  0  0  0  0  0  0  0  0  0
    1.0050   11.5710  -14.0600 C   0  0  0  0  0  2  0  0  0  0  0  0
    1.5310   12.2210  -12.8130 C   0  0  0  0  0  2  0  0  0  0  0  0
    0.8700   13.4190  -12.6010 O   0  0  0  0  0  0  0  0  0  0  0  0
   -0.3860   13.4060  -13.2180 C   0  0  0  0  0  2  0  0  0  0  0  0
   -0.9960   12.0510  -13.0840 C   0  0  0  0  0  2  0  0  0  0  0  0
   -3.1210    8.7250  -14.0550 C   0  0  0  0  0  0  0  0  0  0  0  0
   -3.6210    9.7270  -13.4620 N   0  0  0  0  0  0  0  0  0  0  0  0
   -4.8630    9.9920  -13.8680 O   0  0  0  0  0  0  0  0  0  0  0  0
   -5.1460    9.1130  -14.7590 N   0  0  0  0  0  0  0  0  0  0  0  0
   -4.1320    8.2690  -14.9560 C   0  0  0  0  0  0  0  0  0  0  0  0
   -4.0680    7.1710  -15.8290 N   0  0  0  0  0  0  0  0  0  0  0  0
   -3.8930    7.2680  -16.8450 H   0  0  0  0  0  0  0  0  0  0  0  0
   -4.1850    6.1590  -15.4830 H   0  0  0  0  0  0  0  0  0  0  0  0
  1  5  2  0  0  0  0
  2  3  2  0  0  0  0
  2  1  1  0  0  0  0
  3  4  1  0  0  0  0
  4  5  1  0  0  0  0
  5 23  1  0  0  0  0
  6  1  1  0  0  0  0
  6  7  1  0  0  0  0
  7  8  1  0  0  0  0
  9  6  2  0  0  0  0
 10 11  1  0  0  0  0
 10  7  1  0  0  0  0
 11 12  1  0  0  0  0
 12 13  1  0  0  0  0
 13 14  2  0  0  0  0
 14 19  1  0  0  0  0
 15 14  1  0  0  0  0
 15 21  1  0  0  0  0
 16 15  2  0  0  0  0
 17 16  1  0  0  0  0
 18 12  2  0  0  0  0
 18 16  1  0  0  0  0
 20 19  1  0  0  0  0
 21 22  1  0  0  0  0
 24 29  1  0  0  0  0
 24 23  1  0  0  0  0
 25 24  1  0  0  0  0
 25 26  1  0  0  0  0
 26 27  1  0  0  0  0
 28 29  1  0  0  0  0
 28 27  1  0  0  0  0
 30  4  1  0  0  0  0
 30 31  2  0  0  0  0
 32 31  1  0  0  0  0
 33 32  1  0  0  0  0
 34 33  2  0  0  0  0
 34 30  1  0  0  0  0
 35 37  1  0  0  0  0
 35 34  1  0  0  0  0
 36 35  1  0  0  0  0
M  END
>  <Pose>
1

>  <Score>
-8.154

$$$$
