MODEL 1
REMARK VINA RESULT:    -8.154      0.000      0.000
REMARK INTER + INTRA:         -12.798
REMARK INTER:                 -11.968
REMARK INTRA:                  -0.830
REMARK UNBOUND:                -0.830
REMARK  9 active torsions:
REMARK  status: ('A' for Active; 'I' for Inactive)
REMARK    1  A    between atoms: C_3  and  O_33 
REMARK    2  A    between atoms: C_4  and  O_31 
REMARK    3  A    between atoms: C_6  and  C_8 
REMARK    4  A    between atoms: N_9  and  N_10 
REMARK       I    between atoms: N_10  and  C_11 
REMARK    5  A    between atoms: C_11  and  C_13 
REMARK    6  A    between atoms: N_16  and  C_25 
REMARK    7  A    between atoms: C_17  and  C_18 
REMARK    8  A    between atoms: C_18  and  N_19 
REMARK    9  A    between atoms: C_29  and  N_30 
ROOT
ATOM      1  C   UNK d   1       0.273   7.589 -14.167  0.00  0.00     0.170 A 
ATOM      2  N   UNK d   1      -0.396   6.632 -14.705  0.00  0.00    -0.152 NA
ATOM      3  N   UNK d   1      -1.692   6.867 -14.593  0.00  0.00     0.012 NA
ATOM      4  N   UNK d   1      -1.862   8.014 -13.952  0.00  0.00    -0.215 N 
ATOM      5  C   UNK d   1      -0.706   8.566 -13.611  0.00  0.00     0.098 A 
ENDROOT
BRANCH   1   6
ATOM      6  C   UNK d   1       1.606   8.130 -14.312  0.00  0.00     0.293 C 
ATOM      7  N   UNK d   1       2.576   7.976 -13.251  0.00  0.00    -0.242 N 
ATOM      8  H   UNK d   1       2.704   7.826 -12.340  0.00  0.00     0.192 HD
ATOM      9  O   UNK d   1       1.932   8.654 -15.376  0.00  0.00    -0.264 OA
BRANCH   7  10
ATOM     10  N   UNK d   1       3.958   8.100 -14.039  0.00  0.00    -0.183 NA
ATOM     11  C   UNK d   1       4.516   7.009 -13.483  0.00  0.00     0.150 C 
BRANCH  11  12
ATOM     12  C   UNK d   1       5.625   6.212 -13.434  0.00  0.00    -0.013 A 
ATOM     13  C   UNK d   1       6.959   6.575 -13.379  0.00  0.00     0.052 A 
ATOM     14  C   UNK d   1       8.005   5.683 -13.332  0.00  0.00     0.103 A 
ATOM     15  C   UNK d   1       7.710   4.348 -13.336  0.00  0.00     0.116 A 
ATOM     16  C   UNK d   1       6.396   3.933 -13.392  0.00  0.00     0.047 A 
ATOM     17 Br   UNK d   1       6.021   2.040 -13.426  0.00  0.00    -0.048 Br
ATOM     18  C   UNK d   1       5.381   4.789 -13.439  0.00  0.00     0.035 A 
BRANCH  14  19
ATOM     19  O   UNK d   1       9.327   6.143 -13.293  0.00  0.00    -0.353 OA
ATOM     20  C   UNK d   1       9.998   6.427 -14.538  0.00  0.00     0.210 C 
ENDBRANCH  14  19
BRANCH  15  21
ATOM     21  O   UNK d   1       8.732   3.396 -13.284  0.00  0.00    -0.357 OA
ATOM     22  H   UNK d   1       9.715   3.737 -13.217  0.00  0.00     0.218 HD
ENDBRANCH  15  21
ENDBRANCH  11  12
ENDBRANCH   7  10
ENDBRANCH   1   6
BRANCH   5  23
ATOM     23  C   UNK d   1      -0.304   9.825 -13.054  0.00  0.00     0.334 C 
BRANCH  23  24
ATOM     24  N   UNK d   1      -0.294  10.995 -13.935  0.00  0.00     0.098 N 
ATOM     25  C   UNK d   1       1.005  11.571 -14.060  0.00  0.00     0.299 C 
ATOM     26  C   UNK d   1       1.531  12.221 -12.813  0.00  0.00     0.198 C 
ATOM     27  O   UNK d   1       0.870  13.419 -12.601  0.00  0.00    -0.388 OA
ATOM     28  C   UNK d   1      -0.386  13.406 -13.218  0.00  0.00     0.198 C 
ATOM     29  C   UNK d   1      -0.996  12.051 -13.084  0.00  0.00     0.299 C 
ENDBRANCH  23  24
ENDBRANCH   5  23
BRANCH   4  30
ATOM     30  C   UNK d   1      -3.121   8.725 -14.055  0.00  0.00     0.225 A 
ATOM     31  N   UNK d   1      -3.621   9.727 -13.462  0.00  0.00    -0.081 NA
ATOM     32  O   UNK d   1      -4.863   9.992 -13.868  0.00  0.00    -0.103 OA
ATOM     33  N   UNK d   1      -5.146   9.113 -14.759  0.00  0.00    -0.083 NA
ATOM     34  C   UNK d   1      -4.132   8.269 -14.956  0.00  0.00     0.201 A 
BRANCH  34  35
ATOM     35  N   UNK d   1      -4.068   7.171 -15.829  0.00  0.00    -0.379 N 
ATOM     36  H   UNK d   1      -3.893   7.268 -16.845  0.00  0.00     0.158 HD
ATOM     37  H   UNK d   1      -4.185   6.159 -15.483  0.00  0.00     0.158 HD
ENDBRANCH  34  35
ENDBRANCH   4  30
TORSDOF 9
ENDMDL
