MODEL 1
REMARK VINA RESULT:    -8.282      0.000      0.000
REMARK INTER + INTRA:         -13.445
REMARK INTER:                 -12.397
REMARK INTRA:                  -1.047
REMARK UNBOUND:                -1.047
REMARK  9 active torsions:
REMARK  status: ('A' for Active; 'I' for Inactive)
REMARK    1  A    between atoms: C_3  and  O_32 
REMARK    2  A    between atoms: C_4  and  O_29 
REMARK    3  A    between atoms: C_6  and  C_8 
REMARK    4  A    between atoms: C_8  and  N_9 
REMARK    5  A    between atoms: N_9  and  N_10 
REMARK    6  A    between atoms: N_10  and  C_11 
REMARK    7  A    between atoms: C_13  and  N_23 
REMARK    8  A    between atoms: C_15  and  N_17 
REMARK    9  A    between atoms: O_29  and  C_30 
ROOT
ATOM      1  C   UNK d   1       2.338   9.269 -14.833  0.00  0.00     0.783 A 
ATOM      2  N   UNK d   1       2.583  10.476 -14.359  0.00  0.00     0.133 NA
ATOM      3  C   UNK d   1       1.635  11.160 -13.656  0.00  0.00     0.756 A 
ATOM      4  N   UNK d   1       0.454  10.521 -13.483  0.00  0.00     0.131 NA
ATOM      5  C   UNK d   1       0.147   9.293 -13.943  0.00  0.00     0.756 A 
ATOM      6  N   UNK d   1       1.130   8.674 -14.635  0.00  0.00     0.133 NA
ENDROOT
BRANCH   1   7
ATOM      7  N   UNK d   1       3.366   8.376 -15.417  0.00  0.00    -0.061 N 
ATOM      8  H   UNK d   1       3.168   8.040 -16.339  0.00  0.00     0.221 HD
BRANCH   7   9
ATOM      9  N   UNK d   1       4.358   8.226 -14.576  0.00  0.00    -0.323 NA
BRANCH   9  10
ATOM     10  C   UNK d   1       5.238   8.113 -13.828  0.00  0.00     0.221 C 
BRANCH  10  11
ATOM     11  C   UNK d   1       6.134   6.965 -13.578  0.00  0.00    -0.001 A 
ATOM     12  C   UNK d   1       5.717   5.703 -13.268  0.00  0.00     0.053 A 
ATOM     13  C   UNK d   1       6.606   4.637 -13.265  0.00  0.00     0.104 A 
ATOM     14  C   UNK d   1       7.949   4.844 -13.573  0.00  0.00     0.116 A 
ATOM     15  C   UNK d   1       8.380   6.106 -13.876  0.00  0.00     0.047 A 
ATOM     16 Br   UNK d   1      10.224   6.392 -14.324  0.00  0.00    -0.048 Br
ATOM     17  C   UNK d   1       7.467   7.138 -13.874  0.00  0.00     0.036 A 
BRANCH  13  18
ATOM     18  O   UNK d   1       6.266   3.354 -12.969  0.00  0.00    -0.349 OA
BRANCH  18  19
ATOM     19  C   UNK d   1       5.298   2.543 -13.535  0.00  0.00     0.171 C 
ATOM     20  C   UNK d   1       4.046   2.430 -12.678  0.00  0.00     0.034 C 
ENDBRANCH  18  19
ENDBRANCH  13  18
BRANCH  14  21
ATOM     21  O   UNK d   1       8.868   3.817 -13.587  0.00  0.00    -0.357 OA
ATOM     22  H   UNK d   1       9.051   3.223 -12.815  0.00  0.00     0.218 HD
ENDBRANCH  14  21
ENDBRANCH  10  11
ENDBRANCH   9  10
ENDBRANCH   7   9
ENDBRANCH   1   7
BRANCH   3  23
ATOM     23  N   UNK d   1       1.886  12.417 -13.058  0.00  0.00    -0.209 N 
ATOM     24  C   UNK d   1       3.266  12.789 -12.703  0.00  0.00     0.167 C 
ATOM     25  C   UNK d   1       3.166  13.353 -11.262  0.00  0.00     0.188 C 
ATOM     26  O   UNK d   1       2.466  14.518 -11.401  0.00  0.00    -0.388 OA
ATOM     27  C   UNK d   1       1.149  14.341 -11.719  0.00  0.00     0.188 C 
ATOM     28  C   UNK d   1       0.839  13.315 -12.759  0.00  0.00     0.167 C 
ENDBRANCH   3  23
BRANCH   5  29
ATOM     29  N   UNK d   1      -1.026   8.645 -13.600  0.00  0.00    -0.209 N 
ATOM     30  C   UNK d   1      -1.326   7.265 -13.570  0.00  0.00     0.167 C 
ATOM     31  C   UNK d   1      -2.453   7.040 -14.583  0.00  0.00     0.188 C 
ATOM     32  O   UNK d   1      -3.489   7.883 -14.247  0.00  0.00    -0.388 OA
ATOM     33  C   UNK d   1      -3.201   9.228 -14.289  0.00  0.00     0.188 C 
ATOM     34  C   UNK d   1      -2.145   9.546 -13.192  0.00  0.00     0.167 C 
ENDBRANCH   5  29
TORSDOF 9
ENDMDL
