MODEL 1
REMARK VINA RESULT:    -6.797      0.000      0.000
REMARK INTER + INTRA:         -11.417
REMARK INTER:                 -10.175
REMARK INTRA:                  -1.243
REMARK UNBOUND:                -1.243
REMARK  9 active torsions:
REMARK  status: ('A' for Active; 'I' for Inactive)
REMARK    1  A    between atoms: C_3  and  O_35 
REMARK    2  A    between atoms: C_4  and  O_33 
REMARK    3  A    between atoms: C_6  and  C_8 
REMARK    4  A    between atoms: N_9  and  C_27 
REMARK    5  A    between atoms: C_14  and  C_15 
REMARK    6  A    between atoms: C_15  and  C_17 
REMARK    7  A    between atoms: C_27  and  C_28 
REMARK    8  A    between atoms: C_28  and  C_29 
REMARK    9  A    between atoms: C_29  and  N_30 
ROOT
ATOM      1  C   UNK d   1       2.012   8.207 -13.919  0.00  0.00     0.161 C 
ATOM      2  N   UNK d   1       3.302   7.553 -13.985  0.00  0.00    -0.332 N 
ATOM      3  C   UNK d   1       3.467   6.633 -12.944  0.00  0.00     0.295 C 
ATOM      4  O   UNK d   1       4.507   6.017 -12.668  0.00  0.00    -0.264 OA
ATOM      5  C   UNK d   1       2.189   6.530 -12.238  0.00  0.00     0.250 C 
ATOM      6  O   UNK d   1       2.022   5.778 -11.244  0.00  0.00    -0.282 OA
ATOM      7  C   UNK d   1       1.246   7.415 -12.889  0.00  0.00     0.062 C 
ENDROOT
BRANCH   7   8
ATOM      8  C   UNK d   1      -0.019   7.523 -12.586  0.00  0.00     0.130 C 
ATOM      9  O   UNK d   1      -0.387   7.993 -11.336  0.00  0.00    -0.190 OA
BRANCH   8  10
ATOM     10  C   UNK d   1      -1.062   7.173 -13.519  0.00  0.00     0.002 A 
ATOM     11  C   UNK d   1      -2.024   8.171 -13.723  0.00  0.00     0.024 A 
ATOM     12  C   UNK d   1      -3.056   7.991 -14.611  0.00  0.00    -0.021 A 
ATOM     13  C   UNK d   1      -3.161   6.816 -15.318  0.00  0.00     0.075 A 
ATOM     14  C   UNK d   1      -4.180   8.916 -14.966  0.00  0.00     0.073 C 
ATOM     15  C   UNK d   1      -2.200   5.846 -15.099  0.00  0.00     0.038 A 
ATOM     16  O   UNK d   1      -4.300   6.903 -16.145  0.00  0.00    -0.345 OA
ATOM     17  C   UNK d   1      -1.157   6.010 -14.214  0.00  0.00     0.017 A 
ATOM     18  C   UNK d   1      -5.120   7.966 -15.670  0.00  0.00     0.129 C 
ATOM     19  C   UNK d   1      -6.138   7.488 -14.652  0.00  0.00     0.040 C 
ENDBRANCH   8  10
ENDBRANCH   7   8
BRANCH   1  20
ATOM     20  C   UNK d   1       2.250   9.598 -13.450  0.00  0.00    -0.026 A 
ATOM     21  C   UNK d   1       1.191  10.480 -13.589  0.00  0.00     0.049 A 
ATOM     22  C   UNK d   1       1.269  11.774 -13.195  0.00  0.00     0.103 A 
ATOM     23  C   UNK d   1       2.455  12.229 -12.632  0.00  0.00     0.116 A 
ATOM     24  C   UNK d   1       3.526  11.334 -12.492  0.00  0.00     0.047 A 
ATOM     25 Br   UNK d   1       5.143  11.955 -11.723  0.00  0.00    -0.048 Br
ATOM     26  C   UNK d   1       3.434  10.018 -12.897  0.00  0.00     0.031 A 
BRANCH  22  27
ATOM     27  O   UNK d   1       0.200  12.662 -13.336  0.00  0.00    -0.353 OA
ATOM     28  C   UNK d   1      -1.142  12.274 -13.213  0.00  0.00     0.210 C 
ENDBRANCH  22  27
BRANCH  23  29
ATOM     29  O   UNK d   1       2.549  13.537 -12.229  0.00  0.00    -0.357 OA
ATOM     30  H   UNK d   1       2.880  13.762 -11.323  0.00  0.00     0.218 HD
ENDBRANCH  23  29
ENDBRANCH   1  20
BRANCH   2  31
ATOM     31  C   UNK d   1       4.255   7.871 -15.029  0.00  0.00     0.129 C 
BRANCH  31  32
ATOM     32  C   UNK d   1       5.562   8.384 -14.594  0.00  0.00     0.048 C 
BRANCH  32  33
ATOM     33  C   UNK d   1       6.743   7.496 -14.734  0.00  0.00     0.235 C 
BRANCH  33  34
ATOM     34  N   UNK d   1       7.066   6.747 -13.545  0.00  0.00    -0.079 N 
ATOM     35  C   UNK d   1       7.763   7.630 -12.599  0.00  0.00     0.269 C 
ATOM     36  C   UNK d   1       8.008   5.712 -13.931  0.00  0.00     0.269 C 
ATOM     37  H   UNK d   1       6.273   6.287 -13.089  0.00  0.00     0.278 HD
ENDBRANCH  33  34
ENDBRANCH  32  33
ENDBRANCH  31  32
ENDBRANCH   2  31
TORSDOF 9
ENDMDL
