MODEL 1
REMARK VINA RESULT:    -8.068      0.000      0.000
REMARK INTER + INTRA:          -8.598
REMARK INTER:                  -9.247
REMARK INTRA:                   0.650
REMARK UNBOUND:                 0.650
REMARK  3 active torsions:
REMARK  status: ('A' for Active; 'I' for Inactive)
REMARK    1  A    between atoms: C_3  and  O_25 
REMARK    2  A    between atoms: C_6  and  C_8 
REMARK    3  A    between atoms: C_10  and  C_21 
ROOT
ATOM      1  C   UNK d   1       3.437   9.207 -14.727  0.00  0.00     0.270 C 
ATOM      2  N   UNK d   1       4.117  10.348 -14.276  0.00  0.00    -0.047 N 
ATOM      3  C   UNK d   1       3.382  11.459 -13.803  0.00  0.00     0.291 C 
ATOM      4  C   UNK d   1       1.947  11.524 -14.254  0.00  0.00     0.086 C 
ATOM      5  C   UNK d   1       1.269  10.211 -14.141  0.00  0.00    -0.018 A 
ATOM      6  C   UNK d   1      -0.017   9.859 -13.835  0.00  0.00    -0.001 A 
ATOM      7  C   UNK d   1      -0.033   8.476 -13.889  0.00  0.00     0.043 A 
ATOM      8  N   UNK d   1       1.209   8.031 -14.219  0.00  0.00    -0.356 N 
ATOM      9  C   UNK d   1       2.011   9.093 -14.375  0.00  0.00     0.052 A 
ATOM     10  C   UNK d   1      -1.234   7.857 -13.616  0.00  0.00     0.030 A 
ATOM     11  C   UNK d   1      -2.366   8.578 -13.302  0.00  0.00     0.002 A 
ATOM     12  C   UNK d   1      -2.349   9.957 -13.248  0.00  0.00     0.001 A 
ATOM     13  C   UNK d   1      -1.150  10.595 -13.521  0.00  0.00     0.014 A 
ATOM     14  H   UNK d   1       4.850  10.108 -13.548  0.00  0.00     0.279 HD
ATOM     15  H   UNK d   1       4.733  10.696 -15.080  0.00  0.00     0.279 HD
ATOM     16  H   UNK d   1       1.408   7.011 -14.312  0.00  0.00     0.166 HD
ENDROOT
BRANCH   1  17
ATOM     17  C   UNK d   1       4.105   7.989 -14.188  0.00  0.00    -0.019 A 
ATOM     18  C   UNK d   1       3.398   6.955 -13.612  0.00  0.00     0.031 A 
ATOM     19  C   UNK d   1       4.124   5.881 -13.144  0.00  0.00     0.046 A 
ATOM     20  C   UNK d   1       5.497   5.790 -13.223  0.00  0.00     0.100 A 
ATOM     21 Br   UNK d   1       3.177   4.434 -12.342  0.00  0.00    -0.048 Br
ATOM     22  C   UNK d   1       6.195   6.824 -13.799  0.00  0.00     0.046 A 
ATOM     23 Br   UNK d   1       8.090   6.737 -13.926  0.00  0.00    -0.048 Br
ATOM     24  C   UNK d   1       5.478   7.924 -14.280  0.00  0.00     0.031 A 
BRANCH  20  25
ATOM     25  O   UNK d   1       6.166   4.656 -12.720  0.00  0.00    -0.358 OA
ATOM     26  H   UNK d   1       6.752   4.135 -13.357  0.00  0.00     0.217 HD
ENDBRANCH  20  25
ENDBRANCH   1  17
BRANCH   3  27
ATOM     27  C   UNK d   1       3.380  11.561 -12.318  0.00  0.00     0.205 C 
ATOM     28  O   UNK d   1       2.958  10.574 -11.624  0.00  0.00    -0.646 OA
ATOM     29  O   UNK d   1       3.832  12.720 -11.709  0.00  0.00    -0.646 OA
ENDBRANCH   3  27
TORSDOF 3
ENDMDL
