/Users/jonathanwahrer/Desktop/Msc/3_Semester/Drug_Design_Praktikum/waehrer_HTS_screening/HTS_experiment/out/docking_results/vina_output/6q9y/0026_docked.pdbqt
 OpenBabel03222219023D

 29 32  0  0  1  0  0  0  0  0999 V2000
    3.4370    9.2070  -14.7270 C   0  0  2  0  0  3  0  0  0  0  0  0
    4.1170   10.3480  -14.2760 N   0  0  0  0  0  4  0  0  0  0  0  0
    3.3820   11.4590  -13.8030 C   0  0  1  0  0  3  0  0  0  0  0  0
    1.9470   11.5240  -14.2540 C   0  0  0  0  0  2  0  0  0  0  0  0
    1.2690   10.2110  -14.1410 C   0  0  0  0  0  0  0  0  0  0  0  0
   -0.0170    9.8590  -13.8350 C   0  0  0  0  0  0  0  0  0  0  0  0
   -0.0330    8.4760  -13.8890 C   0  0  0  0  0  0  0  0  0  0  0  0
    1.2090    8.0310  -14.2190 N   0  0  0  0  0  0  0  0  0  0  0  0
    2.0110    9.0930  -14.3750 C   0  0  0  0  0  0  0  0  0  0  0  0
   -1.2340    7.8570  -13.6160 C   0  0  0  0  0  3  0  0  0  0  0  0
   -2.3660    8.5780  -13.3020 C   0  0  0  0  0  3  0  0  0  0  0  0
   -2.3490    9.9570  -13.2480 C   0  0  0  0  0  3  0  0  0  0  0  0
   -1.1500   10.5950  -13.5210 C   0  0  0  0  0  3  0  0  0  0  0  0
    4.8500   10.1080  -13.5480 H   0  0  0  0  0  0  0  0  0  0  0  0
    4.7330   10.6960  -15.0800 H   0  0  0  0  0  0  0  0  0  0  0  0
    1.4080    7.0110  -14.3120 H   0  0  0  0  0  0  0  0  0  0  0  0
    4.1050    7.9890  -14.1880 C   0  0  0  0  0  0  0  0  0  0  0  0
    3.3980    6.9550  -13.6120 C   0  0  0  0  0  3  0  0  0  0  0  0
    4.1240    5.8810  -13.1440 C   0  0  0  0  0  0  0  0  0  0  0  0
    5.4970    5.7900  -13.2230 C   0  0  0  0  0  0  0  0  0  0  0  0
    3.1770    4.4340  -12.3420 Br  0  0  0  0  0  0  0  0  0  0  0  0
    6.1950    6.8240  -13.7990 C   0  0  0  0  0  0  0  0  0  0  0  0
    8.0900    6.7370  -13.9260 Br  0  0  0  0  0  0  0  0  0  0  0  0
    5.4780    7.9240  -14.2800 C   0  0  0  0  0  3  0  0  0  0  0  0
    6.1660    4.6560  -12.7200 O   0  0  0  0  0  0  0  0  0  0  0  0
    6.7520    4.1350  -13.3570 H   0  0  0  0  0  0  0  0  0  0  0  0
    3.3800   11.5610  -12.3180 C   0  0  0  0  0  0  0  0  0  0  0  0
    2.9580   10.5740  -11.6240 O   0  0  0  0  0  1  0  0  0  0  0  0
    3.8320   12.7200  -11.7090 O   0  0  0  0  0  0  0  0  0  0  0  0
  1  9  1  0  0  0  0
  1  2  1  0  0  0  0
  1 17  1  1  0  0  0
  2  3  1  0  0  0  0
  2 14  1  0  0  0  0
  3 27  1  1  0  0  0
  4  5  1  0  0  0  0
  4  3  1  0  0  0  0
  5  6  1  0  0  0  0
  6 13  1  0  0  0  0
  7  6  2  0  0  0  0
  7 10  1  0  0  0  0
  8  7  1  0  0  0  0
  9  8  1  0  0  0  0
  9  5  2  0  0  0  0
 10 11  2  0  0  0  0
 11 12  1  0  0  0  0
 13 12  2  0  0  0  0
 15  2  1  0  0  0  0
 16  8  1  0  0  0  0
 17 18  1  0  0  0  0
 18 19  2  0  0  0  0
 19 21  1  0  0  0  0
 20 19  1  0  0  0  0
 20 25  1  0  0  0  0
 22 20  2  0  0  0  0
 23 22  1  0  0  0  0
 24 17  2  0  0  0  0
 24 22  1  0  0  0  0
 26 25  1  0  0  0  0
 27 29  2  0  0  0  0
 27 28  1  0  0  0  0
M  END
>  <Pose>
1

>  <Score>
-8.068

$$$$
