MODEL 1
REMARK VINA RESULT:    -6.838      0.000      0.000
REMARK INTER + INTRA:          -9.556
REMARK INTER:                  -9.237
REMARK INTRA:                  -0.319
REMARK UNBOUND:                -0.319
REMARK  6 active torsions:
REMARK  status: ('A' for Active; 'I' for Inactive)
REMARK    1  A    between atoms: C_3  and  O_19 
REMARK    2  A    between atoms: C_4  and  C_8 
REMARK    3  A    between atoms: C_8  and  N_9 
REMARK    4  A    between atoms: O_19  and  C_20 
REMARK    5  A    between atoms: C_20  and  C_21 
REMARK    6  A    between atoms: C_21  and  O_23 
ROOT
ATOM      1 Br   UNK d   1       1.843  14.985 -10.921  0.00  0.00    -0.048 Br
ATOM      2  C   UNK d   1       2.385  13.549 -12.076  0.00  0.00     0.044 A 
ATOM      3  C   UNK d   1       1.477  12.785 -12.719  0.00  0.00     0.094 A 
ATOM      4  C   UNK d   1       1.890  11.683 -13.523  0.00  0.00     0.003 A 
ATOM      5  C   UNK d   1       3.215  11.429 -13.608  0.00  0.00     0.012 A 
ATOM      6  C   UNK d   1       4.128  12.216 -12.932  0.00  0.00     0.002 A 
ATOM      7  C   UNK d   1       3.732  13.272 -12.170  0.00  0.00     0.022 A 
ENDROOT
BRANCH   4   8
ATOM      8  C   UNK d   1       0.796  10.735 -13.812  0.00  0.00     0.283 C 
BRANCH   8   9
ATOM      9  N   UNK d   1       0.831   9.408 -13.351  0.00  0.00    -0.010 N 
ATOM     10  C   UNK d   1       1.532   9.040 -12.225  0.00  0.00     0.512 C 
ATOM     11  N   UNK d   1       1.308   7.641 -11.869  0.00  0.00     0.143 N 
ATOM     12  C   UNK d   1       1.715   6.830 -13.005  0.00  0.00     0.547 C 
ATOM     13  C   UNK d   1      -0.076   7.331 -11.605  0.00  0.00     0.284 C 
ATOM     14  N   UNK d   1       1.027   7.209 -14.222  0.00  0.00     0.143 N 
ATOM     15  C   UNK d   1       1.169   8.571 -14.553  0.00  0.00     0.512 C 
ATOM     16  C   UNK d   1      -0.375   6.879 -14.064  0.00  0.00     0.284 C 
ATOM     17  C   UNK d   1      -0.862   7.661 -12.871  0.00  0.00     0.069 C 
ATOM     18  C   UNK d   1      -0.628   9.100 -13.148  0.00  0.00     0.250 C 
ENDBRANCH   8   9
ENDBRANCH   4   8
BRANCH   3  19
ATOM     19  O   UNK d   1       0.155  13.038 -12.624  0.00  0.00    -0.340 OA
BRANCH  19  20
ATOM     20  C   UNK d   1      -0.592  13.781 -13.609  0.00  0.00     0.286 C 
BRANCH  20  21
ATOM     21  C   UNK d   1      -0.505  15.238 -13.557  0.00  0.00     0.282 C 
ATOM     22  O   UNK d   1       0.335  15.915 -14.133  0.00  0.00    -0.263 OA
BRANCH  21  23
ATOM     23  O   UNK d   1      -1.481  15.913 -12.817  0.00  0.00    -0.325 OA
ATOM     24  C   UNK d   1      -1.935  17.200 -13.141  0.00  0.00     0.213 C 
ENDBRANCH  21  23
ENDBRANCH  20  21
ENDBRANCH  19  20
ENDBRANCH   3  19
TORSDOF 6
ENDMDL
