/Users/jonathanwahrer/Desktop/Msc/3_Semester/Drug_Design_Praktikum/waehrer_HTS_screening/HTS_experiment/out/docking_results/vina_output/6q9y/0031_docked.pdbqt
 OpenBabel03222219023D

 24 27  0  0  1  0  0  0  0  0999 V2000
    1.8430   14.9850  -10.9210 Br  0  0  0  0  0  0  0  0  0  0  0  0
    2.3850   13.5490  -12.0760 C   0  0  0  0  0  0  0  0  0  0  0  0
    1.4770   12.7850  -12.7190 C   0  0  0  0  0  0  0  0  0  0  0  0
    1.8900   11.6830  -13.5230 C   0  0  0  0  0  0  0  0  0  0  0  0
    3.2150   11.4290  -13.6080 C   0  0  0  0  0  3  0  0  0  0  0  0
    4.1280   12.2160  -12.9320 C   0  0  0  0  0  3  0  0  0  0  0  0
    3.7320   13.2720  -12.1700 C   0  0  0  0  0  3  0  0  0  0  0  0
    0.7960   10.7350  -13.8120 C   0  0  0  0  0  2  0  0  0  0  0  0
    0.8310    9.4080  -13.3510 N   0  0  2  0  0  4  0  0  0  0  0  0
    1.5320    9.0400  -12.2250 C   0  0  0  0  0  2  0  0  0  0  0  0
    1.3080    7.6410  -11.8690 N   0  0  2  0  0  0  0  0  0  0  0  0
    1.7150    6.8300  -13.0050 C   0  0  0  0  0  2  0  0  0  0  0  0
   -0.0760    7.3310  -11.6050 C   0  0  0  0  0  2  0  0  0  0  0  0
    1.0270    7.2090  -14.2220 N   0  0  2  0  0  0  0  0  0  0  0  0
    1.1690    8.5710  -14.5530 C   0  0  0  0  0  2  0  0  0  0  0  0
   -0.3750    6.8790  -14.0640 C   0  0  0  0  0  2  0  0  0  0  0  0
   -0.8620    7.6610  -12.8710 C   0  0  2  0  0  3  0  0  0  0  0  0
   -0.6280    9.1000  -13.1480 C   0  0  0  0  0  2  0  0  0  0  0  0
    0.1550   13.0380  -12.6240 O   0  0  0  0  0  0  0  0  0  0  0  0
   -0.5920   13.7810  -13.6090 C   0  0  0  0  0  2  0  0  0  0  0  0
   -0.5050   15.2380  -13.5570 C   0  0  0  0  0  0  0  0  0  0  0  0
    0.3350   15.9150  -14.1330 O   0  0  0  0  0  0  0  0  0  0  0  0
   -1.4810   15.9130  -12.8170 O   0  0  0  0  0  0  0  0  0  0  0  0
   -1.9350   17.2000  -13.1410 C   0  0  0  0  0  1  0  0  0  0  0  0
  2  1  1  0  0  0  0
  3 19  1  0  0  0  0
  3  2  2  0  0  0  0
  4  3  1  0  0  0  0
  5  4  2  0  0  0  0
  5  6  1  0  0  0  0
  6  7  2  0  0  0  0
  7  2  1  0  0  0  0
  8  4  1  0  0  0  0
  9  8  1  6  0  0  0
  9 18  1  0  0  0  0
  9 10  1  0  0  0  0
 10 11  1  0  0  0  0
 11 12  1  6  0  0  0
 11 13  1  0  0  0  0
 14 15  1  1  0  0  0
 14 16  1  0  0  0  0
 14 12  1  0  0  0  0
 15  9  1  0  0  0  0
 17 16  1  6  0  0  0
 17 13  1  0  0  0  0
 18 17  1  0  0  0  0
 20 21  1  0  0  0  0
 20 19  1  0  0  0  0
 21 23  1  0  0  0  0
 22 21  2  0  0  0  0
 24 23  1  0  0  0  0
M  END
>  <Pose>
1

>  <Score>
-6.838

$$$$
