MODEL 1
REMARK VINA RESULT:    -7.940      0.000      0.000
REMARK INTER + INTRA:         -11.540
REMARK INTER:                 -10.725
REMARK INTRA:                  -0.815
REMARK UNBOUND:                -0.815
REMARK  7 active torsions:
REMARK  status: ('A' for Active; 'I' for Inactive)
REMARK    1  A    between atoms: C_3  and  O_30 
REMARK    2  A    between atoms: C_5  and  O_29 
REMARK    3  A    between atoms: C_7  and  C_8 
REMARK    4  A    between atoms: N_9  and  N_10 
REMARK    5  A    between atoms: N_10  and  C_11 
REMARK    6  A    between atoms: C_13  and  N_23 
REMARK    7  A    between atoms: C_15  and  N_17 
ROOT
ATOM      1  C   UNK d   1       2.616   8.810 -13.743  0.00  0.00     0.774 A 
ATOM      2  N   UNK d   1       2.463  10.129 -13.596  0.00  0.00     0.133 NA
ATOM      3  C   UNK d   1       1.239  10.707 -13.466  0.00  0.00     0.756 A 
ATOM      4  N   UNK d   1       0.149   9.924 -13.487  0.00  0.00     0.131 NA
ATOM      5  C   UNK d   1       0.269   8.595 -13.633  0.00  0.00     0.756 A 
ATOM      6  N   UNK d   1       1.516   8.052 -13.761  0.00  0.00     0.133 NA
ENDROOT
BRANCH   1   7
ATOM      7  N   UNK d   1       3.915   8.273 -13.865  0.00  0.00    -0.105 N 
ATOM      8  H   UNK d   1       4.686   8.917 -14.138  0.00  0.00     0.208 HD
BRANCH   7   9
ATOM      9  N   UNK d   1       4.184   6.898 -13.623  0.00  0.00    -0.172 NA
ATOM     10  C   UNK d   1       5.402   6.470 -13.549  0.00  0.00     0.152 C 
BRANCH  10  11
ATOM     11  C   UNK d   1       5.774   5.098 -13.308  0.00  0.00     0.006 A 
ATOM     12  C   UNK d   1       7.086   4.700 -13.204  0.00  0.00     0.056 A 
ATOM     13 Br   UNK d   1       8.427   6.044 -13.383  0.00  0.00    -0.047 Br
ATOM     14  C   UNK d   1       7.440   3.382 -12.980  0.00  0.00     0.086 A 
ATOM     15  C   UNK d   1       6.445   2.424 -12.854  0.00  0.00     0.074 A 
ATOM     16  C   UNK d   1       5.124   2.797 -12.955  0.00  0.00     0.069 A 
ATOM     17  C   UNK d   1       4.810   4.129 -13.180  0.00  0.00     0.051 A 
BRANCH  14  18
ATOM     18  O   UNK d   1       8.768   3.012 -12.881  0.00  0.00    -0.359 OA
ATOM     19  H   UNK d   1       9.341   3.470 -12.184  0.00  0.00     0.217 HD
ENDBRANCH  14  18
BRANCH  16  20
ATOM     20  O   UNK d   1       4.162   1.807 -12.823  0.00  0.00    -0.361 OA
ATOM     21  H   UNK d   1       4.025   1.254 -11.988  0.00  0.00     0.217 HD
ENDBRANCH  16  20
ENDBRANCH  10  11
ENDBRANCH   7   9
ENDBRANCH   1   7
BRANCH   3  22
ATOM     22  N   UNK d   1       1.190  12.108 -13.320  0.00  0.00    -0.209 N 
ATOM     23  C   UNK d   1      -0.003  12.815 -13.701  0.00  0.00     0.167 C 
ATOM     24  C   UNK d   1      -0.429  13.591 -12.445  0.00  0.00     0.188 C 
ATOM     25  O   UNK d   1       0.617  14.476 -12.183  0.00  0.00    -0.388 OA
ATOM     26  C   UNK d   1       1.765  13.817 -11.755  0.00  0.00     0.188 C 
ATOM     27  C   UNK d   1       2.304  12.865 -12.804  0.00  0.00     0.167 C 
ENDBRANCH   3  22
BRANCH   5  28
ATOM     28  N   UNK d   1      -0.885   7.756 -13.658  0.00  0.00    -0.209 N 
ATOM     29  C   UNK d   1      -0.838   6.330 -13.437  0.00  0.00     0.167 C 
ATOM     30  C   UNK d   1      -1.673   5.599 -14.467  0.00  0.00     0.188 C 
ATOM     31  O   UNK d   1      -2.261   6.459 -15.382  0.00  0.00    -0.388 OA
ATOM     32  C   UNK d   1      -3.058   7.389 -14.687  0.00  0.00     0.188 C 
ATOM     33  C   UNK d   1      -2.176   8.357 -13.923  0.00  0.00     0.167 C 
ENDBRANCH   5  28
TORSDOF 7
ENDMDL
