MODEL 1
REMARK VINA RESULT:    -7.105      0.000      0.000
REMARK INTER + INTRA:          -8.455
REMARK INTER:                  -8.351
REMARK INTRA:                  -0.104
REMARK UNBOUND:                -0.104
REMARK  3 active torsions:
REMARK  status: ('A' for Active; 'I' for Inactive)
REMARK    1  A    between atoms: C_3  and  N_9 
REMARK       I    between atoms: N_9  and  C_10 
REMARK    2  A    between atoms: C_10  and  C_12 
REMARK    3  A    between atoms: C_12  and  N_13 
ROOT
ATOM      1  N   UNK d   1       1.677  11.055 -12.839  0.00  0.00    -0.325 N 
ATOM      2  C   UNK d   1       2.170  10.256 -13.871  0.00  0.00     0.248 C 
ATOM      3  O   UNK d   1       2.075  10.600 -15.058  0.00  0.00    -0.271 OA
ATOM      4  H   UNK d   1       1.807  10.674 -11.854  0.00  0.00     0.169 HD
ENDROOT
BRANCH   2   5
ATOM      5  C   UNK d   1       2.819   8.973 -13.534  0.00  0.00     0.340 C 
BRANCH   5   6
ATOM      6  N   UNK d   1       1.955   7.942 -13.060  0.00  0.00    -0.054 N 
ATOM      7  C   UNK d   1       2.721   6.686 -13.063  0.00  0.00     0.268 C 
ATOM      8  C   UNK d   1       2.073   5.768 -12.057  0.00  0.00     0.300 C 
ATOM      9  N   UNK d   1       0.632   5.972 -12.195  0.00  0.00     0.093 N 
ATOM     10  C   UNK d   1       0.336   7.186 -11.440  0.00  0.00     0.300 C 
ATOM     11  C   UNK d   1       0.323   6.260 -13.587  0.00  0.00     0.300 C 
ATOM     12  C   UNK d   1       1.446   8.190 -11.713  0.00  0.00     0.268 C 
ATOM     13  C   UNK d   1       0.805   7.686 -13.903  0.00  0.00     0.268 C 
ENDBRANCH   5   6
ENDBRANCH   2   5
BRANCH   1  14
ATOM     14  C   UNK d   1       1.027  12.307 -12.927  0.00  0.00     0.052 A 
ATOM     15  C   UNK d   1       1.643  13.465 -12.432  0.00  0.00     0.038 A 
ATOM     16 Br   UNK d   1       3.382  13.226 -11.648  0.00  0.00    -0.049 Br
ATOM     17  C   UNK d   1       1.061  14.708 -12.490  0.00  0.00     0.028 A 
ATOM     18  C   UNK d   1      -0.181  14.895 -13.047  0.00  0.00    -0.061 A 
ATOM     19  C   UNK d   1      -0.804  13.775 -13.539  0.00  0.00     0.009 A 
ATOM     20  C   UNK d   1      -0.823  16.243 -13.115  0.00  0.00     0.048 C 
ATOM     21  C   UNK d   1      -0.219  12.508 -13.483  0.00  0.00     0.031 A 
ENDBRANCH   1  14
TORSDOF 3
ENDMDL
