/Users/jonathanwahrer/Desktop/Msc/3_Semester/Drug_Design_Praktikum/waehrer_HTS_screening/HTS_experiment/out/docking_results/vina_output/6q9y/0064_docked.pdbqt
 OpenBabel03222219033D

 22 25  0  0  1  0  0  0  0  0999 V2000
   -0.1990    8.6650  -13.3470 N   0  0  0  0  0  0  0  0  0  0  0  0
    0.3730    9.9480  -13.5420 C   0  0  0  0  0  0  0  0  0  0  0  0
   -0.1240   10.8370  -14.2570 O   0  0  0  0  0  0  0  0  0  0  0  0
    1.6370   10.0900  -12.7820 C   0  0  2  0  0  3  0  0  0  0  0  0
    2.8320   10.2580  -13.6540 C   0  0  1  0  0  0  0  0  0  0  0  0
    3.7530    9.2670  -13.2230 O   0  0  0  0  0  0  0  0  0  0  0  0
    2.8560    8.1710  -13.3150 C   0  0  1  0  0  3  0  0  0  0  0  0
    1.8590    8.6600  -12.2560 C   0  0  2  0  0  3  0  0  0  0  0  0
    0.5680    7.9640  -12.3640 C   0  0  0  0  0  0  0  0  0  0  0  0
    0.1780    6.9560  -11.7360 O   0  0  0  0  0  0  0  0  0  0  0  0
    2.3380    8.3590  -14.6870 C   0  0  0  0  0  2  0  0  0  0  0  0
    2.4940    9.6500  -14.9770 C   0  0  0  0  0  2  0  0  0  0  0  0
   -1.3300    8.0820  -13.9790 C   0  0  0  0  0  0  0  0  0  0  0  0
   -2.5970    8.6150  -13.9230 C   0  0  0  0  0  0  0  0  0  0  0  0
   -2.8150   10.2490  -12.9240 Br  0  0  0  0  0  0  0  0  0  0  0  0
   -3.6780    8.0290  -14.5430 C   0  0  0  0  0  3  0  0  0  0  0  0
   -3.5420    6.8670  -15.2550 C   0  0  0  0  0  3  0  0  0  0  0  0
   -2.2750    6.3000  -15.3320 C   0  0  0  0  0  3  0  0  0  0  0  0
   -1.2020    6.9020  -14.7040 C   0  0  0  0  0  3  0  0  0  0  0  0
    3.4300   11.5990  -13.7390 C   0  0  0  0  0  2  0  0  0  0  0  0
    2.7690   12.4320  -12.8180 O   0  0  0  0  0  0  0  0  0  0  0  0
    2.8310   13.3820  -13.1280 H   0  0  0  0  0  0  0  0  0  0  0  0
  1  9  1  0  0  0  0
  2  1  1  0  0  0  0
  3  2  2  0  0  0  0
  4  2  1  6  0  0  0
  4  8  1  0  0  0  0
  5 20  1  6  0  0  0
  5  6  1  0  0  0  0
  5  4  1  0  0  0  0
  7 11  1  6  0  0  0
  7  6  1  0  0  0  0
  7  8  1  0  0  0  0
  8  9  1  6  0  0  0
  9 10  2  0  0  0  0
 12 11  1  0  0  0  0
 12  5  1  0  0  0  0
 13 14  1  0  0  0  0
 13  1  1  0  0  0  0
 14 15  1  0  0  0  0
 16 14  2  0  0  0  0
 17 16  1  0  0  0  0
 18 17  2  0  0  0  0
 18 19  1  0  0  0  0
 19 13  2  0  0  0  0
 20 21  1  0  0  0  0
 22 21  1  0  0  0  0
M  END
>  <Pose>
1

>  <Score>
-6.950

$$$$
