MODEL 1
REMARK VINA RESULT:    -7.979      0.000      0.000
REMARK INTER + INTRA:          -7.754
REMARK INTER:                  -9.379
REMARK INTRA:                   1.625
REMARK UNBOUND:                 1.625
REMARK  3 active torsions:
REMARK  status: ('A' for Active; 'I' for Inactive)
REMARK    1  A    between atoms: C_3  and  N_8 
REMARK    2  A    between atoms: C_13  and  C_17 
REMARK    3  A    between atoms: C_17  and  O_19 
ROOT
ATOM      1  N   UNK d   1       0.183   8.994 -13.334  0.00  0.00    -0.313 N 
ATOM      2  C   UNK d   1       0.174  10.457 -13.519  0.00  0.00     0.175 C 
ATOM      3  C   UNK d   1       1.593  10.774 -13.420  0.00  0.00     0.109 C 
ATOM      4  O   UNK d   1       2.337  10.646 -14.605  0.00  0.00    -0.364 OA
ATOM      5  C   UNK d   1       3.607  10.842 -13.999  0.00  0.00     0.160 C 
ATOM      6  C   UNK d   1       3.587   9.604 -13.093  0.00  0.00     0.134 C 
ATOM      7  C   UNK d   1       2.242   9.765 -12.457  0.00  0.00     0.135 C 
ATOM      8  C   UNK d   1       1.326   8.641 -12.564  0.00  0.00     0.233 C 
ATOM      9  O   UNK d   1       1.497   7.513 -12.058  0.00  0.00    -0.272 OA
ATOM     10  C   UNK d   1       3.352  12.097 -13.233  0.00  0.00     0.005 C 
ATOM     11  C   UNK d   1       2.024  12.097 -12.979  0.00  0.00     0.012 C 
ENDROOT
BRANCH   1  12
ATOM     12  C   UNK d   1      -0.765   8.060 -13.827  0.00  0.00     0.054 A 
ATOM     13  C   UNK d   1      -2.112   8.358 -13.944  0.00  0.00     0.037 A 
ATOM     14 Br   UNK d   1      -2.801  10.043 -13.453  0.00  0.00    -0.049 Br
ATOM     15  C   UNK d   1      -3.018   7.415 -14.434  0.00  0.00     0.021 A 
ATOM     16  C   UNK d   1      -2.607   6.166 -14.816  0.00  0.00     0.002 A 
ATOM     17  C   UNK d   1      -1.289   5.854 -14.709  0.00  0.00     0.002 A 
ATOM     18  C   UNK d   1      -0.399   6.781 -14.228  0.00  0.00     0.031 A 
ENDBRANCH   1  12
BRANCH   6  19
ATOM     19  C   UNK d   1       3.580   8.440 -14.035  0.00  0.00     0.266 C 
ATOM     20  O   UNK d   1       3.025   8.474 -15.143  0.00  0.00    -0.265 OA
BRANCH  19  21
ATOM     21  O   UNK d   1       4.224   7.272 -13.648  0.00  0.00    -0.326 OA
ATOM     22  C   UNK d   1       5.649   7.201 -13.778  0.00  0.00     0.213 C 
ENDBRANCH  19  21
ENDBRANCH   6  19
TORSDOF 3
ENDMDL
