/Users/jonathanwahrer/Desktop/Msc/3_Semester/Drug_Design_Praktikum/waehrer_HTS_screening/HTS_experiment/out/docking_results/vina_output/6q9y/0067_docked.pdbqt
 OpenBabel03222219033D

 22 25  0  0  1  0  0  0  0  0999 V2000
    0.1830    8.9940  -13.3340 N   0  0  0  0  0  0  0  0  0  0  0  0
    0.1740   10.4570  -13.5190 C   0  0  0  0  0  2  0  0  0  0  0  0
    1.5930   10.7740  -13.4200 C   0  0  2  0  0  0  0  0  0  0  0  0
    2.3370   10.6460  -14.6050 O   0  0  0  0  0  0  0  0  0  0  0  0
    3.6070   10.8420  -13.9990 C   0  0  2  0  0  3  0  0  0  0  0  0
    3.5870    9.6040  -13.0930 C   0  0  1  0  0  3  0  0  0  0  0  0
    2.2420    9.7650  -12.4570 C   0  0  2  0  0  3  0  0  0  0  0  0
    1.3260    8.6410  -12.5640 C   0  0  0  0  0  0  0  0  0  0  0  0
    1.4970    7.5130  -12.0580 O   0  0  0  0  0  0  0  0  0  0  0  0
    3.3520   12.0970  -13.2330 C   0  0  0  0  0  2  0  0  0  0  0  0
    2.0240   12.0970  -12.9790 C   0  0  0  0  0  2  0  0  0  0  0  0
   -0.7650    8.0600  -13.8270 C   0  0  0  0  0  0  0  0  0  0  0  0
   -2.1120    8.3580  -13.9440 C   0  0  0  0  0  0  0  0  0  0  0  0
   -2.8010   10.0430  -13.4530 Br  0  0  0  0  0  0  0  0  0  0  0  0
   -3.0180    7.4150  -14.4340 C   0  0  0  0  0  3  0  0  0  0  0  0
   -2.6070    6.1660  -14.8160 C   0  0  0  0  0  3  0  0  0  0  0  0
   -1.2890    5.8540  -14.7090 C   0  0  0  0  0  3  0  0  0  0  0  0
   -0.3990    6.7810  -14.2280 C   0  0  0  0  0  3  0  0  0  0  0  0
    3.5800    8.4400  -14.0350 C   0  0  0  0  0  0  0  0  0  0  0  0
    3.0250    8.4740  -15.1430 O   0  0  0  0  0  0  0  0  0  0  0  0
    4.2240    7.2720  -13.6480 O   0  0  0  0  0  0  0  0  0  0  0  0
    5.6490    7.2010  -13.7780 C   0  0  0  0  0  1  0  0  0  0  0  0
  1  8  1  0  0  0  0
  2  1  1  0  0  0  0
  3  2  1  6  0  0  0
  3 11  1  0  0  0  0
  3  7  1  0  0  0  0
  4  5  1  0  0  0  0
  4  3  1  0  0  0  0
  5 10  1  1  0  0  0
  5  6  1  0  0  0  0
  6 19  1  6  0  0  0
  6  7  1  0  0  0  0
  7  8  1  6  0  0  0
  8  9  2  0  0  0  0
 10 11  1  0  0  0  0
 12  1  1  0  0  0  0
 13 12  1  0  0  0  0
 13 14  1  0  0  0  0
 15 13  2  0  0  0  0
 16 17  2  0  0  0  0
 16 15  1  0  0  0  0
 17 18  1  0  0  0  0
 18 12  2  0  0  0  0
 19 21  1  0  0  0  0
 20 19  2  0  0  0  0
 22 21  1  0  0  0  0
M  END
>  <Pose>
1

>  <Score>
-7.979

$$$$
