/Users/jonathanwahrer/Desktop/Msc/3_Semester/Drug_Design_Praktikum/waehrer_HTS_screening/HTS_experiment/out/docking_results/vina_output/6q9y/0081_docked.pdbqt
 OpenBabel03222219033D

 22 25  0  0  0  0  0  0  0  0999 V2000
   -6.6360    9.4910  -14.8590 C   0  0  0  0  0  0  0  0  0  0  0  0
   -6.7690   10.4810  -13.9570 N   0  0  0  0  0  0  0  0  0  0  0  0
   -7.7320   11.3160  -14.3540 N   0  0  0  0  0  0  0  0  0  0  0  0
   -8.2370   10.8750  -15.5240 C   0  0  0  0  0  0  0  0  0  0  0  0
   -7.5470    9.7560  -15.8120 N   0  0  0  0  0  0  0  0  0  0  0  0
   -9.2530   11.5880  -16.1300 C   0  0  0  0  0  0  0  0  0  0  0  0
   -9.7760   12.7400  -15.5800 C   0  0  0  0  0  0  0  0  0  0  0  0
  -10.7520   13.2300  -16.3710 N   0  0  0  0  0  0  0  0  0  0  0  0
  -10.8590   12.4190  -17.4050 N   0  0  0  0  0  0  0  0  0  0  0  0
   -9.9590   11.3970  -17.3000 C   0  0  0  0  0  3  0  0  0  0  0  0
  -11.5590   14.4220  -16.1660 C   0  0  0  0  0  1  0  0  0  0  0  0
   -9.2440   13.1460  -14.4120 N   0  0  0  0  0  0  0  0  0  0  0  0
   -8.2440   12.4400  -13.8220 C   0  0  0  0  0  3  0  0  0  0  0  0
   -5.6720    8.3380  -14.8100 C   0  0  0  0  0  2  0  0  0  0  0  0
   -4.3440    8.7750  -14.4470 N   0  0  0  0  0  0  0  0  0  0  0  0
   -3.2880    7.9620  -14.3060 C   0  0  0  0  0  0  0  0  0  0  0  0
   -2.2280    8.7600  -13.9590 C   0  0  0  0  0  0  0  0  0  0  0  0
   -3.2280    6.4760  -14.4820 C   0  0  0  0  0  1  0  0  0  0  0  0
   -0.4470    8.1960  -13.6180 Br  0  0  0  0  0  0  0  0  0  0  0  0
   -2.6610   10.0580  -13.8940 C   0  0  0  0  0  0  0  0  0  0  0  0
   -3.9770   10.0170  -14.2030 N   0  0  0  0  0  0  0  0  0  0  0  0
   -1.8600   11.2880  -13.5520 C   0  0  0  0  0  1  0  0  0  0  0  0
  1 14  1  0  0  0  0
  1  2  2  0  0  0  0
  3  2  1  0  0  0  0
  3 13  1  0  0  0  0
  4  3  1  0  0  0  0
  5  4  2  0  0  0  0
  5  1  1  0  0  0  0
  6  7  2  0  0  0  0
  6  4  1  0  0  0  0
  7 12  1  0  0  0  0
  8 11  1  0  0  0  0
  8  7  1  0  0  0  0
  9 10  2  0  0  0  0
  9  8  1  0  0  0  0
 10  6  1  0  0  0  0
 12 13  2  0  0  0  0
 14 15  1  0  0  0  0
 15 16  1  0  0  0  0
 15 21  1  0  0  0  0
 16 17  2  0  0  0  0
 17 20  1  0  0  0  0
 17 19  1  0  0  0  0
 18 16  1  0  0  0  0
 20 22  1  0  0  0  0
 21 20  2  0  0  0  0
M  END
>  <Pose>
1

>  <Score>
-8.866

$$$$
