MODEL 1
REMARK VINA RESULT:    -8.866      0.000      0.000
REMARK INTER + INTRA:          -9.748
REMARK INTER:                  -9.903
REMARK INTRA:                   0.154
REMARK UNBOUND:                 0.154
REMARK  2 active torsions:
REMARK  status: ('A' for Active; 'I' for Inactive)
REMARK    1  A    between atoms: N_4  and  C_8 
REMARK    2  A    between atoms: C_8  and  C_9 
ROOT
ATOM      1  C   UNK d   1      -6.636   9.491 -14.859  0.00  0.00     0.168 A 
ATOM      2  N   UNK d   1      -6.769  10.481 -13.957  0.00  0.00    -0.148 NA
ATOM      3  N   UNK d   1      -7.732  11.316 -14.354  0.00  0.00    -0.206 N 
ATOM      4  C   UNK d   1      -8.237  10.875 -15.524  0.00  0.00     0.169 A 
ATOM      5  N   UNK d   1      -7.547   9.756 -15.812  0.00  0.00    -0.209 NA
ATOM      6  C   UNK d   1      -9.253  11.588 -16.130  0.00  0.00     0.079 A 
ATOM      7  C   UNK d   1      -9.776  12.740 -15.580  0.00  0.00     0.162 A 
ATOM      8  N   UNK d   1     -10.752  13.230 -16.371  0.00  0.00    -0.256 N 
ATOM      9  N   UNK d   1     -10.859  12.419 -17.405  0.00  0.00    -0.182 NA
ATOM     10  C   UNK d   1      -9.959  11.397 -17.300  0.00  0.00     0.158 A 
ATOM     11  C   UNK d   1     -11.559  14.422 -16.166  0.00  0.00     0.182 C 
ATOM     12  N   UNK d   1      -9.244  13.146 -14.412  0.00  0.00    -0.222 NA
ATOM     13  C   UNK d   1      -8.244  12.440 -13.822  0.00  0.00     0.239 A 
ENDROOT
BRANCH   1  14
ATOM     14  C   UNK d   1      -5.672   8.338 -14.810  0.00  0.00     0.233 C 
BRANCH  14  15
ATOM     15  N   UNK d   1      -4.344   8.775 -14.447  0.00  0.00    -0.265 N 
ATOM     16  C   UNK d   1      -3.288   7.962 -14.306  0.00  0.00     0.046 A 
ATOM     17  C   UNK d   1      -2.228   8.760 -13.959  0.00  0.00     0.060 A 
ATOM     18  C   UNK d   1      -3.228   6.476 -14.482  0.00  0.00     0.071 C 
ATOM     19 Br   UNK d   1      -0.447   8.196 -13.618  0.00  0.00    -0.047 Br
ATOM     20  C   UNK d   1      -2.661  10.058 -13.894  0.00  0.00     0.070 A 
ATOM     21  N   UNK d   1      -3.977  10.017 -14.203  0.00  0.00    -0.176 NA
ATOM     22  C   UNK d   1      -1.860  11.288 -13.552  0.00  0.00     0.074 C 
ENDBRANCH  14  15
ENDBRANCH   1  14
TORSDOF 2
ENDMDL
