MODEL 1
REMARK VINA RESULT:    -8.394      0.000      0.000
REMARK INTER + INTRA:         -10.823
REMARK INTER:                 -10.357
REMARK INTRA:                  -0.466
REMARK UNBOUND:                -0.466
REMARK  4 active torsions:
REMARK  status: ('A' for Active; 'I' for Inactive)
REMARK    1  A    between atoms: C_4  and  C_13 
REMARK    2  A    between atoms: C_5  and  N_8 
REMARK       I    between atoms: C_13  and  N_15 
REMARK    3  A    between atoms: N_15  and  C_16 
REMARK    4  A    between atoms: C_16  and  C_17 
ROOT
ATOM      1  C   UNK d   1       3.497   9.189 -14.462  0.00  0.00     0.254 C 
ATOM      2  O   UNK d   1       3.359   9.230 -15.727  0.00  0.00    -0.268 OA
ATOM      3  N   UNK d   1       3.267  10.225 -13.588  0.00  0.00    -0.350 N 
ATOM      4  H   UNK d   1       2.925  11.040 -14.623  0.00  0.00     0.163 HD
ENDROOT
BRANCH   1   5
ATOM      5  C   UNK d   1       3.960   7.863 -13.904  0.00  0.00     0.062 A 
ATOM      6  C   UNK d   1       5.275   7.478 -13.979  0.00  0.00     0.038 A 
ATOM      7  C   UNK d   1       5.642   6.233 -13.455  0.00  0.00     0.012 A 
ATOM      8 Br   UNK d   1       7.449   5.678 -13.547  0.00  0.00    -0.051 Br
ATOM      9  C   UNK d   1       4.703   5.414 -12.877  0.00  0.00     0.021 A 
ATOM     10  C   UNK d   1       3.381   5.802 -12.802  0.00  0.00     0.034 A 
ATOM     11  C   UNK d   1       3.018   7.054 -13.329  0.00  0.00     0.077 A 
BRANCH  11  12
ATOM     12  N   UNK d   1       1.681   7.520 -13.279  0.00  0.00    -0.205 N 
ATOM     13  N   UNK d   1       1.114   8.006 -12.192  0.00  0.00    -0.040 NA
ATOM     14  N   UNK d   1      -0.129   8.363 -12.432  0.00  0.00    -0.023 NA
ATOM     15  N   UNK d   1      -0.392   8.108 -13.704  0.00  0.00    -0.122 NA
ATOM     16  C   UNK d   1       0.727   7.588 -14.219  0.00  0.00     0.262 A 
ENDBRANCH  11  12
ENDBRANCH   1   5
BRANCH   3  17
ATOM     17  C   UNK d   1       3.037  11.254 -12.719  0.00  0.00     0.203 C 
BRANCH  17  18
ATOM     18  C   UNK d   1       1.734  11.995 -12.970  0.00  0.00     0.152 A 
ATOM     19  N   UNK d   1       1.503  13.287 -12.650  0.00  0.00    -0.290 N 
ATOM     20  C   UNK d   1       0.259  13.636 -13.002  0.00  0.00     0.157 A 
ATOM     21  C   UNK d   1       2.315  14.210 -12.059  0.00  0.00     0.100 A 
ATOM     22  N   UNK d   1      -0.285  12.539 -13.551  0.00  0.00    -0.130 NA
ATOM     23  C   UNK d   1      -0.211  14.935 -12.770  0.00  0.00     0.053 A 
ATOM     24  N   UNK d   1       0.609  11.540 -13.532  0.00  0.00    -0.132 NA
ATOM     25  C   UNK d   1       0.599  15.865 -12.179  0.00  0.00     0.005 A 
ATOM     26  C   UNK d   1       1.882  15.505 -11.816  0.00  0.00     0.018 A 
ENDBRANCH  17  18
ENDBRANCH   3  17
TORSDOF 4
ENDMDL
