MODEL 1
REMARK VINA RESULT:    -8.862      0.000      0.000
REMARK INTER + INTRA:         -11.372
REMARK INTER:                 -10.935
REMARK INTRA:                  -0.438
REMARK UNBOUND:                -0.438
REMARK  4 active torsions:
REMARK  status: ('A' for Active; 'I' for Inactive)
REMARK    1  A    between atoms: C_4  and  C_10 
REMARK    2  A    between atoms: C_5  and  O_8 
REMARK    3  A    between atoms: C_18  and  C_19 
REMARK    4  A    between atoms: C_19  and  N_20 
ROOT
ATOM      1  C   UNK d   1      -2.068  11.122 -13.658  0.00  0.00     0.055 C 
ATOM      2  C   UNK d   1      -0.917  11.641 -13.332  0.00  0.00     0.128 A 
ATOM      3  O   UNK d   1       0.251  10.914 -13.157  0.00  0.00    -0.305 OA
ATOM      4  C   UNK d   1       1.316  11.726 -12.813  0.00  0.00     0.101 A 
ATOM      5  C   UNK d   1       0.917  13.041 -12.737  0.00  0.00     0.051 A 
ATOM      6  C   UNK d   1       1.827  14.023 -12.406  0.00  0.00     0.021 A 
ATOM      7  C   UNK d   1       3.136  13.675 -12.150  0.00  0.00     0.041 A 
ATOM      8  C   UNK d   1       3.519  12.321 -12.234  0.00  0.00     0.118 A 
ATOM      9  C   UNK d   1       2.639  11.336 -12.561  0.00  0.00     0.039 A 
ATOM     10  O   UNK d   1       4.878  12.118 -11.947  0.00  0.00    -0.191 OA
ATOM     11  C   UNK d   1      -0.513  13.025 -13.066  0.00  0.00     0.218 A 
ATOM     12  O   UNK d   1      -1.273  14.016 -13.114  0.00  0.00    -0.284 OA
ENDROOT
BRANCH   1  13
ATOM     13  C   UNK d   1      -2.344   9.714 -13.892  0.00  0.00     0.001 A 
ATOM     14  C   UNK d   1      -1.390   8.731 -13.752  0.00  0.00     0.033 A 
ATOM     15  C   UNK d   1      -1.624   7.406 -13.981  0.00  0.00     0.011 A 
ATOM     16 Br   UNK d   1      -0.328   6.021 -13.797  0.00  0.00    -0.051 Br
ATOM     17  C   UNK d   1      -2.907   7.044 -14.380  0.00  0.00     0.022 A 
ATOM     18  C   UNK d   1      -3.911   7.992 -14.539  0.00  0.00     0.039 A 
ATOM     19  C   UNK d   1      -3.619   9.306 -14.296  0.00  0.00     0.078 A 
BRANCH  19  20
ATOM     20  O   UNK d   1      -4.593  10.273 -14.449  0.00  0.00    -0.355 OA
ATOM     21  C   UNK d   1      -5.885  10.065 -13.943  0.00  0.00     0.210 C 
ENDBRANCH  19  20
ENDBRANCH   1  13
BRANCH   9  22
ATOM     22  C   UNK d   1       2.976   9.944 -12.680  0.00  0.00     0.279 C 
BRANCH  22  23
ATOM     23  N   UNK d   1       2.611   9.162 -13.789  0.00  0.00    -0.063 N 
ATOM     24  C   UNK d   1       3.457   9.280 -14.945  0.00  0.00     0.261 C 
ATOM     25  C   UNK d   1       4.704   8.434 -14.885  0.00  0.00     0.195 C 
ATOM     26  O   UNK d   1       4.877   7.784 -13.671  0.00  0.00    -0.388 OA
ATOM     27  C   UNK d   1       3.754   6.983 -13.493  0.00  0.00     0.195 C 
ATOM     28  C   UNK d   1       2.464   7.735 -13.447  0.00  0.00     0.261 C 
ATOM     29  H   UNK d   1       1.646   9.418 -14.083  0.00  0.00     0.280 HD
ENDBRANCH  22  23
ENDBRANCH   9  22
TORSDOF 4
ENDMDL
