/Users/jonathanwahrer/Desktop/Msc/3_Semester/Drug_Design_Praktikum/waehrer_HTS_screening/HTS_experiment/out/docking_results/vina_output/6q9y/0106_docked.pdbqt
 OpenBabel03222219043D

 29 32  0  0  0  0  0  0  0  0999 V2000
   -2.0680   11.1220  -13.6580 C   0  0  0  0  0  3  0  0  0  0  0  0
   -0.9170   11.6410  -13.3320 C   0  0  0  0  0  0  0  0  0  0  0  0
    0.2510   10.9140  -13.1570 O   0  0  0  0  0  0  0  0  0  0  0  0
    1.3160   11.7260  -12.8130 C   0  0  0  0  0  0  0  0  0  0  0  0
    0.9170   13.0410  -12.7370 C   0  0  0  0  0  0  0  0  0  0  0  0
    1.8270   14.0230  -12.4060 C   0  0  0  0  0  3  0  0  0  0  0  0
    3.1360   13.6750  -12.1500 C   0  0  0  0  0  3  0  0  0  0  0  0
    3.5190   12.3210  -12.2340 C   0  0  0  0  0  0  0  0  0  0  0  0
    2.6390   11.3360  -12.5610 C   0  0  0  0  0  0  0  0  0  0  0  0
    4.8780   12.1180  -11.9470 O   0  0  0  0  0  1  0  0  0  0  0  0
   -0.5130   13.0250  -13.0660 C   0  0  0  0  0  0  0  0  0  0  0  0
   -1.2730   14.0160  -13.1140 O   0  0  0  0  0  0  0  0  0  0  0  0
   -2.3440    9.7140  -13.8920 C   0  0  0  0  0  0  0  0  0  0  0  0
   -1.3900    8.7310  -13.7520 C   0  0  0  0  0  3  0  0  0  0  0  0
   -1.6240    7.4060  -13.9810 C   0  0  0  0  0  0  0  0  0  0  0  0
   -0.3280    6.0210  -13.7970 Br  0  0  0  0  0  0  0  0  0  0  0  0
   -2.9070    7.0440  -14.3800 C   0  0  0  0  0  3  0  0  0  0  0  0
   -3.9110    7.9920  -14.5390 C   0  0  0  0  0  3  0  0  0  0  0  0
   -3.6190    9.3060  -14.2960 C   0  0  0  0  0  0  0  0  0  0  0  0
   -4.5930   10.2730  -14.4490 O   0  0  0  0  0  0  0  0  0  0  0  0
   -5.8850   10.0650  -13.9430 C   0  0  0  0  0  1  0  0  0  0  0  0
    2.9760    9.9440  -12.6800 C   0  0  0  0  0  2  0  0  0  0  0  0
    2.6110    9.1620  -13.7890 N   0  0  0  0  0  4  0  0  0  0  0  0
    3.4570    9.2800  -14.9450 C   0  0  0  0  0  2  0  0  0  0  0  0
    4.7040    8.4340  -14.8850 C   0  0  0  0  0  2  0  0  0  0  0  0
    4.8770    7.7840  -13.6710 O   0  0  0  0  0  0  0  0  0  0  0  0
    3.7540    6.9830  -13.4930 C   0  0  0  0  0  2  0  0  0  0  0  0
    2.4640    7.7350  -13.4470 C   0  0  0  0  0  2  0  0  0  0  0  0
    1.6460    9.4180  -14.0830 H   0  0  0  0  0  0  0  0  0  0  0  0
  1  2  2  0  0  0  0
  2  3  1  0  0  0  0
  2 11  1  0  0  0  0
  3  4  1  0  0  0  0
  4  5  2  0  0  0  0
  4  9  1  0  0  0  0
  5  6  1  0  0  0  0
  6  7  2  0  0  0  0
  8  7  1  0  0  0  0
  8 10  1  0  0  0  0
  9  8  2  0  0  0  0
 11  5  1  0  0  0  0
 12 11  2  0  0  0  0
 13 14  1  0  0  0  0
 13  1  1  0  0  0  0
 15 16  1  0  0  0  0
 15 14  2  0  0  0  0
 17 15  1  0  0  0  0
 18 17  2  0  0  0  0
 18 19  1  0  0  0  0
 19 13  2  0  0  0  0
 20 19  1  0  0  0  0
 20 21  1  0  0  0  0
 22  9  1  0  0  0  0
 23 28  1  0  0  0  0
 23 22  1  0  0  0  0
 24 25  1  0  0  0  0
 24 23  1  0  0  0  0
 25 26  1  0  0  0  0
 26 27  1  0  0  0  0
 27 28  1  0  0  0  0
 29 23  1  0  0  0  0
M  END
>  <Pose>
1

>  <Score>
-8.862

$$$$
