/Users/jonathanwahrer/Desktop/Msc/3_Semester/Drug_Design_Praktikum/waehrer_HTS_screening/HTS_experiment/out/docking_results/vina_output/6q9y/0107_docked.pdbqt
 OpenBabel03222219043D

 31 34  0  0  0  0  0  0  0  0999 V2000
    2.1330    9.8740  -14.6990 C   0  0  0  0  0  0  0  0  0  0  0  0
    1.9970   11.0980  -14.1450 N   0  0  0  0  0  4  0  0  0  0  0  0
    0.9420   11.4110  -13.3840 C   0  0  0  0  0  0  0  0  0  0  0  0
    0.0040   10.4740  -13.1750 N   0  0  0  0  0  0  0  0  0  0  0  0
    0.0770    9.2220  -13.7010 C   0  0  0  0  0  0  0  0  0  0  0  0
    1.1760    8.9750  -14.4640 N   0  0  0  0  0  2  0  0  0  0  0  0
    3.2410    9.5080  -15.5120 N   0  0  0  0  0  0  0  0  0  0  0  0
    3.4750   10.0500  -16.3880 H   0  0  0  0  0  0  0  0  0  0  0  0
    4.0740    8.4290  -15.2120 N   0  0  0  0  0  0  0  0  0  0  0  0
    4.7940    8.3540  -14.1560 C   0  0  0  0  0  3  0  0  0  0  0  0
    5.6590    7.2190  -13.8580 C   0  0  0  0  0  0  0  0  0  0  0  0
    7.0050    7.2480  -14.1310 C   0  0  0  0  0  3  0  0  0  0  0  0
    7.8120    6.1700  -13.8460 C   0  0  0  0  0  0  0  0  0  0  0  0
    9.6790    6.2110  -14.2260 Br  0  0  0  0  0  0  0  0  0  0  0  0
    7.3020    5.0120  -13.2730 C   0  0  0  0  0  3  0  0  0  0  0  0
    5.9450    4.9760  -12.9940 C   0  0  0  0  0  3  0  0  0  0  0  0
    5.1380    6.0770  -13.2900 C   0  0  0  0  0  0  0  0  0  0  0  0
    3.7730    6.0740  -13.0230 O   0  0  0  0  0  0  0  0  0  0  0  0
    3.0790    4.9640  -12.5040 C   0  0  0  0  0  1  0  0  0  0  0  0
    0.7980   12.7000  -12.8020 N   0  0  0  0  0  0  0  0  0  0  0  0
   -0.4370   13.4490  -12.8740 C   0  0  0  0  0  2  0  0  0  0  0  0
   -0.1740   14.9180  -13.1690 C   0  0  0  0  0  2  0  0  0  0  0  0
    0.8730   15.3980  -12.3750 O   0  0  0  0  0  0  0  0  0  0  0  0
    2.0480   14.7290  -12.6220 C   0  0  0  0  0  2  0  0  0  0  0  0
    1.9070   13.3130  -12.1060 C   0  0  0  0  0  2  0  0  0  0  0  0
   -0.9100    8.2450  -13.4780 N   0  0  0  0  0  0  0  0  0  0  0  0
   -0.6040    7.0150  -12.8110 C   0  0  0  0  0  2  0  0  0  0  0  0
   -1.0870    5.8830  -13.7160 C   0  0  0  0  0  2  0  0  0  0  0  0
   -2.4330    6.1030  -13.9550 O   0  0  0  0  0  0  0  0  0  0  0  0
   -2.6680    7.2260  -14.7140 C   0  0  0  0  0  2  0  0  0  0  0  0
   -2.2540    8.4680  -13.9250 C   0  0  0  0  0  2  0  0  0  0  0  0
  1  6  1  0  0  0  0
  1  2  2  0  0  0  0
  2  3  2  0  0  0  0
  3  4  1  0  0  0  0
  3 20  1  0  0  0  0
  5 26  1  0  0  0  0
  5  4  2  0  0  0  0
  6  5  1  0  0  0  0
  7  9  1  0  0  0  0
  7  1  1  0  0  0  0
  8  7  1  0  0  0  0
  9 10  2  0  0  0  0
 10 11  1  0  0  0  0
 11 17  1  0  0  0  0
 12 11  2  0  0  0  0
 12 13  1  0  0  0  0
 13 15  2  0  0  0  0
 14 13  1  0  0  0  0
 15 16  1  0  0  0  0
 17 18  1  0  0  0  0
 17 16  2  0  0  0  0
 18 19  1  0  0  0  0
 20 25  1  0  0  0  0
 21 20  1  0  0  0  0
 22 21  1  0  0  0  0
 22 23  1  0  0  0  0
 24 23  1  0  0  0  0
 24 25  1  0  0  0  0
 26 27  1  0  0  0  0
 28 27  1  0  0  0  0
 29 28  1  0  0  0  0
 30 29  1  0  0  0  0
 30 31  1  0  0  0  0
 31 26  1  0  0  0  0
M  END
>  <Pose>
1

>  <Score>
-8.515

$$$$
