MODEL 1
REMARK VINA RESULT:    -8.515      0.000      0.000
REMARK INTER + INTRA:         -12.448
REMARK INTER:                 -11.501
REMARK INTRA:                  -0.947
REMARK UNBOUND:                -0.947
REMARK  6 active torsions:
REMARK  status: ('A' for Active; 'I' for Inactive)
REMARK    1  A    between atoms: C_4  and  C_10 
REMARK    2  A    between atoms: C_5  and  O_8 
REMARK    3  A    between atoms: N_11  and  N_12 
REMARK    4  A    between atoms: N_12  and  C_13 
REMARK    5  A    between atoms: C_15  and  N_25 
REMARK    6  A    between atoms: C_17  and  N_19 
ROOT
ATOM      1  C   UNK d   1       2.133   9.874 -14.699  0.00  0.00     0.774 A 
ATOM      2  N   UNK d   1       1.997  11.098 -14.145  0.00  0.00     0.133 NA
ATOM      3  C   UNK d   1       0.942  11.411 -13.384  0.00  0.00     0.756 A 
ATOM      4  N   UNK d   1       0.004  10.474 -13.175  0.00  0.00     0.131 NA
ATOM      5  C   UNK d   1       0.077   9.222 -13.701  0.00  0.00     0.756 A 
ATOM      6  N   UNK d   1       1.176   8.975 -14.464  0.00  0.00     0.133 NA
ENDROOT
BRANCH   1   7
ATOM      7  N   UNK d   1       3.241   9.508 -15.512  0.00  0.00    -0.105 N 
ATOM      8  H   UNK d   1       3.475  10.050 -16.388  0.00  0.00     0.208 HD
BRANCH   7   9
ATOM      9  N   UNK d   1       4.074   8.429 -15.212  0.00  0.00    -0.171 NA
ATOM     10  C   UNK d   1       4.794   8.354 -14.156  0.00  0.00     0.153 C 
BRANCH  10  11
ATOM     11  C   UNK d   1       5.659   7.219 -13.858  0.00  0.00     0.018 A 
ATOM     12  C   UNK d   1       7.005   7.248 -14.131  0.00  0.00     0.034 A 
ATOM     13  C   UNK d   1       7.812   6.170 -13.846  0.00  0.00     0.011 A 
ATOM     14 Br   UNK d   1       9.679   6.211 -14.226  0.00  0.00    -0.051 Br
ATOM     15  C   UNK d   1       7.302   5.012 -13.273  0.00  0.00     0.022 A 
ATOM     16  C   UNK d   1       5.945   4.976 -12.994  0.00  0.00     0.039 A 
ATOM     17  C   UNK d   1       5.138   6.077 -13.290  0.00  0.00     0.080 A 
BRANCH  17  18
ATOM     18  O   UNK d   1       3.773   6.074 -13.023  0.00  0.00    -0.355 OA
ATOM     19  C   UNK d   1       3.079   4.964 -12.504  0.00  0.00     0.210 C 
ENDBRANCH  17  18
ENDBRANCH  10  11
ENDBRANCH   7   9
ENDBRANCH   1   7
BRANCH   3  20
ATOM     20  N   UNK d   1       0.798  12.700 -12.802  0.00  0.00    -0.209 N 
ATOM     21  C   UNK d   1      -0.437  13.449 -12.874  0.00  0.00     0.167 C 
ATOM     22  C   UNK d   1      -0.174  14.918 -13.169  0.00  0.00     0.188 C 
ATOM     23  O   UNK d   1       0.873  15.398 -12.375  0.00  0.00    -0.388 OA
ATOM     24  C   UNK d   1       2.048  14.729 -12.622  0.00  0.00     0.188 C 
ATOM     25  C   UNK d   1       1.907  13.313 -12.106  0.00  0.00     0.167 C 
ENDBRANCH   3  20
BRANCH   5  26
ATOM     26  N   UNK d   1      -0.910   8.245 -13.478  0.00  0.00    -0.209 N 
ATOM     27  C   UNK d   1      -0.604   7.015 -12.811  0.00  0.00     0.167 C 
ATOM     28  C   UNK d   1      -1.087   5.883 -13.716  0.00  0.00     0.188 C 
ATOM     29  O   UNK d   1      -2.433   6.103 -13.955  0.00  0.00    -0.388 OA
ATOM     30  C   UNK d   1      -2.668   7.226 -14.714  0.00  0.00     0.188 C 
ATOM     31  C   UNK d   1      -2.254   8.468 -13.925  0.00  0.00     0.167 C 
ENDBRANCH   5  26
TORSDOF 6
ENDMDL
