/Users/jonathanwahrer/Desktop/Msc/3_Semester/Drug_Design_Praktikum/waehrer_HTS_screening/HTS_experiment/out/docking_results/vina_output/6q9y/0111_docked.pdbqt
 OpenBabel03222219043D

 29 32  0  0  0  0  0  0  0  0999 V2000
    3.7980    5.3680  -12.7390 C   0  0  0  0  0  0  0  0  0  0  0  0
    2.9910    6.3770  -12.9840 N   0  0  0  0  0  0  0  0  0  0  0  0
    1.7180    6.0860  -12.5670 C   0  0  0  0  0  0  0  0  0  0  0  0
    1.7620    4.8360  -12.0530 N   0  0  0  0  0  0  0  0  0  0  0  0
    2.9720    4.4020  -12.1470 N   0  0  0  0  0  0  0  0  0  0  0  0
    0.9130    7.1190  -12.8230 N   0  0  0  0  0  0  0  0  0  0  0  0
    1.6640    8.0670  -13.4070 C   0  0  0  0  0  0  0  0  0  0  0  0
    2.9760    7.6230  -13.5230 C   0  0  0  0  0  0  0  0  0  0  0  0
    3.9270    8.3460  -14.0820 N   0  0  0  0  0  0  0  0  0  0  0  0
    3.5680    9.5830  -14.5480 C   0  0  0  0  0  0  0  0  0  0  0  0
    4.3950   10.3560  -15.0960 O   0  0  0  0  0  0  0  0  0  0  0  0
    2.3050   10.0490  -14.4480 N   0  0  0  0  0  0  0  0  0  0  0  0
    1.3450    9.3220  -13.8900 C   0  0  0  0  0  0  0  0  0  0  0  0
    0.1520    9.6990  -13.7680 O   0  0  0  0  0  0  0  0  0  0  0  0
    5.2910    7.9960  -14.3420 C   0  0  0  0  0  1  0  0  0  0  0  0
    2.0490   10.9930  -14.8060 H   0  0  0  0  0  0  0  0  0  0  0  0
    5.1800    5.0160  -12.9020 C   0  0  0  0  0  0  0  0  0  0  0  0
    6.2900    5.7050  -12.5190 C   0  0  0  0  0  3  0  0  0  0  0  0
    7.5860    5.3260  -12.7160 C   0  0  0  0  0  0  0  0  0  0  0  0
    9.0030    6.4450  -12.0990 Br  0  0  0  0  0  0  0  0  0  0  0  0
    7.8460    4.1490  -13.3540 C   0  0  0  0  0  3  0  0  0  0  0  0
    6.7740    3.3810  -13.7790 C   0  0  0  0  0  3  0  0  0  0  0  0
    5.4850    3.8020  -13.5590 C   0  0  0  0  0  0  0  0  0  0  0  0
    4.4430    3.0050  -14.0000 O   0  0  0  0  0  0  0  0  0  0  0  0
    4.3970    1.6190  -13.8610 C   0  0  0  0  0  1  0  0  0  0  0  0
   -0.4890    7.2250  -12.5410 C   0  0  0  0  0  2  0  0  0  0  0  0
   -1.2530    6.2480  -13.4100 C   0  0  0  0  0  2  0  0  0  0  0  0
   -1.4350    6.8240  -14.6520 O   0  0  0  0  0  0  0  0  0  0  0  0
   -2.6590    6.4400  -15.2270 C   0  0  0  0  0  1  0  0  0  0  0  0
  1  5  2  0  0  0  0
  2  1  1  0  0  0  0
  2  3  1  0  0  0  0
  3  4  2  0  0  0  0
  5  4  1  0  0  0  0
  6  3  1  0  0  0  0
  6 26  1  0  0  0  0
  7  6  1  0  0  0  0
  8  7  2  0  0  0  0
  8  2  1  0  0  0  0
  9  8  1  0  0  0  0
 10 12  1  0  0  0  0
 10  9  1  0  0  0  0
 11 10  2  0  0  0  0
 12 13  1  0  0  0  0
 13 14  2  0  0  0  0
 13  7  1  0  0  0  0
 15  9  1  0  0  0  0
 16 12  1  0  0  0  0
 17  1  1  0  0  0  0
 17 18  1  0  0  0  0
 19 18  2  0  0  0  0
 19 20  1  0  0  0  0
 21 19  1  0  0  0  0
 22 23  1  0  0  0  0
 22 21  2  0  0  0  0
 23 17  2  0  0  0  0
 24 25  1  0  0  0  0
 24 23  1  0  0  0  0
 27 26  1  0  0  0  0
 28 27  1  0  0  0  0
 29 28  1  0  0  0  0
M  END
>  <Pose>
1

>  <Score>
-7.442

$$$$
