MODEL 1
REMARK VINA RESULT:    -7.442      0.000      0.000
REMARK INTER + INTRA:          -9.768
REMARK INTER:                  -9.618
REMARK INTRA:                  -0.150
REMARK UNBOUND:                -0.150
REMARK  5 active torsions:
REMARK  status: ('A' for Active; 'I' for Inactive)
REMARK    1  A    between atoms: C_4  and  C_10 
REMARK    2  A    between atoms: C_5  and  O_8 
REMARK    3  A    between atoms: N_15  and  C_25 
REMARK    4  A    between atoms: C_25  and  C_26 
REMARK    5  A    between atoms: C_26  and  O_27 
ROOT
ATOM      1  C   UNK d   1       3.798   5.368 -12.739  0.00  0.00     0.188 A 
ATOM      2  N   UNK d   1       2.991   6.377 -12.984  0.00  0.00    -0.106 N 
ATOM      3  C   UNK d   1       1.718   6.086 -12.567  0.00  0.00     0.736 A 
ATOM      4  N   UNK d   1       1.762   4.836 -12.053  0.00  0.00     0.045 NA
ATOM      5  N   UNK d   1       2.972   4.402 -12.147  0.00  0.00    -0.114 NA
ATOM      6  N   UNK d   1       0.913   7.119 -12.823  0.00  0.00    -0.168 N 
ATOM      7  C   UNK d   1       1.664   8.067 -13.407  0.00  0.00     0.165 A 
ATOM      8  C   UNK d   1       2.976   7.623 -13.523  0.00  0.00     0.170 A 
ATOM      9  N   UNK d   1       3.927   8.346 -14.082  0.00  0.00    -0.287 N 
ATOM     10  C   UNK d   1       3.568   9.583 -14.548  0.00  0.00     0.330 A 
ATOM     11  O   UNK d   1       4.395  10.356 -15.096  0.00  0.00    -0.246 OA
ATOM     12  N   UNK d   1       2.305  10.049 -14.448  0.00  0.00    -0.273 N 
ATOM     13  C   UNK d   1       1.345   9.322 -13.890  0.00  0.00     0.280 A 
ATOM     14  O   UNK d   1       0.152   9.699 -13.768  0.00  0.00    -0.265 OA
ATOM     15  C   UNK d   1       5.291   7.996 -14.342  0.00  0.00     0.163 C 
ATOM     16  H   UNK d   1       2.049  10.993 -14.806  0.00  0.00     0.173 HD
ENDROOT
BRANCH   1  17
ATOM     17  C   UNK d   1       5.180   5.016 -12.902  0.00  0.00     0.047 A 
ATOM     18  C   UNK d   1       6.290   5.705 -12.519  0.00  0.00     0.037 A 
ATOM     19  C   UNK d   1       7.586   5.326 -12.716  0.00  0.00     0.012 A 
ATOM     20 Br   UNK d   1       9.003   6.445 -12.099  0.00  0.00    -0.051 Br
ATOM     21  C   UNK d   1       7.846   4.149 -13.354  0.00  0.00     0.022 A 
ATOM     22  C   UNK d   1       6.774   3.381 -13.779  0.00  0.00     0.039 A 
ATOM     23  C   UNK d   1       5.485   3.802 -13.559  0.00  0.00     0.082 A 
BRANCH  23  24
ATOM     24  O   UNK d   1       4.443   3.005 -14.000  0.00  0.00    -0.355 OA
ATOM     25  C   UNK d   1       4.397   1.619 -13.861  0.00  0.00     0.210 C 
ENDBRANCH  23  24
ENDBRANCH   1  17
BRANCH   6  26
ATOM     26  C   UNK d   1      -0.489   7.225 -12.541  0.00  0.00     0.174 C 
BRANCH  26  27
ATOM     27  C   UNK d   1      -1.253   6.248 -13.410  0.00  0.00     0.187 C 
BRANCH  27  28
ATOM     28  O   UNK d   1      -1.435   6.824 -14.652  0.00  0.00    -0.394 OA
ATOM     29  C   UNK d   1      -2.659   6.440 -15.227  0.00  0.00     0.201 C 
ENDBRANCH  27  28
ENDBRANCH  26  27
ENDBRANCH   6  26
TORSDOF 5
ENDMDL
