MODEL 1
REMARK VINA RESULT:    -8.106      0.000      0.000
REMARK INTER + INTRA:         -10.411
REMARK INTER:                 -10.002
REMARK INTRA:                  -0.409
REMARK UNBOUND:                -0.409
REMARK  4 active torsions:
REMARK  status: ('A' for Active; 'I' for Inactive)
REMARK    1  A    between atoms: C_4  and  C_8 
REMARK    2  A    between atoms: C_8  and  C_10 
REMARK    3  A    between atoms: C_10  and  N_11 
REMARK    4  A    between atoms: N_14  and  C_17 
ROOT
ATOM      1  N   UNK d   1       2.261   6.335 -12.828  0.00  0.00    -0.402 N 
ATOM      2  C   UNK d   1       2.304   7.462 -13.684  0.00  0.00     0.137 C 
ATOM      3  C   UNK d   1       1.024   7.844 -14.322  0.00  0.00     0.143 C 
ATOM      4  N   UNK d   1      -0.016   7.979 -13.353  0.00  0.00    -0.362 N 
ATOM      5  C   UNK d   1       0.133   7.314 -12.091  0.00  0.00     0.143 C 
ATOM      6  C   UNK d   1       1.040   6.107 -12.138  0.00  0.00     0.137 C 
ENDROOT
BRANCH   4   7
ATOM      7  C   UNK d   1      -1.198   8.724 -13.608  0.00  0.00     0.135 A 
ATOM      8  C   UNK d   1      -2.255   8.073 -14.089  0.00  0.00     0.125 A 
ATOM      9  N   UNK d   1      -2.532   6.729 -14.443  0.00  0.00    -0.291 N 
ATOM     10  C   UNK d   1      -3.466   8.885 -14.339  0.00  0.00     0.113 A 
ATOM     11  N   UNK d   1      -3.872   6.734 -14.893  0.00  0.00    -0.300 N 
ATOM     12  C   UNK d   1      -1.634   5.603 -14.361  0.00  0.00     0.178 C 
ATOM     13  C   UNK d   1      -4.381   8.051 -14.808  0.00  0.00     0.053 A 
ATOM     14  H   UNK d   1      -4.344   5.865 -15.220  0.00  0.00     0.187 HD
ATOM     15  C   UNK d   1      -5.749   8.501 -15.180  0.00  0.00     0.072 C 
ATOM     16  N   UNK d   1      -3.454  10.282 -14.063  0.00  0.00    -0.240 NA
ATOM     17  C   UNK d   1      -2.405  10.863 -13.597  0.00  0.00     0.209 A 
ATOM     18  N   UNK d   1      -1.224  10.141 -13.340  0.00  0.00    -0.335 N 
ATOM     19  H   UNK d   1      -0.357  10.564 -12.966  0.00  0.00     0.168 HD
ENDBRANCH   4   7
BRANCH   1  20
ATOM     20  C   UNK d   1       3.447   6.022 -12.131  0.00  0.00     0.200 C 
BRANCH  20  21
ATOM     21  C   UNK d   1       4.317   5.069 -12.823  0.00  0.00     0.176 C 
ATOM     22  O   UNK d   1       3.884   3.914 -13.070  0.00  0.00    -0.291 OA
BRANCH  21  23
ATOM     23  C   UNK d   1       5.662   5.486 -13.205  0.00  0.00     0.013 A 
ATOM     24  C   UNK d   1       6.698   4.590 -13.206  0.00  0.00     0.034 A 
ATOM     25  C   UNK d   1       7.990   4.953 -13.564  0.00  0.00     0.011 A 
ATOM     26 Br   UNK d   1       9.426   3.705 -13.565  0.00  0.00    -0.051 Br
ATOM     27  C   UNK d   1       8.241   6.257 -13.930  0.00  0.00     0.019 A 
ATOM     28  C   UNK d   1       7.182   7.154 -13.926  0.00  0.00     0.002 A 
ATOM     29  C   UNK d   1       5.907   6.789 -13.571  0.00  0.00     0.015 A 
ENDBRANCH  21  23
ENDBRANCH  20  21
ENDBRANCH   1  20
TORSDOF 4
ENDMDL
