MODEL 1
REMARK VINA RESULT:   -10.413      0.000      0.000
REMARK INTER + INTRA:         -12.364
REMARK INTER:                 -12.239
REMARK INTRA:                  -0.125
REMARK UNBOUND:                -0.125
REMARK  3 active torsions:
REMARK  status: ('A' for Active; 'I' for Inactive)
REMARK    1  A    between atoms: C_4  and  C_8 
REMARK       I    between atoms: C_8  and  N_10 
REMARK    2  A    between atoms: N_10  and  C_11 
REMARK    3  A    between atoms: C_11  and  C_13 
REMARK       I    between atoms: C_13  and  N_15 
ROOT
ATOM      1  C   UNK d   1      -4.722   8.314 -14.448  0.00  0.00     0.242 C 
ATOM      2  O   UNK d   1      -5.537   7.387 -14.748  0.00  0.00    -0.271 OA
ATOM      3  N   UNK d   1      -3.317   8.097 -14.532  0.00  0.00    -0.350 N 
ATOM      4  C   UNK d   1      -2.353   9.052 -14.048  0.00  0.00     0.129 C 
ATOM      5  C   UNK d   1      -1.685   8.301 -12.871  0.00  0.00     0.068 C 
ATOM      6  C   UNK d   1      -0.803   7.273 -13.528  0.00  0.00     0.204 C 
ATOM      7  N   UNK d   1      -0.445   6.311 -12.488  0.00  0.00     0.099 N 
ATOM      8  C   UNK d   1       0.187   6.904 -11.369  0.00  0.00     0.277 C 
ATOM      9  C   UNK d   1       1.525   7.538 -11.706  0.00  0.00     0.091 C 
ATOM     10  C   UNK d   1       1.534   8.108 -13.066  0.00  0.00     0.062 A 
ATOM     11  N   UNK d   1       2.502   8.800 -13.690  0.00  0.00    -0.246 NA
ATOM     12  C   UNK d   1       2.047   9.101 -14.926  0.00  0.00     0.207 A 
ATOM     13  N   UNK d   1       0.795   8.591 -15.051  0.00  0.00    -0.350 N 
ATOM     14  C   UNK d   1       0.448   7.969 -13.907  0.00  0.00     0.074 A 
ATOM     15  C   UNK d   1      -1.424   6.526 -14.656  0.00  0.00     0.068 C 
ATOM     16  C   UNK d   1      -2.799   6.900 -15.092  0.00  0.00     0.129 C 
ATOM     17  H   UNK d   1       0.091   5.492 -12.874  0.00  0.00     0.317 HD
ATOM     18  H   UNK d   1       0.284   8.724 -15.946  0.00  0.00     0.166 HD
ENDROOT
BRANCH   1  19
ATOM     19  C   UNK d   1      -5.300   9.575 -14.007  0.00  0.00     0.173 C 
ATOM     20  C   UNK d   1      -5.592   9.513 -12.516  0.00  0.00     0.042 C 
BRANCH  19  21
ATOM     21  N   UNK d   1      -6.375  10.036 -14.807  0.00  0.00    -0.344 N 
ATOM     22  C   UNK d   1      -7.289  11.017 -14.433  0.00  0.00     0.252 C 
ATOM     23  O   UNK d   1      -7.354  11.696 -13.424  0.00  0.00    -0.268 OA
ATOM     24  H   UNK d   1      -6.433   9.616 -15.783  0.00  0.00     0.163 HD
BRANCH  22  25
ATOM     25  C   UNK d   1      -8.373  11.249 -15.460  0.00  0.00     0.033 A 
ATOM     26  C   UNK d   1      -9.131  12.392 -15.326  0.00  0.00     0.036 A 
ATOM     27  C   UNK d   1     -10.156  12.628 -16.212  0.00  0.00     0.011 A 
ATOM     28 Br   UNK d   1     -11.211  14.231 -16.040  0.00  0.00    -0.051 Br
ATOM     29  C   UNK d   1     -10.455  11.753 -17.235  0.00  0.00     0.019 A 
ATOM     30  C   UNK d   1      -9.656  10.610 -17.321  0.00  0.00     0.002 A 
ATOM     31  C   UNK d   1      -8.631  10.359 -16.452  0.00  0.00     0.017 A 
ENDBRANCH  22  25
ENDBRANCH  19  21
ENDBRANCH   1  19
TORSDOF 3
ENDMDL
