MODEL 1
REMARK VINA RESULT:   -10.446      0.000      0.000
REMARK INTER + INTRA:         -13.449
REMARK INTER:                 -12.888
REMARK INTRA:                  -0.561
REMARK UNBOUND:                -0.561
REMARK  4 active torsions:
REMARK  status: ('A' for Active; 'I' for Inactive)
REMARK    1  A    between atoms: C_4  and  C_8 
REMARK       I    between atoms: C_8  and  N_10 
REMARK    2  A    between atoms: N_10  and  C_11 
REMARK    3  A    between atoms: C_19  and  C_22 
REMARK    4  A    between atoms: C_22  and  C_23 
ROOT
ATOM      1  C   UNK d   1      -0.612   7.057 -13.231  0.00  0.00     0.105 C 
ATOM      2  C   UNK d   1      -1.649   6.829 -14.315  0.00  0.00     0.152 C 
ATOM      3  N   UNK d   1      -2.524   7.976 -14.172  0.00  0.00    -0.335 N 
ATOM      4  C   UNK d   1      -1.968   8.940 -13.244  0.00  0.00     0.181 C 
ATOM      5  C   UNK d   1      -0.483   8.554 -13.244  0.00  0.00     0.061 C 
ATOM      6  C   UNK d   1      -2.179  10.282 -13.786  0.00  0.00     0.241 C 
ATOM      7  O   UNK d   1      -1.242  11.083 -13.917  0.00  0.00    -0.271 OA
ATOM      8  N   UNK d   1      -3.498  10.646 -14.159  0.00  0.00    -0.346 N 
ATOM      9  C   UNK d   1      -4.434   9.619 -14.558  0.00  0.00     0.181 C 
ATOM     10  C   UNK d   1      -3.789   8.303 -14.764  0.00  0.00     0.243 C 
ATOM     11  O   UNK d   1      -4.357   7.436 -15.479  0.00  0.00    -0.271 OA
ATOM     12  H   UNK d   1      -3.828  11.638 -14.161  0.00  0.00     0.163 HD
ENDROOT
BRANCH   1  13
ATOM     13  N   UNK d   1       0.636   6.382 -13.539  0.00  0.00    -0.351 N 
ATOM     14  C   UNK d   1       1.517   6.125 -12.469  0.00  0.00     0.252 C 
ATOM     15  O   UNK d   1       1.191   6.490 -11.280  0.00  0.00    -0.268 OA
ATOM     16  H   UNK d   1       0.893   6.096 -14.494  0.00  0.00     0.163 HD
BRANCH  14  17
ATOM     17  C   UNK d   1       2.792   5.455 -12.659  0.00  0.00     0.033 A 
ATOM     18  C   UNK d   1       3.938   6.191 -12.937  0.00  0.00     0.036 A 
ATOM     19  C   UNK d   1       5.141   5.566 -13.112  0.00  0.00     0.011 A 
ATOM     20 Br   UNK d   1       6.712   6.590 -13.494  0.00  0.00    -0.051 Br
ATOM     21  C   UNK d   1       5.261   4.208 -13.021  0.00  0.00     0.019 A 
ATOM     22  C   UNK d   1       4.131   3.479 -12.746  0.00  0.00     0.002 A 
ATOM     23  C   UNK d   1       2.906   4.103 -12.567  0.00  0.00     0.017 A 
ENDBRANCH  14  17
ENDBRANCH   1  13
BRANCH   9  24
ATOM     24  C   UNK d   1      -5.627   9.529 -13.629  0.00  0.00     0.073 C 
BRANCH  24  25
ATOM     25  C   UNK d   1      -6.745  10.397 -14.034  0.00  0.00    -0.056 A 
ATOM     26  C   UNK d   1      -7.378  10.184 -15.245  0.00  0.00     0.007 A 
ATOM     27  C   UNK d   1      -8.424  10.990 -15.630  0.00  0.00     0.001 A 
ATOM     28  C   UNK d   1      -8.888  12.032 -14.850  0.00  0.00     0.000 A 
ATOM     29  C   UNK d   1      -8.259  12.248 -13.642  0.00  0.00     0.001 A 
ATOM     30  C   UNK d   1      -7.208  11.448 -13.239  0.00  0.00     0.007 A 
ENDBRANCH  24  25
ENDBRANCH   9  24
TORSDOF 4
ENDMDL
