MODEL 1
REMARK VINA RESULT:    -9.865      0.000      0.000
REMARK INTER + INTRA:         -11.459
REMARK INTER:                 -11.019
REMARK INTRA:                  -0.440
REMARK UNBOUND:                -0.440
REMARK  2 active torsions:
REMARK  status: ('A' for Active; 'I' for Inactive)
REMARK    1  A    between atoms: C_4  and  C_8 
REMARK       I    between atoms: C_8  and  N_10 
REMARK    2  A    between atoms: N_10  and  C_11 
ROOT
ATOM      1  C   UNK d   1      -1.098  16.396 -13.467  0.00  0.00     0.105 C 
ATOM      2  C   UNK d   1      -1.407  14.870 -13.242  0.00  0.00     0.152 C 
ATOM      3  N   UNK d   1      -0.116  14.276 -13.160  0.00  0.00    -0.335 N 
ATOM      4  C   UNK d   1       0.861  15.302 -12.824  0.00  0.00     0.181 C 
ATOM      5  C   UNK d   1       0.056  16.468 -12.420  0.00  0.00     0.061 C 
ATOM      6  C   UNK d   1       1.833  14.779 -11.850  0.00  0.00     0.243 C 
ATOM      7  O   UNK d   1       2.222  15.510 -10.923  0.00  0.00    -0.271 OA
ATOM      8  N   UNK d   1       2.321  13.458 -11.967  0.00  0.00    -0.337 N 
ATOM      9  C   UNK d   1       1.467  12.427 -12.513  0.00  0.00     0.179 C 
ATOM     10  C   UNK d   1       2.394  11.474 -13.241  0.00  0.00     0.037 C 
ATOM     11  C   UNK d   1       3.765  11.980 -12.957  0.00  0.00     0.022 C 
ATOM     12  C   UNK d   1       3.579  12.786 -11.663  0.00  0.00     0.127 C 
ATOM     13  C   UNK d   1       0.379  12.953 -13.331  0.00  0.00     0.243 C 
ATOM     14  O   UNK d   1      -0.156  12.218 -14.232  0.00  0.00    -0.271 OA
ENDROOT
BRANCH   1  15
ATOM     15  N   UNK d   1      -2.153  17.178 -13.273  0.00  0.00    -0.351 N 
ATOM     16  C   UNK d   1      -3.246  17.986 -13.080  0.00  0.00     0.252 C 
ATOM     17  O   UNK d   1      -4.292  18.127 -13.786  0.00  0.00    -0.268 OA
ATOM     18  H   UNK d   1      -2.729  16.712 -14.434  0.00  0.00     0.163 HD
BRANCH  16  19
ATOM     19  C   UNK d   1      -3.294  18.880 -11.860  0.00  0.00     0.033 A 
ATOM     20  C   UNK d   1      -4.413  19.623 -11.568  0.00  0.00     0.036 A 
ATOM     21  C   UNK d   1      -4.488  20.441 -10.468  0.00  0.00     0.011 A 
ATOM     22 Br   UNK d   1      -6.045  21.446 -10.048  0.00  0.00    -0.051 Br
ATOM     23  C   UNK d   1      -3.371  20.495  -9.640  0.00  0.00     0.019 A 
ATOM     24  C   UNK d   1      -2.243  19.769  -9.900  0.00  0.00     0.002 A 
ATOM     25  C   UNK d   1      -2.209  18.954 -11.025  0.00  0.00     0.017 A 
ENDBRANCH  16  19
ENDBRANCH   1  15
TORSDOF 2
ENDMDL
