/Users/jonathanwahrer/Desktop/Msc/3_Semester/Drug_Design_Praktikum/waehrer_HTS_screening/HTS_experiment/out/docking_results/vina_output/6q9y/0138_docked.pdbqt
 OpenBabel03222219053D

 25 28  0  0  1  0  0  0  0  0999 V2000
    0.1240   15.5310  -12.6020 C   0  0  2  0  0  3  0  0  0  0  0  0
   -0.6380   14.2490  -12.6510 C   0  0  0  0  0  2  0  0  0  0  0  0
    0.3810   13.2780  -13.0860 N   0  0  0  0  0  0  0  0  0  0  0  0
    1.6990   13.8850  -12.9700 C   0  0  1  0  0  3  0  0  0  0  0  0
    1.4700   15.0430  -12.0470 C   0  0  0  0  0  2  0  0  0  0  0  0
    2.6160   12.8730  -12.4520 C   0  0  0  0  0  0  0  0  0  0  0  0
    3.5290   13.1760  -11.6750 O   0  0  0  0  0  0  0  0  0  0  0  0
    2.4590   11.5040  -12.8510 N   0  0  0  0  0  0  0  0  0  0  0  0
    1.5530   11.2620  -13.9470 C   0  0  1  0  0  3  0  0  0  0  0  0
    1.4080    9.8160  -14.1860 C   0  0  0  0  0  2  0  0  0  0  0  0
    2.6090    9.2450  -13.4570 C   0  0  0  0  0  2  0  0  0  0  0  0
    2.9930   10.2480  -12.4230 C   0  0  0  0  0  2  0  0  0  0  0  0
    0.2670   11.9400  -13.5620 C   0  0  0  0  0  0  0  0  0  0  0  0
   -0.8380   11.3600  -13.6550 O   0  0  0  0  0  0  0  0  0  0  0  0
   -0.4560   16.5520  -11.8120 N   0  0  0  0  0  0  0  0  0  0  0  0
   -1.5780   17.2690  -12.2840 C   0  0  0  0  0  0  0  0  0  0  0  0
   -2.0640   16.9860  -13.4350 O   0  0  0  0  0  0  0  0  0  0  0  0
   -0.0660   16.7840  -10.8800 H   0  0  0  0  0  0  0  0  0  0  0  0
   -2.2570   18.3330  -11.5650 C   0  0  0  0  0  0  0  0  0  0  0  0
   -3.5220   18.7590  -11.8810 C   0  0  0  0  0  3  0  0  0  0  0  0
   -4.1750   19.7620  -11.2110 C   0  0  0  0  0  0  0  0  0  0  0  0
   -5.9290   20.3260  -11.6780 Br  0  0  0  0  0  0  0  0  0  0  0  0
   -3.5430   20.3910  -10.1600 C   0  0  0  0  0  3  0  0  0  0  0  0
   -2.2640   19.9940   -9.8040 C   0  0  0  0  0  3  0  0  0  0  0  0
   -1.6320   18.9640  -10.5160 C   0  0  0  0  0  3  0  0  0  0  0  0
  1  5  1  0  0  0  0
  1 15  1  1  0  0  0
  2  1  1  0  0  0  0
  3  4  1  0  0  0  0
  3  2  1  0  0  0  0
  4  6  1  0  0  0  0
  4  5  1  1  0  0  0
  6  7  2  0  0  0  0
  8  6  1  0  0  0  0
  8 12  1  0  0  0  0
  9 10  1  1  0  0  0
  9 13  1  0  0  0  0
  9  8  1  0  0  0  0
 10 11  1  0  0  0  0
 11 12  1  0  0  0  0
 13  3  1  0  0  0  0
 14 13  2  0  0  0  0
 15 18  1  0  0  0  0
 16 15  1  0  0  0  0
 16 19  1  0  0  0  0
 17 16  2  0  0  0  0
 19 25  1  0  0  0  0
 20 19  2  0  0  0  0
 20 21  1  0  0  0  0
 21 23  2  0  0  0  0
 22 21  1  0  0  0  0
 23 24  1  0  0  0  0
 25 24  2  0  0  0  0
M  END
>  <Pose>
1

>  <Score>
-9.921

$$$$
