MODEL 1
REMARK VINA RESULT:    -9.921      0.000      0.000
REMARK INTER + INTRA:         -11.233
REMARK INTER:                 -11.081
REMARK INTRA:                  -0.152
REMARK UNBOUND:                -0.152
REMARK  2 active torsions:
REMARK  status: ('A' for Active; 'I' for Inactive)
REMARK    1  A    between atoms: C_4  and  C_8 
REMARK       I    between atoms: C_8  and  N_10 
REMARK    2  A    between atoms: N_10  and  C_11 
ROOT
ATOM      1  C   UNK d   1       0.124  15.531 -12.602  0.00  0.00     0.105 C 
ATOM      2  C   UNK d   1      -0.638  14.249 -12.651  0.00  0.00     0.152 C 
ATOM      3  N   UNK d   1       0.381  13.278 -13.086  0.00  0.00    -0.335 N 
ATOM      4  C   UNK d   1       1.699  13.885 -12.970  0.00  0.00     0.181 C 
ATOM      5  C   UNK d   1       1.470  15.043 -12.047  0.00  0.00     0.061 C 
ATOM      6  C   UNK d   1       2.616  12.873 -12.452  0.00  0.00     0.243 C 
ATOM      7  O   UNK d   1       3.529  13.176 -11.675  0.00  0.00    -0.271 OA
ATOM      8  N   UNK d   1       2.459  11.504 -12.851  0.00  0.00    -0.337 N 
ATOM      9  C   UNK d   1       1.553  11.262 -13.947  0.00  0.00     0.179 C 
ATOM     10  C   UNK d   1       1.408   9.816 -14.186  0.00  0.00     0.037 C 
ATOM     11  C   UNK d   1       2.609   9.245 -13.457  0.00  0.00     0.022 C 
ATOM     12  C   UNK d   1       2.993  10.248 -12.423  0.00  0.00     0.127 C 
ATOM     13  C   UNK d   1       0.267  11.940 -13.562  0.00  0.00     0.243 C 
ATOM     14  O   UNK d   1      -0.838  11.360 -13.655  0.00  0.00    -0.271 OA
ENDROOT
BRANCH   1  15
ATOM     15  N   UNK d   1      -0.456  16.552 -11.812  0.00  0.00    -0.351 N 
ATOM     16  C   UNK d   1      -1.578  17.269 -12.284  0.00  0.00     0.252 C 
ATOM     17  O   UNK d   1      -2.064  16.986 -13.435  0.00  0.00    -0.268 OA
ATOM     18  H   UNK d   1      -0.066  16.784 -10.880  0.00  0.00     0.163 HD
BRANCH  16  19
ATOM     19  C   UNK d   1      -2.257  18.333 -11.565  0.00  0.00     0.033 A 
ATOM     20  C   UNK d   1      -3.522  18.759 -11.881  0.00  0.00     0.036 A 
ATOM     21  C   UNK d   1      -4.175  19.762 -11.211  0.00  0.00     0.011 A 
ATOM     22 Br   UNK d   1      -5.929  20.326 -11.678  0.00  0.00    -0.051 Br
ATOM     23  C   UNK d   1      -3.543  20.391 -10.160  0.00  0.00     0.019 A 
ATOM     24  C   UNK d   1      -2.264  19.994  -9.804  0.00  0.00     0.002 A 
ATOM     25  C   UNK d   1      -1.632  18.964 -10.516  0.00  0.00     0.017 A 
ENDBRANCH  16  19
ENDBRANCH   1  15
TORSDOF 2
ENDMDL
