MODEL 1
REMARK VINA RESULT:    -8.045      0.000      0.000
REMARK INTER + INTRA:          -9.228
REMARK INTER:                  -8.985
REMARK INTRA:                  -0.242
REMARK UNBOUND:                -0.242
REMARK  2 active torsions:
REMARK  status: ('A' for Active; 'I' for Inactive)
REMARK    1  A    between atoms: C_4  and  C_8 
REMARK       I    between atoms: C_8  and  N_10 
REMARK    2  A    between atoms: N_10  and  N_11 
ROOT
ATOM      1  N   UNK d   1       3.415   7.367 -13.557  0.00  0.00    -0.187 N 
ATOM      2  C   UNK d   1       2.778   8.301 -14.450  0.00  0.00     0.251 C 
ATOM      3  O   UNK d   1       3.331   9.107 -15.263  0.00  0.00    -0.271 OA
ATOM      4  C   UNK d   1       1.341   8.185 -14.282  0.00  0.00     0.101 C 
ATOM      5  C   UNK d   1       1.094   6.823 -13.605  0.00  0.00     0.101 C 
ATOM      6  C   UNK d   1       0.002   7.053 -12.613  0.00  0.00     0.022 C 
ATOM      7  C   UNK d   1      -0.616   8.372 -13.120  0.00  0.00     0.018 C 
ATOM      8  C   UNK d   1       0.754   9.079 -13.200  0.00  0.00     0.022 C 
ATOM      9  C   UNK d   1       1.288   8.703 -11.860  0.00  0.00    -0.025 C 
ATOM     10  C   UNK d   1       0.652   7.627 -11.379  0.00  0.00    -0.025 C 
ATOM     11  C   UNK d   1       2.405   6.697 -12.855  0.00  0.00     0.251 C 
ATOM     12  O   UNK d   1       2.534   6.082 -11.772  0.00  0.00    -0.271 OA
ENDROOT
BRANCH   1  13
ATOM     13  N   UNK d   1       4.818   7.258 -13.503  0.00  0.00    -0.254 N 
ATOM     14  C   UNK d   1       5.546   6.055 -13.511  0.00  0.00     0.270 C 
ATOM     15  O   UNK d   1       4.970   4.955 -13.571  0.00  0.00    -0.266 OA
ATOM     16  H   UNK d   1       5.410   8.146 -13.448  0.00  0.00     0.191 HD
BRANCH  14  17
ATOM     17  C   UNK d   1       6.994   6.049 -13.447  0.00  0.00     0.035 A 
ATOM     18  C   UNK d   1       7.625   5.196 -12.545  0.00  0.00     0.036 A 
ATOM     19  C   UNK d   1       8.994   5.153 -12.455  0.00  0.00     0.011 A 
ATOM     20 Br   UNK d   1       9.790   3.967 -11.197  0.00  0.00    -0.051 Br
ATOM     21  C   UNK d   1       9.791   5.959 -13.260  0.00  0.00     0.019 A 
ATOM     22  C   UNK d   1       9.145   6.792 -14.141  0.00  0.00     0.002 A 
ATOM     23  C   UNK d   1       7.772   6.839 -14.236  0.00  0.00     0.017 A 
ENDBRANCH  14  17
ENDBRANCH   1  13
TORSDOF 2
ENDMDL
