/Users/jonathanwahrer/Desktop/Msc/3_Semester/Drug_Design_Praktikum/waehrer_HTS_screening/HTS_experiment/out/docking_results/vina_output/6q9y/0141_docked.pdbqt
 OpenBabel03222219053D

 23 26  0  0  1  0  0  0  0  0999 V2000
    3.4150    7.3670  -13.5570 N   0  0  0  0  0  0  0  0  0  0  0  0
    2.7780    8.3010  -14.4500 C   0  0  0  0  0  0  0  0  0  0  0  0
    3.3310    9.1070  -15.2630 O   0  0  0  0  0  0  0  0  0  0  0  0
    1.3410    8.1850  -14.2820 C   0  0  1  0  0  3  0  0  0  0  0  0
    1.0940    6.8230  -13.6050 C   0  0  2  0  0  3  0  0  0  0  0  0
    0.0020    7.0530  -12.6130 C   0  0  2  0  0  3  0  0  0  0  0  0
   -0.6160    8.3720  -13.1200 C   0  0  0  0  0  2  0  0  0  0  0  0
    0.7540    9.0790  -13.2000 C   0  0  1  0  0  3  0  0  0  0  0  0
    1.2880    8.7030  -11.8600 C   0  0  0  0  0  2  0  0  0  0  0  0
    0.6520    7.6270  -11.3790 C   0  0  0  0  0  2  0  0  0  0  0  0
    2.4050    6.6970  -12.8550 C   0  0  0  0  0  0  0  0  0  0  0  0
    2.5340    6.0820  -11.7720 O   0  0  0  0  0  0  0  0  0  0  0  0
    4.8180    7.2580  -13.5030 N   0  0  0  0  0  0  0  0  0  0  0  0
    5.5460    6.0550  -13.5110 C   0  0  0  0  0  0  0  0  0  0  0  0
    4.9700    4.9550  -13.5710 O   0  0  0  0  0  0  0  0  0  0  0  0
    5.4100    8.1460  -13.4480 H   0  0  0  0  0  0  0  0  0  0  0  0
    6.9940    6.0490  -13.4470 C   0  0  0  0  0  0  0  0  0  0  0  0
    7.6250    5.1960  -12.5450 C   0  0  0  0  0  3  0  0  0  0  0  0
    8.9940    5.1530  -12.4550 C   0  0  0  0  0  0  0  0  0  0  0  0
    9.7900    3.9670  -11.1970 Br  0  0  0  0  0  0  0  0  0  0  0  0
    9.7910    5.9590  -13.2600 C   0  0  0  0  0  3  0  0  0  0  0  0
    9.1450    6.7920  -14.1410 C   0  0  0  0  0  3  0  0  0  0  0  0
    7.7720    6.8390  -14.2360 C   0  0  0  0  0  3  0  0  0  0  0  0
  1 13  1  0  0  0  0
  1 11  1  0  0  0  0
  2  1  1  0  0  0  0
  3  2  2  0  0  0  0
  4  2  1  1  0  0  0
  4  5  1  0  0  0  0
  4  8  1  0  0  0  0
  5 11  1  1  0  0  0
  5  6  1  0  0  0  0
  6  7  1  6  0  0  0
  6 10  1  0  0  0  0
  8  7  1  1  0  0  0
  8  9  1  0  0  0  0
  9 10  1  0  0  0  0
 11 12  2  0  0  0  0
 13 16  1  0  0  0  0
 14 13  1  0  0  0  0
 14 17  1  0  0  0  0
 15 14  2  0  0  0  0
 17 18  1  0  0  0  0
 18 19  2  0  0  0  0
 19 20  1  0  0  0  0
 21 19  1  0  0  0  0
 22 21  2  0  0  0  0
 23 22  1  0  0  0  0
 23 17  2  0  0  0  0
M  END
>  <Pose>
1

>  <Score>
-8.045

$$$$
