MODEL 1
REMARK VINA RESULT:    -8.792      0.000      0.000
REMARK INTER + INTRA:         -10.782
REMARK INTER:                 -10.334
REMARK INTRA:                  -0.449
REMARK UNBOUND:                -0.449
REMARK  3 active torsions:
REMARK  status: ('A' for Active; 'I' for Inactive)
REMARK    1  A    between atoms: C_4  and  C_8 
REMARK    2  A    between atoms: C_16  and  C_17 
REMARK    3  A    between atoms: C_17  and  N_18 
ROOT
ATOM      1  C   UNK d   1      -1.634  11.937 -13.362  0.00  0.00     0.053 C 
ATOM      2  C   UNK d   1      -1.833  10.650 -13.670  0.00  0.00     0.127 A 
ATOM      3  O   UNK d   1      -0.927   9.675 -13.608  0.00  0.00    -0.305 OA
ATOM      4  C   UNK d   1      -1.519   8.442 -13.980  0.00  0.00     0.101 A 
ATOM      5  C   UNK d   1      -2.827   8.606 -14.287  0.00  0.00     0.051 A 
ATOM      6  C   UNK d   1      -3.574   7.473 -14.601  0.00  0.00     0.021 A 
ATOM      7  C   UNK d   1      -2.991   6.245 -14.620  0.00  0.00     0.041 A 
ATOM      8  C   UNK d   1      -1.647   6.114 -14.333  0.00  0.00     0.118 A 
ATOM      9  C   UNK d   1      -0.851   7.186 -14.008  0.00  0.00     0.039 A 
ATOM     10  O   UNK d   1      -1.091   4.834 -14.376  0.00  0.00    -0.191 OA
ATOM     11  C   UNK d   1      -3.100  10.053 -14.112  0.00  0.00     0.218 A 
ATOM     12  O   UNK d   1      -4.181  10.637 -14.308  0.00  0.00    -0.284 OA
ENDROOT
BRANCH   1  13
ATOM     13  C   UNK d   1      -0.299  12.391 -12.887  0.00  0.00    -0.032 A 
ATOM     14  C   UNK d   1      -0.144  13.716 -12.453  0.00  0.00     0.030 A 
ATOM     15  C   UNK d   1       1.120  14.311 -12.342  0.00  0.00     0.011 A 
ATOM     16 Br   UNK d   1       1.200  16.128 -11.765  0.00  0.00    -0.051 Br
ATOM     17  C   UNK d   1       2.236  13.621 -12.645  0.00  0.00     0.019 A 
ATOM     18  C   UNK d   1       2.125  12.275 -13.084  0.00  0.00     0.002 A 
ATOM     19  C   UNK d   1       0.840  11.700 -13.187  0.00  0.00     0.011 A 
ENDBRANCH   1  13
BRANCH   9  20
ATOM     20  C   UNK d   1       0.587   7.304 -14.137  0.00  0.00     0.279 C 
BRANCH  20  21
ATOM     21  N   UNK d   1       1.618   8.109 -13.814  0.00  0.00    -0.063 N 
ATOM     22  C   UNK d   1       2.850   7.734 -13.271  0.00  0.00     0.261 C 
ATOM     23  C   UNK d   1       3.967   7.550 -14.322  0.00  0.00     0.195 C 
ATOM     24  O   UNK d   1       4.317   8.717 -14.958  0.00  0.00    -0.388 OA
ATOM     25  C   UNK d   1       3.168   9.479 -15.202  0.00  0.00     0.195 C 
ATOM     26  C   UNK d   1       1.960   8.701 -15.211  0.00  0.00     0.261 C 
ATOM     27  H   UNK d   1       1.244   8.979 -13.276  0.00  0.00     0.280 HD
ENDBRANCH  20  21
ENDBRANCH   9  20
TORSDOF 3
ENDMDL
