MODEL 1
REMARK VINA RESULT:    -8.573      0.000      0.000
REMARK INTER + INTRA:         -12.941
REMARK INTER:                 -11.830
REMARK INTRA:                  -1.111
REMARK UNBOUND:                -1.111
REMARK  7 active torsions:
REMARK  status: ('A' for Active; 'I' for Inactive)
REMARK    1  A    between atoms: C_4  and  C_8 
REMARK    2  A    between atoms: N_9  and  N_10 
REMARK       I    between atoms: N_10  and  C_11 
REMARK    3  A    between atoms: C_11  and  C_13 
REMARK    4  A    between atoms: N_16  and  C_26 
REMARK    5  A    between atoms: C_17  and  C_18 
REMARK    6  A    between atoms: C_18  and  N_19 
REMARK    7  A    between atoms: C_30  and  N_31 
ROOT
ATOM      1  C   UNK d   1      -0.119   6.324 -13.070  0.00  0.00     0.169 A 
ATOM      2  N   UNK d   1      -0.812   5.375 -13.598  0.00  0.00    -0.152 NA
ATOM      3  N   UNK d   1      -1.853   5.881 -14.251  0.00  0.00     0.012 NA
ATOM      4  N   UNK d   1      -1.828   7.234 -14.125  0.00  0.00    -0.215 N 
ATOM      5  C   UNK d   1      -0.781   7.559 -13.442  0.00  0.00     0.087 A 
ENDROOT
BRANCH   1   6
ATOM      6  C   UNK d   1       1.037   6.300 -12.080  0.00  0.00     0.293 C 
ATOM      7  N   UNK d   1       2.200   5.775 -12.564  0.00  0.00    -0.242 N 
ATOM      8  H   UNK d   1       1.949   5.599 -13.749  0.00  0.00     0.192 HD
ATOM      9  O   UNK d   1       0.814   6.771 -10.944  0.00  0.00    -0.264 OA
BRANCH   7  10
ATOM     10  N   UNK d   1       3.458   5.399 -12.490  0.00  0.00    -0.183 NA
ATOM     11  C   UNK d   1       4.454   5.775 -13.241  0.00  0.00     0.150 C 
BRANCH  11  12
ATOM     12  C   UNK d   1       5.825   5.258 -13.065  0.00  0.00    -0.016 A 
ATOM     13  C   UNK d   1       6.925   6.022 -12.722  0.00  0.00     0.032 A 
ATOM     14  C   UNK d   1       8.137   5.389 -12.452  0.00  0.00     0.011 A 
ATOM     15 Br   UNK d   1       9.692   6.380 -11.925  0.00  0.00    -0.051 Br
ATOM     16  C   UNK d   1       8.311   4.011 -12.506  0.00  0.00     0.019 A 
ATOM     17  C   UNK d   1       7.189   3.309 -12.863  0.00  0.00     0.002 A 
ATOM     18  C   UNK d   1       5.983   3.886 -13.133  0.00  0.00     0.013 A 
ENDBRANCH  11  12
ENDBRANCH   7  10
ENDBRANCH   1   6
BRANCH   5  19
ATOM     19  C   UNK d   1      -0.153   8.807 -13.019  0.00  0.00     0.178 C 
BRANCH  19  20
ATOM     20  N   UNK d   1       0.337   9.759 -13.907  0.00  0.00    -0.404 N 
ATOM     21  C   UNK d   1       0.339  11.099 -13.985  0.00  0.00     0.136 C 
ATOM     22  C   UNK d   1       1.783  11.604 -13.716  0.00  0.00     0.135 C 
ATOM     23  N   UNK d   1       2.437  10.613 -12.938  0.00  0.00    -0.414 N 
ATOM     24  C   UNK d   1       2.706   9.442 -13.717  0.00  0.00     0.135 C 
ATOM     25  C   UNK d   1       3.418  10.993 -12.011  0.00  0.00     0.143 C 
ATOM     26  C   UNK d   1       1.513   9.225 -14.656  0.00  0.00     0.136 C 
ENDBRANCH  19  20
ENDBRANCH   5  19
BRANCH   4  27
ATOM     27  C   UNK d   1      -3.087   7.934 -14.339  0.00  0.00     0.225 A 
ATOM     28  N   UNK d   1      -4.174   7.060 -14.710  0.00  0.00    -0.081 NA
ATOM     29  O   UNK d   1      -5.227   7.706 -14.888  0.00  0.00    -0.103 OA
ATOM     30  N   UNK d   1      -4.993   8.966 -14.685  0.00  0.00    -0.083 NA
ATOM     31  C   UNK d   1      -3.648   9.092 -14.339  0.00  0.00     0.201 A 
BRANCH  31  32
ATOM     32  N   UNK d   1      -3.126  10.371 -14.056  0.00  0.00    -0.379 N 
ATOM     33  H   UNK d   1      -2.924  10.944 -14.948  0.00  0.00     0.158 HD
ATOM     34  H   UNK d   1      -2.912  10.836 -13.195  0.00  0.00     0.158 HD
ENDBRANCH  31  32
ENDBRANCH   4  27
TORSDOF 7
ENDMDL
