MODEL 1
REMARK VINA RESULT:    -8.504      0.000      0.000
REMARK INTER + INTRA:         -11.834
REMARK INTER:                 -10.989
REMARK INTRA:                  -0.845
REMARK UNBOUND:                -0.845
REMARK  5 active torsions:
REMARK  status: ('A' for Active; 'I' for Inactive)
REMARK    1  A    between atoms: C_4  and  C_8 
REMARK    2  A    between atoms: N_9  and  N_10 
REMARK    3  A    between atoms: N_10  and  C_11 
REMARK    4  A    between atoms: C_13  and  N_23 
REMARK    5  A    between atoms: C_15  and  N_17 
ROOT
ATOM      1  C   UNK d   1       2.204   9.964 -14.494  0.00  0.00     0.774 A 
ATOM      2  N   UNK d   1       2.097  11.186 -13.964  0.00  0.00     0.133 NA
ATOM      3  C   UNK d   1       0.994  11.608 -13.285  0.00  0.00     0.756 A 
ATOM      4  N   UNK d   1      -0.004  10.705 -13.176  0.00  0.00     0.131 NA
ATOM      5  C   UNK d   1       0.044   9.462 -13.686  0.00  0.00     0.756 A 
ATOM      6  N   UNK d   1       1.180   9.126 -14.346  0.00  0.00     0.133 NA
ENDROOT
BRANCH   1   7
ATOM      7  N   UNK d   1       3.386   9.588 -15.191  0.00  0.00    -0.105 N 
ATOM      8  H   UNK d   1       3.784  10.208 -15.926  0.00  0.00     0.208 HD
BRANCH   7   9
ATOM      9  N   UNK d   1       4.044   8.386 -14.915  0.00  0.00    -0.172 NA
ATOM     10  C   UNK d   1       4.902   8.221 -13.988  0.00  0.00     0.150 C 
BRANCH  10  11
ATOM     11  C   UNK d   1       5.575   6.955 -13.725  0.00  0.00    -0.016 A 
ATOM     12  C   UNK d   1       4.874   5.776 -13.542  0.00  0.00     0.032 A 
ATOM     13  C   UNK d   1       5.479   4.568 -13.293  0.00  0.00     0.011 A 
ATOM     14 Br   UNK d   1       4.450   2.970 -13.051  0.00  0.00    -0.051 Br
ATOM     15  C   UNK d   1       6.856   4.519 -13.217  0.00  0.00     0.019 A 
ATOM     16  C   UNK d   1       7.598   5.667 -13.391  0.00  0.00     0.002 A 
ATOM     17  C   UNK d   1       6.948   6.873 -13.642  0.00  0.00     0.013 A 
ENDBRANCH  10  11
ENDBRANCH   7   9
ENDBRANCH   1   7
BRANCH   3  18
ATOM     18  N   UNK d   1       0.904  12.905 -12.735  0.00  0.00    -0.209 N 
ATOM     19  C   UNK d   1       2.034  13.506 -12.082  0.00  0.00     0.167 C 
ATOM     20  C   UNK d   1       2.266  14.856 -12.750  0.00  0.00     0.188 C 
ATOM     21  O   UNK d   1       1.098  15.591 -12.560  0.00  0.00    -0.388 OA
ATOM     22  C   UNK d   1       0.030  15.073 -13.271  0.00  0.00     0.188 C 
ATOM     23  C   UNK d   1      -0.316  13.661 -12.812  0.00  0.00     0.167 C 
ENDBRANCH   3  18
BRANCH   5  24
ATOM     24  N   UNK d   1      -1.009   8.541 -13.557  0.00  0.00    -0.209 N 
ATOM     25  C   UNK d   1      -2.359   8.867 -13.930  0.00  0.00     0.167 C 
ATOM     26  C   UNK d   1      -2.939   7.592 -14.558  0.00  0.00     0.188 C 
ATOM     27  O   UNK d   1      -1.920   6.815 -15.103  0.00  0.00    -0.388 OA
ATOM     28  C   UNK d   1      -1.088   6.246 -14.173  0.00  0.00     0.188 C 
ATOM     29  C   UNK d   1      -0.755   7.227 -13.040  0.00  0.00     0.167 C 
ENDBRANCH   5  24
TORSDOF 5
ENDMDL
