MODEL 1
REMARK VINA RESULT:    -8.526      0.000      0.000
REMARK INTER + INTRA:         -11.797
REMARK INTER:                 -12.015
REMARK INTRA:                   0.218
REMARK UNBOUND:                 0.218
REMARK  7 active torsions:
REMARK  status: ('A' for Active; 'I' for Inactive)
REMARK    1  A    between atoms: C_4  and  C_8 
REMARK    2  A    between atoms: N_9  and  C_29 
REMARK    3  A    between atoms: C_15  and  C_17 
REMARK    4  A    between atoms: N_19  and  C_22 
REMARK    5  A    between atoms: C_29  and  C_30 
REMARK    6  A    between atoms: C_30  and  C_31 
REMARK    7  A    between atoms: C_31  and  N_32 
ROOT
ATOM      1  C   UNK d   1       1.170  11.389 -13.869  0.00  0.00     0.161 C 
ATOM      2  N   UNK d   1       1.342  12.369 -12.862  0.00  0.00    -0.332 N 
ATOM      3  C   UNK d   1       2.510  12.084 -12.111  0.00  0.00     0.295 C 
ATOM      4  O   UNK d   1       2.887  12.723 -11.080  0.00  0.00    -0.264 OA
ATOM      5  C   UNK d   1       3.188  10.961 -12.722  0.00  0.00     0.250 C 
ATOM      6  O   UNK d   1       4.260  10.497 -12.249  0.00  0.00    -0.282 OA
ATOM      7  C   UNK d   1       2.403  10.558 -13.873  0.00  0.00     0.062 C 
ATOM      8  C   UNK d   1       2.735   9.594 -14.702  0.00  0.00     0.133 C 
ATOM      9  O   UNK d   1       1.872   9.259 -15.720  0.00  0.00    -0.190 OA
ENDROOT
BRANCH   1  10
ATOM     10  C   UNK d   1      -0.034  10.589 -13.624  0.00  0.00    -0.029 A 
ATOM     11  C   UNK d   1       0.113   9.230 -13.403  0.00  0.00     0.028 A 
ATOM     12  C   UNK d   1      -0.897   8.355 -13.144  0.00  0.00     0.011 A 
ATOM     13 Br   UNK d   1      -0.636   6.487 -12.846  0.00  0.00    -0.051 Br
ATOM     14  C   UNK d   1      -2.195   8.890 -13.099  0.00  0.00     0.019 A 
ATOM     15  C   UNK d   1      -2.375  10.245 -13.316  0.00  0.00     0.002 A 
ATOM     16  C   UNK d   1      -1.326  11.105 -13.576  0.00  0.00     0.009 A 
ENDBRANCH   1  10
BRANCH   8  17
ATOM     17  C   UNK d   1       3.986   8.890 -14.568  0.00  0.00     0.045 A 
ATOM     18  C   UNK d   1       4.119   7.637 -13.944  0.00  0.00     0.047 A 
ATOM     19  N   UNK d   1       5.396   7.244 -14.019  0.00  0.00    -0.238 N 
ATOM     20  C   UNK d   1       2.986   6.899 -13.314  0.00  0.00     0.071 C 
ATOM     21  N   UNK d   1       6.056   8.192 -14.658  0.00  0.00    -0.179 NA
ATOM     22  C   UNK d   1       5.243   9.200 -15.007  0.00  0.00     0.155 A 
BRANCH  19  23
ATOM     23  C   UNK d   1       5.954   6.034 -13.526  0.00  0.00     0.058 A 
ATOM     24  C   UNK d   1       7.198   6.074 -12.911  0.00  0.00     0.031 A 
ATOM     25  C   UNK d   1       7.795   4.939 -12.399  0.00  0.00     0.002 A 
ATOM     26  C   UNK d   1       7.165   3.697 -12.481  0.00  0.00     0.000 A 
ATOM     27  C   UNK d   1       5.925   3.657 -13.094  0.00  0.00     0.002 A 
ATOM     28  C   UNK d   1       5.354   4.798 -13.594  0.00  0.00     0.031 A 
ENDBRANCH  19  23
ENDBRANCH   8  17
BRANCH   2  29
ATOM     29  C   UNK d   1       0.471  13.551 -12.608  0.00  0.00     0.129 C 
BRANCH  29  30
ATOM     30  C   UNK d   1       1.286  14.814 -12.725  0.00  0.00     0.048 C 
BRANCH  30  31
ATOM     31  C   UNK d   1       0.564  16.035 -12.250  0.00  0.00     0.235 C 
BRANCH  31  32
ATOM     32  N   UNK d   1      -0.745  16.239 -12.774  0.00  0.00    -0.079 N 
ATOM     33  C   UNK d   1      -1.458  17.371 -12.282  0.00  0.00     0.269 C 
ATOM     34  C   UNK d   1      -0.692  16.350 -14.241  0.00  0.00     0.269 C 
ATOM     35  H   UNK d   1      -1.336  15.369 -12.602  0.00  0.00     0.278 HD
ENDBRANCH  31  32
ENDBRANCH  30  31
ENDBRANCH  29  30
ENDBRANCH   2  29
TORSDOF 7
ENDMDL
