MODEL 1
REMARK VINA RESULT:    -7.757      0.000      0.000
REMARK INTER + INTRA:         -12.343
REMARK INTER:                 -10.931
REMARK INTRA:                  -1.412
REMARK UNBOUND:                -1.412
REMARK  7 active torsions:
REMARK  status: ('A' for Active; 'I' for Inactive)
REMARK    1  A    between atoms: C_4  and  C_8 
REMARK    2  A    between atoms: N_9  and  C_28 
REMARK    3  A    between atoms: C_15  and  C_17 
REMARK    4  A    between atoms: C_20  and  C_23 
REMARK    5  A    between atoms: C_23  and  O_25 
REMARK    6  A    between atoms: C_28  and  C_29 
REMARK    7  A    between atoms: C_29  and  N_30 
ROOT
ATOM      1  C   UNK d   1       2.596   9.051 -12.609  0.00  0.00     0.161 C 
ATOM      2  N   UNK d   1       3.589   8.591 -13.562  0.00  0.00    -0.331 N 
ATOM      3  C   UNK d   1       3.012   8.761 -14.848  0.00  0.00     0.295 C 
ATOM      4  O   UNK d   1       3.611   8.917 -15.936  0.00  0.00    -0.264 OA
ATOM      5  C   UNK d   1       1.544   8.724 -14.668  0.00  0.00     0.250 C 
ATOM      6  O   UNK d   1       0.668   8.830 -15.553  0.00  0.00    -0.282 OA
ATOM      7  C   UNK d   1       1.333   8.530 -13.240  0.00  0.00     0.062 C 
ATOM      8  C   UNK d   1       0.291   7.983 -12.692  0.00  0.00     0.132 C 
ATOM      9  O   UNK d   1       0.287   7.820 -11.291  0.00  0.00    -0.190 OA
ENDROOT
BRANCH   1  10
ATOM     10  C   UNK d   1       2.599  10.533 -12.610  0.00  0.00    -0.029 A 
ATOM     11  C   UNK d   1       1.428  11.264 -12.757  0.00  0.00     0.028 A 
ATOM     12  C   UNK d   1       1.424  12.643 -12.767  0.00  0.00     0.011 A 
ATOM     13 Br   UNK d   1      -0.222  13.585 -12.973  0.00  0.00    -0.051 Br
ATOM     14  C   UNK d   1       2.591  13.362 -12.632  0.00  0.00     0.019 A 
ATOM     15  C   UNK d   1       3.767  12.659 -12.485  0.00  0.00     0.002 A 
ATOM     16  C   UNK d   1       3.760  11.280 -12.475  0.00  0.00     0.009 A 
ENDBRANCH   1  10
BRANCH   8  17
ATOM     17  C   UNK d   1      -0.894   7.517 -13.398  0.00  0.00     0.032 A 
ATOM     18  C   UNK d   1      -1.279   6.313 -13.883  0.00  0.00     0.019 A 
ATOM     19  N   UNK d   1      -2.516   6.445 -14.406  0.00  0.00    -0.354 N 
ATOM     20  C   UNK d   1      -0.492   5.035 -13.910  0.00  0.00     0.069 C 
ATOM     21  C   UNK d   1      -2.963   7.702 -14.285  0.00  0.00     0.115 A 
ATOM     22  H   UNK d   1      -3.056   5.650 -14.856  0.00  0.00     0.166 HD
ATOM     23  C   UNK d   1      -1.965   8.397 -13.656  0.00  0.00    -0.014 A 
ATOM     24  C   UNK d   1      -2.013   9.848 -13.305  0.00  0.00     0.052 C 
BRANCH  21  25
ATOM     25  C   UNK d   1      -4.265   8.231 -14.737  0.00  0.00     0.310 C 
ATOM     26  O   UNK d   1      -4.546   8.196 -15.944  0.00  0.00    -0.258 OA
BRANCH  25  27
ATOM     27  O   UNK d   1      -5.164   8.760 -13.832  0.00  0.00    -0.321 OA
ATOM     28  C   UNK d   1      -5.710  10.055 -13.935  0.00  0.00     0.213 C 
ENDBRANCH  25  27
ENDBRANCH  21  25
ENDBRANCH   8  17
BRANCH   2  29
ATOM     29  C   UNK d   1       4.920   8.054 -13.270  0.00  0.00     0.155 C 
BRANCH  29  30
ATOM     30  C   UNK d   1       4.986   6.571 -13.561  0.00  0.00     0.255 C 
BRANCH  30  31
ATOM     31  N   UNK d   1       6.181   5.942 -13.100  0.00  0.00    -0.066 N 
ATOM     32  C   UNK d   1       7.401   6.530 -13.639  0.00  0.00     0.261 C 
ATOM     33  C   UNK d   1       8.539   6.103 -12.752  0.00  0.00     0.195 C 
ATOM     34  O   UNK d   1       8.196   4.947 -12.096  0.00  0.00    -0.388 OA
ATOM     35  C   UNK d   1       7.559   4.008 -12.888  0.00  0.00     0.195 C 
ATOM     36  C   UNK d   1       6.243   4.531 -13.461  0.00  0.00     0.261 C 
ATOM     37  H   UNK d   1       6.204   5.965 -12.065  0.00  0.00     0.280 HD
ENDBRANCH  30  31
ENDBRANCH  29  30
ENDBRANCH   2  29
TORSDOF 7
ENDMDL
