MODEL 1
REMARK VINA RESULT:    -8.247      0.000      0.000
REMARK INTER + INTRA:         -12.890
REMARK INTER:                 -11.622
REMARK INTRA:                  -1.268
REMARK UNBOUND:                -1.268
REMARK  7 active torsions:
REMARK  status: ('A' for Active; 'I' for Inactive)
REMARK    1  A    between atoms: C_4  and  C_8 
REMARK    2  A    between atoms: N_9  and  C_26 
REMARK    3  A    between atoms: C_15  and  C_17 
REMARK    4  A    between atoms: C_20  and  O_23 
REMARK    5  A    between atoms: C_26  and  C_27 
REMARK    6  A    between atoms: C_27  and  C_28 
REMARK    7  A    between atoms: C_28  and  N_29 
ROOT
ATOM      1  C   UNK d   1       2.463   7.547 -13.964  0.00  0.00     0.161 C 
ATOM      2  N   UNK d   1       1.530   6.792 -13.151  0.00  0.00    -0.332 N 
ATOM      3  C   UNK d   1       1.360   7.400 -11.889  0.00  0.00     0.295 C 
ATOM      4  O   UNK d   1       0.909   6.945 -10.807  0.00  0.00    -0.264 OA
ATOM      5  C   UNK d   1       1.843   8.795 -12.048  0.00  0.00     0.250 C 
ATOM      6  O   UNK d   1       1.838   9.635 -11.126  0.00  0.00    -0.282 OA
ATOM      7  C   UNK d   1       2.285   8.939 -13.423  0.00  0.00     0.062 C 
ATOM      8  C   UNK d   1       2.440  10.069 -14.064  0.00  0.00     0.130 C 
ATOM      9  O   UNK d   1       2.808  10.044 -15.420  0.00  0.00    -0.190 OA
ENDROOT
BRANCH   1  10
ATOM     10  C   UNK d   1       3.855   7.084 -13.833  0.00  0.00    -0.029 A 
ATOM     11  C   UNK d   1       4.165   5.774 -13.544  0.00  0.00     0.028 A 
ATOM     12  C   UNK d   1       5.486   5.357 -13.424  0.00  0.00     0.011 A 
ATOM     13 Br   UNK d   1       5.892   3.540 -13.021  0.00  0.00    -0.051 Br
ATOM     14  C   UNK d   1       6.516   6.268 -13.598  0.00  0.00     0.019 A 
ATOM     15  C   UNK d   1       6.195   7.577 -13.888  0.00  0.00     0.002 A 
ATOM     16  C   UNK d   1       4.882   7.985 -14.006  0.00  0.00     0.009 A 
ENDBRANCH   1  10
BRANCH   8  17
ATOM     17  C   UNK d   1       2.254  11.347 -13.429  0.00  0.00     0.002 A 
ATOM     18  C   UNK d   1       0.951  11.867 -13.427  0.00  0.00     0.024 A 
ATOM     19  C   UNK d   1       0.690  13.093 -12.882  0.00  0.00    -0.028 A 
ATOM     20  C   UNK d   1       1.689  13.873 -12.313  0.00  0.00     0.074 A 
ATOM     21  C   UNK d   1      -0.708  13.633 -12.889  0.00  0.00     0.051 C 
ATOM     22  C   UNK d   1       2.944  13.349 -12.327  0.00  0.00     0.038 A 
ATOM     23  C   UNK d   1       3.226  12.114 -12.874  0.00  0.00     0.017 A 
BRANCH  20  24
ATOM     24  O   UNK d   1       1.342  15.099 -11.784  0.00  0.00    -0.355 OA
ATOM     25  C   UNK d   1       1.925  16.296 -12.277  0.00  0.00     0.210 C 
ENDBRANCH  20  24
ENDBRANCH   8  17
BRANCH   2  26
ATOM     26  C   UNK d   1       0.832   5.562 -13.558  0.00  0.00     0.129 C 
BRANCH  26  27
ATOM     27  C   UNK d   1      -0.650   5.808 -13.605  0.00  0.00     0.048 C 
BRANCH  27  28
ATOM     28  C   UNK d   1      -1.068   7.002 -14.394  0.00  0.00     0.236 C 
BRANCH  28  29
ATOM     29  N   UNK d   1      -2.129   7.765 -13.776  0.00  0.00    -0.067 N 
ATOM     30  C   UNK d   1      -1.659   9.048 -13.292  0.00  0.00     0.261 C 
ATOM     31  C   UNK d   1      -2.318  10.176 -14.039  0.00  0.00     0.195 C 
ATOM     32  O   UNK d   1      -3.705  10.091 -13.805  0.00  0.00    -0.388 OA
ATOM     33  C   UNK d   1      -4.221   8.916 -14.346  0.00  0.00     0.195 C 
ATOM     34  C   UNK d   1      -3.175   7.943 -14.788  0.00  0.00     0.261 C 
ATOM     35  H   UNK d   1      -2.596   7.265 -12.991  0.00  0.00     0.280 HD
ENDBRANCH  28  29
ENDBRANCH  27  28
ENDBRANCH  26  27
ENDBRANCH   2  26
TORSDOF 7
ENDMDL
