/Users/jonathanwahrer/Desktop/Msc/3_Semester/Drug_Design_Praktikum/waehrer_HTS_screening/HTS_experiment/out/docking_results/vina_output/6q9y/0176_docked.pdbqt
 OpenBabel03222219083D

 33 36  0  0  1  0  0  0  0  0999 V2000
    2.2990    8.1140  -12.8430 C   0  0  1  0  0  3  0  0  0  0  0  0
    2.9910    9.0590  -13.7050 N   0  0  0  0  0  0  0  0  0  0  0  0
    2.3940    8.9470  -15.0140 C   0  0  0  0  0  0  0  0  0  0  0  0
    2.9250    9.3490  -16.0790 O   0  0  0  0  0  0  0  0  0  0  0  0
    1.1100    8.3020  -14.8400 C   0  0  0  0  0  0  0  0  0  0  0  0
    0.2540    8.0040  -15.7310 O   0  0  0  0  0  0  0  0  0  0  0  0
    0.9430    8.0310  -13.4190 C   0  0  0  0  0  0  0  0  0  0  0  0
   -0.2030    7.7370  -12.8230 C   0  0  0  0  0  0  0  0  0  0  0  0
   -0.0820    7.4630  -11.4450 O   0  0  0  0  0  1  0  0  0  0  0  0
    4.1160    9.8550  -13.3340 C   0  0  0  0  0  2  0  0  0  0  0  0
    4.0150   11.3230  -13.4010 C   0  0  0  0  0  2  0  0  0  0  0  0
    3.9440   12.1230  -12.1540 C   0  0  0  0  0  2  0  0  0  0  0  0
    2.6710   12.5960  -11.7260 N   0  0  0  0  0  4  0  0  0  0  0  0
    2.7570   13.9570  -11.2610 C   0  0  0  0  0  2  0  0  0  0  0  0
    2.4610   14.9780  -12.3390 C   0  0  0  0  0  2  0  0  0  0  0  0
    1.1290   14.8740  -12.7450 O   0  0  0  0  0  0  0  0  0  0  0  0
    0.6370   13.5890  -12.5120 C   0  0  0  0  0  2  0  0  0  0  0  0
    1.7280   12.6240  -12.8860 C   0  0  0  0  0  2  0  0  0  0  0  0
    2.2120   11.9690  -11.0700 H   0  0  0  0  0  0  0  0  0  0  0  0
    3.0040    6.8080  -12.8230 C   0  0  0  0  0  0  0  0  0  0  0  0
    4.3550    6.7470  -13.0810 C   0  0  0  0  0  3  0  0  0  0  0  0
    5.0570    5.5490  -13.0760 C   0  0  0  0  0  0  0  0  0  0  0  0
    6.9220    5.4530  -13.4260 Br  0  0  0  0  0  0  0  0  0  0  0  0
    4.3990    4.3680  -12.8050 C   0  0  0  0  0  3  0  0  0  0  0  0
    3.0490    4.4270  -12.5470 C   0  0  0  0  0  3  0  0  0  0  0  0
    2.3510    5.6430  -12.5540 C   0  0  0  0  0  3  0  0  0  0  0  0
   -1.4960    7.6920  -13.4860 C   0  0  0  0  0  0  0  0  0  0  0  0
   -2.0880    6.5630  -14.0010 C   0  0  0  0  0  3  0  0  0  0  0  0
   -3.3360    6.5750  -14.5910 C   0  0  0  0  0  3  0  0  0  0  0  0
   -4.0520    7.7470  -14.6900 C   0  0  0  0  0  0  0  0  0  0  0  0
   -3.4730    8.8910  -14.1780 C   0  0  0  0  0  3  0  0  0  0  0  0
   -5.6510    7.7880  -15.4390 Cl  0  0  0  0  0  0  0  0  0  0  0  0
   -2.2240    8.8690  -13.5900 C   0  0  0  0  0  3  0  0  0  0  0  0
  1 20  1  6  0  0  0
  2 10  1  0  0  0  0
  2  1  1  0  0  0  0
  3  5  1  0  0  0  0
  3  2  1  0  0  0  0
  4  3  2  0  0  0  0
  5  7  1  0  0  0  0
  6  5  2  0  0  0  0
  7  1  1  0  0  0  0
  7  8  2  0  0  0  0
  8  9  1  0  0  0  0
 11 10  1  0  0  0  0
 11 12  1  0  0  0  0
 12 13  1  0  0  0  0
 13 14  1  0  0  0  0
 13 19  1  0  0  0  0
 15 14  1  0  0  0  0
 16 17  1  0  0  0  0
 16 15  1  0  0  0  0
 18 17  1  0  0  0  0
 18 13  1  0  0  0  0
 20 26  1  0  0  0  0
 21 22  1  0  0  0  0
 21 20  2  0  0  0  0
 22 24  2  0  0  0  0
 23 22  1  0  0  0  0
 24 25  1  0  0  0  0
 26 25  2  0  0  0  0
 27  8  1  0  0  0  0
 28 27  2  0  0  0  0
 29 28  1  0  0  0  0
 30 29  2  0  0  0  0
 30 31  1  0  0  0  0
 31 33  2  0  0  0  0
 32 30  1  0  0  0  0
 33 27  1  0  0  0  0
M  END
>  <Pose>
1

>  <Score>
-8.371

$$$$
