MODEL 1
REMARK VINA RESULT:    -8.371      0.000      0.000
REMARK INTER + INTRA:         -12.029
REMARK INTER:                 -11.307
REMARK INTRA:                  -0.721
REMARK UNBOUND:                -0.721
REMARK  6 active torsions:
REMARK  status: ('A' for Active; 'I' for Inactive)
REMARK    1  A    between atoms: C_4  and  C_8 
REMARK    2  A    between atoms: N_9  and  C_24 
REMARK    3  A    between atoms: C_15  and  C_17 
REMARK    4  A    between atoms: C_24  and  C_25 
REMARK    5  A    between atoms: C_25  and  C_26 
REMARK    6  A    between atoms: C_26  and  N_27 
ROOT
ATOM      1  C   UNK d   1       2.299   8.114 -12.843  0.00  0.00     0.161 C 
ATOM      2  N   UNK d   1       2.991   9.059 -13.705  0.00  0.00    -0.332 N 
ATOM      3  C   UNK d   1       2.394   8.947 -15.014  0.00  0.00     0.295 C 
ATOM      4  O   UNK d   1       2.925   9.349 -16.079  0.00  0.00    -0.264 OA
ATOM      5  C   UNK d   1       1.110   8.302 -14.840  0.00  0.00     0.250 C 
ATOM      6  O   UNK d   1       0.254   8.004 -15.731  0.00  0.00    -0.282 OA
ATOM      7  C   UNK d   1       0.943   8.031 -13.419  0.00  0.00     0.062 C 
ATOM      8  C   UNK d   1      -0.203   7.737 -12.823  0.00  0.00     0.130 C 
ATOM      9  O   UNK d   1      -0.082   7.463 -11.445  0.00  0.00    -0.190 OA
ENDROOT
BRANCH   2  10
ATOM     10  C   UNK d   1       4.116   9.855 -13.334  0.00  0.00     0.129 C 
BRANCH  10  11
ATOM     11  C   UNK d   1       4.015  11.323 -13.401  0.00  0.00     0.048 C 
BRANCH  11  12
ATOM     12  C   UNK d   1       3.944  12.123 -12.154  0.00  0.00     0.236 C 
BRANCH  12  13
ATOM     13  N   UNK d   1       2.671  12.596 -11.726  0.00  0.00    -0.067 N 
ATOM     14  C   UNK d   1       2.757  13.957 -11.261  0.00  0.00     0.261 C 
ATOM     15  C   UNK d   1       2.461  14.978 -12.339  0.00  0.00     0.195 C 
ATOM     16  O   UNK d   1       1.129  14.874 -12.745  0.00  0.00    -0.388 OA
ATOM     17  C   UNK d   1       0.637  13.589 -12.512  0.00  0.00     0.195 C 
ATOM     18  C   UNK d   1       1.728  12.624 -12.886  0.00  0.00     0.261 C 
ATOM     19  H   UNK d   1       2.212  11.969 -11.070  0.00  0.00     0.280 HD
ENDBRANCH  12  13
ENDBRANCH  11  12
ENDBRANCH  10  11
ENDBRANCH   2  10
BRANCH   1  20
ATOM     20  C   UNK d   1       3.004   6.808 -12.823  0.00  0.00    -0.029 A 
ATOM     21  C   UNK d   1       4.355   6.747 -13.081  0.00  0.00     0.028 A 
ATOM     22  C   UNK d   1       5.057   5.549 -13.076  0.00  0.00     0.011 A 
ATOM     23 Br   UNK d   1       6.922   5.453 -13.426  0.00  0.00    -0.051 Br
ATOM     24  C   UNK d   1       4.399   4.368 -12.805  0.00  0.00     0.019 A 
ATOM     25  C   UNK d   1       3.049   4.427 -12.547  0.00  0.00     0.002 A 
ATOM     26  C   UNK d   1       2.351   5.643 -12.554  0.00  0.00     0.009 A 
ENDBRANCH   1  20
BRANCH   8  27
ATOM     27  C   UNK d   1      -1.496   7.692 -13.486  0.00  0.00     0.001 A 
ATOM     28  C   UNK d   1      -2.088   6.563 -14.001  0.00  0.00     0.016 A 
ATOM     29  C   UNK d   1      -3.336   6.575 -14.591  0.00  0.00     0.024 A 
ATOM     30  C   UNK d   1      -4.052   7.747 -14.690  0.00  0.00     0.034 A 
ATOM     31  C   UNK d   1      -3.473   8.891 -14.178  0.00  0.00     0.024 A 
ATOM     32 Cl   UNK d   1      -5.651   7.788 -15.439  0.00  0.00    -0.084 Cl
ATOM     33  C   UNK d   1      -2.224   8.869 -13.590  0.00  0.00     0.016 A 
ENDBRANCH   8  27
TORSDOF 6
ENDMDL
