MODEL 1
REMARK VINA RESULT:    -8.860      0.000      0.000
REMARK INTER + INTRA:         -10.375
REMARK INTER:                 -11.449
REMARK INTRA:                   1.074
REMARK UNBOUND:                 1.074
REMARK  5 active torsions:
REMARK  status: ('A' for Active; 'I' for Inactive)
REMARK    1  A    between atoms: C_4  and  C_8 
REMARK    2  A    between atoms: N_9  and  C_28 
REMARK    3  A    between atoms: C_15  and  C_17 
REMARK    4  A    between atoms: C_28  and  C_29 
REMARK    5  A    between atoms: C_29  and  N_30 
ROOT
ATOM      1  C   UNK d   1       1.865   7.876 -14.288  0.00  0.00     0.161 C 
ATOM      2  N   UNK d   1       3.216   7.617 -13.931  0.00  0.00    -0.331 N 
ATOM      3  C   UNK d   1       3.937   8.771 -14.477  0.00  0.00     0.295 C 
ATOM      4  O   UNK d   1       5.124   8.790 -14.839  0.00  0.00    -0.264 OA
ATOM      5  C   UNK d   1       2.972   9.883 -14.502  0.00  0.00     0.251 C 
ATOM      6  O   UNK d   1       3.159  11.060 -14.886  0.00  0.00    -0.282 OA
ATOM      7  C   UNK d   1       1.728   9.329 -13.973  0.00  0.00     0.064 C 
ATOM      8  C   UNK d   1       0.782   9.979 -13.346  0.00  0.00     0.149 C 
ATOM      9  O   UNK d   1      -0.308   9.221 -12.865  0.00  0.00    -0.189 OA
ENDROOT
BRANCH   1  10
ATOM     10  C   UNK d   1       0.808   7.015 -13.850  0.00  0.00    -0.029 A 
ATOM     11  C   UNK d   1      -0.395   6.973 -14.582  0.00  0.00     0.028 A 
ATOM     12  C   UNK d   1      -1.462   6.188 -14.229  0.00  0.00     0.011 A 
ATOM     13 Br   UNK d   1      -3.067   6.181 -15.275  0.00  0.00    -0.051 Br
ATOM     14  C   UNK d   1      -1.413   5.387 -13.120  0.00  0.00     0.019 A 
ATOM     15  C   UNK d   1      -0.258   5.394 -12.372  0.00  0.00     0.002 A 
ATOM     16  C   UNK d   1       0.802   6.192 -12.746  0.00  0.00     0.009 A 
ENDBRANCH   1  10
BRANCH   8  17
ATOM     17  C   UNK d   1       0.809  11.419 -13.142  0.00  0.00     0.102 A 
ATOM     18  N   UNK d   1       1.698  12.219 -12.535  0.00  0.00    -0.302 N 
ATOM     19  C   UNK d   1       1.260  13.481 -12.564  0.00  0.00     0.140 A 
ATOM     20  C   UNK d   1       2.889  11.874 -11.972  0.00  0.00     0.099 A 
ATOM     21  N   UNK d   1       0.063  13.478 -13.208  0.00  0.00    -0.233 NA
ATOM     22  C   UNK d   1       2.000  14.526 -12.014  0.00  0.00    -0.015 A 
ATOM     23  C   UNK d   1      -0.249  12.230 -13.580  0.00  0.00     0.063 A 
ATOM     24  C   UNK d   1      -1.472  11.790 -14.310  0.00  0.00     0.073 C 
ATOM     25  C   UNK d   1       3.212  14.203 -11.436  0.00  0.00     0.012 A 
ATOM     26  C   UNK d   1       1.463  15.908 -12.073  0.00  0.00     0.052 C 
ATOM     27  C   UNK d   1       3.637  12.888 -11.424  0.00  0.00     0.018 A 
ENDBRANCH   8  17
BRANCH   2  28
ATOM     28  C   UNK d   1       3.903   6.527 -13.260  0.00  0.00     0.155 C 
BRANCH  28  29
ATOM     29  C   UNK d   1       5.258   6.208 -13.789  0.00  0.00     0.255 C 
BRANCH  29  30
ATOM     30  N   UNK d   1       6.258   6.088 -12.747  0.00  0.00    -0.066 N 
ATOM     31  C   UNK d   1       6.847   4.768 -12.728  0.00  0.00     0.261 C 
ATOM     32  C   UNK d   1       7.780   4.603 -13.932  0.00  0.00     0.195 C 
ATOM     33  O   UNK d   1       8.829   5.506 -13.725  0.00  0.00    -0.388 OA
ATOM     34  C   UNK d   1       8.272   6.786 -13.927  0.00  0.00     0.195 C 
ATOM     35  C   UNK d   1       7.265   7.125 -12.853  0.00  0.00     0.261 C 
ATOM     36  H   UNK d   1       5.794   6.219 -11.815  0.00  0.00     0.280 HD
ENDBRANCH  29  30
ENDBRANCH  28  29
ENDBRANCH   2  28
TORSDOF 5
ENDMDL
