/Users/jonathanwahrer/Desktop/Msc/3_Semester/Drug_Design_Praktikum/waehrer_HTS_screening/HTS_experiment/out/docking_results/vina_output/6q9y/0182_docked.pdbqt
 OpenBabel03222219093D

 36 40  0  0  1  0  0  0  0  0999 V2000
    1.8650    7.8760  -14.2880 C   0  0  2  0  0  3  0  0  0  0  0  0
    3.2160    7.6170  -13.9310 N   0  0  0  0  0  0  0  0  0  0  0  0
    3.9370    8.7710  -14.4770 C   0  0  0  0  0  0  0  0  0  0  0  0
    5.1240    8.7900  -14.8390 O   0  0  0  0  0  0  0  0  0  0  0  0
    2.9720    9.8830  -14.5020 C   0  0  0  0  0  0  0  0  0  0  0  0
    3.1590   11.0600  -14.8860 O   0  0  0  0  0  0  0  0  0  0  0  0
    1.7280    9.3290  -13.9730 C   0  0  0  0  0  0  0  0  0  0  0  0
    0.7820    9.9790  -13.3460 C   0  0  0  0  0  0  0  0  0  0  0  0
   -0.3080    9.2210  -12.8650 O   0  0  0  0  0  1  0  0  0  0  0  0
    0.8080    7.0150  -13.8500 C   0  0  0  0  0  0  0  0  0  0  0  0
   -0.3950    6.9730  -14.5820 C   0  0  0  0  0  3  0  0  0  0  0  0
   -1.4620    6.1880  -14.2290 C   0  0  0  0  0  0  0  0  0  0  0  0
   -3.0670    6.1810  -15.2750 Br  0  0  0  0  0  0  0  0  0  0  0  0
   -1.4130    5.3870  -13.1200 C   0  0  0  0  0  3  0  0  0  0  0  0
   -0.2580    5.3940  -12.3720 C   0  0  0  0  0  3  0  0  0  0  0  0
    0.8020    6.1920  -12.7460 C   0  0  0  0  0  3  0  0  0  0  0  0
    0.8090   11.4190  -13.1420 C   0  0  0  0  0  0  0  0  0  0  0  0
    1.6980   12.2190  -12.5350 N   0  0  0  0  0  0  0  0  0  0  0  0
    1.2600   13.4810  -12.5640 C   0  0  0  0  0  0  0  0  0  0  0  0
    2.8890   11.8740  -11.9720 C   0  0  0  0  0  3  0  0  0  0  0  0
    0.0630   13.4780  -13.2080 N   0  0  0  0  0  0  0  0  0  0  0  0
    2.0000   14.5260  -12.0140 C   0  0  0  0  0  0  0  0  0  0  0  0
   -0.2490   12.2300  -13.5800 C   0  0  0  0  0  0  0  0  0  0  0  0
   -1.4720   11.7900  -14.3100 C   0  0  0  0  0  1  0  0  0  0  0  0
    3.2120   14.2030  -11.4360 C   0  0  0  0  0  3  0  0  0  0  0  0
    1.4630   15.9080  -12.0730 C   0  0  0  0  0  1  0  0  0  0  0  0
    3.6370   12.8880  -11.4240 C   0  0  0  0  0  3  0  0  0  0  0  0
    3.9030    6.5270  -13.2600 C   0  0  0  0  0  2  0  0  0  0  0  0
    5.2580    6.2080  -13.7890 C   0  0  0  0  0  2  0  0  0  0  0  0
    6.2580    6.0880  -12.7470 N   0  0  0  0  0  4  0  0  0  0  0  0
    6.8470    4.7680  -12.7280 C   0  0  0  0  0  2  0  0  0  0  0  0
    7.7800    4.6030  -13.9320 C   0  0  0  0  0  2  0  0  0  0  0  0
    8.8290    5.5060  -13.7250 O   0  0  0  0  0  0  0  0  0  0  0  0
    8.2720    6.7860  -13.9270 C   0  0  0  0  0  2  0  0  0  0  0  0
    7.2650    7.1250  -12.8530 C   0  0  0  0  0  2  0  0  0  0  0  0
    5.7940    6.2190  -11.8150 H   0  0  0  0  0  0  0  0  0  0  0  0
  1  7  1  0  0  0  0
  1  2  1  0  0  0  0
  1 10  1  1  0  0  0
  2 28  1  0  0  0  0
  3  2  1  0  0  0  0
  4  3  2  0  0  0  0
  5  3  1  0  0  0  0
  5  7  1  0  0  0  0
  6  5  2  0  0  0  0
  7  8  2  0  0  0  0
  8 17  1  0  0  0  0
  8  9  1  0  0  0  0
 10 16  1  0  0  0  0
 11 12  1  0  0  0  0
 11 10  2  0  0  0  0
 12 14  2  0  0  0  0
 13 12  1  0  0  0  0
 14 15  1  0  0  0  0
 16 15  2  0  0  0  0
 17 18  1  0  0  0  0
 18 20  1  0  0  0  0
 19 18  1  0  0  0  0
 19 22  1  0  0  0  0
 20 27  2  0  0  0  0
 21 19  2  0  0  0  0
 22 25  2  0  0  0  0
 23 21  1  0  0  0  0
 23 17  2  0  0  0  0
 24 23  1  0  0  0  0
 25 27  1  0  0  0  0
 26 22  1  0  0  0  0
 29 28  1  0  0  0  0
 29 30  1  0  0  0  0
 30 31  1  0  0  0  0
 30 36  1  0  0  0  0
 32 33  1  0  0  0  0
 32 31  1  0  0  0  0
 34 33  1  0  0  0  0
 34 35  1  0  0  0  0
 35 30  1  0  0  0  0
M  END
>  <Pose>
1

>  <Score>
-8.860

$$$$
