MODEL 1
REMARK VINA RESULT:    -7.715      0.000      0.000
REMARK INTER + INTRA:          -8.301
REMARK INTER:                 -10.421
REMARK INTRA:                   2.120
REMARK UNBOUND:                 2.120
REMARK  6 active torsions:
REMARK  status: ('A' for Active; 'I' for Inactive)
REMARK    1  A    between atoms: C_4  and  C_8 
REMARK    2  A    between atoms: N_9  and  C_27 
REMARK    3  A    between atoms: C_15  and  C_17 
REMARK    4  A    between atoms: C_27  and  C_28 
REMARK    5  A    between atoms: C_28  and  C_29 
REMARK    6  A    between atoms: C_29  and  N_30 
ROOT
ATOM      1  C   UNK d   1       1.847   7.644 -12.354  0.00  0.00     0.161 C 
ATOM      2  N   UNK d   1       2.495   6.349 -12.436  0.00  0.00    -0.332 N 
ATOM      3  C   UNK d   1       1.487   5.403 -12.056  0.00  0.00     0.295 C 
ATOM      4  O   UNK d   1       1.653   4.269 -11.572  0.00  0.00    -0.264 OA
ATOM      5  C   UNK d   1       0.197   6.018 -12.346  0.00  0.00     0.251 C 
ATOM      6  O   UNK d   1      -0.980   5.578 -12.183  0.00  0.00    -0.282 OA
ATOM      7  C   UNK d   1       0.489   7.331 -12.900  0.00  0.00     0.064 C 
ATOM      8  C   UNK d   1      -0.316   8.048 -13.659  0.00  0.00     0.149 C 
ATOM      9  O   UNK d   1       0.153   9.318 -14.024  0.00  0.00    -0.189 OA
ENDROOT
BRANCH   1  10
ATOM     10  C   UNK d   1       2.502   8.709 -13.122  0.00  0.00    -0.029 A 
ATOM     11  C   UNK d   1       2.723   9.961 -12.655  0.00  0.00     0.028 A 
ATOM     12  C   UNK d   1       3.348  10.919 -13.455  0.00  0.00     0.011 A 
ATOM     13 Br   UNK d   1       3.640  12.664 -12.762  0.00  0.00    -0.051 Br
ATOM     14  C   UNK d   1       3.762  10.627 -14.746  0.00  0.00     0.019 A 
ATOM     15  C   UNK d   1       3.528   9.348 -15.202  0.00  0.00     0.002 A 
ATOM     16  C   UNK d   1       2.918   8.410 -14.424  0.00  0.00     0.009 A 
ENDBRANCH   1  10
BRANCH   8  17
ATOM     17  C   UNK d   1      -1.621   7.619 -14.137  0.00  0.00     0.102 A 
ATOM     18  N   UNK d   1      -2.777   8.298 -14.082  0.00  0.00    -0.302 N 
ATOM     19  C   UNK d   1      -3.779   7.594 -14.669  0.00  0.00     0.134 A 
ATOM     20  C   UNK d   1      -3.103   9.511 -13.546  0.00  0.00     0.099 A 
ATOM     21  N   UNK d   1      -3.196   6.439 -15.094  0.00  0.00    -0.233 NA
ATOM     22  C   UNK d   1      -5.083   8.058 -14.740  0.00  0.00     0.051 A 
ATOM     23  C   UNK d   1      -1.908   6.414 -14.796  0.00  0.00     0.063 A 
ATOM     24  C   UNK d   1      -0.867   5.392 -15.045  0.00  0.00     0.073 C 
ATOM     25  C   UNK d   1      -5.404   9.285 -14.197  0.00  0.00     0.005 A 
ATOM     26  C   UNK d   1      -4.373   9.998 -13.597  0.00  0.00     0.018 A 
ENDBRANCH   8  17
BRANCH   2  27
ATOM     27  C   UNK d   1       3.879   6.045 -12.805  0.00  0.00     0.129 C 
BRANCH  27  28
ATOM     28  C   UNK d   1       4.096   4.624 -13.178  0.00  0.00     0.048 C 
BRANCH  28  29
ATOM     29  C   UNK d   1       5.476   4.113 -13.230  0.00  0.00     0.235 C 
BRANCH  29  30
ATOM     30  N   UNK d   1       5.644   2.710 -13.071  0.00  0.00    -0.079 N 
ATOM     31  C   UNK d   1       5.873   2.089 -14.353  0.00  0.00     0.269 C 
ATOM     32  C   UNK d   1       4.389   2.126 -12.562  0.00  0.00     0.269 C 
ATOM     33  H   UNK d   1       6.353   2.438 -12.356  0.00  0.00     0.278 HD
ENDBRANCH  29  30
ENDBRANCH  28  29
ENDBRANCH  27  28
ENDBRANCH   2  27
TORSDOF 6
ENDMDL
