MODEL 1
REMARK VINA RESULT:    -9.284      0.000      0.000
REMARK INTER + INTRA:         -13.588
REMARK INTER:                 -13.083
REMARK INTRA:                  -0.505
REMARK UNBOUND:                -0.505
REMARK  7 active torsions:
REMARK  status: ('A' for Active; 'I' for Inactive)
REMARK    1  A    between atoms: C_4  and  C_8 
REMARK    2  A    between atoms: N_9  and  C_28 
REMARK    3  A    between atoms: C_15  and  C_17 
REMARK    4  A    between atoms: C_25  and  O_26 
REMARK    5  A    between atoms: C_28  and  C_29 
REMARK    6  A    between atoms: C_29  and  C_30 
REMARK    7  A    between atoms: C_30  and  N_31 
ROOT
ATOM      1  C   UNK d   1       0.542   9.560 -14.243  0.00  0.00     0.161 C 
ATOM      2  N   UNK d   1      -0.458   8.732 -13.600  0.00  0.00    -0.332 N 
ATOM      3  C   UNK d   1       0.181   8.192 -12.423  0.00  0.00     0.295 C 
ATOM      4  O   UNK d   1      -0.413   7.767 -11.402  0.00  0.00    -0.264 OA
ATOM      5  C   UNK d   1       1.625   8.243 -12.668  0.00  0.00     0.251 C 
ATOM      6  O   UNK d   1       2.561   7.875 -11.911  0.00  0.00    -0.282 OA
ATOM      7  C   UNK d   1       1.833   8.816 -13.993  0.00  0.00     0.064 C 
ATOM      8  C   UNK d   1       2.903   8.710 -14.762  0.00  0.00     0.153 C 
ATOM      9  O   UNK d   1       2.920   9.342 -15.980  0.00  0.00    -0.188 OA
ENDROOT
BRANCH   1  10
ATOM     10  C   UNK d   1       0.614  10.936 -13.689  0.00  0.00    -0.029 A 
ATOM     11  C   UNK d   1       1.784  11.423 -13.102  0.00  0.00     0.028 A 
ATOM     12  C   UNK d   1       1.893  12.678 -12.576  0.00  0.00     0.011 A 
ATOM     13 Br   UNK d   1       3.549  13.264 -11.788  0.00  0.00    -0.051 Br
ATOM     14  C   UNK d   1       0.825  13.526 -12.612  0.00  0.00     0.019 A 
ATOM     15  C   UNK d   1      -0.344  13.101 -13.174  0.00  0.00     0.002 A 
ATOM     16  C   UNK d   1      -0.443  11.818 -13.707  0.00  0.00     0.009 A 
ENDBRANCH   1  10
BRANCH   8  17
ATOM     17  C   UNK d   1       4.078   7.925 -14.340  0.00  0.00     0.114 A 
ATOM     18  O   UNK d   1       4.064   6.667 -13.991  0.00  0.00    -0.304 OA
ATOM     19  C   UNK d   1       5.225   6.208 -13.662  0.00  0.00     0.119 A 
ATOM     20  C   UNK d   1       6.114   7.246 -13.798  0.00  0.00     0.003 A 
ATOM     21  C   UNK d   1       5.613   4.942 -13.241  0.00  0.00     0.102 A 
ATOM     22  C   UNK d   1       5.385   8.335 -14.227  0.00  0.00     0.054 A 
ATOM     23  C   UNK d   1       7.439   7.011 -13.501  0.00  0.00     0.014 A 
ATOM     24  C   UNK d   1       7.881   5.774 -13.078  0.00  0.00     0.004 A 
ATOM     25  C   UNK d   1       6.940   4.746 -12.955  0.00  0.00     0.040 A 
BRANCH  21  26
ATOM     26  O   UNK d   1       4.724   3.907 -13.110  0.00  0.00    -0.353 OA
ATOM     27  C   UNK d   1       4.572   2.822 -13.968  0.00  0.00     0.210 C 
ENDBRANCH  21  26
ENDBRANCH   8  17
BRANCH   2  28
ATOM     28  C   UNK d   1      -1.821   8.491 -14.004  0.00  0.00     0.129 C 
BRANCH  28  29
ATOM     29  C   UNK d   1      -2.763   9.512 -13.414  0.00  0.00     0.048 C 
BRANCH  29  30
ATOM     30  C   UNK d   1      -3.898   9.905 -14.288  0.00  0.00     0.235 C 
BRANCH  30  31
ATOM     31  N   UNK d   1      -5.142   9.264 -13.992  0.00  0.00    -0.079 N 
ATOM     32  C   UNK d   1      -5.431   8.216 -14.974  0.00  0.00     0.269 C 
ATOM     33  C   UNK d   1      -6.239  10.180 -13.933  0.00  0.00     0.269 C 
ATOM     34  H   UNK d   1      -5.118   8.747 -13.067  0.00  0.00     0.278 HD
ENDBRANCH  30  31
ENDBRANCH  29  30
ENDBRANCH  28  29
ENDBRANCH   2  28
TORSDOF 7
ENDMDL
