MODEL 1
REMARK VINA RESULT:    -9.117      0.000      0.000
REMARK INTER + INTRA:         -10.600
REMARK INTER:                 -10.716
REMARK INTRA:                   0.116
REMARK UNBOUND:                 0.116
REMARK  3 active torsions:
REMARK  status: ('A' for Active; 'I' for Inactive)
REMARK    1  A    between atoms: C_4  and  N_8 
REMARK       I    between atoms: N_8  and  C_9 
REMARK    2  A    between atoms: C_9  and  C_11 
REMARK    3  A    between atoms: N_13  and  C_15 
ROOT
ATOM      1  C   UNK d   1       1.149  16.129 -11.698  0.00  0.00     0.114 C 
ATOM      2  C   UNK d   1       1.814  15.354 -12.806  0.00  0.00     0.140 C 
ATOM      3  N   UNK d   1       1.312  14.085 -12.258  0.00  0.00    -0.362 N 
ATOM      4  C   UNK d   1       1.102  14.796 -11.011  0.00  0.00     0.140 C 
ENDROOT
BRANCH   1   5
ATOM      5  C   UNK d   1      -0.197  16.688 -12.069  0.00  0.00     0.229 C 
ATOM      6  N   UNK d   1      -0.750  17.713 -11.285  0.00  0.00    -0.327 N 
ATOM      7  H   UNK d   1      -0.187  18.075 -10.431  0.00  0.00     0.169 HD
ATOM      8  O   UNK d   1      -0.722  16.177 -13.069  0.00  0.00    -0.273 OA
BRANCH   6   9
ATOM      9  C   UNK d   1      -1.997  18.329 -11.511  0.00  0.00     0.035 A 
ATOM     10  C   UNK d   1      -2.488  19.242 -10.566  0.00  0.00     0.048 A 
ATOM     11  C   UNK d   1      -3.694  19.888 -10.708  0.00  0.00     0.013 A 
ATOM     12 Br   UNK d   1      -4.324  21.120  -9.399  0.00  0.00    -0.051 Br
ATOM     13  C   UNK d   1      -4.464  19.646 -11.807  0.00  0.00     0.019 A 
ATOM     14  C   UNK d   1      -4.012  18.766 -12.738  0.00  0.00     0.004 A 
ATOM     15  C   UNK d   1      -2.788  18.106 -12.603  0.00  0.00     0.029 A 
ENDBRANCH   6   9
ENDBRANCH   1   5
BRANCH   3  16
ATOM     16  C   UNK d   1       1.146  12.779 -12.797  0.00  0.00     0.162 A 
ATOM     17  N   UNK d   1      -0.051  12.338 -13.264  0.00  0.00    -0.222 NA
ATOM     18  C   UNK d   1      -0.185  11.080 -13.777  0.00  0.00     0.237 A 
ATOM     19  N   UNK d   1       0.855  10.242 -13.835  0.00  0.00    -0.220 NA
ATOM     20  C   UNK d   1       2.059  10.609 -13.394  0.00  0.00     0.183 A 
ATOM     21  N   UNK d   1       3.241   9.963 -13.342  0.00  0.00    -0.236 N 
ATOM     22  C   UNK d   1       2.192  11.882 -12.876  0.00  0.00     0.173 A 
ATOM     23  N   UNK d   1       4.100  10.803 -12.807  0.00  0.00    -0.064 NA
ATOM     24  C   UNK d   1       3.545   8.605 -13.784  0.00  0.00     0.183 C 
ATOM     25  N   UNK d   1       3.501  11.964 -12.515  0.00  0.00    -0.124 NA
ENDBRANCH   3  16
TORSDOF 3
ENDMDL
