MODEL 1
REMARK VINA RESULT:    -9.505      0.000      0.000
REMARK INTER + INTRA:         -12.173
REMARK INTER:                 -11.728
REMARK INTRA:                  -0.446
REMARK UNBOUND:                -0.446
REMARK  4 active torsions:
REMARK  status: ('A' for Active; 'I' for Inactive)
REMARK    1  A    between atoms: C_4  and  N_8 
REMARK    2  A    between atoms: C_11  and  C_13 
REMARK       I    between atoms: C_13  and  N_15 
REMARK    3  A    between atoms: N_15  and  C_16 
REMARK    4  A    between atoms: C_16  and  C_17 
ROOT
ATOM      1  C   UNK d   1       0.514  14.939 -12.471  0.00  0.00     0.273 C 
ATOM      2  O   UNK d   1       1.630  15.458 -12.222  0.00  0.00    -0.266 OA
ATOM      3  N   UNK d   1      -0.639  15.748 -12.427  0.00  0.00    -0.348 N 
ATOM      4  H   UNK d   1      -1.558  15.298 -12.637  0.00  0.00     0.163 HD
ENDROOT
BRANCH   1   5
ATOM      5  C   UNK d   1       0.473  13.519 -12.798  0.00  0.00     0.165 A 
ATOM      6  N   UNK d   1       1.516  12.665 -12.931  0.00  0.00    -0.125 NA
ATOM      7  N   UNK d   1       1.037  11.469 -13.232  0.00  0.00    -0.060 NA
ATOM      8  N   UNK d   1      -0.268  11.499 -13.302  0.00  0.00    -0.224 N 
ATOM      9  C   UNK d   1      -0.650  12.759 -13.037  0.00  0.00     0.159 A 
BRANCH   8  10
ATOM     10  C   UNK d   1      -1.188  10.440 -13.597  0.00  0.00     0.060 A 
ATOM     11  C   UNK d   1      -0.837   9.112 -13.555  0.00  0.00     0.050 A 
ATOM     12  C   UNK d   1      -1.773   8.115 -13.851  0.00  0.00     0.013 A 
ATOM     13 Br   UNK d   1      -1.289   6.272 -13.794  0.00  0.00    -0.051 Br
ATOM     14  C   UNK d   1      -3.067   8.440 -14.194  0.00  0.00     0.019 A 
ATOM     15  C   UNK d   1      -3.430   9.767 -14.239  0.00  0.00     0.004 A 
ATOM     16  C   UNK d   1      -2.485  10.755 -13.940  0.00  0.00     0.032 A 
ENDBRANCH   8  10
ENDBRANCH   1   5
BRANCH   3  17
ATOM     17  C   UNK d   1      -0.638  17.158 -12.108  0.00  0.00     0.203 C 
BRANCH  17  18
ATOM     18  C   UNK d   1      -1.964  17.788 -12.434  0.00  0.00     0.148 A 
ATOM     19  N   UNK d   1      -2.679  18.667 -11.691  0.00  0.00    -0.319 N 
ATOM     20  C   UNK d   1      -3.804  18.987 -12.340  0.00  0.00     0.130 A 
ATOM     21  C   UNK d   1      -2.593  19.354 -10.414  0.00  0.00     0.132 C 
ATOM     22  N   UNK d   1      -3.775  18.290 -13.500  0.00  0.00    -0.135 NA
ATOM     23  C   UNK d   1      -4.630  19.965 -11.542  0.00  0.00     0.082 C 
ATOM     24  N   UNK d   1      -2.672  17.571 -13.557  0.00  0.00    -0.133 NA
ATOM     25  C   UNK d   1      -4.023  19.795 -10.166  0.00  0.00     0.028 C 
ENDBRANCH  17  18
ENDBRANCH   3  17
TORSDOF 4
ENDMDL
