MODEL 1
REMARK VINA RESULT:    -8.439      0.000      0.000
REMARK INTER + INTRA:         -10.026
REMARK INTER:                  -9.426
REMARK INTRA:                  -0.601
REMARK UNBOUND:                -0.601
REMARK  2 active torsions:
REMARK  status: ('A' for Active; 'I' for Inactive)
REMARK    1  A    between atoms: C_4  and  N_8 
REMARK    2  A    between atoms: C_14  and  C_18 
ROOT
ATOM      1  N   UNK d   1      -4.738   8.729 -14.308  0.00  0.00    -0.246 N 
ATOM      2  C   UNK d   1      -4.662   7.370 -14.783  0.00  0.00     0.268 C 
ATOM      3  O   UNK d   1      -5.642   6.573 -14.785  0.00  0.00    -0.269 OA
ATOM      4  C   UNK d   1      -3.302   7.098 -15.244  0.00  0.00     0.285 C 
ATOM      5  O   UNK d   1      -2.788   5.849 -15.031  0.00  0.00    -0.260 OA
ATOM      6  N   UNK d   1      -1.441   6.120 -14.804  0.00  0.00    -0.264 N 
ATOM      7  C   UNK d   1      -1.356   7.295 -14.033  0.00  0.00     0.083 C 
ATOM      8  C   UNK d   1      -2.507   7.939 -14.273  0.00  0.00     0.080 C 
ATOM      9  C   UNK d   1      -3.378   9.074 -13.991  0.00  0.00     0.266 C 
ATOM     10  O   UNK d   1      -3.000  10.177 -13.543  0.00  0.00    -0.267 OA
ATOM     11  H   UNK d   1      -0.648   5.559 -15.139  0.00  0.00     0.194 HD
ENDROOT
BRANCH   1  12
ATOM     12  C   UNK d   1      -5.867   9.565 -14.160  0.00  0.00     0.047 A 
ATOM     13  C   UNK d   1      -6.717   9.853 -15.225  0.00  0.00     0.049 A 
ATOM     14  C   UNK d   1      -7.824  10.657 -15.125  0.00  0.00     0.013 A 
ATOM     15 Br   UNK d   1      -8.963  11.031 -16.609  0.00  0.00    -0.051 Br
ATOM     16  C   UNK d   1      -8.153  11.237 -13.917  0.00  0.00     0.019 A 
ATOM     17  C   UNK d   1      -7.316  10.960 -12.840  0.00  0.00     0.004 A 
ATOM     18  C   UNK d   1      -6.209  10.153 -12.952  0.00  0.00     0.030 A 
ENDBRANCH   1  12
BRANCH   7  19
ATOM     19  C   UNK d   1      -0.264   7.773 -13.199  0.00  0.00     0.036 A 
ATOM     20  C   UNK d   1       0.889   8.400 -13.681  0.00  0.00     0.040 A 
ATOM     21  N   UNK d   1       1.648   8.722 -12.652  0.00  0.00    -0.278 N 
ATOM     22  C   UNK d   1       1.223   8.639 -15.104  0.00  0.00     0.071 C 
ATOM     23  N   UNK d   1       1.035   8.330 -11.538  0.00  0.00    -0.184 NA
ATOM     24  C   UNK d   1       2.948   9.389 -12.697  0.00  0.00     0.179 C 
ATOM     25  C   UNK d   1      -0.117   7.755 -11.840  0.00  0.00     0.154 A 
ENDBRANCH   7  19
TORSDOF 2
ENDMDL
