/Users/jonathanwahrer/Desktop/Msc/3_Semester/Drug_Design_Praktikum/waehrer_HTS_screening/HTS_experiment/out/docking_results/vina_output/6q9y/0205_docked.pdbqt
 OpenBabel03222219103D

 25 28  0  0  1  0  0  0  0  0999 V2000
   -4.7380    8.7290  -14.3080 N   0  0  0  0  0  0  0  0  0  0  0  0
   -4.6620    7.3700  -14.7830 C   0  0  0  0  0  0  0  0  0  0  0  0
   -5.6420    6.5730  -14.7850 O   0  0  0  0  0  0  0  0  0  0  0  0
   -3.3020    7.0980  -15.2440 C   0  0  2  0  0  3  0  0  0  0  0  0
   -2.7880    5.8490  -15.0310 O   0  0  0  0  0  0  0  0  0  0  0  0
   -1.4410    6.1200  -14.8040 N   0  0  0  0  0  0  0  0  0  0  0  0
   -1.3560    7.2950  -14.0330 C   0  0  0  0  0  0  0  0  0  0  0  0
   -2.5070    7.9390  -14.2730 C   0  0  0  0  0  0  0  0  0  0  0  0
   -3.3780    9.0740  -13.9910 C   0  0  0  0  0  0  0  0  0  0  0  0
   -3.0000   10.1770  -13.5430 O   0  0  0  0  0  0  0  0  0  0  0  0
   -0.6480    5.5590  -15.1390 H   0  0  0  0  0  0  0  0  0  0  0  0
   -5.8670    9.5650  -14.1600 C   0  0  0  0  0  0  0  0  0  0  0  0
   -6.7170    9.8530  -15.2250 C   0  0  0  0  0  3  0  0  0  0  0  0
   -7.8240   10.6570  -15.1250 C   0  0  0  0  0  0  0  0  0  0  0  0
   -8.9630   11.0310  -16.6090 Br  0  0  0  0  0  0  0  0  0  0  0  0
   -8.1530   11.2370  -13.9170 C   0  0  0  0  0  3  0  0  0  0  0  0
   -7.3160   10.9600  -12.8400 C   0  0  0  0  0  3  0  0  0  0  0  0
   -6.2090   10.1530  -12.9520 C   0  0  0  0  0  3  0  0  0  0  0  0
   -0.2640    7.7730  -13.1990 C   0  0  0  0  0  0  0  0  0  0  0  0
    0.8890    8.4000  -13.6810 C   0  0  0  0  0  0  0  0  0  0  0  0
    1.6480    8.7220  -12.6520 N   0  0  0  0  0  0  0  0  0  0  0  0
    1.2230    8.6390  -15.1040 C   0  0  0  0  0  1  0  0  0  0  0  0
    1.0350    8.3300  -11.5380 N   0  0  0  0  0  0  0  0  0  0  0  0
    2.9480    9.3890  -12.6970 C   0  0  0  0  0  1  0  0  0  0  0  0
   -0.1170    7.7550  -11.8400 C   0  0  0  0  0  3  0  0  0  0  0  0
  1 12  1  0  0  0  0
  1  9  1  0  0  0  0
  2  1  1  0  0  0  0
  3  2  2  0  0  0  0
  4  5  1  1  0  0  0
  4  2  1  0  0  0  0
  4  8  1  0  0  0  0
  5  6  1  0  0  0  0
  6  7  1  0  0  0  0
  7 19  1  0  0  0  0
  8  7  2  0  0  0  0
  8  9  1  0  0  0  0
  9 10  2  0  0  0  0
 11  6  1  0  0  0  0
 12 18  1  0  0  0  0
 13 14  1  0  0  0  0
 13 12  2  0  0  0  0
 14 16  2  0  0  0  0
 15 14  1  0  0  0  0
 16 17  1  0  0  0  0
 18 17  2  0  0  0  0
 19 25  1  0  0  0  0
 20 19  2  0  0  0  0
 20 21  1  0  0  0  0
 21 23  1  0  0  0  0
 22 20  1  0  0  0  0
 24 21  1  0  0  0  0
 25 23  2  0  0  0  0
M  END
>  <Pose>
1

>  <Score>
-8.439

$$$$
