/Users/jonathanwahrer/Desktop/Msc/3_Semester/Drug_Design_Praktikum/waehrer_HTS_screening/HTS_experiment/out/docking_results/vina_output/6q9y/0211_docked.pdbqt
 OpenBabel03222219113D

 22 25  0  0  1  0  0  0  0  0999 V2000
   -0.3610    9.1520  -13.2510 N   0  0  0  0  0  0  0  0  0  0  0  0
    0.5340    8.5460  -12.3290 C   0  0  0  0  0  0  0  0  0  0  0  0
    0.1990    7.6610  -11.4580 O   0  0  0  0  0  0  0  0  0  0  0  0
    1.8820    9.0940  -12.5400 C   0  0  1  0  0  3  0  0  0  0  0  0
    2.6120    8.1950  -13.4900 C   0  0  1  0  0  0  0  0  0  0  0  0
    1.9050    8.4860  -14.6840 O   0  0  0  0  0  0  0  0  0  0  0  0
    2.2240    9.8690  -14.7210 C   0  0  1  0  0  3  0  0  0  0  0  0
    1.6500   10.3130  -13.3880 C   0  0  1  0  0  3  0  0  0  0  0  0
    0.1890   10.4180  -13.5750 C   0  0  0  0  0  0  0  0  0  0  0  0
   -0.4330   11.4450  -13.9520 O   0  0  0  0  0  0  0  0  0  0  0  0
    3.7020    9.7900  -14.6560 C   0  0  0  0  0  2  0  0  0  0  0  0
    3.9500    8.7110  -13.8890 C   0  0  0  0  0  2  0  0  0  0  0  0
   -1.5930    8.5870  -13.7560 C   0  0  0  0  0  0  0  0  0  0  0  0
   -2.7900    9.2860  -13.7190 C   0  0  0  0  0  3  0  0  0  0  0  0
   -3.9760    8.8090  -14.1790 C   0  0  0  0  0  0  0  0  0  0  0  0
   -5.5460    9.8890  -14.0600 Br  0  0  0  0  0  0  0  0  0  0  0  0
   -4.0110    7.5410  -14.7250 C   0  0  0  0  0  3  0  0  0  0  0  0
   -2.8460    6.8060  -14.7850 C   0  0  0  0  0  3  0  0  0  0  0  0
   -1.6420    7.3250  -14.3030 C   0  0  0  0  0  3  0  0  0  0  0  0
    2.6030    6.7560  -13.1390 C   0  0  0  0  0  2  0  0  0  0  0  0
    3.9200    6.2940  -13.1110 O   0  0  0  0  0  0  0  0  0  0  0  0
    4.5310    6.9740  -13.4920 H   0  0  0  0  0  0  0  0  0  0  0  0
  1  2  1  0  0  0  0
  2  3  2  0  0  0  0
  4  2  1  6  0  0  0
  5 20  1  1  0  0  0
  5  4  1  0  0  0  0
  6  5  1  0  0  0  0
  7  6  1  0  0  0  0
  7 11  1  1  0  0  0
  7  8  1  0  0  0  0
  8  9  1  6  0  0  0
  8  4  1  0  0  0  0
  9  1  1  0  0  0  0
 10  9  2  0  0  0  0
 11 12  1  0  0  0  0
 12  5  1  0  0  0  0
 13 14  1  0  0  0  0
 13  1  1  0  0  0  0
 15 16  1  0  0  0  0
 15 14  2  0  0  0  0
 17 15  1  0  0  0  0
 18 17  2  0  0  0  0
 18 19  1  0  0  0  0
 19 13  2  0  0  0  0
 20 21  1  0  0  0  0
 22 21  1  0  0  0  0
M  END
>  <Pose>
1

>  <Score>
-7.818

$$$$
