MODEL 1
REMARK VINA RESULT:    -8.701      0.000      0.000
REMARK INTER + INTRA:         -10.032
REMARK INTER:                  -9.719
REMARK INTRA:                  -0.313
REMARK UNBOUND:                -0.313
REMARK  2 active torsions:
REMARK  status: ('A' for Active; 'I' for Inactive)
REMARK    1  A    between atoms: C_4  and  N_8 
REMARK    2  A    between atoms: C_14  and  C_18 
ROOT
ATOM      1  N   UNK d   1       1.910  11.944 -13.048  0.00  0.00    -0.246 N 
ATOM      2  C   UNK d   1       3.226  11.375 -13.223  0.00  0.00     0.268 C 
ATOM      3  O   UNK d   1       4.275  11.688 -12.648  0.00  0.00    -0.269 OA
ATOM      4  C   UNK d   1       3.117  10.301 -14.252  0.00  0.00     0.285 C 
ATOM      5  O   UNK d   1       3.934   9.209 -14.024  0.00  0.00    -0.260 OA
ATOM      6  N   UNK d   1       3.193   8.190 -14.574  0.00  0.00    -0.264 N 
ATOM      7  C   UNK d   1       1.854   8.430 -14.106  0.00  0.00     0.083 C 
ATOM      8  C   UNK d   1       1.763   9.720 -13.894  0.00  0.00     0.080 C 
ATOM      9  C   UNK d   1       1.003  10.902 -13.471  0.00  0.00     0.266 C 
ATOM     10  O   UNK d   1      -0.232  10.943 -13.493  0.00  0.00    -0.267 OA
ATOM     11  H   UNK d   1       3.497   7.421 -15.182  0.00  0.00     0.194 HD
ENDROOT
BRANCH   1  12
ATOM     12  C   UNK d   1       1.623  13.242 -12.567  0.00  0.00     0.047 A 
ATOM     13  C   UNK d   1       0.615  13.985 -13.138  0.00  0.00     0.049 A 
ATOM     14  C   UNK d   1       0.315  15.273 -12.685  0.00  0.00     0.013 A 
ATOM     15 Br   UNK d   1      -1.083  16.279 -13.495  0.00  0.00    -0.051 Br
ATOM     16  C   UNK d   1       1.016  15.845 -11.649  0.00  0.00     0.019 A 
ATOM     17  C   UNK d   1       2.026  15.103 -11.075  0.00  0.00     0.004 A 
ATOM     18  C   UNK d   1       2.324  13.812 -11.533  0.00  0.00     0.030 A 
ENDBRANCH   1  12
BRANCH   7  19
ATOM     19  C   UNK d   1       0.797   7.480 -13.887  0.00  0.00     0.036 A 
ATOM     20  C   UNK d   1      -0.393   7.505 -14.612  0.00  0.00     0.127 A 
ATOM     21  N   UNK d   1      -1.187   6.497 -14.207  0.00  0.00    -0.284 N 
ATOM     22  N   UNK d   1      -0.512   5.866 -13.261  0.00  0.00    -0.177 NA
ATOM     23  C   UNK d   1      -2.529   6.176 -14.720  0.00  0.00     0.179 C 
ATOM     24  C   UNK d   1       0.681   6.411 -13.030  0.00  0.00     0.065 A 
ATOM     25  C   UNK d   1       1.726   5.972 -12.044  0.00  0.00     0.073 C 
ENDBRANCH   7  19
TORSDOF 2
ENDMDL
