/Users/jonathanwahrer/Desktop/Msc/3_Semester/Drug_Design_Praktikum/waehrer_HTS_screening/HTS_experiment/out/docking_results/vina_output/6q9y/0213_docked.pdbqt
 OpenBabel03222219113D

 25 28  0  0  1  0  0  0  0  0999 V2000
    1.9100   11.9440  -13.0480 N   0  0  0  0  0  0  0  0  0  0  0  0
    3.2260   11.3750  -13.2230 C   0  0  0  0  0  0  0  0  0  0  0  0
    4.2750   11.6880  -12.6480 O   0  0  0  0  0  0  0  0  0  0  0  0
    3.1170   10.3010  -14.2520 C   0  0  1  0  0  3  0  0  0  0  0  0
    3.9340    9.2090  -14.0240 O   0  0  0  0  0  0  0  0  0  0  0  0
    3.1930    8.1900  -14.5740 N   0  0  0  0  0  0  0  0  0  0  0  0
    1.8540    8.4300  -14.1060 C   0  0  0  0  0  0  0  0  0  0  0  0
    1.7630    9.7200  -13.8940 C   0  0  0  0  0  0  0  0  0  0  0  0
    1.0030   10.9020  -13.4710 C   0  0  0  0  0  0  0  0  0  0  0  0
   -0.2320   10.9430  -13.4930 O   0  0  0  0  0  0  0  0  0  0  0  0
    3.4970    7.4210  -15.1820 H   0  0  0  0  0  0  0  0  0  0  0  0
    1.6230   13.2420  -12.5670 C   0  0  0  0  0  0  0  0  0  0  0  0
    0.6150   13.9850  -13.1380 C   0  0  0  0  0  3  0  0  0  0  0  0
    0.3150   15.2730  -12.6850 C   0  0  0  0  0  0  0  0  0  0  0  0
   -1.0830   16.2790  -13.4950 Br  0  0  0  0  0  0  0  0  0  0  0  0
    1.0160   15.8450  -11.6490 C   0  0  0  0  0  3  0  0  0  0  0  0
    2.0260   15.1030  -11.0750 C   0  0  0  0  0  3  0  0  0  0  0  0
    2.3240   13.8120  -11.5330 C   0  0  0  0  0  3  0  0  0  0  0  0
    0.7970    7.4800  -13.8870 C   0  0  0  0  0  0  0  0  0  0  0  0
   -0.3930    7.5050  -14.6120 C   0  0  0  0  0  3  0  0  0  0  0  0
   -1.1870    6.4970  -14.2070 N   0  0  0  0  0  0  0  0  0  0  0  0
   -0.5120    5.8660  -13.2610 N   0  0  0  0  0  0  0  0  0  0  0  0
   -2.5290    6.1760  -14.7200 C   0  0  0  0  0  1  0  0  0  0  0  0
    0.6810    6.4110  -13.0300 C   0  0  0  0  0  0  0  0  0  0  0  0
    1.7260    5.9720  -12.0440 C   0  0  0  0  0  1  0  0  0  0  0  0
  1 12  1  0  0  0  0
  2  1  1  0  0  0  0
  2  3  2  0  0  0  0
  4  5  1  1  0  0  0
  4  8  1  0  0  0  0
  4  2  1  0  0  0  0
  6  7  1  0  0  0  0
  6  5  1  0  0  0  0
  7  8  2  0  0  0  0
  7 19  1  0  0  0  0
  8  9  1  0  0  0  0
  9  1  1  0  0  0  0
 10  9  2  0  0  0  0
 11  6  1  0  0  0  0
 12 18  1  0  0  0  0
 13 14  1  0  0  0  0
 13 12  2  0  0  0  0
 14 16  2  0  0  0  0
 15 14  1  0  0  0  0
 16 17  1  0  0  0  0
 18 17  2  0  0  0  0
 19 24  1  0  0  0  0
 20 21  1  0  0  0  0
 20 19  2  0  0  0  0
 21 22  1  0  0  0  0
 22 24  2  0  0  0  0
 23 21  1  0  0  0  0
 24 25  1  0  0  0  0
M  END
>  <Pose>
1

>  <Score>
-8.701

$$$$
