MODEL 1
REMARK VINA RESULT:    -7.562      0.000      0.000
REMARK INTER + INTRA:         -10.697
REMARK INTER:                  -9.773
REMARK INTRA:                  -0.925
REMARK UNBOUND:                -0.925
REMARK  5 active torsions:
REMARK  status: ('A' for Active; 'I' for Inactive)
REMARK    1  A    between atoms: C_4  and  N_8 
REMARK    2  A    between atoms: C_10  and  C_14 
REMARK       I    between atoms: C_14  and  N_16 
REMARK    3  A    between atoms: N_19  and  C_22 
REMARK    4  A    between atoms: C_22  and  C_23 
REMARK    5  A    between atoms: C_23  and  N_24 
ROOT
ATOM      1  C   UNK d   1       2.457  11.993 -12.182  0.00  0.00     0.226 C 
ATOM      2  O   UNK d   1       2.636  11.873 -10.944  0.00  0.00    -0.273 OA
ATOM      3  N   UNK d   1       2.541  10.888 -13.056  0.00  0.00    -0.348 N 
ATOM      4  C   UNK d   1       2.338  10.989 -14.494  0.00  0.00     0.156 C 
ATOM      5  C   UNK d   1       1.818   9.654 -15.012  0.00  0.00     0.292 C 
ATOM      6  N   UNK d   1       1.088   8.908 -14.006  0.00  0.00     0.093 N 
ATOM      7  C   UNK d   1       1.990   8.479 -12.995  0.00  0.00     0.292 C 
ATOM      8  C   UNK d   1       2.847   9.579 -12.466  0.00  0.00     0.156 C 
ENDROOT
BRANCH   1   9
ATOM      9  C   UNK d   1       2.156  13.309 -12.708  0.00  0.00     0.105 C 
ATOM     10  C   UNK d   1       1.346  14.168 -11.714  0.00  0.00     0.146 C 
ATOM     11  N   UNK d   1       1.298  15.374 -12.526  0.00  0.00    -0.317 N 
ATOM     12  C   UNK d   1       2.645  15.526 -12.960  0.00  0.00     0.225 C 
ATOM     13  C   UNK d   1       3.373  14.236 -12.807  0.00  0.00     0.119 C 
ATOM     14  O   UNK d   1       3.142  16.586 -13.404  0.00  0.00    -0.273 OA
BRANCH  11  15
ATOM     15  C   UNK d   1       0.132  16.135 -12.768  0.00  0.00     0.038 A 
ATOM     16  C   UNK d   1      -0.363  16.969 -11.783  0.00  0.00     0.048 A 
ATOM     17  C   UNK d   1      -1.509  17.738 -11.958  0.00  0.00     0.013 A 
ATOM     18 Br   UNK d   1      -2.102  18.845 -10.547  0.00  0.00    -0.051 Br
ATOM     19  C   UNK d   1      -2.182  17.660 -13.176  0.00  0.00     0.019 A 
ATOM     20  C   UNK d   1      -1.726  16.842 -14.187  0.00  0.00     0.004 A 
ATOM     21  C   UNK d   1      -0.583  16.108 -13.946  0.00  0.00     0.030 A 
ENDBRANCH  11  15
ENDBRANCH   1   9
BRANCH   6  22
ATOM     22  C   UNK d   1      -0.093   9.574 -13.585  0.00  0.00     0.292 C 
BRANCH  22  23
ATOM     23  C   UNK d   1      -1.118   8.668 -12.952  0.00  0.00     0.159 C 
BRANCH  23  24
ATOM     24  N   UNK d   1      -1.985   8.018 -13.892  0.00  0.00    -0.348 N 
ATOM     25  C   UNK d   1      -3.150   8.445 -14.381  0.00  0.00     0.209 A 
ATOM     26  N   UNK d   1      -3.646   7.524 -15.235  0.00  0.00    -0.255 NA
ATOM     27  C   UNK d   1      -2.787   6.500 -15.290  0.00  0.00     0.135 A 
ATOM     28  C   UNK d   1      -1.750   6.820 -14.445  0.00  0.00     0.111 A 
ENDBRANCH  23  24
ENDBRANCH  22  23
ENDBRANCH   6  22
TORSDOF 5
ENDMDL
