/Users/jonathanwahrer/Desktop/Msc/3_Semester/Drug_Design_Praktikum/waehrer_HTS_screening/HTS_experiment/out/docking_results/vina_output/6q9y/0219_docked.pdbqt
 OpenBabel03222219113D

 27 30  0  0  1  0  0  0  0  0999 V2000
   -2.8520    9.7040  -13.5480 N   0  0  0  0  0  0  0  0  0  0  0  0
   -2.0710    8.5160  -13.5110 C   0  0  0  0  0  0  0  0  0  0  0  0
   -2.4430    7.6000  -14.3250 O   0  0  0  0  0  0  0  0  0  0  0  0
   -2.5920   10.4860  -12.9110 H   0  0  0  0  0  0  0  0  0  0  0  0
   -0.9100    8.2910  -12.6260 C   0  0  0  0  0  2  0  0  0  0  0  0
    0.3550    8.6820  -13.1840 N   0  0  0  0  0  0  0  0  0  0  0  0
    1.5380    7.8800  -13.0260 C   0  0  0  0  0  0  0  0  0  0  0  0
    1.7390    6.9590  -12.1950 O   0  0  0  0  0  0  0  0  0  0  0  0
    2.5110    8.3250  -14.0240 C   0  0  1  0  0  3  0  0  0  0  0  0
    1.8450    9.4620  -14.8240 C   0  0  2  0  0  3  0  0  0  0  0  0
    3.7040    9.0520  -13.4670 C   0  0  1  0  0  3  0  0  0  0  0  0
    2.8200   10.5850  -14.8390 C   0  0  2  0  0  3  0  0  0  0  0  0
    0.6910    9.8370  -13.9650 C   0  0  0  0  0  0  0  0  0  0  0  0
    4.1520    9.8130  -14.7310 C   0  0  0  0  0  2  0  0  0  0  0  0
    2.8200   11.1940  -13.4860 C   0  0  0  0  0  2  0  0  0  0  0  0
    3.2090   10.2220  -12.6660 C   0  0  0  0  0  2  0  0  0  0  0  0
    0.1070   10.9320  -13.9080 O   0  0  0  0  0  0  0  0  0  0  0  0
   -3.9740    9.8670  -14.4220 C   0  0  0  0  0  2  0  0  0  0  0  0
   -5.2660    9.4090  -13.7280 C   0  0  0  0  0  2  0  0  0  0  0  0
   -6.2730   10.1600  -14.0370 O   0  0  0  0  0  0  0  0  0  0  0  0
   -7.2660   10.9400  -14.2550 C   0  0  0  0  0  0  0  0  0  0  0  0
   -8.0510   10.7790  -15.4110 C   0  0  0  0  0  3  0  0  0  0  0  0
   -9.1230   11.5760  -15.7050 C   0  0  0  0  0  0  0  0  0  0  0  0
  -10.1670   11.3270  -17.2840 Br  0  0  0  0  0  0  0  0  0  0  0  0
   -9.4770   12.5900  -14.8560 C   0  0  0  0  0  3  0  0  0  0  0  0
   -8.7440   12.7980  -13.7050 C   0  0  0  0  0  3  0  0  0  0  0  0
   -7.6680   11.9960  -13.4120 C   0  0  0  0  0  3  0  0  0  0  0  0
  1  2  1  0  0  0  0
  1  4  1  0  0  0  0
  2  5  1  0  0  0  0
  3  2  2  0  0  0  0
  6  7  1  0  0  0  0
  6  5  1  0  0  0  0
  7  8  2  0  0  0  0
  9 11  1  0  0  0  0
  9  7  1  1  0  0  0
 10  9  1  0  0  0  0
 10 13  1  1  0  0  0
 11 14  1  6  0  0  0
 11 16  1  0  0  0  0
 12 10  1  0  0  0  0
 12 14  1  1  0  0  0
 12 15  1  0  0  0  0
 13 17  2  0  0  0  0
 13  6  1  0  0  0  0
 15 16  1  0  0  0  0
 18 19  1  0  0  0  0
 18  1  1  0  0  0  0
 20 19  1  0  0  0  0
 21 20  1  0  0  0  0
 21 27  1  0  0  0  0
 22 21  2  0  0  0  0
 23 22  1  0  0  0  0
 23 25  2  0  0  0  0
 24 23  1  0  0  0  0
 25 26  1  0  0  0  0
 26 27  2  0  0  0  0
M  END
>  <Pose>
1

>  <Score>
-8.990

$$$$
