MODEL 1
REMARK VINA RESULT:    -8.162      0.000      0.000
REMARK INTER + INTRA:          -9.780
REMARK INTER:                 -10.071
REMARK INTRA:                   0.291
REMARK UNBOUND:                 0.291
REMARK  4 active torsions:
REMARK  status: ('A' for Active; 'I' for Inactive)
REMARK    1  A    between atoms: C_5  and  C_8 
REMARK    2  A    between atoms: C_8  and  C_10 
REMARK    3  A    between atoms: C_10  and  N_11 
REMARK    4  A    between atoms: C_15  and  N_16 
ROOT
ATOM      1  N   UNK d   1       0.377   8.671 -13.787  0.00  0.00    -0.165 N 
ATOM      2  C   UNK d   1      -0.829   8.138 -14.047  0.00  0.00     0.167 A 
ATOM      3  C   UNK d   1      -1.810   9.093 -13.867  0.00  0.00     0.185 A 
ATOM      4  N   UNK d   1      -1.154  10.200 -13.498  0.00  0.00    -0.044 NA
ATOM      5  C   UNK d   1       0.171   9.974 -13.441  0.00  0.00     0.708 A 
ATOM      6  N   UNK d   1      -3.103   8.782 -14.075  0.00  0.00    -0.286 N 
ATOM      7  C   UNK d   1      -3.457   7.542 -14.457  0.00  0.00     0.330 A 
ATOM      8  O   UNK d   1      -4.650   7.209 -14.662  0.00  0.00    -0.246 OA
ATOM      9  N   UNK d   1      -2.499   6.591 -14.638  0.00  0.00    -0.273 N 
ATOM     10  C   UNK d   1      -1.195   6.854 -14.443  0.00  0.00     0.280 A 
ATOM     11  O   UNK d   1      -0.329   5.936 -14.621  0.00  0.00    -0.265 OA
ATOM     12  C   UNK d   1      -4.155   9.760 -13.894  0.00  0.00     0.163 C 
ATOM     13  H   UNK d   1      -2.817   5.640 -14.937  0.00  0.00     0.173 HD
ENDROOT
BRANCH   1  14
ATOM     14  C   UNK d   1       1.653   8.018 -13.862  0.00  0.00     0.232 C 
BRANCH  14  15
ATOM     15  C   UNK d   1       1.926   7.126 -12.692  0.00  0.00     0.178 C 
ATOM     16  O   UNK d   1       1.323   7.285 -11.619  0.00  0.00    -0.290 OA
BRANCH  15  17
ATOM     17  C   UNK d   1       2.909   6.049 -12.788  0.00  0.00     0.011 A 
ATOM     18  C   UNK d   1       2.599   4.758 -12.435  0.00  0.00     0.016 A 
ATOM     19  C   UNK d   1       3.534   3.739 -12.524  0.00  0.00     0.020 A 
ATOM     20  C   UNK d   1       4.825   3.976 -12.973  0.00  0.00     0.011 A 
ATOM     21 Br   UNK d   1       6.078   2.549 -13.080  0.00  0.00    -0.051 Br
ATOM     22  C   UNK d   1       5.138   5.269 -13.326  0.00  0.00     0.020 A 
ATOM     23  C   UNK d   1       4.200   6.272 -13.233  0.00  0.00     0.016 A 
ENDBRANCH  15  17
ENDBRANCH  14  15
ENDBRANCH   1  14
BRANCH   5  24
ATOM     24  N   UNK d   1       1.212  10.872 -13.101  0.00  0.00    -0.212 N 
ATOM     25  C   UNK d   1       0.966  12.276 -13.170  0.00  0.00     0.171 C 
ATOM     26  C   UNK d   1       1.932  13.167 -12.483  0.00  0.00     0.292 C 
ATOM     27  N   UNK d   1       3.252  12.639 -12.306  0.00  0.00     0.087 N 
ATOM     28  C   UNK d   1       3.133  11.331 -11.693  0.00  0.00     0.292 C 
ATOM     29  C   UNK d   1       4.032  12.622 -13.511  0.00  0.00     0.310 C 
ATOM     30  C   UNK d   1       2.487  10.369 -12.691  0.00  0.00     0.171 C 
ENDBRANCH   5  24
TORSDOF 4
ENDMDL
