MODEL 1
REMARK VINA RESULT:    -7.992      0.000      0.000
REMARK INTER + INTRA:          -8.576
REMARK INTER:                 -11.262
REMARK INTRA:                   2.686
REMARK UNBOUND:                 2.686
REMARK  7 active torsions:
REMARK  status: ('A' for Active; 'I' for Inactive)
REMARK    1  A    between atoms: C_5  and  C_8 
REMARK    2  A    between atoms: C_8  and  C_10 
REMARK    3  A    between atoms: C_11  and  C_25 
REMARK    4  A    between atoms: N_12  and  C_17 
REMARK    5  A    between atoms: C_17  and  C_18 
REMARK    6  A    between atoms: C_18  and  N_19 
REMARK    7  A    between atoms: C_27  and  O_32 
ROOT
ATOM      1  C   UNK d   1       1.748   8.088 -14.099  0.00  0.00     0.167 C 
ATOM      2  C   UNK d   1       0.863   9.301 -13.950  0.00  0.00     0.140 C 
ATOM      3  N   UNK d   1      -0.247   8.776 -13.187  0.00  0.00    -0.334 N 
ATOM      4  C   UNK d   1       0.299   7.795 -12.311  0.00  0.00     0.291 C 
ATOM      5  O   UNK d   1      -0.327   7.204 -11.378  0.00  0.00    -0.264 OA
ATOM      6  C   UNK d   1       1.714   7.588 -12.675  0.00  0.00     0.230 C 
ATOM      7  O   UNK d   1       2.615   7.119 -11.963  0.00  0.00    -0.286 OA
ENDROOT
BRANCH   1   8
ATOM      8  C   UNK d   1       3.100   8.361 -14.552  0.00  0.00     0.173 C 
ATOM      9  O   UNK d   1       3.347   9.327 -15.304  0.00  0.00    -0.291 OA
BRANCH   8  10
ATOM     10  C   UNK d   1       4.194   7.505 -14.132  0.00  0.00     0.011 A 
ATOM     11  C   UNK d   1       5.473   8.032 -13.919  0.00  0.00     0.016 A 
ATOM     12  C   UNK d   1       6.524   7.243 -13.528  0.00  0.00     0.020 A 
ATOM     13  C   UNK d   1       6.324   5.897 -13.336  0.00  0.00     0.011 A 
ATOM     14 Br   UNK d   1       7.790   4.821 -12.795  0.00  0.00    -0.051 Br
ATOM     15  C   UNK d   1       5.096   5.321 -13.527  0.00  0.00     0.020 A 
ATOM     16  C   UNK d   1       4.061   6.148 -13.922  0.00  0.00     0.016 A 
ENDBRANCH   8  10
ENDBRANCH   1   8
BRANCH   2  17
ATOM     17  C   UNK d   1       1.515  10.453 -13.346  0.00  0.00    -0.031 A 
ATOM     18  C   UNK d   1       0.949  11.735 -13.389  0.00  0.00     0.049 A 
ATOM     19  C   UNK d   1       1.571  12.822 -12.811  0.00  0.00     0.105 A 
ATOM     20  C   UNK d   1       2.784  12.687 -12.161  0.00  0.00     0.140 A 
ATOM     21  C   UNK d   1       3.358  11.435 -12.106  0.00  0.00     0.043 A 
ATOM     22  O   UNK d   1       3.432  13.765 -11.570  0.00  0.00    -0.189 OA
ATOM     23  C   UNK d   1       2.721  10.353 -12.692  0.00  0.00     0.012 A 
BRANCH  19  24
ATOM     24  O   UNK d   1       1.018  14.090 -12.850  0.00  0.00    -0.353 OA
ATOM     25  C   UNK d   1      -0.365  14.336 -12.865  0.00  0.00     0.210 C 
ENDBRANCH  19  24
ENDBRANCH   2  17
BRANCH   3  26
ATOM     26  C   UNK d   1      -1.647   9.115 -13.238  0.00  0.00     0.154 C 
BRANCH  26  27
ATOM     27  C   UNK d   1      -2.489   8.084 -13.925  0.00  0.00     0.255 C 
BRANCH  27  28
ATOM     28  N   UNK d   1      -3.192   8.530 -15.065  0.00  0.00    -0.066 N 
ATOM     29  C   UNK d   1      -3.902   9.763 -14.706  0.00  0.00     0.261 C 
ATOM     30  C   UNK d   1      -5.046   9.515 -13.780  0.00  0.00     0.195 C 
ATOM     31  O   UNK d   1      -5.427   8.200 -13.672  0.00  0.00    -0.388 OA
ATOM     32  C   UNK d   1      -5.460   7.588 -14.900  0.00  0.00     0.195 C 
ATOM     33  C   UNK d   1      -4.141   7.634 -15.623  0.00  0.00     0.261 C 
ATOM     34  H   UNK d   1      -2.526   8.822 -15.833  0.00  0.00     0.280 HD
ENDBRANCH  27  28
ENDBRANCH  26  27
ENDBRANCH   3  26
TORSDOF 7
ENDMDL
