/Users/jonathanwahrer/Desktop/Msc/3_Semester/Drug_Design_Praktikum/waehrer_HTS_screening/HTS_experiment/out/docking_results/vina_output/6q9y/0231_docked.pdbqt
 OpenBabel03222219123D

 34 37  0  0  1  0  0  0  0  0999 V2000
    1.7480    8.0880  -14.0990 C   0  0  2  0  0  3  0  0  0  0  0  0
    0.8630    9.3010  -13.9500 C   0  0  1  0  0  3  0  0  0  0  0  0
   -0.2470    8.7760  -13.1870 N   0  0  0  0  0  0  0  0  0  0  0  0
    0.2990    7.7950  -12.3110 C   0  0  0  0  0  0  0  0  0  0  0  0
   -0.3270    7.2040  -11.3780 O   0  0  0  0  0  0  0  0  0  0  0  0
    1.7140    7.5880  -12.6750 C   0  0  0  0  0  0  0  0  0  0  0  0
    2.6150    7.1190  -11.9630 O   0  0  0  0  0  0  0  0  0  0  0  0
    3.1000    8.3610  -14.5520 C   0  0  0  0  0  0  0  0  0  0  0  0
    3.3470    9.3270  -15.3040 O   0  0  0  0  0  0  0  0  0  0  0  0
    4.1940    7.5050  -14.1320 C   0  0  0  0  0  0  0  0  0  0  0  0
    5.4730    8.0320  -13.9190 C   0  0  0  0  0  3  0  0  0  0  0  0
    6.5240    7.2430  -13.5280 C   0  0  0  0  0  3  0  0  0  0  0  0
    6.3240    5.8970  -13.3360 C   0  0  0  0  0  0  0  0  0  0  0  0
    7.7900    4.8210  -12.7950 Br  0  0  0  0  0  0  0  0  0  0  0  0
    5.0960    5.3210  -13.5270 C   0  0  0  0  0  3  0  0  0  0  0  0
    4.0610    6.1480  -13.9220 C   0  0  0  0  0  3  0  0  0  0  0  0
    1.5150   10.4530  -13.3460 C   0  0  0  0  0  0  0  0  0  0  0  0
    0.9490   11.7350  -13.3890 C   0  0  0  0  0  3  0  0  0  0  0  0
    1.5710   12.8220  -12.8110 C   0  0  0  0  0  0  0  0  0  0  0  0
    2.7840   12.6870  -12.1610 C   0  0  0  0  0  0  0  0  0  0  0  0
    3.3580   11.4350  -12.1060 C   0  0  0  0  0  3  0  0  0  0  0  0
    3.4320   13.7650  -11.5700 O   0  0  0  0  0  1  0  0  0  0  0  0
    2.7210   10.3530  -12.6920 C   0  0  0  0  0  3  0  0  0  0  0  0
    1.0180   14.0900  -12.8500 O   0  0  0  0  0  0  0  0  0  0  0  0
   -0.3650   14.3360  -12.8650 C   0  0  0  0  0  1  0  0  0  0  0  0
   -1.6470    9.1150  -13.2380 C   0  0  0  0  0  2  0  0  0  0  0  0
   -2.4890    8.0840  -13.9250 C   0  0  0  0  0  2  0  0  0  0  0  0
   -3.1920    8.5300  -15.0650 N   0  0  0  0  0  4  0  0  0  0  0  0
   -3.9020    9.7630  -14.7060 C   0  0  0  0  0  2  0  0  0  0  0  0
   -5.0460    9.5150  -13.7800 C   0  0  0  0  0  2  0  0  0  0  0  0
   -5.4270    8.2000  -13.6720 O   0  0  0  0  0  0  0  0  0  0  0  0
   -5.4600    7.5880  -14.9000 C   0  0  0  0  0  2  0  0  0  0  0  0
   -4.1410    7.6340  -15.6230 C   0  0  0  0  0  2  0  0  0  0  0  0
   -2.5260    8.8220  -15.8330 H   0  0  0  0  0  0  0  0  0  0  0  0
  1  8  1  1  0  0  0
  1  2  1  0  0  0  0
  1  6  1  0  0  0  0
  2 17  1  1  0  0  0
  2  3  1  0  0  0  0
  3  4  1  0  0  0  0
  4  5  2  0  0  0  0
  6  4  1  0  0  0  0
  6  7  2  0  0  0  0
  8 10  1  0  0  0  0
  9  8  2  0  0  0  0
 10 16  2  0  0  0  0
 10 11  1  0  0  0  0
 11 12  2  0  0  0  0
 12 13  1  0  0  0  0
 13 14  1  0  0  0  0
 15 13  2  0  0  0  0
 16 15  1  0  0  0  0
 17 23  1  0  0  0  0
 18 17  2  0  0  0  0
 18 19  1  0  0  0  0
 19 20  2  0  0  0  0
 20 21  1  0  0  0  0
 20 22  1  0  0  0  0
 23 21  2  0  0  0  0
 24 19  1  0  0  0  0
 25 24  1  0  0  0  0
 26  3  1  0  0  0  0
 27 26  1  0  0  0  0
 28 29  1  0  0  0  0
 28 27  1  0  0  0  0
 29 30  1  0  0  0  0
 30 31  1  0  0  0  0
 32 31  1  0  0  0  0
 33 28  1  0  0  0  0
 33 32  1  0  0  0  0
 34 28  1  0  0  0  0
M  END
>  <Pose>
1

>  <Score>
-7.992

$$$$
