MODEL 1
REMARK VINA RESULT:    -7.581      0.000      0.000
REMARK INTER + INTRA:          -8.111
REMARK INTER:                  -8.910
REMARK INTRA:                   0.799
REMARK UNBOUND:                 0.799
REMARK  3 active torsions:
REMARK  status: ('A' for Active; 'I' for Inactive)
REMARK    1  A    between atoms: C_5  and  C_8 
REMARK    2  A    between atoms: C_8  and  C_10 
REMARK    3  A    between atoms: N_21  and  C_24 
ROOT
ATOM      1  C   UNK d   1       0.716   9.007 -12.518  0.00  0.00     0.193 C 
ATOM      2  N   UNK d   1       0.040   7.894 -13.167  0.00  0.00    -0.283 N 
ATOM      3  N   UNK d   1      -0.512   7.629 -14.403  0.00  0.00    -0.188 NA
ATOM      4  C   UNK d   1      -0.961   6.475 -14.750  0.00  0.00     0.138 A 
ATOM      5  C   UNK d   1      -0.910   5.377 -13.812  0.00  0.00     0.019 A 
ATOM      6  C   UNK d   1      -0.424   5.557 -12.606  0.00  0.00     0.002 A 
ATOM      7  C   UNK d   1       0.067   6.845 -12.151  0.00  0.00     0.142 A 
ATOM      8  C   UNK d   1       1.490   6.894 -11.722  0.00  0.00     0.122 C 
ATOM      9  C   UNK d   1       1.970   8.318 -12.027  0.00  0.00     0.126 C 
ATOM     10  C   UNK d   1       2.971   8.136 -13.076  0.00  0.00     0.234 C 
ATOM     11  O   UNK d   1       3.437   9.050 -13.811  0.00  0.00    -0.272 OA
ATOM     12  N   UNK d   1       3.331   6.770 -13.134  0.00  0.00    -0.288 N 
ATOM     13  C   UNK d   1       2.366   5.974 -12.458  0.00  0.00     0.234 C 
ATOM     14  O   UNK d   1       2.272   4.723 -12.480  0.00  0.00    -0.272 OA
ENDROOT
BRANCH   1  15
ATOM     15  C   UNK d   1       0.994  10.093 -13.467  0.00  0.00     0.184 C 
ATOM     16  O   UNK d   1       1.162   9.754 -14.683  0.00  0.00    -0.290 OA
BRANCH  15  17
ATOM     17  C   UNK d   1       1.089  11.496 -13.132  0.00  0.00     0.012 A 
ATOM     18  C   UNK d   1       0.021  12.351 -13.228  0.00  0.00     0.016 A 
ATOM     19  C   UNK d   1       0.168  13.678 -12.891  0.00  0.00     0.020 A 
ATOM     20  C   UNK d   1       1.356  14.219 -12.449  0.00  0.00     0.011 A 
ATOM     21 Br   UNK d   1       1.492  16.069 -11.997  0.00  0.00    -0.051 Br
ATOM     22  C   UNK d   1       2.426  13.357 -12.354  0.00  0.00     0.020 A 
ATOM     23  C   UNK d   1       2.289  12.029 -12.689  0.00  0.00     0.016 A 
ENDBRANCH  15  17
ENDBRANCH   1  15
BRANCH  12  24
ATOM     24  C   UNK d   1       4.506   6.233 -13.779  0.00  0.00     0.130 C 
ATOM     25  C   UNK d   1       5.522   5.690 -12.820  0.00  0.00     0.027 C 
ENDBRANCH  12  24
TORSDOF 3
ENDMDL
