/Users/jonathanwahrer/Desktop/Msc/3_Semester/Drug_Design_Praktikum/waehrer_HTS_screening/HTS_experiment/out/docking_results/vina_output/6q9y/0243_docked.pdbqt
 OpenBabel03222219123D

 30 33  0  0  1  0  0  0  0  0999 V2000
    0.5530   15.2080  -12.8110 C   0  0  2  0  0  3  0  0  0  0  0  0
    0.1640   15.9880  -11.5790 C   0  0  0  0  0  2  0  0  0  0  0  0
   -0.7440   17.0020  -12.0700 N   0  0  0  0  0  0  0  0  0  0  0  0
   -0.5820   17.1600  -13.5060 C   0  0  1  0  0  3  0  0  0  0  0  0
    0.3820   16.1320  -13.9850 C   0  0  0  0  0  2  0  0  0  0  0  0
   -1.9360   17.0180  -14.0880 C   0  0  0  0  0  0  0  0  0  0  0  0
   -2.1080   16.2550  -15.0640 O   0  0  0  0  0  0  0  0  0  0  0  0
   -2.9930   17.7610  -13.5080 N   0  0  0  0  0  0  0  0  0  0  0  0
   -2.9360   18.3370  -12.1840 C   0  0  1  0  0  3  0  0  0  0  0  0
   -1.7210   17.8440  -11.4740 C   0  0  0  0  0  0  0  0  0  0  0  0
   -1.5200   18.1820  -10.2520 O   0  0  0  0  0  0  0  0  0  0  0  0
   -3.8550   17.8810  -14.1020 H   0  0  0  0  0  0  0  0  0  0  0  0
   -0.2880   14.0580  -13.0220 N   0  0  0  0  0  0  0  0  0  0  0  0
    0.2640   12.7840  -13.1840 C   0  0  0  0  0  0  0  0  0  0  0  0
    1.5290   12.6100  -13.1470 O   0  0  0  0  0  0  0  0  0  0  0  0
   -1.3120   14.1960  -13.0520 H   0  0  0  0  0  0  0  0  0  0  0  0
   -0.5410   11.5740  -13.4030 C   0  0  0  0  0  0  0  0  0  0  0  0
    0.0120   10.3120  -13.3330 C   0  0  0  0  0  3  0  0  0  0  0  0
   -0.7430    9.1760  -13.5380 C   0  0  0  0  0  3  0  0  0  0  0  0
   -2.0910    9.2390  -13.8250 C   0  0  0  0  0  0  0  0  0  0  0  0
   -3.1690    7.7020  -14.1150 Br  0  0  0  0  0  0  0  0  0  0  0  0
   -2.6460   10.5120  -13.8950 C   0  0  0  0  0  3  0  0  0  0  0  0
   -1.8850   11.6380  -13.6890 C   0  0  0  0  0  3  0  0  0  0  0  0
   -3.0000   19.8440  -12.2390 C   0  0  0  0  0  2  0  0  0  0  0  0
   -4.0060   20.3820  -11.2800 C   0  0  0  0  0  0  0  0  0  0  0  0
   -3.6050   20.8880  -10.0430 C   0  0  0  0  0  3  0  0  0  0  0  0
   -4.5780   21.3720   -9.1960 C   0  0  0  0  0  3  0  0  0  0  0  0
   -5.9240   21.3790   -9.5190 C   0  0  0  0  0  3  0  0  0  0  0  0
   -6.2700   20.8700  -10.7490 C   0  0  0  0  0  3  0  0  0  0  0  0
   -5.3420   20.3720  -11.6370 C   0  0  0  0  0  3  0  0  0  0  0  0
  1 13  1  6  0  0  0
  1  2  1  0  0  0  0
  3  2  1  0  0  0  0
  3 10  1  0  0  0  0
  4  5  1  6  0  0  0
  4  3  1  0  0  0  0
  5  1  1  0  0  0  0
  6  8  1  0  0  0  0
  6  4  1  0  0  0  0
  7  6  2  0  0  0  0
  8  9  1  0  0  0  0
  9 24  1  6  0  0  0
  9 10  1  0  0  0  0
 10 11  2  0  0  0  0
 12  8  1  0  0  0  0
 14 15  2  0  0  0  0
 14 13  1  0  0  0  0
 16 13  1  0  0  0  0
 17 18  1  0  0  0  0
 17 14  1  0  0  0  0
 19 18  2  0  0  0  0
 20 19  1  0  0  0  0
 21 20  1  0  0  0  0
 22 20  2  0  0  0  0
 22 23  1  0  0  0  0
 23 17  2  0  0  0  0
 24 25  1  0  0  0  0
 25 26  1  0  0  0  0
 26 27  2  0  0  0  0
 28 27  1  0  0  0  0
 29 28  2  0  0  0  0
 30 25  2  0  0  0  0
 30 29  1  0  0  0  0
M  END
>  <Pose>
1

>  <Score>
-7.988

$$$$
