MODEL 1
REMARK VINA RESULT:    -7.988      0.000      0.000
REMARK INTER + INTRA:         -10.566
REMARK INTER:                  -9.856
REMARK INTRA:                  -0.710
REMARK UNBOUND:                -0.710
REMARK  4 active torsions:
REMARK  status: ('A' for Active; 'I' for Inactive)
REMARK    1  A    between atoms: C_5  and  C_8 
REMARK       I    between atoms: C_8  and  N_10 
REMARK    2  A    between atoms: N_10  and  C_11 
REMARK    3  A    between atoms: C_19  and  C_22 
REMARK    4  A    between atoms: C_22  and  C_23 
ROOT
ATOM      1  C   UNK d   1       0.553  15.208 -12.811  0.00  0.00     0.105 C 
ATOM      2  C   UNK d   1       0.164  15.988 -11.579  0.00  0.00     0.152 C 
ATOM      3  N   UNK d   1      -0.744  17.002 -12.070  0.00  0.00    -0.335 N 
ATOM      4  C   UNK d   1      -0.582  17.160 -13.506  0.00  0.00     0.181 C 
ATOM      5  C   UNK d   1       0.382  16.132 -13.985  0.00  0.00     0.061 C 
ATOM      6  C   UNK d   1      -1.936  17.018 -14.088  0.00  0.00     0.241 C 
ATOM      7  O   UNK d   1      -2.108  16.255 -15.064  0.00  0.00    -0.271 OA
ATOM      8  N   UNK d   1      -2.993  17.761 -13.508  0.00  0.00    -0.346 N 
ATOM      9  C   UNK d   1      -2.936  18.337 -12.184  0.00  0.00     0.181 C 
ATOM     10  C   UNK d   1      -1.721  17.844 -11.474  0.00  0.00     0.243 C 
ATOM     11  O   UNK d   1      -1.520  18.182 -10.252  0.00  0.00    -0.271 OA
ATOM     12  H   UNK d   1      -3.855  17.881 -14.102  0.00  0.00     0.163 HD
ENDROOT
BRANCH   1  13
ATOM     13  N   UNK d   1      -0.288  14.058 -13.022  0.00  0.00    -0.351 N 
ATOM     14  C   UNK d   1       0.264  12.784 -13.184  0.00  0.00     0.252 C 
ATOM     15  O   UNK d   1       1.529  12.610 -13.147  0.00  0.00    -0.268 OA
ATOM     16  H   UNK d   1      -1.312  14.196 -13.052  0.00  0.00     0.163 HD
BRANCH  14  17
ATOM     17  C   UNK d   1      -0.541  11.574 -13.403  0.00  0.00     0.032 A 
ATOM     18  C   UNK d   1       0.012  10.312 -13.333  0.00  0.00     0.018 A 
ATOM     19  C   UNK d   1      -0.743   9.176 -13.538  0.00  0.00     0.020 A 
ATOM     20  C   UNK d   1      -2.091   9.239 -13.825  0.00  0.00     0.011 A 
ATOM     21 Br   UNK d   1      -3.169   7.702 -14.115  0.00  0.00    -0.051 Br
ATOM     22  C   UNK d   1      -2.646  10.512 -13.895  0.00  0.00     0.020 A 
ATOM     23  C   UNK d   1      -1.885  11.638 -13.689  0.00  0.00     0.018 A 
ENDBRANCH  14  17
ENDBRANCH   1  13
BRANCH   9  24
ATOM     24  C   UNK d   1      -3.000  19.844 -12.239  0.00  0.00     0.073 C 
BRANCH  24  25
ATOM     25  C   UNK d   1      -4.006  20.382 -11.280  0.00  0.00    -0.056 A 
ATOM     26  C   UNK d   1      -3.605  20.888 -10.043  0.00  0.00     0.007 A 
ATOM     27  C   UNK d   1      -4.578  21.372  -9.196  0.00  0.00     0.001 A 
ATOM     28  C   UNK d   1      -5.924  21.379  -9.519  0.00  0.00     0.000 A 
ATOM     29  C   UNK d   1      -6.270  20.870 -10.749  0.00  0.00     0.001 A 
ATOM     30  C   UNK d   1      -5.342  20.372 -11.637  0.00  0.00     0.007 A 
ENDBRANCH  24  25
ENDBRANCH   9  24
TORSDOF 4
ENDMDL
