/Users/jonathanwahrer/Desktop/Msc/3_Semester/Drug_Design_Praktikum/waehrer_HTS_screening/HTS_experiment/out/docking_results/vina_output/6q9y/0244_docked.pdbqt
 OpenBabel03222219123D

 25 28  0  0  1  0  0  0  0  0999 V2000
   -0.8190    8.4290  -13.4900 C   0  0  2  0  0  3  0  0  0  0  0  0
   -0.5390    7.3340  -12.4880 C   0  0  0  0  0  2  0  0  0  0  0  0
    0.7690    6.8480  -12.8910 N   0  0  0  0  0  0  0  0  0  0  0  0
    0.9550    7.1110  -14.3050 C   0  0  1  0  0  3  0  0  0  0  0  0
   -0.1780    7.9610  -14.7740 C   0  0  0  0  0  2  0  0  0  0  0  0
    2.2770    7.7730  -14.4420 C   0  0  0  0  0  0  0  0  0  0  0  0
    2.4730    8.7920  -15.1450 O   0  0  0  0  0  0  0  0  0  0  0  0
    3.3960    7.2500  -13.7510 N   0  0  0  0  0  0  0  0  0  0  0  0
    3.2670    6.4910  -12.5240 C   0  0  2  0  0  3  0  0  0  0  0  0
    4.0920    5.2870  -12.8490 C   0  0  0  0  0  2  0  0  0  0  0  0
    5.2830    5.9200  -13.5780 C   0  0  0  0  0  2  0  0  0  0  0  0
    4.8040    7.3030  -14.0300 C   0  0  0  0  0  2  0  0  0  0  0  0
    1.8430    6.2020  -12.2200 C   0  0  0  0  0  0  0  0  0  0  0  0
    1.5480    5.3410  -11.3220 O   0  0  0  0  0  0  0  0  0  0  0  0
   -0.2390    9.6820  -13.1350 N   0  0  0  0  0  0  0  0  0  0  0  0
   -0.8600   10.8870  -13.5510 C   0  0  0  0  0  0  0  0  0  0  0  0
   -1.9110   10.8400  -14.2240 O   0  0  0  0  0  0  0  0  0  0  0  0
    0.6460    9.6750  -12.5680 H   0  0  0  0  0  0  0  0  0  0  0  0
   -0.2910   12.2040  -13.2040 C   0  0  0  0  0  0  0  0  0  0  0  0
    1.0580   12.3020  -12.9400 C   0  0  0  0  0  3  0  0  0  0  0  0
    1.6200   13.5160  -12.6130 C   0  0  0  0  0  3  0  0  0  0  0  0
    0.8710   14.6770  -12.5360 C   0  0  0  0  0  0  0  0  0  0  0  0
    1.7150   16.3150  -12.0800 Br  0  0  0  0  0  0  0  0  0  0  0  0
   -0.4820   14.5790  -12.8010 C   0  0  0  0  0  3  0  0  0  0  0  0
   -1.0340   13.3420  -13.1300 C   0  0  0  0  0  3  0  0  0  0  0  0
  1 15  1  1  0  0  0
  1  2  1  0  0  0  0
  3  2  1  0  0  0  0
  3 13  1  0  0  0  0
  4  5  1  1  0  0  0
  4  3  1  0  0  0  0
  5  1  1  0  0  0  0
  6  4  1  0  0  0  0
  6  8  1  0  0  0  0
  7  6  2  0  0  0  0
  8  9  1  0  0  0  0
  9 10  1  6  0  0  0
  9 13  1  0  0  0  0
 11 10  1  0  0  0  0
 12  8  1  0  0  0  0
 12 11  1  0  0  0  0
 13 14  2  0  0  0  0
 15 18  1  0  0  0  0
 16 19  1  0  0  0  0
 16 15  1  0  0  0  0
 17 16  2  0  0  0  0
 19 25  2  0  0  0  0
 19 20  1  0  0  0  0
 20 21  2  0  0  0  0
 21 22  1  0  0  0  0
 22 23  1  0  0  0  0
 24 22  2  0  0  0  0
 25 24  1  0  0  0  0
M  END
>  <Pose>
1

>  <Score>
-6.174

$$$$
