MODEL 1
REMARK VINA RESULT:    -6.174      0.000      0.000
REMARK INTER + INTRA:          -7.358
REMARK INTER:                  -6.896
REMARK INTRA:                  -0.461
REMARK UNBOUND:                -0.461
REMARK  2 active torsions:
REMARK  status: ('A' for Active; 'I' for Inactive)
REMARK    1  A    between atoms: C_5  and  C_8 
REMARK       I    between atoms: C_8  and  N_10 
REMARK    2  A    between atoms: N_10  and  C_11 
ROOT
ATOM      1  C   UNK d   1      -0.819   8.429 -13.490  0.00  0.00     0.105 C 
ATOM      2  C   UNK d   1      -0.539   7.334 -12.488  0.00  0.00     0.152 C 
ATOM      3  N   UNK d   1       0.769   6.848 -12.891  0.00  0.00    -0.335 N 
ATOM      4  C   UNK d   1       0.955   7.111 -14.305  0.00  0.00     0.181 C 
ATOM      5  C   UNK d   1      -0.178   7.961 -14.774  0.00  0.00     0.061 C 
ATOM      6  C   UNK d   1       2.277   7.773 -14.442  0.00  0.00     0.243 C 
ATOM      7  O   UNK d   1       2.473   8.792 -15.145  0.00  0.00    -0.271 OA
ATOM      8  N   UNK d   1       3.396   7.250 -13.751  0.00  0.00    -0.337 N 
ATOM      9  C   UNK d   1       3.267   6.491 -12.524  0.00  0.00     0.179 C 
ATOM     10  C   UNK d   1       4.092   5.287 -12.849  0.00  0.00     0.037 C 
ATOM     11  C   UNK d   1       5.283   5.920 -13.578  0.00  0.00     0.022 C 
ATOM     12  C   UNK d   1       4.804   7.303 -14.030  0.00  0.00     0.127 C 
ATOM     13  C   UNK d   1       1.843   6.202 -12.220  0.00  0.00     0.243 C 
ATOM     14  O   UNK d   1       1.548   5.341 -11.322  0.00  0.00    -0.271 OA
ENDROOT
BRANCH   1  15
ATOM     15  N   UNK d   1      -0.239   9.682 -13.135  0.00  0.00    -0.351 N 
ATOM     16  C   UNK d   1      -0.860  10.887 -13.551  0.00  0.00     0.252 C 
ATOM     17  O   UNK d   1      -1.911  10.840 -14.224  0.00  0.00    -0.268 OA
ATOM     18  H   UNK d   1       0.646   9.675 -12.568  0.00  0.00     0.163 HD
BRANCH  16  19
ATOM     19  C   UNK d   1      -0.291  12.204 -13.204  0.00  0.00     0.032 A 
ATOM     20  C   UNK d   1       1.058  12.302 -12.940  0.00  0.00     0.018 A 
ATOM     21  C   UNK d   1       1.620  13.516 -12.613  0.00  0.00     0.020 A 
ATOM     22  C   UNK d   1       0.871  14.677 -12.536  0.00  0.00     0.011 A 
ATOM     23 Br   UNK d   1       1.715  16.315 -12.080  0.00  0.00    -0.051 Br
ATOM     24  C   UNK d   1      -0.482  14.579 -12.801  0.00  0.00     0.020 A 
ATOM     25  C   UNK d   1      -1.034  13.342 -13.130  0.00  0.00     0.018 A 
ENDBRANCH  16  19
ENDBRANCH   1  15
TORSDOF 2
ENDMDL
