MODEL 1
REMARK VINA RESULT:    -8.438      0.000      0.000
REMARK INTER + INTRA:         -12.636
REMARK INTER:                 -11.890
REMARK INTRA:                  -0.745
REMARK UNBOUND:                -0.745
REMARK  7 active torsions:
REMARK  status: ('A' for Active; 'I' for Inactive)
REMARK    1  A    between atoms: C_5  and  C_8 
REMARK    2  A    between atoms: C_8  and  C_9 
REMARK    3  A    between atoms: C_10  and  C_24 
REMARK    4  A    between atoms: N_11  and  C_16 
REMARK    5  A    between atoms: C_16  and  C_17 
REMARK    6  A    between atoms: C_17  and  C_18 
REMARK    7  A    between atoms: C_18  and  N_19 
ROOT
ATOM      1  C   UNK d   1       2.242   6.534 -12.757  0.00  0.00     0.064 C 
ATOM      2  C   UNK d   1       2.986   7.230 -13.856  0.00  0.00     0.180 C 
ATOM      3  N   UNK d   1       4.365   6.972 -13.459  0.00  0.00    -0.331 N 
ATOM      4  C   UNK d   1       4.351   5.610 -12.986  0.00  0.00     0.295 C 
ATOM      5  O   UNK d   1       5.339   4.858 -12.982  0.00  0.00    -0.264 OA
ATOM      6  C   UNK d   1       2.986   5.305 -12.528  0.00  0.00     0.251 C 
ATOM      7  O   UNK d   1       2.554   4.224 -12.049  0.00  0.00    -0.282 OA
ENDROOT
BRANCH   1   8
ATOM      8  C   UNK d   1       1.146   6.910 -12.150  0.00  0.00     0.130 C 
ATOM      9  O   UNK d   1       1.205   7.208 -10.775  0.00  0.00    -0.190 OA
BRANCH   8  10
ATOM     10  C   UNK d   1      -0.099   7.011 -12.891  0.00  0.00     0.001 A 
ATOM     11  C   UNK d   1      -0.629   5.872 -13.509  0.00  0.00     0.015 A 
ATOM     12  C   UNK d   1      -1.793   5.944 -14.244  0.00  0.00     0.020 A 
ATOM     13  C   UNK d   1      -2.490   7.122 -14.409  0.00  0.00     0.011 A 
ATOM     14 Br   UNK d   1      -4.101   7.247 -15.419  0.00  0.00    -0.051 Br
ATOM     15  C   UNK d   1      -1.985   8.255 -13.808  0.00  0.00     0.020 A 
ATOM     16  C   UNK d   1      -0.808   8.181 -13.066  0.00  0.00     0.015 A 
ENDBRANCH   8  10
ENDBRANCH   1   8
BRANCH   2  17
ATOM     17  C   UNK d   1       2.651   8.675 -13.885  0.00  0.00     0.061 A 
ATOM     18  N   UNK d   1       2.866   9.392 -12.771  0.00  0.00    -0.263 NA
ATOM     19  C   UNK d   1       2.614  10.700 -12.682  0.00  0.00     0.117 A 
ATOM     20  C   UNK d   1       2.109  11.338 -13.791  0.00  0.00     0.019 A 
ATOM     21  C   UNK d   1       1.874  10.643 -14.953  0.00  0.00     0.003 A 
ATOM     22  C   UNK d   1       2.150   9.301 -14.992  0.00  0.00     0.029 A 
ENDBRANCH   2  17
BRANCH   3  23
ATOM     23  C   UNK d   1       5.475   7.876 -13.540  0.00  0.00     0.129 C 
BRANCH  23  24
ATOM     24  C   UNK d   1       6.719   7.205 -14.100  0.00  0.00     0.040 C 
BRANCH  24  25
ATOM     25  C   UNK d   1       7.793   7.242 -13.012  0.00  0.00     0.131 C 
BRANCH  25  26
ATOM     26  N   UNK d   1       9.002   6.561 -13.432  0.00  0.00    -0.352 N 
ATOM     27  C   UNK d   1       9.872   5.875 -12.654  0.00  0.00     0.182 A 
ATOM     28  N   UNK d   1      10.861   5.395 -13.427  0.00  0.00    -0.361 N 
ATOM     29  C   UNK d   1      10.652   5.757 -14.701  0.00  0.00     0.106 A 
ATOM     30  H   UNK d   1      11.687   4.817 -13.102  0.00  0.00     0.166 HD
ATOM     31  C   UNK d   1       9.482   6.487 -14.683  0.00  0.00     0.108 A 
ENDBRANCH  25  26
ENDBRANCH  24  25
ENDBRANCH  23  24
ENDBRANCH   3  23
TORSDOF 7
ENDMDL
