MODEL 1
REMARK VINA RESULT:    -8.221      0.000      0.000
REMARK INTER + INTRA:         -10.038
REMARK INTER:                 -11.105
REMARK INTRA:                   1.067
REMARK UNBOUND:                 1.067
REMARK  6 active torsions:
REMARK  status: ('A' for Active; 'I' for Inactive)
REMARK    1  A    between atoms: C_5  and  C_8 
REMARK    2  A    between atoms: C_10  and  C_24 
REMARK    3  A    between atoms: N_11  and  C_16 
REMARK    4  A    between atoms: C_16  and  C_17 
REMARK    5  A    between atoms: C_17  and  N_18 
REMARK    6  A    between atoms: C_26  and  N_30 
ROOT
ATOM      1  C   UNK d   1       4.252   6.452 -13.176  0.00  0.00     0.130 C 
ATOM      2  C   UNK d   1       3.052   6.375 -12.665  0.00  0.00     0.062 C 
ATOM      3  C   UNK d   1       2.089   7.509 -12.428  0.00  0.00     0.161 C 
ATOM      4  N   UNK d   1       0.816   6.903 -12.613  0.00  0.00    -0.331 N 
ATOM      5  C   UNK d   1       0.949   5.511 -12.234  0.00  0.00     0.295 C 
ATOM      6  O   UNK d   1       0.031   4.714 -11.925  0.00  0.00    -0.264 OA
ATOM      7  C   UNK d   1       2.366   5.167 -12.266  0.00  0.00     0.250 C 
ATOM      8  O   UNK d   1       2.853   4.019 -11.992  0.00  0.00    -0.282 OA
ATOM      9  O   UNK d   1       4.729   7.723 -13.567  0.00  0.00    -0.190 OA
ENDROOT
BRANCH   1  10
ATOM     10  C   UNK d   1       5.078   5.267 -13.341  0.00  0.00     0.001 A 
ATOM     11  C   UNK d   1       6.364   5.349 -12.810  0.00  0.00     0.015 A 
ATOM     12  C   UNK d   1       7.213   4.280 -12.866  0.00  0.00     0.020 A 
ATOM     13  C   UNK d   1       6.776   3.116 -13.456  0.00  0.00     0.011 A 
ATOM     14 Br   UNK d   1       7.998   1.631 -13.518  0.00  0.00    -0.051 Br
ATOM     15  C   UNK d   1       5.505   3.028 -13.982  0.00  0.00     0.020 A 
ATOM     16  C   UNK d   1       4.658   4.115 -13.919  0.00  0.00     0.015 A 
ENDBRANCH   1  10
BRANCH   3  17
ATOM     17  C   UNK d   1       2.420   8.670 -13.245  0.00  0.00    -0.028 A 
ATOM     18  C   UNK d   1       2.868   9.877 -12.782  0.00  0.00     0.045 A 
ATOM     19  C   UNK d   1       3.168  10.920 -13.619  0.00  0.00     0.103 A 
ATOM     20  C   UNK d   1       3.017  10.763 -14.970  0.00  0.00     0.036 A 
ATOM     21  C   UNK d   1       2.564   9.559 -15.502  0.00  0.00     0.003 A 
ATOM     22  C   UNK d   1       2.274   8.537 -14.635  0.00  0.00     0.010 A 
BRANCH  19  23
ATOM     23  N   UNK d   1       3.626  12.135 -13.073  0.00  0.00    -0.116 N 
ATOM     24  O   UNK d   1       4.466  12.863 -13.663  0.00  0.00    -0.532 OA
ATOM     25  O   UNK d   1       3.132  12.533 -11.852  0.00  0.00    -0.532 OA
ENDBRANCH  19  23
ENDBRANCH   3  17
BRANCH   4  26
ATOM     26  C   UNK d   1      -0.481   7.405 -13.027  0.00  0.00     0.155 C 
BRANCH  26  27
ATOM     27  C   UNK d   1      -1.048   6.783 -14.262  0.00  0.00     0.255 C 
BRANCH  27  28
ATOM     28  N   UNK d   1      -2.270   7.430 -14.711  0.00  0.00    -0.066 N 
ATOM     29  C   UNK d   1      -2.595   8.576 -13.856  0.00  0.00     0.261 C 
ATOM     30  C   UNK d   1      -3.797   9.247 -14.536  0.00  0.00     0.195 C 
ATOM     31  O   UNK d   1      -4.877   8.405 -14.633  0.00  0.00    -0.388 OA
ATOM     32  C   UNK d   1      -4.594   7.182 -15.222  0.00  0.00     0.195 C 
ATOM     33  C   UNK d   1      -3.385   6.522 -14.608  0.00  0.00     0.261 C 
ATOM     34  H   UNK d   1      -2.227   7.799 -15.665  0.00  0.00     0.280 HD
ENDBRANCH  27  28
ENDBRANCH  26  27
ENDBRANCH   4  26
TORSDOF 6
ENDMDL
