/Users/jonathanwahrer/Desktop/Msc/3_Semester/Drug_Design_Praktikum/waehrer_HTS_screening/HTS_experiment/out/docking_results/vina_output/6q9y/0265_docked.pdbqt
 OpenBabel03222219133D

 35 38  0  0  1  0  0  0  0  0999 V2000
    2.2870    9.9390  -12.0920 C   0  0  0  0  0  0  0  0  0  0  0  0
    3.0340    9.1480  -12.8310 C   0  0  0  0  0  0  0  0  0  0  0  0
    3.0630    7.6430  -12.7640 C   0  0  2  0  0  3  0  0  0  0  0  0
    4.0690    7.2260  -13.6790 N   0  0  0  0  0  0  0  0  0  0  0  0
    4.5890    8.3460  -14.4260 C   0  0  0  0  0  0  0  0  0  0  0  0
    5.4200    8.3460  -15.3440 O   0  0  0  0  0  0  0  0  0  0  0  0
    3.9300    9.5580  -13.8880 C   0  0  0  0  0  0  0  0  0  0  0  0
    4.1350   10.7440  -14.3050 O   0  0  0  0  0  0  0  0  0  0  0  0
    1.4410    9.2890  -11.1640 O   0  0  0  0  0  1  0  0  0  0  0  0
    1.7010    7.2230  -13.2160 C   0  0  0  0  0  0  0  0  0  0  0  0
    1.0670    6.2420  -12.5200 C   0  0  0  0  0  3  0  0  0  0  0  0
   -0.1890    5.8120  -12.8960 C   0  0  0  0  0  3  0  0  0  0  0  0
   -0.8080    6.3750  -13.9800 C   0  0  0  0  0  0  0  0  0  0  0  0
   -0.1670    7.3650  -14.6790 C   0  0  0  0  0  3  0  0  0  0  0  0
    1.0940    7.8010  -14.3060 C   0  0  0  0  0  3  0  0  0  0  0  0
   -2.1390    5.9250  -14.3910 C   0  0  0  0  0  0  0  0  0  0  0  0
   -2.8090    5.1900  -13.6210 O   0  0  0  0  0  0  0  0  0  0  0  0
   -2.7070    6.2650  -15.5890 O   0  0  0  0  0  0  0  0  0  0  0  0
   -3.8460    7.0880  -15.6930 C   0  0  0  0  0  1  0  0  0  0  0  0
    4.5620    5.8950  -13.9080 C   0  0  0  0  0  2  0  0  0  0  0  0
    5.6310    5.4420  -12.9740 C   0  0  0  0  0  2  0  0  0  0  0  0
    6.9680    5.7810  -13.3590 N   0  0  0  0  0  4  0  0  0  0  0  0
    7.8590    4.6430  -13.4600 C   0  0  0  0  0  2  0  0  0  0  0  0
    9.1570    5.1450  -14.0590 C   0  0  0  0  0  2  0  0  0  0  0  0
    9.7310    5.9880  -13.0780 O   0  0  0  0  0  0  0  0  0  0  0  0
    8.9050    7.1150  -13.0180 C   0  0  0  0  0  2  0  0  0  0  0  0
    7.5940    6.6900  -12.3780 C   0  0  0  0  0  2  0  0  0  0  0  0
    6.9910    6.3470  -14.2490 H   0  0  0  0  0  0  0  0  0  0  0  0
    2.3000   11.3910  -12.1910 C   0  0  0  0  0  0  0  0  0  0  0  0
    1.2780   12.0590  -12.8790 C   0  0  0  0  0  3  0  0  0  0  0  0
    1.2180   13.4330  -12.9770 C   0  0  0  0  0  3  0  0  0  0  0  0
    2.1830   14.2210  -12.3880 C   0  0  0  0  0  0  0  0  0  0  0  0
    2.0780   16.1240  -12.5420 Br  0  0  0  0  0  0  0  0  0  0  0  0
    3.1960   13.5890  -11.7070 C   0  0  0  0  0  3  0  0  0  0  0  0
    3.2530   12.1920  -11.6100 C   0  0  0  0  0  3  0  0  0  0  0  0
  1  9  1  0  0  0  0
  2  3  1  0  0  0  0
  2  1  2  0  0  0  0
  3 10  1  6  0  0  0
  4  3  1  0  0  0  0
  5  7  1  0  0  0  0
  5  4  1  0  0  0  0
  6  5  2  0  0  0  0
  7  2  1  0  0  0  0
  8  7  2  0  0  0  0
 10 11  1  0  0  0  0
 12 11  2  0  0  0  0
 13 12  1  0  0  0  0
 14 15  1  0  0  0  0
 14 13  2  0  0  0  0
 15 10  2  0  0  0  0
 16 13  1  0  0  0  0
 16 17  2  0  0  0  0
 18 16  1  0  0  0  0
 19 18  1  0  0  0  0
 20  4  1  0  0  0  0
 20 21  1  0  0  0  0
 22 21  1  0  0  0  0
 22 27  1  0  0  0  0
 23 22  1  0  0  0  0
 24 23  1  0  0  0  0
 24 25  1  0  0  0  0
 25 26  1  0  0  0  0
 26 27  1  0  0  0  0
 28 22  1  0  0  0  0
 29  1  1  0  0  0  0
 29 35  1  0  0  0  0
 30 29  2  0  0  0  0
 31 30  1  0  0  0  0
 31 32  2  0  0  0  0
 32 34  1  0  0  0  0
 33 32  1  0  0  0  0
 34 35  2  0  0  0  0
M  END
>  <Pose>
1

>  <Score>
-6.583

$$$$
