MODEL 1
REMARK VINA RESULT:    -6.583      0.000      0.000
REMARK INTER + INTRA:         -10.370
REMARK INTER:                  -9.277
REMARK INTRA:                  -1.092
REMARK UNBOUND:                -1.092
REMARK  7 active torsions:
REMARK  status: ('A' for Active; 'I' for Inactive)
REMARK    1  A    between atoms: C_5  and  C_8 
REMARK    2  A    between atoms: C_10  and  C_24 
REMARK    3  A    between atoms: N_11  and  C_16 
REMARK    4  A    between atoms: C_16  and  C_17 
REMARK    5  A    between atoms: C_17  and  N_18 
REMARK    6  A    between atoms: C_27  and  C_30 
REMARK    7  A    between atoms: C_30  and  O_32 
ROOT
ATOM      1  C   UNK d   1       2.287   9.939 -12.092  0.00  0.00     0.130 C 
ATOM      2  C   UNK d   1       3.034   9.148 -12.831  0.00  0.00     0.062 A 
ATOM      3  C   UNK d   1       3.063   7.643 -12.764  0.00  0.00     0.161 A 
ATOM      4  N   UNK d   1       4.069   7.226 -13.679  0.00  0.00    -0.331 N 
ATOM      5  C   UNK d   1       4.589   8.346 -14.426  0.00  0.00     0.295 A 
ATOM      6  O   UNK d   1       5.420   8.346 -15.344  0.00  0.00    -0.264 OA
ATOM      7  C   UNK d   1       3.930   9.558 -13.888  0.00  0.00     0.250 A 
ATOM      8  O   UNK d   1       4.135  10.744 -14.305  0.00  0.00    -0.282 OA
ATOM      9  O   UNK d   1       1.441   9.289 -11.164  0.00  0.00    -0.190 OA
ENDROOT
BRANCH   3  10
ATOM     10  C   UNK d   1       1.701   7.223 -13.216  0.00  0.00    -0.030 A 
ATOM     11  C   UNK d   1       1.067   6.242 -12.520  0.00  0.00     0.011 A 
ATOM     12  C   UNK d   1      -0.189   5.812 -12.896  0.00  0.00     0.018 A 
ATOM     13  C   UNK d   1      -0.808   6.375 -13.980  0.00  0.00     0.039 A 
ATOM     14  C   UNK d   1      -0.167   7.365 -14.679  0.00  0.00     0.018 A 
ATOM     15  C   UNK d   1       1.094   7.801 -14.306  0.00  0.00     0.011 A 
BRANCH  13  16
ATOM     16  C   UNK d   1      -2.139   5.925 -14.391  0.00  0.00     0.292 C 
ATOM     17  O   UNK d   1      -2.809   5.190 -13.621  0.00  0.00    -0.259 OA
BRANCH  16  18
ATOM     18  O   UNK d   1      -2.707   6.265 -15.589  0.00  0.00    -0.323 OA
ATOM     19  C   UNK d   1      -3.846   7.088 -15.693  0.00  0.00     0.213 C 
ENDBRANCH  16  18
ENDBRANCH  13  16
ENDBRANCH   3  10
BRANCH   4  20
ATOM     20  C   UNK d   1       4.562   5.895 -13.908  0.00  0.00     0.155 C 
BRANCH  20  21
ATOM     21  C   UNK d   1       5.631   5.442 -12.974  0.00  0.00     0.255 C 
BRANCH  21  22
ATOM     22  N   UNK d   1       6.968   5.781 -13.359  0.00  0.00    -0.066 N 
ATOM     23  C   UNK d   1       7.859   4.643 -13.460  0.00  0.00     0.261 C 
ATOM     24  C   UNK d   1       9.157   5.145 -14.059  0.00  0.00     0.195 C 
ATOM     25  O   UNK d   1       9.731   5.988 -13.078  0.00  0.00    -0.388 OA
ATOM     26  C   UNK d   1       8.905   7.115 -13.018  0.00  0.00     0.195 C 
ATOM     27  C   UNK d   1       7.594   6.690 -12.378  0.00  0.00     0.261 C 
ATOM     28  H   UNK d   1       6.991   6.347 -14.249  0.00  0.00     0.280 HD
ENDBRANCH  21  22
ENDBRANCH  20  21
ENDBRANCH   4  20
BRANCH   1  29
ATOM     29  C   UNK d   1       2.300  11.391 -12.191  0.00  0.00     0.001 A 
ATOM     30  C   UNK d   1       1.278  12.059 -12.879  0.00  0.00     0.015 A 
ATOM     31  C   UNK d   1       1.218  13.433 -12.977  0.00  0.00     0.020 A 
ATOM     32  C   UNK d   1       2.183  14.221 -12.388  0.00  0.00     0.011 A 
ATOM     33 Br   UNK d   1       2.078  16.124 -12.542  0.00  0.00    -0.051 Br
ATOM     34  C   UNK d   1       3.196  13.589 -11.707  0.00  0.00     0.020 A 
ATOM     35  C   UNK d   1       3.253  12.192 -11.610  0.00  0.00     0.015 A 
ENDBRANCH   1  29
TORSDOF 7
ENDMDL
