/Users/jonathanwahrer/Desktop/Msc/3_Semester/Drug_Design_Praktikum/waehrer_HTS_screening/HTS_experiment/out/docking_results/vina_output/6q9y/0274_docked.pdbqt
 OpenBabel03222219143D

 31 34  0  0  1  0  0  0  0  0999 V2000
    3.4600    7.9060  -14.4820 C   0  0  0  0  0  0  0  0  0  0  0  0
    2.2670    7.9370  -13.9220 C   0  0  0  0  0  0  0  0  0  0  0  0
    1.0070    8.5850  -14.3860 C   0  0  1  0  0  3  0  0  0  0  0  0
   -0.0340    7.6620  -13.9020 N   0  0  0  0  0  0  0  0  0  0  0  0
    0.4550    7.1810  -12.6660 C   0  0  0  0  0  0  0  0  0  0  0  0
   -0.2470    6.7070  -11.7640 O   0  0  0  0  0  0  0  0  0  0  0  0
    1.9050    7.3390  -12.6390 C   0  0  0  0  0  0  0  0  0  0  0  0
    2.7420    7.0530  -11.7460 O   0  0  0  0  0  0  0  0  0  0  0  0
    3.6170    8.5810  -15.7090 O   0  0  0  0  0  1  0  0  0  0  0  0
    4.6210    7.2300  -13.9300 C   0  0  0  0  0  0  0  0  0  0  0  0
    5.7950    7.9040  -13.6770 C   0  0  0  0  0  3  0  0  0  0  0  0
    6.9140    7.2570  -13.1770 C   0  0  0  0  0  3  0  0  0  0  0  0
    6.8910    5.9070  -12.9130 C   0  0  0  0  0  0  0  0  0  0  0  0
    8.4340    5.0030  -12.2200 Br  0  0  0  0  0  0  0  0  0  0  0  0
    5.7260    5.2210  -13.1620 C   0  0  0  0  0  3  0  0  0  0  0  0
    4.6010    5.8790  -13.6670 C   0  0  0  0  0  3  0  0  0  0  0  0
    0.8240    9.9560  -13.9050 C   0  0  0  0  0  0  0  0  0  0  0  0
    1.9250   10.7520  -13.5670 C   0  0  0  0  0  3  0  0  0  0  0  0
    1.8230   12.0320  -13.1150 C   0  0  0  0  0  3  0  0  0  0  0  0
    0.5770   12.6120  -12.9690 C   0  0  0  0  0  3  0  0  0  0  0  0
   -0.5170   11.8600  -13.2910 C   0  0  0  0  0  3  0  0  0  0  0  0
   -0.4110   10.5460  -13.7540 C   0  0  0  0  0  3  0  0  0  0  0  0
   -1.2270    7.4100  -14.6240 C   0  0  0  0  0  2  0  0  0  0  0  0
   -2.5140    7.8200  -14.0350 C   0  0  0  0  0  2  0  0  0  0  0  0
   -3.3370    8.6730  -14.8350 N   0  0  0  0  0  4  0  0  0  0  0  0
   -4.0260    9.7040  -14.1410 C   0  0  0  0  0  2  0  0  0  0  0  0
   -5.4910    9.3390  -14.0500 C   0  0  0  0  0  2  0  0  0  0  0  0
   -5.6840    7.9840  -13.7930 O   0  0  0  0  0  0  0  0  0  0  0  0
   -5.2890    7.1830  -14.8480 C   0  0  0  0  0  2  0  0  0  0  0  0
   -4.2710    7.9450  -15.6660 C   0  0  0  0  0  2  0  0  0  0  0  0
   -2.6630    9.1460  -15.5130 H   0  0  0  0  0  0  0  0  0  0  0  0
  1 10  1  0  0  0  0
  1  2  2  0  0  0  0
  2  7  1  0  0  0  0
  3  2  1  0  0  0  0
  3 17  1  1  0  0  0
  3  4  1  0  0  0  0
  4  5  1  0  0  0  0
  5  7  1  0  0  0  0
  5  6  2  0  0  0  0
  7  8  2  0  0  0  0
  9  1  1  0  0  0  0
 10 11  2  0  0  0  0
 10 16  1  0  0  0  0
 11 12  1  0  0  0  0
 12 13  2  0  0  0  0
 13 14  1  0  0  0  0
 15 13  1  0  0  0  0
 16 15  2  0  0  0  0
 17 22  2  0  0  0  0
 17 18  1  0  0  0  0
 18 19  2  0  0  0  0
 19 20  1  0  0  0  0
 21 20  2  0  0  0  0
 22 21  1  0  0  0  0
 23 24  1  0  0  0  0
 23  4  1  0  0  0  0
 25 26  1  0  0  0  0
 25 24  1  0  0  0  0
 26 27  1  0  0  0  0
 27 28  1  0  0  0  0
 29 28  1  0  0  0  0
 30 29  1  0  0  0  0
 30 25  1  0  0  0  0
 31 25  1  0  0  0  0
M  END
>  <Pose>
1

>  <Score>
-7.870

$$$$
