/Users/jonathanwahrer/Desktop/Msc/3_Semester/Drug_Design_Praktikum/waehrer_HTS_screening/HTS_experiment/out/docking_results/vina_output/6q9y/0278_docked.pdbqt
 OpenBabel03222219143D

 30 33  0  0  1  0  0  0  0  0999 V2000
    0.4040   13.1350  -12.8030 N   0  0  0  0  0  0  0  0  0  0  0  0
    1.7090   12.9870  -12.4730 C   0  0  0  0  0  0  0  0  0  0  0  0
    2.1180   11.7920  -13.0430 C   0  0  0  0  0  0  0  0  0  0  0  0
    3.4250   11.3810  -12.8570 C   0  0  0  0  0  3  0  0  0  0  0  0
    4.3390   12.1370  -12.1130 C   0  0  0  0  0  3  0  0  0  0  0  0
    3.8820   13.3260  -11.5620 C   0  0  0  0  0  3  0  0  0  0  0  0
    2.5890   13.7580  -11.7310 C   0  0  0  0  0  3  0  0  0  0  0  0
    1.0770   11.2160  -13.7160 N   0  0  0  0  0  0  0  0  0  0  0  0
    0.0360   12.0730  -13.5450 C   0  0  1  0  0  3  0  0  0  0  0  0
   -0.3620   14.2730  -12.3840 C   0  0  0  0  0  2  0  0  0  0  0  0
   -0.3990   15.3740  -13.4000 C   0  0  1  0  0  3  0  0  0  0  0  0
   -1.2270   16.5340  -12.9000 C   0  0  0  0  0  0  0  0  0  0  0  0
   -2.3030   16.9780  -13.6260 C   0  0  0  0  0  3  0  0  0  0  0  0
   -3.0570   18.0270  -13.1720 C   0  0  0  0  0  3  0  0  0  0  0  0
   -2.7170   18.6260  -11.9810 C   0  0  0  0  0  0  0  0  0  0  0  0
   -3.7650   20.0940  -11.3380 Br  0  0  0  0  0  0  0  0  0  0  0  0
   -1.6500   18.2210  -11.2130 C   0  0  0  0  0  3  0  0  0  0  0  0
   -0.9180   17.1560  -11.7140 C   0  0  0  0  0  3  0  0  0  0  0  0
    0.8420   15.8770  -13.7370 O   0  0  0  0  0  0  0  0  0  0  0  0
    1.0390   16.7430  -13.3280 H   0  0  0  0  0  0  0  0  0  0  0  0
   -1.1380   11.8660  -14.0400 N   0  0  0  0  0  0  0  0  0  0  0  0
   -1.2980   11.0000  -14.6370 H   0  0  0  0  0  0  0  0  0  0  0  0
   -1.9620   12.4610  -13.9270 H   0  0  0  0  0  0  0  0  0  0  0  0
    1.1710    9.9790  -14.4320 C   0  0  0  0  0  2  0  0  0  0  0  0
    0.9720    8.7660  -13.5650 C   0  0  0  0  0  0  0  0  0  0  0  0
    2.0540    7.9410  -13.3090 C   0  0  0  0  0  3  0  0  0  0  0  0
    1.9520    6.8110  -12.5220 C   0  0  0  0  0  3  0  0  0  0  0  0
    0.7210    6.5200  -11.9870 C   0  0  0  0  0  3  0  0  0  0  0  0
   -0.3660    7.3190  -12.2250 C   0  0  0  0  0  3  0  0  0  0  0  0
   -0.2320    8.4330  -13.0100 C   0  0  0  0  0  3  0  0  0  0  0  0
  1  2  1  0  0  0  0
  1 10  1  0  0  0  0
  2  7  1  0  0  0  0
  3  4  1  0  0  0  0
  3  2  2  0  0  0  0
  4  5  2  0  0  0  0
  5  6  1  0  0  0  0
  7  6  2  0  0  0  0
  8  9  1  0  0  0  0
  8  3  1  0  0  0  0
  9 21  1  1  0  0  0
  9  1  1  0  0  0  0
 11 12  1  0  0  0  0
 11 10  1  1  0  0  0
 12 18  1  0  0  0  0
 13 14  1  0  0  0  0
 13 12  2  0  0  0  0
 14 15  2  0  0  0  0
 15 16  1  0  0  0  0
 15 17  1  0  0  0  0
 18 17  2  0  0  0  0
 19 11  1  0  0  0  0
 19 20  1  0  0  0  0
 21 23  1  0  0  0  0
 22 21  1  0  0  0  0
 24  8  1  0  0  0  0
 24 25  1  0  0  0  0
 25 26  2  0  0  0  0
 25 30  1  0  0  0  0
 26 27  1  0  0  0  0
 27 28  2  0  0  0  0
 29 28  1  0  0  0  0
 30 29  2  0  0  0  0
M  END
>  <Pose>
1

>  <Score>
-9.039

$$$$
