MODEL 1
REMARK VINA RESULT:    -7.404      0.000      0.000
REMARK INTER + INTRA:         -10.512
REMARK INTER:                 -10.001
REMARK INTRA:                  -0.511
REMARK UNBOUND:                -0.511
REMARK  6 active torsions:
REMARK  status: ('A' for Active; 'I' for Inactive)
REMARK    1  A    between atoms: C_5  and  C_8 
REMARK    2  A    between atoms: C_8  and  N_9 
REMARK    3  A    between atoms: N_12  and  C_15 
REMARK    4  A    between atoms: N_16  and  C_27 
REMARK    5  A    between atoms: C_27  and  C_28 
REMARK    6  A    between atoms: C_28  and  O_29 
ROOT
ATOM      1  C   UNK d   1       0.019   9.296 -13.578  0.00  0.00     0.707 A 
ATOM      2  N   UNK d   1      -0.048   7.958 -13.675  0.00  0.00    -0.170 N 
ATOM      3  C   UNK d   1      -1.320   7.595 -13.964  0.00  0.00     0.166 A 
ATOM      4  C   UNK d   1      -2.092   8.733 -14.053  0.00  0.00     0.185 A 
ATOM      5  N   UNK d   1      -1.259   9.746 -13.815  0.00  0.00    -0.044 NA
ATOM      6  N   UNK d   1      -3.403   8.624 -14.336  0.00  0.00    -0.286 N 
ATOM      7  C   UNK d   1      -3.987   7.435 -14.536  0.00  0.00     0.330 A 
ATOM      8  O   UNK d   1      -5.230   7.372 -14.803  0.00  0.00    -0.246 OA
ATOM      9  N   UNK d   1      -3.252   6.313 -14.454  0.00  0.00    -0.273 N 
ATOM     10  C   UNK d   1      -1.944   6.386 -14.173  0.00  0.00     0.280 A 
ATOM     11  O   UNK d   1      -1.259   5.336 -14.098  0.00  0.00    -0.265 OA
ATOM     12  C   UNK d   1      -4.192   9.857 -14.429  0.00  0.00     0.163 C 
ATOM     13  H   UNK d   1      -3.708   5.368 -14.610  0.00  0.00     0.173 HD
ENDROOT
BRANCH   1  14
ATOM     14  N   UNK d   1       1.150  10.095 -13.335  0.00  0.00    -0.213 N 
ATOM     15  C   UNK d   1       1.661  11.040 -14.266  0.00  0.00     0.160 C 
ATOM     16  C   UNK d   1       3.075  10.596 -14.628  0.00  0.00     0.137 C 
ATOM     17  N   UNK d   1       3.501   9.493 -13.876  0.00  0.00    -0.405 N 
ATOM     18  C   UNK d   1       3.241   9.404 -12.498  0.00  0.00     0.137 C 
ATOM     19  C   UNK d   1       1.871   9.962 -12.093  0.00  0.00     0.160 C 
BRANCH  17  20
ATOM     20  C   UNK d   1       3.703   8.280 -14.596  0.00  0.00     0.155 C 
BRANCH  20  21
ATOM     21  C   UNK d   1       4.885   7.504 -14.174  0.00  0.00    -0.041 A 
ATOM     22  C   UNK d   1       4.680   6.290 -13.568  0.00  0.00     0.010 A 
ATOM     23  C   UNK d   1       5.760   5.520 -13.166  0.00  0.00     0.019 A 
ATOM     24  C   UNK d   1       7.053   5.959 -13.367  0.00  0.00     0.011 A 
ATOM     25 Br   UNK d   1       8.549   4.887 -12.811  0.00  0.00    -0.051 Br
ATOM     26  C   UNK d   1       7.236   7.180 -13.975  0.00  0.00     0.019 A 
ATOM     27  C   UNK d   1       6.170   7.958 -14.381  0.00  0.00     0.010 A 
ENDBRANCH  20  21
ENDBRANCH  17  20
ENDBRANCH   1  14
BRANCH   2  28
ATOM     28  C   UNK d   1       0.998   6.992 -13.471  0.00  0.00     0.174 C 
BRANCH  28  29
ATOM     29  C   UNK d   1       1.140   6.604 -12.017  0.00  0.00     0.187 C 
BRANCH  29  30
ATOM     30  O   UNK d   1       0.947   5.259 -11.774  0.00  0.00    -0.394 OA
ATOM     31  C   UNK d   1       2.173   4.631 -12.095  0.00  0.00     0.201 C 
ENDBRANCH  29  30
ENDBRANCH  28  29
ENDBRANCH   2  28
TORSDOF 6
ENDMDL
