MODEL 1
REMARK VINA RESULT:    -8.274      0.000      0.000
REMARK INTER + INTRA:         -10.585
REMARK INTER:                  -9.725
REMARK INTRA:                  -0.860
REMARK UNBOUND:                -0.860
REMARK  3 active torsions:
REMARK  status: ('A' for Active; 'I' for Inactive)
REMARK    1  A    between atoms: C_5  and  C_8 
REMARK    2  A    between atoms: C_16  and  C_17 
REMARK    3  A    between atoms: C_17  and  N_18 
ROOT
ATOM      1  C   UNK d   1       0.554   5.449 -12.479  0.00  0.00     0.053 C 
ATOM      2  C   UNK d   1       1.866   5.589 -12.704  0.00  0.00     0.127 A 
ATOM      3  O   UNK d   1       2.423   6.704 -13.308  0.00  0.00    -0.305 OA
ATOM      4  C   UNK d   1       3.805   6.591 -13.418  0.00  0.00     0.101 A 
ATOM      5  C   UNK d   1       4.173   5.392 -12.885  0.00  0.00     0.051 A 
ATOM      6  C   UNK d   1       5.503   5.024 -12.866  0.00  0.00     0.021 A 
ATOM      7  C   UNK d   1       6.411   5.902 -13.398  0.00  0.00     0.041 A 
ATOM      8  C   UNK d   1       6.035   7.136 -13.946  0.00  0.00     0.118 A 
ATOM      9  C   UNK d   1       4.717   7.519 -13.975  0.00  0.00     0.039 A 
ATOM     10  O   UNK d   1       7.023   7.972 -14.467  0.00  0.00    -0.191 OA
ATOM     11  C   UNK d   1       2.963   4.707 -12.411  0.00  0.00     0.218 A 
ATOM     12  O   UNK d   1       2.864   3.582 -11.857  0.00  0.00    -0.284 OA
ENDROOT
BRANCH   1  13
ATOM     13  C   UNK d   1      -0.363   6.512 -12.882  0.00  0.00    -0.033 A 
ATOM     14  C   UNK d   1      -1.360   6.262 -13.810  0.00  0.00     0.013 A 
ATOM     15  C   UNK d   1      -2.241   7.246 -14.217  0.00  0.00     0.020 A 
ATOM     16  C   UNK d   1      -2.163   8.523 -13.709  0.00  0.00     0.011 A 
ATOM     17 Br   UNK d   1      -3.393   9.890 -14.272  0.00  0.00    -0.051 Br
ATOM     18  C   UNK d   1      -1.177   8.790 -12.784  0.00  0.00     0.020 A 
ATOM     19  C   UNK d   1      -0.288   7.791 -12.378  0.00  0.00     0.013 A 
ENDBRANCH   1  13
BRANCH   9  20
ATOM     20  C   UNK d   1       4.173   8.771 -14.515  0.00  0.00     0.279 C 
BRANCH  20  21
ATOM     21  N   UNK d   1       3.071   9.363 -13.861  0.00  0.00    -0.063 N 
ATOM     22  C   UNK d   1       3.474  10.243 -12.784  0.00  0.00     0.261 C 
ATOM     23  C   UNK d   1       3.747  11.629 -13.338  0.00  0.00     0.195 C 
ATOM     24  O   UNK d   1       2.528  12.255 -13.542  0.00  0.00    -0.388 OA
ATOM     25  C   UNK d   1       1.610  11.282 -13.952  0.00  0.00     0.195 C 
ATOM     26  C   UNK d   1       2.312  10.223 -14.786  0.00  0.00     0.261 C 
ATOM     27  H   UNK d   1       2.378   8.657 -13.540  0.00  0.00     0.280 HD
ENDBRANCH  20  21
ENDBRANCH   9  20
TORSDOF 3
ENDMDL
