/Users/jonathanwahrer/Desktop/Msc/3_Semester/Drug_Design_Praktikum/waehrer_HTS_screening/HTS_experiment/out/docking_results/vina_output/6q9y/0293_docked.pdbqt
 OpenBabel03222219143D

 27 30  0  0  0  0  0  0  0  0999 V2000
    0.5540    5.4490  -12.4790 C   0  0  0  0  0  3  0  0  0  0  0  0
    1.8660    5.5890  -12.7040 C   0  0  0  0  0  0  0  0  0  0  0  0
    2.4230    6.7040  -13.3080 O   0  0  0  0  0  0  0  0  0  0  0  0
    3.8050    6.5910  -13.4180 C   0  0  0  0  0  0  0  0  0  0  0  0
    4.1730    5.3920  -12.8850 C   0  0  0  0  0  0  0  0  0  0  0  0
    5.5030    5.0240  -12.8660 C   0  0  0  0  0  3  0  0  0  0  0  0
    6.4110    5.9020  -13.3980 C   0  0  0  0  0  3  0  0  0  0  0  0
    6.0350    7.1360  -13.9460 C   0  0  0  0  0  0  0  0  0  0  0  0
    4.7170    7.5190  -13.9750 C   0  0  0  0  0  0  0  0  0  0  0  0
    7.0230    7.9720  -14.4670 O   0  0  0  0  0  1  0  0  0  0  0  0
    2.9630    4.7070  -12.4110 C   0  0  0  0  0  0  0  0  0  0  0  0
    2.8640    3.5820  -11.8570 O   0  0  0  0  0  0  0  0  0  0  0  0
   -0.3630    6.5120  -12.8820 C   0  0  0  0  0  0  0  0  0  0  0  0
   -1.3600    6.2620  -13.8100 C   0  0  0  0  0  3  0  0  0  0  0  0
   -2.2410    7.2460  -14.2170 C   0  0  0  0  0  3  0  0  0  0  0  0
   -2.1630    8.5230  -13.7090 C   0  0  0  0  0  0  0  0  0  0  0  0
   -3.3930    9.8900  -14.2720 Br  0  0  0  0  0  0  0  0  0  0  0  0
   -1.1770    8.7900  -12.7840 C   0  0  0  0  0  3  0  0  0  0  0  0
   -0.2880    7.7910  -12.3780 C   0  0  0  0  0  3  0  0  0  0  0  0
    4.1730    8.7710  -14.5150 C   0  0  0  0  0  2  0  0  0  0  0  0
    3.0710    9.3630  -13.8610 N   0  0  0  0  0  4  0  0  0  0  0  0
    3.4740   10.2430  -12.7840 C   0  0  0  0  0  2  0  0  0  0  0  0
    3.7470   11.6290  -13.3380 C   0  0  0  0  0  2  0  0  0  0  0  0
    2.5280   12.2550  -13.5420 O   0  0  0  0  0  0  0  0  0  0  0  0
    1.6100   11.2820  -13.9520 C   0  0  0  0  0  2  0  0  0  0  0  0
    2.3120   10.2230  -14.7860 C   0  0  0  0  0  2  0  0  0  0  0  0
    2.3780    8.6570  -13.5400 H   0  0  0  0  0  0  0  0  0  0  0  0
  2  1  2  0  0  0  0
  2 11  1  0  0  0  0
  3  2  1  0  0  0  0
  4  3  1  0  0  0  0
  4  5  1  0  0  0  0
  5  6  2  0  0  0  0
  5 11  1  0  0  0  0
  7  6  1  0  0  0  0
  8  7  2  0  0  0  0
  9  8  1  0  0  0  0
  9  4  2  0  0  0  0
 10  8  1  0  0  0  0
 11 12  2  0  0  0  0
 13  1  1  0  0  0  0
 13 19  1  0  0  0  0
 14 13  2  0  0  0  0
 15 14  1  0  0  0  0
 15 16  2  0  0  0  0
 16 18  1  0  0  0  0
 17 16  1  0  0  0  0
 18 19  2  0  0  0  0
 20  9  1  0  0  0  0
 20 21  1  0  0  0  0
 21 27  1  0  0  0  0
 21 22  1  0  0  0  0
 23 22  1  0  0  0  0
 24 23  1  0  0  0  0
 25 24  1  0  0  0  0
 26 25  1  0  0  0  0
 26 21  1  0  0  0  0
M  END
>  <Pose>
1

>  <Score>
-8.274

$$$$
