MODEL 1
REMARK VINA RESULT:    -8.457      0.000      0.000
REMARK INTER + INTRA:          -9.751
REMARK INTER:                 -10.434
REMARK INTRA:                   0.683
REMARK UNBOUND:                 0.683
REMARK  4 active torsions:
REMARK  status: ('A' for Active; 'I' for Inactive)
REMARK    1  A    between atoms: C_5  and  C_8 
REMARK    2  A    between atoms: N_13  and  C_23 
REMARK    3  A    between atoms: C_23  and  C_24 
REMARK    4  A    between atoms: C_24  and  O_25 
ROOT
ATOM      1  C   UNK d   1      -1.166  10.752 -13.624  0.00  0.00     0.185 A 
ATOM      2  N   UNK d   1      -1.157   9.426 -13.617  0.00  0.00    -0.107 N 
ATOM      3  C   UNK d   1      -2.361   8.936 -14.005  0.00  0.00     0.736 A 
ATOM      4  N   UNK d   1      -3.134  10.006 -14.268  0.00  0.00     0.045 NA
ATOM      5  N   UNK d   1      -2.453  11.085 -14.055  0.00  0.00    -0.114 NA
ATOM      6  N   UNK d   1      -2.379   7.598 -14.011  0.00  0.00    -0.168 N 
ATOM      7  C   UNK d   1      -1.154   7.228 -13.625  0.00  0.00     0.165 A 
ATOM      8  C   UNK d   1      -0.355   8.352 -13.374  0.00  0.00     0.170 A 
ATOM      9  N   UNK d   1       0.912   8.225 -13.015  0.00  0.00    -0.287 N 
ATOM     10  C   UNK d   1       1.408   6.956 -12.887  0.00  0.00     0.330 A 
ATOM     11  O   UNK d   1       2.602   6.792 -12.544  0.00  0.00    -0.246 OA
ATOM     12  N   UNK d   1       0.669   5.862 -13.111  0.00  0.00    -0.273 N 
ATOM     13  C   UNK d   1      -0.617   5.970 -13.484  0.00  0.00     0.280 A 
ATOM     14  O   UNK d   1      -1.342   4.965 -13.705  0.00  0.00    -0.265 OA
ATOM     15  C   UNK d   1       1.876   9.282 -12.847  0.00  0.00     0.163 C 
ATOM     16  H   UNK d   1       1.045   4.897 -13.012  0.00  0.00     0.173 HD
ENDROOT
BRANCH   1  17
ATOM     17  C   UNK d   1      -0.230  11.817 -13.319  0.00  0.00     0.013 A 
ATOM     18  C   UNK d   1      -0.756  13.035 -12.882  0.00  0.00     0.017 A 
ATOM     19  C   UNK d   1       0.030  14.048 -12.430  0.00  0.00     0.020 A 
ATOM     20  C   UNK d   1       1.400  13.889 -12.392  0.00  0.00     0.011 A 
ATOM     21 Br   UNK d   1       2.492  15.301 -11.762  0.00  0.00    -0.051 Br
ATOM     22  C   UNK d   1       1.979  12.710 -12.807  0.00  0.00     0.020 A 
ATOM     23  C   UNK d   1       1.136  11.724 -13.253  0.00  0.00     0.017 A 
ENDBRANCH   1  17
BRANCH   6  24
ATOM     24  C   UNK d   1      -3.486   6.735 -14.356  0.00  0.00     0.174 C 
BRANCH  24  25
ATOM     25  C   UNK d   1      -3.783   6.732 -15.840  0.00  0.00     0.187 C 
BRANCH  25  26
ATOM     26  O   UNK d   1      -4.829   7.589 -16.161  0.00  0.00    -0.394 OA
ATOM     27  C   UNK d   1      -5.677   7.644 -15.054  0.00  0.00     0.201 C 
ENDBRANCH  25  26
ENDBRANCH  24  25
ENDBRANCH   6  24
TORSDOF 4
ENDMDL
