/Users/jonathanwahrer/Desktop/Msc/3_Semester/Drug_Design_Praktikum/waehrer_HTS_screening/HTS_experiment/out/docking_results/vina_output/6q9y/0305_docked.pdbqt
 OpenBabel03222219153D

 27 30  0  0  0  0  0  0  0  0999 V2000
   -1.1660   10.7520  -13.6240 C   0  0  0  0  0  0  0  0  0  0  0  0
   -1.1570    9.4260  -13.6170 N   0  0  0  0  0  0  0  0  0  0  0  0
   -2.3610    8.9360  -14.0050 C   0  0  0  0  0  0  0  0  0  0  0  0
   -3.1340   10.0060  -14.2680 N   0  0  0  0  0  0  0  0  0  0  0  0
   -2.4530   11.0850  -14.0550 N   0  0  0  0  0  0  0  0  0  0  0  0
   -2.3790    7.5980  -14.0110 N   0  0  0  0  0  0  0  0  0  0  0  0
   -1.1540    7.2280  -13.6250 C   0  0  0  0  0  0  0  0  0  0  0  0
   -0.3550    8.3520  -13.3740 C   0  0  0  0  0  0  0  0  0  0  0  0
    0.9120    8.2250  -13.0150 N   0  0  0  0  0  0  0  0  0  0  0  0
    1.4080    6.9560  -12.8870 C   0  0  0  0  0  0  0  0  0  0  0  0
    2.6020    6.7920  -12.5440 O   0  0  0  0  0  0  0  0  0  0  0  0
    0.6690    5.8620  -13.1110 N   0  0  0  0  0  0  0  0  0  0  0  0
   -0.6170    5.9700  -13.4840 C   0  0  0  0  0  0  0  0  0  0  0  0
   -1.3420    4.9650  -13.7050 O   0  0  0  0  0  0  0  0  0  0  0  0
    1.8760    9.2820  -12.8470 C   0  0  0  0  0  1  0  0  0  0  0  0
    1.0450    4.8970  -13.0120 H   0  0  0  0  0  0  0  0  0  0  0  0
   -0.2300   11.8170  -13.3190 C   0  0  0  0  0  0  0  0  0  0  0  0
   -0.7560   13.0350  -12.8820 C   0  0  0  0  0  3  0  0  0  0  0  0
    0.0300   14.0480  -12.4300 C   0  0  0  0  0  3  0  0  0  0  0  0
    1.4000   13.8890  -12.3920 C   0  0  0  0  0  0  0  0  0  0  0  0
    2.4920   15.3010  -11.7620 Br  0  0  0  0  0  0  0  0  0  0  0  0
    1.9790   12.7100  -12.8070 C   0  0  0  0  0  3  0  0  0  0  0  0
    1.1360   11.7240  -13.2530 C   0  0  0  0  0  3  0  0  0  0  0  0
   -3.4860    6.7350  -14.3560 C   0  0  0  0  0  2  0  0  0  0  0  0
   -3.7830    6.7320  -15.8400 C   0  0  0  0  0  2  0  0  0  0  0  0
   -4.8290    7.5890  -16.1610 O   0  0  0  0  0  0  0  0  0  0  0  0
   -5.6770    7.6440  -15.0540 C   0  0  0  0  0  1  0  0  0  0  0  0
  1  2  1  0  0  0  0
  1 17  1  0  0  0  0
  2  8  1  0  0  0  0
  3  2  1  0  0  0  0
  4  5  1  0  0  0  0
  4  3  2  0  0  0  0
  5  1  2  0  0  0  0
  6  3  1  0  0  0  0
  6  7  1  0  0  0  0
  7 13  1  0  0  0  0
  7  8  2  0  0  0  0
  8  9  1  0  0  0  0
  9 10  1  0  0  0  0
  9 15  1  0  0  0  0
 10 11  2  0  0  0  0
 12 16  1  0  0  0  0
 12 10  1  0  0  0  0
 13 12  1  0  0  0  0
 14 13  2  0  0  0  0
 17 23  2  0  0  0  0
 17 18  1  0  0  0  0
 18 19  2  0  0  0  0
 19 20  1  0  0  0  0
 20 21  1  0  0  0  0
 22 20  2  0  0  0  0
 23 22  1  0  0  0  0
 24  6  1  0  0  0  0
 25 24  1  0  0  0  0
 26 25  1  0  0  0  0
 26 27  1  0  0  0  0
M  END
>  <Pose>
1

>  <Score>
-8.457

$$$$
