MODEL 1
REMARK VINA RESULT:    -7.214      0.000      0.000
REMARK INTER + INTRA:         -11.036
REMARK INTER:                  -9.745
REMARK INTRA:                  -1.292
REMARK UNBOUND:                -1.292
REMARK  6 active torsions:
REMARK  status: ('A' for Active; 'I' for Inactive)
REMARK    1  A    between atoms: C_5  and  C_8 
REMARK    2  A    between atoms: C_9  and  C_28 
REMARK    3  A    between atoms: C_16  and  C_17 
REMARK    4  A    between atoms: C_17  and  N_18 
REMARK    5  A    between atoms: C_28  and  O_30 
REMARK    6  A    between atoms: O_30  and  C_31 
ROOT
ATOM      1  C   UNK d   1       2.680   6.511 -13.131  0.00  0.00     0.065 A 
ATOM      2  C   UNK d   1       3.875   7.048 -13.546  0.00  0.00     0.166 A 
ATOM      3  O   UNK d   1       4.997   6.355 -13.584  0.00  0.00    -0.302 OA
ATOM      4  C   UNK d   1       5.039   5.097 -13.226  0.00  0.00     0.101 A 
ATOM      5  C   UNK d   1       3.897   4.512 -12.808  0.00  0.00     0.050 A 
ATOM      6  C   UNK d   1       3.909   3.188 -12.427  0.00  0.00     0.021 A 
ATOM      7  C   UNK d   1       5.094   2.501 -12.487  0.00  0.00     0.041 A 
ATOM      8  C   UNK d   1       6.280   3.122 -12.926  0.00  0.00     0.118 A 
ATOM      9  C   UNK d   1       6.292   4.430 -13.306  0.00  0.00     0.039 A 
ATOM     10  O   UNK d   1       7.374   2.274 -12.921  0.00  0.00    -0.191 OA
ATOM     11  C   UNK d   1       2.685   5.171 -12.739  0.00  0.00     0.199 A 
ATOM     12  O   UNK d   1       1.641   4.633 -12.355  0.00  0.00    -0.286 OA
ENDROOT
BRANCH   9  13
ATOM     13  C   UNK d   1       7.423   5.206 -13.755  0.00  0.00     0.279 C 
BRANCH  13  14
ATOM     14  N   UNK d   1       8.687   5.160 -13.140  0.00  0.00    -0.064 N 
ATOM     15  C   UNK d   1       9.639   4.437 -13.906  0.00  0.00     0.254 C 
ATOM     16  C   UNK d   1      10.762   3.769 -13.216  0.00  0.00     0.144 C 
ATOM     17  N   UNK d   1      10.545   3.567 -11.849  0.00  0.00    -0.413 N 
ATOM     18  C   UNK d   1      10.000   4.609 -11.095  0.00  0.00     0.144 C 
ATOM     19  C   UNK d   1      10.860   2.338 -11.252  0.00  0.00     0.143 C 
ATOM     20  C   UNK d   1       8.747   5.133 -11.724  0.00  0.00     0.254 C 
ATOM     21  H   UNK d   1       9.043   6.224 -13.331  0.00  0.00     0.280 HD
ENDBRANCH  13  14
ENDBRANCH   9  13
BRANCH   2  22
ATOM     22  C   UNK d   1       3.893   8.459 -13.961  0.00  0.00     0.318 C 
ATOM     23  O   UNK d   1       3.988   8.710 -15.189  0.00  0.00    -0.257 OA
BRANCH  22  24
ATOM     24  O   UNK d   1       3.811   9.503 -13.093  0.00  0.00    -0.316 OA
BRANCH  24  25
ATOM     25  C   UNK d   1       3.564  10.807 -13.560  0.00  0.00     0.175 C 
ATOM     26  C   UNK d   1       2.115  11.143 -13.336  0.00  0.00     0.034 C 
ENDBRANCH  24  25
ENDBRANCH  22  24
ENDBRANCH   2  22
BRANCH   1  27
ATOM     27  C   UNK d   1       1.478   7.300 -13.135  0.00  0.00    -0.019 A 
ATOM     28  C   UNK d   1       0.752   7.579 -14.290  0.00  0.00     0.014 A 
ATOM     29  C   UNK d   1      -0.407   8.323 -14.295  0.00  0.00     0.020 A 
ATOM     30  C   UNK d   1      -0.882   8.821 -13.117  0.00  0.00     0.011 A 
ATOM     31 Br   UNK d   1      -2.495   9.849 -13.142  0.00  0.00    -0.051 Br
ATOM     32  C   UNK d   1      -0.200   8.575 -11.944  0.00  0.00     0.020 A 
ATOM     33  C   UNK d   1       0.979   7.813 -11.966  0.00  0.00     0.014 A 
ENDBRANCH   1  27
TORSDOF 6
ENDMDL
