MODEL 1
REMARK VINA RESULT:    -8.861      0.000      0.000
REMARK INTER + INTRA:         -13.311
REMARK INTER:                 -12.746
REMARK INTRA:                  -0.565
REMARK UNBOUND:                -0.565
REMARK  8 active torsions:
REMARK  status: ('A' for Active; 'I' for Inactive)
REMARK    1  A    between atoms: C_5  and  C_8 
REMARK    2  A    between atoms: N_15  and  C_16 
REMARK    3  A    between atoms: C_16  and  C_17 
REMARK    4  A    between atoms: C_17  and  C_18 
REMARK    5  A    between atoms: C_18  and  N_19 
REMARK    6  A    between atoms: N_22  and  C_25 
REMARK    7  A    between atoms: C_25  and  C_26 
REMARK    8  A    between atoms: C_26  and  O_27 
ROOT
ATOM      1  C   UNK d   1       1.897   7.906 -13.605  0.00  0.00     0.078 A 
ATOM      2  C   UNK d   1       0.738   7.224 -14.022  0.00  0.00     0.146 A 
ATOM      3  N   UNK d   1      -0.339   8.011 -13.925  0.00  0.00    -0.153 N 
ATOM      4  C   UNK d   1      -1.679   8.066 -14.117  0.00  0.00     0.083 A 
ATOM      5  C   UNK d   1      -2.068   9.330 -13.747  0.00  0.00     0.077 A 
ATOM      6  N   UNK d   1      -0.959  10.008 -13.341  0.00  0.00    -0.189 N 
ATOM      7  C   UNK d   1       0.095   9.179 -13.459  0.00  0.00     0.692 A 
ATOM      8  N   UNK d   1       1.460   9.120 -13.261  0.00  0.00    -0.180 N 
ATOM      9  C   UNK d   1      -3.405   9.653 -13.847  0.00  0.00     0.032 A 
ATOM     10  C   UNK d   1      -4.346   8.739 -14.306  0.00  0.00     0.002 A 
ATOM     11  C   UNK d   1      -3.956   7.477 -14.675  0.00  0.00     0.002 A 
ATOM     12  C   UNK d   1      -2.598   7.150 -14.573  0.00  0.00     0.033 A 
ATOM     13  H   UNK d   1      -0.961  10.996 -13.004  0.00  0.00     0.184 HD
ENDROOT
BRANCH   8  14
ATOM     14  C   UNK d   1       2.223  10.233 -12.737  0.00  0.00     0.149 C 
BRANCH  14  15
ATOM     15  C   UNK d   1       2.578  11.275 -13.771  0.00  0.00     0.051 C 
BRANCH  15  16
ATOM     16  C   UNK d   1       2.711  12.642 -13.146  0.00  0.00     0.274 C 
BRANCH  16  17
ATOM     17  N   UNK d   1       1.718  12.954 -12.156  0.00  0.00     0.091 N 
ATOM     18  C   UNK d   1       0.436  12.857 -12.834  0.00  0.00     0.300 C 
ATOM     19  C   UNK d   1      -0.498  13.975 -12.560  0.00  0.00     0.265 C 
ATOM     20  N   UNK d   1       0.067  15.296 -12.603  0.00  0.00    -0.066 N 
ATOM     21  C   UNK d   1       1.503  15.317 -12.417  0.00  0.00     0.265 C 
ATOM     22  H   UNK d   1      -0.317  15.801 -11.743  0.00  0.00     0.280 HD
ATOM     23  C   UNK d   1       1.877  14.194 -11.472  0.00  0.00     0.300 C 
BRANCH  20  24
ATOM     24  C   UNK d   1      -0.404  16.046 -13.723  0.00  0.00     0.260 C 
BRANCH  24  25
ATOM     25  C   UNK d   1      -1.563  16.948 -13.467  0.00  0.00     0.192 C 
BRANCH  25  26
ATOM     26  O   UNK d   1      -1.732  17.278 -12.123  0.00  0.00    -0.399 OA
ATOM     27  H   UNK d   1      -2.118  18.167 -12.048  0.00  0.00     0.209 HD
ENDBRANCH  25  26
ENDBRANCH  24  25
ENDBRANCH  20  24
ENDBRANCH  16  17
ENDBRANCH  15  16
ENDBRANCH  14  15
ENDBRANCH   8  14
BRANCH   1  28
ATOM     28  C   UNK d   1       3.224   7.294 -13.565  0.00  0.00    -0.007 A 
ATOM     29  C   UNK d   1       4.372   7.838 -14.045  0.00  0.00     0.015 A 
ATOM     30  C   UNK d   1       5.622   7.207 -13.929  0.00  0.00     0.020 A 
ATOM     31  C   UNK d   1       5.740   5.987 -13.314  0.00  0.00     0.011 A 
ATOM     32 Br   UNK d   1       7.445   5.124 -13.155  0.00  0.00    -0.051 Br
ATOM     33  C   UNK d   1       4.595   5.422 -12.826  0.00  0.00     0.020 A 
ATOM     34  C   UNK d   1       3.367   6.052 -12.945  0.00  0.00     0.015 A 
ENDBRANCH   1  28
TORSDOF 8
ENDMDL
