/Users/jonathanwahrer/Desktop/Msc/3_Semester/Drug_Design_Praktikum/waehrer_HTS_screening/HTS_experiment/out/docking_results/vina_output/6q9y/0346_docked.pdbqt
 OpenBabel03222219173D

 35 38  0  0  1  0  0  0  0  0999 V2000
    1.5700    8.3350  -13.6530 C   0  0  2  0  0  3  0  0  0  0  0  0
    0.5580    7.7560  -12.8110 N   0  0  0  0  0  0  0  0  0  0  0  0
    1.0170    6.5610  -12.2100 C   0  0  0  0  0  0  0  0  0  0  0  0
    0.3870    5.7810  -11.4310 O   0  0  0  0  0  0  0  0  0  0  0  0
    2.4160    6.3180  -12.6290 C   0  0  0  0  0  0  0  0  0  0  0  0
    3.1150    5.3430  -12.2760 O   0  0  0  0  0  0  0  0  0  0  0  0
    2.7530    7.4250  -13.4990 C   0  0  1  0  0  3  0  0  0  0  0  0
    3.9240    7.5410  -14.0850 C   0  0  1  0  0  3  0  0  0  0  0  0
    4.0140    8.3930  -15.2060 O   0  0  0  0  0  1  0  0  0  0  0  0
    5.1430    6.8840  -13.6870 C   0  0  0  0  0  0  0  0  0  0  0  0
    5.3740    5.5540  -13.6600 C   0  0  0  0  0  3  0  0  0  0  0  0
    6.6060    5.0560  -13.2890 C   0  0  0  0  0  0  0  0  0  0  0  0
    7.6670    5.8590  -12.9280 C   0  0  0  0  0  0  0  0  0  0  0  0
    6.8130    3.5710  -13.2750 C   0  0  0  0  0  1  0  0  0  0  0  0
    7.4050    7.2150  -12.9640 C   0  0  0  0  0  3  0  0  0  0  0  0
    6.1950    7.7400  -13.3260 C   0  0  0  0  0  3  0  0  0  0  0  0
    8.9050    5.3520  -12.5560 O   0  0  0  0  0  0  0  0  0  0  0  0
    9.8660    6.2000  -11.9430 C   0  0  0  0  0  1  0  0  0  0  0  0
    1.8900    9.7220  -13.3070 C   0  0  0  0  0  0  0  0  0  0  0  0
    1.2060   10.7710  -13.8830 C   0  0  0  0  0  3  0  0  0  0  0  0
    1.5110   12.0960  -13.5560 C   0  0  0  0  0  3  0  0  0  0  0  0
    2.5040   12.3850  -12.6480 C   0  0  0  0  0  0  0  0  0  0  0  0
    2.8970   14.2180  -12.2240 Br  0  0  0  0  0  0  0  0  0  0  0  0
    3.1870   11.3500  -12.0720 C   0  0  0  0  0  3  0  0  0  0  0  0
    2.8750   10.0530  -12.4050 C   0  0  0  0  0  3  0  0  0  0  0  0
   -0.7590    8.3390  -12.6260 C   0  0  0  0  0  2  0  0  0  0  0  0
   -1.5970    8.3290  -13.8750 C   0  0  0  0  0  2  0  0  0  0  0  0
   -2.5320    9.4990  -13.9260 C   0  0  0  0  0  2  0  0  0  0  0  0
   -3.8430    9.1570  -14.3940 N   0  0  0  0  0  4  0  0  0  0  0  0
   -4.9040    9.6490  -13.5410 C   0  0  0  0  0  2  0  0  0  0  0  0
   -6.2180    9.4220  -14.2960 C   0  0  0  0  0  2  0  0  0  0  0  0
   -6.0140    8.6140  -15.4040 O   0  0  0  0  0  0  0  0  0  0  0  0
   -5.3580    7.4220  -15.0250 C   0  0  0  0  0  2  0  0  0  0  0  0
   -3.9280    7.7390  -14.6020 C   0  0  0  0  0  2  0  0  0  0  0  0
   -3.9920    9.6190  -15.3400 H   0  0  0  0  0  0  0  0  0  0  0  0
  1  7  1  0  0  0  0
  1 19  1  1  0  0  0
  1  2  1  0  0  0  0
  2 26  1  0  0  0  0
  2  3  1  0  0  0  0
  3  4  2  0  0  0  0
  5  6  2  0  0  0  0
  5  3  1  0  0  0  0
  7  8  1  6  0  0  0
  7  5  1  0  0  0  0
  8  9  1  1  0  0  0
  8 10  1  0  0  0  0
 10 11  2  0  0  0  0
 10 16  1  0  0  0  0
 11 12  1  0  0  0  0
 12 14  1  0  0  0  0
 12 13  2  0  0  0  0
 13 17  1  0  0  0  0
 15 13  1  0  0  0  0
 16 15  2  0  0  0  0
 17 18  1  0  0  0  0
 19 25  1  0  0  0  0
 20 21  1  0  0  0  0
 20 19  2  0  0  0  0
 21 22  2  0  0  0  0
 22 23  1  0  0  0  0
 22 24  1  0  0  0  0
 25 24  2  0  0  0  0
 27 26  1  0  0  0  0
 28 27  1  0  0  0  0
 29 28  1  0  0  0  0
 29 30  1  0  0  0  0
 31 30  1  0  0  0  0
 32 33  1  0  0  0  0
 32 31  1  0  0  0  0
 33 34  1  0  0  0  0
 34 29  1  0  0  0  0
 35 29  1  0  0  0  0
M  END
>  <Pose>
1

>  <Score>
-8.848

$$$$
