MODEL 1
REMARK VINA RESULT:    -8.219      0.000      0.000
REMARK INTER + INTRA:         -12.321
REMARK INTER:                 -11.582
REMARK INTRA:                  -0.740
REMARK UNBOUND:                -0.740
REMARK  7 active torsions:
REMARK  status: ('A' for Active; 'I' for Inactive)
REMARK    1  A    between atoms: C_5  and  C_8 
REMARK    2  A    between atoms: N_9  and  C_25 
REMARK    3  A    between atoms: C_15  and  C_17 
REMARK    4  A    between atoms: C_19  and  O_23 
REMARK    5  A    between atoms: C_25  and  C_26 
REMARK    6  A    between atoms: C_26  and  C_27 
REMARK    7  A    between atoms: C_27  and  N_28 
ROOT
ATOM      1  C   UNK d   1       2.831   9.093 -12.688  0.00  0.00     0.161 C 
ATOM      2  N   UNK d   1       3.807   8.703 -13.685  0.00  0.00    -0.332 N 
ATOM      3  C   UNK d   1       3.148   8.799 -14.950  0.00  0.00     0.295 C 
ATOM      4  O   UNK d   1       3.688   8.988 -16.068  0.00  0.00    -0.264 OA
ATOM      5  C   UNK d   1       1.726   8.631 -14.672  0.00  0.00     0.250 C 
ATOM      6  O   UNK d   1       0.752   8.640 -15.465  0.00  0.00    -0.282 OA
ATOM      7  C   UNK d   1       1.585   8.439 -13.232  0.00  0.00     0.062 C 
ATOM      8  C   UNK d   1       0.585   7.870 -12.604  0.00  0.00     0.130 C 
ATOM      9  O   UNK d   1       0.664   7.858 -11.200  0.00  0.00    -0.190 OA
ENDROOT
BRANCH   2  10
ATOM     10  C   UNK d   1       5.202   8.287 -13.465  0.00  0.00     0.129 C 
BRANCH  10  11
ATOM     11  C   UNK d   1       5.376   6.801 -13.811  0.00  0.00     0.048 C 
BRANCH  11  12
ATOM     12  C   UNK d   1       6.602   6.274 -13.122  0.00  0.00     0.236 C 
BRANCH  12  13
ATOM     13  N   UNK d   1       7.735   7.090 -13.488  0.00  0.00    -0.067 N 
ATOM     14  C   UNK d   1       8.553   6.528 -14.516  0.00  0.00     0.261 C 
ATOM     15  C   UNK d   1       9.365   5.367 -14.053  0.00  0.00     0.195 C 
ATOM     16  O   UNK d   1      10.145   5.712 -12.963  0.00  0.00    -0.388 OA
ATOM     17  C   UNK d   1       9.286   6.090 -11.930  0.00  0.00     0.195 C 
ATOM     18  C   UNK d   1       8.594   7.371 -12.352  0.00  0.00     0.261 C 
ATOM     19  H   UNK d   1       7.376   8.016 -13.817  0.00  0.00     0.280 HD
ENDBRANCH  12  13
ENDBRANCH  11  12
ENDBRANCH  10  11
ENDBRANCH   2  10
BRANCH   1  20
ATOM     20  C   UNK d   1       2.693  10.541 -12.619  0.00  0.00    -0.030 A 
ATOM     21  C   UNK d   1       3.768  11.333 -12.300  0.00  0.00     0.011 A 
ATOM     22  C   UNK d   1       3.647  12.723 -12.218  0.00  0.00     0.019 A 
ATOM     23  C   UNK d   1       2.435  13.327 -12.459  0.00  0.00     0.011 A 
ATOM     24 Br   UNK d   1       2.274  15.224 -12.344  0.00  0.00    -0.051 Br
ATOM     25  C   UNK d   1       1.354  12.548 -12.778  0.00  0.00     0.019 A 
ATOM     26  C   UNK d   1       1.493  11.174 -12.855  0.00  0.00     0.011 A 
ENDBRANCH   1  20
BRANCH   8  27
ATOM     27  C   UNK d   1      -0.555   7.267 -13.287  0.00  0.00     0.004 A 
ATOM     28  C   UNK d   1      -1.681   7.959 -13.669  0.00  0.00     0.051 A 
ATOM     29  C   UNK d   1      -2.775   7.390 -14.298  0.00  0.00     0.069 A 
ATOM     30  C   UNK d   1      -2.747   6.051 -14.563  0.00  0.00     0.037 A 
ATOM     31  C   UNK d   1      -1.627   5.311 -14.195  0.00  0.00     0.004 A 
ATOM     32  C   UNK d   1      -0.556   5.912 -13.570  0.00  0.00     0.014 A 
BRANCH  29  33
ATOM     33  O   UNK d   1      -3.816   8.235 -14.609  0.00  0.00    -0.356 OA
ATOM     34  C   UNK d   1      -5.087   7.893 -15.046  0.00  0.00     0.210 C 
ENDBRANCH  29  33
ENDBRANCH   8  27
TORSDOF 7
ENDMDL
