/Users/jonathanwahrer/Desktop/Msc/3_Semester/Drug_Design_Praktikum/waehrer_HTS_screening/HTS_experiment/out/docking_results/vina_output/6q9y/0349_docked.pdbqt
 OpenBabel03222219173D

 32 35  0  0  1  0  0  0  0  0999 V2000
    1.7410    7.7240  -12.8540 C   0  0  1  0  0  3  0  0  0  0  0  0
    0.6500    7.0440  -13.4050 N   0  0  0  0  0  0  0  0  0  0  0  0
    0.6670    5.7420  -12.7060 C   0  0  0  0  0  0  0  0  0  0  0  0
   -0.3240    5.0100  -12.4350 O   0  0  0  0  0  0  0  0  0  0  0  0
    2.0840    5.5080  -12.4090 C   0  0  0  0  0  0  0  0  0  0  0  0
    2.6100    4.5120  -11.8260 O   0  0  0  0  0  0  0  0  0  0  0  0
    2.8020    6.6820  -12.9400 C   0  0  0  0  0  0  0  0  0  0  0  0
    4.0310    6.7310  -13.4040 C   0  0  0  0  0  0  0  0  0  0  0  0
    4.5360    7.9120  -13.9370 O   0  0  0  0  0  1  0  0  0  0  0  0
   -0.4130    7.2890  -14.3680 C   0  0  0  0  0  2  0  0  0  0  0  0
   -1.4570    8.2670  -13.8960 C   0  0  0  0  0  2  0  0  0  0  0  0
   -2.7970    7.8190  -14.0870 N   0  0  0  0  0  4  0  0  0  0  0  0
   -2.8730    6.9420  -15.2400 C   0  0  0  0  0  2  0  0  0  0  0  0
   -4.2920    6.4580  -15.3840 C   0  0  0  0  0  2  0  0  0  0  0  0
   -5.0520    7.5720  -15.7750 O   0  0  0  0  0  0  0  0  0  0  0  0
   -5.0220    8.4820  -14.7430 C   0  0  0  0  0  2  0  0  0  0  0  0
   -3.6330    8.9840  -14.4420 C   0  0  0  0  0  2  0  0  0  0  0  0
   -3.2020    7.3720  -13.2520 H   0  0  0  0  0  0  0  0  0  0  0  0
    2.0940    9.0830  -13.0060 C   0  0  0  0  0  0  0  0  0  0  0  0
    2.5740    9.7560  -11.8720 C   0  0  0  0  0  3  0  0  0  0  0  0
    2.9350   11.0730  -11.9020 C   0  0  0  0  0  3  0  0  0  0  0  0
    2.8380   11.8030  -13.0660 C   0  0  0  0  0  0  0  0  0  0  0  0
    3.3360   13.6510  -13.1400 Br  0  0  0  0  0  0  0  0  0  0  0  0
    2.3680   11.1500  -14.1800 C   0  0  0  0  0  3  0  0  0  0  0  0
    2.0010    9.8040  -14.1440 C   0  0  0  0  0  3  0  0  0  0  0  0
    4.9330    5.5900  -13.3840 C   0  0  0  0  0  0  0  0  0  0  0  0
    4.6730    4.3550  -13.8890 C   0  0  0  0  0  3  0  0  0  0  0  0
    5.6410    3.3610  -13.8460 C   0  0  0  0  0  3  0  0  0  0  0  0
    6.8760    3.6130  -13.2930 C   0  0  0  0  0  0  0  0  0  0  0  0
    7.1780    4.8490  -12.7720 C   0  0  0  0  0  3  0  0  0  0  0  0
    7.9420    2.5690  -13.2290 C   0  0  0  0  0  1  0  0  0  0  0  0
    6.1940    5.8270  -12.8260 C   0  0  0  0  0  3  0  0  0  0  0  0
  1 19  1  6  0  0  0
  2  1  1  0  0  0  0
  2  3  1  0  0  0  0
  3  4  2  0  0  0  0
  3  5  1  0  0  0  0
  5  6  2  0  0  0  0
  7  1  1  0  0  0  0
  7  5  1  0  0  0  0
  8 26  1  0  0  0  0
  8  7  2  0  0  0  0
  9  8  1  0  0  0  0
 10 11  1  0  0  0  0
 10  2  1  0  0  0  0
 12 11  1  0  0  0  0
 12 18  1  0  0  0  0
 13 12  1  0  0  0  0
 14 13  1  0  0  0  0
 15 14  1  0  0  0  0
 15 16  1  0  0  0  0
 16 17  1  0  0  0  0
 17 12  1  0  0  0  0
 19 20  1  0  0  0  0
 21 20  2  0  0  0  0
 22 21  1  0  0  0  0
 23 22  1  0  0  0  0
 24 25  1  0  0  0  0
 24 22  2  0  0  0  0
 25 19  2  0  0  0  0
 26 32  1  0  0  0  0
 27 28  1  0  0  0  0
 27 26  2  0  0  0  0
 28 29  2  0  0  0  0
 29 31  1  0  0  0  0
 29 30  1  0  0  0  0
 32 30  2  0  0  0  0
M  END
>  <Pose>
1

>  <Score>
-7.827

$$$$
