MODEL 1
REMARK VINA RESULT:    -6.369      0.000      0.000
REMARK INTER + INTRA:          -8.768
REMARK INTER:                  -8.230
REMARK INTRA:                  -0.537
REMARK UNBOUND:                -0.537
REMARK  5 active torsions:
REMARK  status: ('A' for Active; 'I' for Inactive)
REMARK    1  A    between atoms: C_5  and  C_8 
REMARK    2  A    between atoms: N_9  and  C_24 
REMARK    3  A    between atoms: C_15  and  C_17 
REMARK    4  A    between atoms: C_24  and  C_25 
REMARK    5  A    between atoms: C_25  and  N_26 
ROOT
ATOM      1  C   UNK d   1      -0.072   7.899 -14.003  0.00  0.00     0.161 C 
ATOM      2  N   UNK d   1      -0.085   6.628 -13.376  0.00  0.00    -0.331 N 
ATOM      3  C   UNK d   1      -1.285   5.998 -13.918  0.00  0.00     0.295 C 
ATOM      4  O   UNK d   1      -1.468   4.760 -14.075  0.00  0.00    -0.264 OA
ATOM      5  C   UNK d   1      -2.203   7.092 -14.230  0.00  0.00     0.250 C 
ATOM      6  O   UNK d   1      -3.363   7.024 -14.712  0.00  0.00    -0.282 OA
ATOM      7  C   UNK d   1      -1.497   8.321 -13.861  0.00  0.00     0.062 C 
ATOM      8  C   UNK d   1      -2.023   9.467 -13.467  0.00  0.00     0.130 C 
ATOM      9  O   UNK d   1      -1.204  10.520 -13.090  0.00  0.00    -0.190 OA
ENDROOT
BRANCH   2  10
ATOM     10  C   UNK d   1       0.821   5.942 -12.451  0.00  0.00     0.155 C 
BRANCH  10  11
ATOM     11  C   UNK d   1       2.049   5.376 -13.094  0.00  0.00     0.255 C 
BRANCH  11  12
ATOM     12  N   UNK d   1       3.112   5.124 -12.147  0.00  0.00    -0.066 N 
ATOM     13  C   UNK d   1       4.355   5.739 -12.523  0.00  0.00     0.261 C 
ATOM     14  C   UNK d   1       5.009   5.107 -13.717  0.00  0.00     0.195 C 
ATOM     15  O   UNK d   1       5.142   3.724 -13.573  0.00  0.00    -0.388 OA
ATOM     16  C   UNK d   1       3.840   3.219 -13.434  0.00  0.00     0.195 C 
ATOM     17  C   UNK d   1       3.329   3.690 -12.090  0.00  0.00     0.261 C 
ATOM     18  H   UNK d   1       2.873   5.435 -11.185  0.00  0.00     0.280 HD
ENDBRANCH  11  12
ENDBRANCH  10  11
ENDBRANCH   2  10
BRANCH   1  19
ATOM     19  C   UNK d   1       0.910   8.879 -13.736  0.00  0.00    -0.030 A 
ATOM     20  C   UNK d   1       1.450   9.680 -14.702  0.00  0.00     0.011 A 
ATOM     21  C   UNK d   1       2.412  10.649 -14.380  0.00  0.00     0.019 A 
ATOM     22  C   UNK d   1       2.847  10.829 -13.087  0.00  0.00     0.011 A 
ATOM     23 Br   UNK d   1       4.148  12.127 -12.598  0.00  0.00    -0.051 Br
ATOM     24  C   UNK d   1       2.309  10.027 -12.116  0.00  0.00     0.019 A 
ATOM     25  C   UNK d   1       1.365   9.082 -12.450  0.00  0.00     0.011 A 
ENDBRANCH   1  19
BRANCH   8  26
ATOM     26  C   UNK d   1      -3.457   9.717 -13.402  0.00  0.00     0.001 A 
ATOM     27  C   UNK d   1      -4.016  10.213 -14.588  0.00  0.00     0.016 A 
ATOM     28  C   UNK d   1      -5.362  10.465 -14.709  0.00  0.00     0.024 A 
ATOM     29  C   UNK d   1      -6.180  10.213 -13.612  0.00  0.00     0.034 A 
ATOM     30  C   UNK d   1      -5.623   9.724 -12.450  0.00  0.00     0.024 A 
ATOM     31 Cl   UNK d   1      -7.890  10.537 -13.777  0.00  0.00    -0.084 Cl
ATOM     32  C   UNK d   1      -4.271   9.475 -12.340  0.00  0.00     0.016 A 
ENDBRANCH   8  26
TORSDOF 5
ENDMDL
