MODEL 1
REMARK VINA RESULT:    -7.709      0.000      0.000
REMARK INTER + INTRA:          -9.820
REMARK INTER:                 -10.413
REMARK INTRA:                   0.593
REMARK UNBOUND:                 0.593
REMARK  6 active torsions:
REMARK  status: ('A' for Active; 'I' for Inactive)
REMARK    1  A    between atoms: C_5  and  C_8 
REMARK    2  A    between atoms: N_9  and  C_23 
REMARK    3  A    between atoms: C_15  and  C_17 
REMARK    4  A    between atoms: C_23  and  C_24 
REMARK    5  A    between atoms: C_24  and  C_25 
REMARK    6  A    between atoms: C_25  and  N_26 
ROOT
ATOM      1  C   UNK d   1       0.714   9.648 -14.270  0.00  0.00     0.161 C 
ATOM      2  N   UNK d   1      -0.400   8.965 -13.695  0.00  0.00    -0.332 N 
ATOM      3  C   UNK d   1      -1.379   9.995 -13.402  0.00  0.00     0.295 C 
ATOM      4  O   UNK d   1      -2.608   9.784 -13.234  0.00  0.00    -0.264 OA
ATOM      5  C   UNK d   1      -0.684  11.267 -13.344  0.00  0.00     0.250 C 
ATOM      6  O   UNK d   1      -1.178  12.411 -13.109  0.00  0.00    -0.282 OA
ATOM      7  C   UNK d   1       0.711  10.980 -13.608  0.00  0.00     0.062 C 
ATOM      8  C   UNK d   1       1.736  11.749 -13.285  0.00  0.00     0.130 C 
ATOM      9  O   UNK d   1       3.019  11.242 -13.601  0.00  0.00    -0.190 OA
ENDROOT
BRANCH   2  10
ATOM     10  C   UNK d   1      -0.670   7.544 -13.471  0.00  0.00     0.129 C 
BRANCH  10  11
ATOM     11  C   UNK d   1      -0.775   6.716 -14.706  0.00  0.00     0.048 C 
BRANCH  11  12
ATOM     12  C   UNK d   1      -2.162   6.115 -14.873  0.00  0.00     0.236 C 
BRANCH  12  13
ATOM     13  N   UNK d   1      -3.192   7.101 -14.639  0.00  0.00    -0.067 N 
ATOM     14  C   UNK d   1      -3.846   7.521 -15.858  0.00  0.00     0.261 C 
ATOM     15  C   UNK d   1      -5.152   8.202 -15.442  0.00  0.00     0.195 C 
ATOM     16  O   UNK d   1      -6.064   7.215 -15.069  0.00  0.00    -0.388 OA
ATOM     17  C   UNK d   1      -5.450   6.198 -14.339  0.00  0.00     0.195 C 
ATOM     18  C   UNK d   1      -4.171   6.679 -13.685  0.00  0.00     0.261 C 
ATOM     19  H   UNK d   1      -2.710   7.945 -14.248  0.00  0.00     0.280 HD
ENDBRANCH  12  13
ENDBRANCH  11  12
ENDBRANCH  10  11
ENDBRANCH   2  10
BRANCH   1  20
ATOM     20  C   UNK d   1       2.009   8.996 -14.254  0.00  0.00    -0.030 A 
ATOM     21  C   UNK d   1       2.967   9.052 -15.208  0.00  0.00     0.011 A 
ATOM     22  C   UNK d   1       4.181   8.405 -15.076  0.00  0.00     0.019 A 
ATOM     23  C   UNK d   1       4.483   7.660 -13.957  0.00  0.00     0.011 A 
ATOM     24 Br   UNK d   1       6.153   6.757 -13.755  0.00  0.00    -0.051 Br
ATOM     25  C   UNK d   1       3.529   7.580 -12.966  0.00  0.00     0.019 A 
ATOM     26  C   UNK d   1       2.328   8.233 -13.118  0.00  0.00     0.011 A 
ENDBRANCH   1  20
BRANCH   8  27
ATOM     27  C   UNK d   1       1.620  13.047 -12.651  0.00  0.00     0.004 A 
ATOM     28  C   UNK d   1       2.449  13.267 -11.543  0.00  0.00     0.033 A 
ATOM     29  C   UNK d   1       2.473  14.471 -10.870  0.00  0.00     0.117 A 
ATOM     30  N   UNK d   1       1.679  15.476 -11.280  0.00  0.00    -0.273 NA
ATOM     31  C   UNK d   1       0.871  15.292 -12.344  0.00  0.00     0.117 A 
ATOM     32  C   UNK d   1       0.837  14.081 -13.033  0.00  0.00     0.033 A 
ENDBRANCH   8  27
TORSDOF 6
ENDMDL
