MODEL 1
REMARK VINA RESULT:    -8.445      0.000      0.000
REMARK INTER + INTRA:         -12.472
REMARK INTER:                 -11.407
REMARK INTRA:                  -1.065
REMARK UNBOUND:                -1.065
REMARK  6 active torsions:
REMARK  status: ('A' for Active; 'I' for Inactive)
REMARK    1  A    between atoms: C_5  and  C_8 
REMARK    2  A    between atoms: N_9  and  C_27 
REMARK    3  A    between atoms: C_15  and  C_17 
REMARK    4  A    between atoms: C_27  and  C_28 
REMARK    5  A    between atoms: C_28  and  C_29 
REMARK    6  A    between atoms: C_29  and  N_30 
ROOT
ATOM      1  C   UNK d   1       2.434   8.241 -12.598  0.00  0.00     0.161 C 
ATOM      2  N   UNK d   1       2.962   9.357 -13.403  0.00  0.00    -0.332 N 
ATOM      3  C   UNK d   1       2.521   9.080 -14.727  0.00  0.00     0.295 C 
ATOM      4  O   UNK d   1       3.095   9.502 -15.772  0.00  0.00    -0.264 OA
ATOM      5  C   UNK d   1       1.324   8.248 -14.660  0.00  0.00     0.251 C 
ATOM      6  O   UNK d   1       0.656   7.813 -15.621  0.00  0.00    -0.282 OA
ATOM      7  C   UNK d   1       1.084   8.046 -13.243  0.00  0.00     0.064 C 
ATOM      8  C   UNK d   1      -0.050   7.791 -12.642  0.00  0.00     0.149 C 
ATOM      9  O   UNK d   1      -0.117   7.674 -11.260  0.00  0.00    -0.189 OA
ENDROOT
BRANCH   1  10
ATOM     10  C   UNK d   1       3.209   7.004 -12.844  0.00  0.00    -0.030 A 
ATOM     11  C   UNK d   1       4.456   7.044 -13.420  0.00  0.00     0.011 A 
ATOM     12  C   UNK d   1       5.207   5.891 -13.648  0.00  0.00     0.019 A 
ATOM     13  C   UNK d   1       4.702   4.654 -13.291  0.00  0.00     0.011 A 
ATOM     14 Br   UNK d   1       5.720   3.054 -13.596  0.00  0.00    -0.051 Br
ATOM     15  C   UNK d   1       3.457   4.618 -12.716  0.00  0.00     0.019 A 
ATOM     16  C   UNK d   1       2.725   5.762 -12.496  0.00  0.00     0.011 A 
ENDBRANCH   1  10
BRANCH   8  17
ATOM     17  C   UNK d   1      -1.285   7.615 -13.382  0.00  0.00     0.102 A 
ATOM     18  N   UNK d   1      -2.277   8.476 -13.688  0.00  0.00    -0.302 N 
ATOM     19  C   UNK d   1      -3.254   7.858 -14.367  0.00  0.00     0.134 A 
ATOM     20  C   UNK d   1      -2.429   9.805 -13.452  0.00  0.00     0.099 A 
ATOM     21  N   UNK d   1      -2.865   6.571 -14.491  0.00  0.00    -0.233 NA
ATOM     22  C   UNK d   1      -4.395   8.515 -14.826  0.00  0.00     0.051 A 
ATOM     23  C   UNK d   1      -1.693   6.374 -13.919  0.00  0.00     0.063 A 
ATOM     24  C   UNK d   1      -0.880   5.120 -13.813  0.00  0.00     0.073 C 
ATOM     25  C   UNK d   1      -4.556   9.861 -14.588  0.00  0.00     0.005 A 
ATOM     26  C   UNK d   1      -3.543  10.479 -13.893  0.00  0.00     0.018 A 
ENDBRANCH   8  17
BRANCH   2  27
ATOM     27  C   UNK d   1       3.758  10.455 -12.922  0.00  0.00     0.129 C 
BRANCH  27  28
ATOM     28  C   UNK d   1       3.297  11.841 -13.149  0.00  0.00     0.048 C 
BRANCH  28  29
ATOM     29  C   UNK d   1       2.828  12.674 -12.022  0.00  0.00     0.235 C 
BRANCH  29  30
ATOM     30  N   UNK d   1       2.111  13.875 -12.325  0.00  0.00    -0.079 N 
ATOM     31  C   UNK d   1       0.709  13.469 -12.625  0.00  0.00     0.269 C 
ATOM     32  C   UNK d   1       1.995  14.693 -11.135  0.00  0.00     0.269 C 
ATOM     33  H   UNK d   1       2.456  14.436 -13.104  0.00  0.00     0.278 HD
ENDBRANCH  29  30
ENDBRANCH  28  29
ENDBRANCH  27  28
ENDBRANCH   2  27
TORSDOF 6
ENDMDL
