/Users/jonathanwahrer/Desktop/Msc/3_Semester/Drug_Design_Praktikum/waehrer_HTS_screening/HTS_experiment/out/docking_results/vina_output/6q9y/0362_docked.pdbqt
 OpenBabel03222219193D

 36 40  0  0  1  0  0  0  0  0999 V2000
   -1.4530   10.0170  -14.1390 C   0  0  2  0  0  3  0  0  0  0  0  0
   -2.6960    9.4420  -13.8380 N   0  0  0  0  0  0  0  0  0  0  0  0
   -2.5370    8.0740  -14.3030 C   0  0  0  0  0  0  0  0  0  0  0  0
   -3.4470    7.2640  -14.6910 O   0  0  0  0  0  0  0  0  0  0  0  0
   -1.1150    7.7550  -14.2540 C   0  0  0  0  0  0  0  0  0  0  0  0
   -0.4900    6.6900  -14.5620 O   0  0  0  0  0  0  0  0  0  0  0  0
   -0.4750    8.9690  -13.7510 C   0  0  0  0  0  0  0  0  0  0  0  0
    0.6930    9.0910  -13.1490 C   0  0  0  0  0  0  0  0  0  0  0  0
    1.1600   10.3480  -12.7900 O   0  0  0  0  0  1  0  0  0  0  0  0
   -1.0990   11.3550  -13.7820 C   0  0  0  0  0  0  0  0  0  0  0  0
   -1.4630   11.9220  -12.5940 C   0  0  0  0  0  3  0  0  0  0  0  0
   -1.1080   13.2240  -12.3090 C   0  0  0  0  0  3  0  0  0  0  0  0
   -0.3820   13.9990  -13.1940 C   0  0  0  0  0  0  0  0  0  0  0  0
    0.1090   15.8000  -12.7990 Br  0  0  0  0  0  0  0  0  0  0  0  0
   -0.0170   13.4170  -14.3930 C   0  0  0  0  0  3  0  0  0  0  0  0
   -0.3810   12.1170  -14.6600 C   0  0  0  0  0  3  0  0  0  0  0  0
    1.5380    7.9500  -12.8300 C   0  0  0  0  0  0  0  0  0  0  0  0
    2.7570    7.6630  -13.3170 N   0  0  0  0  0  0  0  0  0  0  0  0
    3.2310    6.5320  -12.7450 C   0  0  0  0  0  0  0  0  0  0  0  0
    3.5820    8.2400  -14.2390 C   0  0  0  0  0  3  0  0  0  0  0  0
    2.2830    6.1160  -11.8900 N   0  0  0  0  0  0  0  0  0  0  0  0
    4.4610    5.9990  -13.0670 C   0  0  0  0  0  3  0  0  0  0  0  0
    1.2410    6.9430  -11.9100 C   0  0  0  0  0  0  0  0  0  0  0  0
   -0.0320    6.8910  -11.1420 C   0  0  0  0  0  1  0  0  0  0  0  0
    5.2700    6.6030  -14.0000 C   0  0  0  0  0  3  0  0  0  0  0  0
    4.8020    7.7540  -14.5930 C   0  0  0  0  0  3  0  0  0  0  0  0
   -3.9590    9.8070  -13.2840 C   0  0  0  0  0  2  0  0  0  0  0  0
   -5.2250    9.4890  -13.9080 C   0  0  0  0  0  2  0  0  0  0  0  0
   -6.1290   10.6340  -14.2980 C   0  0  0  0  0  2  0  0  0  0  0  0
   -7.5210   10.2040  -14.3940 N   0  0  0  0  0  4  0  0  0  0  0  0
   -8.0300   10.1710  -15.7330 C   0  0  0  0  0  2  0  0  0  0  0  0
   -8.6130   11.4660  -16.2160 C   0  0  0  0  0  2  0  0  0  0  0  0
   -8.2940   12.5420  -15.4300 O   0  0  0  0  0  0  0  0  0  0  0  0
   -8.5590   12.3940  -14.0940 C   0  0  0  0  0  2  0  0  0  0  0  0
   -8.3910   11.0010  -13.5830 C   0  0  0  0  0  2  0  0  0  0  0  0
   -7.5450    9.2170  -14.0350 H   0  0  0  0  0  0  0  0  0  0  0  0
  1  2  1  0  0  0  0
  1 10  1  1  0  0  0
  1  7  1  0  0  0  0
  2 27  1  0  0  0  0
  3  5  1  0  0  0  0
  3  2  1  0  0  0  0
  4  3  2  0  0  0  0
  5  7  1  0  0  0  0
  6  5  2  0  0  0  0
  7  8  2  0  0  0  0
  8 17  1  0  0  0  0
  8  9  1  0  0  0  0
 10 11  1  0  0  0  0
 11 12  2  0  0  0  0
 13 14  1  0  0  0  0
 13 12  1  0  0  0  0
 15 13  2  0  0  0  0
 16 15  1  0  0  0  0
 16 10  2  0  0  0  0
 17 23  2  0  0  0  0
 18 17  1  0  0  0  0
 18 19  1  0  0  0  0
 19 21  2  0  0  0  0
 20 18  1  0  0  0  0
 22 19  1  0  0  0  0
 23 21  1  0  0  0  0
 23 24  1  0  0  0  0
 25 22  2  0  0  0  0
 26 20  2  0  0  0  0
 26 25  1  0  0  0  0
 28 27  1  0  0  0  0
 29 28  1  0  0  0  0
 30 29  1  0  0  0  0
 30 36  1  0  0  0  0
 30 35  1  0  0  0  0
 31 30  1  0  0  0  0
 32 31  1  0  0  0  0
 32 33  1  0  0  0  0
 33 34  1  0  0  0  0
 34 35  1  0  0  0  0
M  END
>  <Pose>
1

>  <Score>
-7.080

$$$$
