/Users/jonathanwahrer/Desktop/Msc/3_Semester/Drug_Design_Praktikum/waehrer_HTS_screening/HTS_experiment/out/docking_results/vina_output/6q9y/0364_docked.pdbqt
 OpenBabel03222219193D

 32 35  0  0  1  0  0  0  0  0999 V2000
    2.4140    7.7720  -12.8690 C   0  0  1  0  0  3  0  0  0  0  0  0
    3.2020    8.7330  -13.5910 N   0  0  0  0  0  0  0  0  0  0  0  0
    2.5770    8.9390  -14.8450 C   0  0  0  0  0  0  0  0  0  0  0  0
    3.0800    9.5590  -15.8260 O   0  0  0  0  0  0  0  0  0  0  0  0
    1.2500    8.3180  -14.8290 C   0  0  0  0  0  0  0  0  0  0  0  0
    0.4020    8.2970  -15.7550 O   0  0  0  0  0  0  0  0  0  0  0  0
    1.0850    7.7200  -13.5160 C   0  0  0  0  0  0  0  0  0  0  0  0
   -0.0530    7.2790  -13.0050 C   0  0  0  0  0  0  0  0  0  0  0  0
   -0.0210    6.8020  -11.6800 O   0  0  0  0  0  1  0  0  0  0  0  0
    3.0620    6.4340  -12.8260 C   0  0  0  0  0  0  0  0  0  0  0  0
    2.4320    5.3180  -12.3220 C   0  0  0  0  0  3  0  0  0  0  0  0
    3.0010    4.0680  -12.2660 C   0  0  0  0  0  3  0  0  0  0  0  0
    4.2710    3.8870  -12.7350 C   0  0  0  0  0  0  0  0  0  0  0  0
    5.0440    2.1410  -12.6500 Br  0  0  0  0  0  0  0  0  0  0  0  0
    4.9420    4.9710  -13.2480 C   0  0  0  0  0  3  0  0  0  0  0  0
    4.3580    6.2140  -13.2960 C   0  0  0  0  0  3  0  0  0  0  0  0
   -1.3280    7.2300  -13.6760 C   0  0  0  0  0  0  0  0  0  0  0  0
   -2.2950    8.1350  -13.8720 N   0  0  0  0  0  0  0  0  0  0  0  0
   -3.3330    7.5930  -14.5330 C   0  0  0  0  0  0  0  0  0  0  0  0
   -2.3700    9.4410  -13.5400 C   0  0  0  0  0  3  0  0  0  0  0  0
   -3.0200    6.3070  -14.7680 N   0  0  0  0  0  0  0  0  0  0  0  0
   -4.4730    8.3050  -14.8900 C   0  0  0  0  0  3  0  0  0  0  0  0
   -1.8120    6.0520  -14.2620 C   0  0  0  0  0  0  0  0  0  0  0  0
   -1.1170    4.7360  -14.3230 C   0  0  0  0  0  1  0  0  0  0  0  0
   -4.5420    9.6280  -14.5510 C   0  0  0  0  0  3  0  0  0  0  0  0
   -3.4760   10.1880  -13.8720 C   0  0  0  0  0  3  0  0  0  0  0  0
    4.4390    9.3940  -13.1200 C   0  0  0  0  0  2  0  0  0  0  0  0
    4.0970   10.7010  -12.4360 C   0  0  0  0  0  2  0  0  0  0  0  0
    3.5500   11.6730  -13.3160 N   0  0  0  0  0  4  0  0  0  0  0  0
    2.2320   12.0450  -12.8030 C   0  0  0  0  0  1  0  0  0  0  0  0
    4.3310   12.8610  -13.4750 C   0  0  0  0  0  1  0  0  0  0  0  0
    3.3800   11.2800  -14.2840 H   0  0  0  0  0  0  0  0  0  0  0  0
  1 10  1  6  0  0  0
  2 27  1  0  0  0  0
  2  1  1  0  0  0  0
  3  5  1  0  0  0  0
  3  2  1  0  0  0  0
  4  3  2  0  0  0  0
  5  7  1  0  0  0  0
  6  5  2  0  0  0  0
  7  8  2  0  0  0  0
  7  1  1  0  0  0  0
  8  9  1  0  0  0  0
 10 11  1  0  0  0  0
 11 12  2  0  0  0  0
 13 14  1  0  0  0  0
 13 12  1  0  0  0  0
 15 13  2  0  0  0  0
 16 15  1  0  0  0  0
 16 10  2  0  0  0  0
 17  8  1  0  0  0  0
 18 17  1  0  0  0  0
 18 20  1  0  0  0  0
 19 18  1  0  0  0  0
 21 19  2  0  0  0  0
 21 23  1  0  0  0  0
 22 25  2  0  0  0  0
 22 19  1  0  0  0  0
 23 17  2  0  0  0  0
 24 23  1  0  0  0  0
 25 26  1  0  0  0  0
 26 20  2  0  0  0  0
 27 28  1  0  0  0  0
 29 30  1  0  0  0  0
 29 28  1  0  0  0  0
 31 29  1  0  0  0  0
 32 29  1  0  0  0  0
M  END
>  <Pose>
1

>  <Score>
-6.999

$$$$
