MODEL 1
REMARK VINA RESULT:    -6.999      0.000      0.000
REMARK INTER + INTRA:          -9.797
REMARK INTER:                  -9.045
REMARK INTRA:                  -0.752
REMARK UNBOUND:                -0.752
REMARK  5 active torsions:
REMARK  status: ('A' for Active; 'I' for Inactive)
REMARK    1  A    between atoms: C_5  and  C_8 
REMARK    2  A    between atoms: N_9  and  C_27 
REMARK    3  A    between atoms: C_15  and  C_17 
REMARK    4  A    between atoms: C_27  and  C_28 
REMARK    5  A    between atoms: C_28  and  N_29 
ROOT
ATOM      1  C   UNK d   1       2.414   7.772 -12.869  0.00  0.00     0.161 C 
ATOM      2  N   UNK d   1       3.202   8.733 -13.591  0.00  0.00    -0.331 N 
ATOM      3  C   UNK d   1       2.577   8.939 -14.845  0.00  0.00     0.295 C 
ATOM      4  O   UNK d   1       3.080   9.559 -15.826  0.00  0.00    -0.264 OA
ATOM      5  C   UNK d   1       1.250   8.318 -14.829  0.00  0.00     0.251 C 
ATOM      6  O   UNK d   1       0.402   8.297 -15.755  0.00  0.00    -0.282 OA
ATOM      7  C   UNK d   1       1.085   7.720 -13.516  0.00  0.00     0.064 C 
ATOM      8  C   UNK d   1      -0.053   7.279 -13.005  0.00  0.00     0.149 C 
ATOM      9  O   UNK d   1      -0.021   6.802 -11.680  0.00  0.00    -0.189 OA
ENDROOT
BRANCH   1  10
ATOM     10  C   UNK d   1       3.062   6.434 -12.826  0.00  0.00    -0.030 A 
ATOM     11  C   UNK d   1       2.432   5.318 -12.322  0.00  0.00     0.011 A 
ATOM     12  C   UNK d   1       3.001   4.068 -12.266  0.00  0.00     0.019 A 
ATOM     13  C   UNK d   1       4.271   3.887 -12.735  0.00  0.00     0.011 A 
ATOM     14 Br   UNK d   1       5.044   2.141 -12.650  0.00  0.00    -0.051 Br
ATOM     15  C   UNK d   1       4.942   4.971 -13.248  0.00  0.00     0.019 A 
ATOM     16  C   UNK d   1       4.358   6.214 -13.296  0.00  0.00     0.011 A 
ENDBRANCH   1  10
BRANCH   8  17
ATOM     17  C   UNK d   1      -1.328   7.230 -13.676  0.00  0.00     0.102 A 
ATOM     18  N   UNK d   1      -2.295   8.135 -13.872  0.00  0.00    -0.302 N 
ATOM     19  C   UNK d   1      -3.333   7.593 -14.533  0.00  0.00     0.134 A 
ATOM     20  C   UNK d   1      -2.370   9.441 -13.540  0.00  0.00     0.099 A 
ATOM     21  N   UNK d   1      -3.020   6.307 -14.768  0.00  0.00    -0.233 NA
ATOM     22  C   UNK d   1      -4.473   8.305 -14.890  0.00  0.00     0.051 A 
ATOM     23  C   UNK d   1      -1.812   6.052 -14.262  0.00  0.00     0.063 A 
ATOM     24  C   UNK d   1      -1.117   4.736 -14.323  0.00  0.00     0.073 C 
ATOM     25  C   UNK d   1      -4.542   9.628 -14.551  0.00  0.00     0.005 A 
ATOM     26  C   UNK d   1      -3.476  10.188 -13.872  0.00  0.00     0.018 A 
ENDBRANCH   8  17
BRANCH   2  27
ATOM     27  C   UNK d   1       4.439   9.394 -13.120  0.00  0.00     0.155 C 
BRANCH  27  28
ATOM     28  C   UNK d   1       4.097  10.701 -12.436  0.00  0.00     0.254 C 
BRANCH  28  29
ATOM     29  N   UNK d   1       3.550  11.673 -13.316  0.00  0.00    -0.077 N 
ATOM     30  C   UNK d   1       2.232  12.045 -12.803  0.00  0.00     0.269 C 
ATOM     31  C   UNK d   1       4.331  12.861 -13.475  0.00  0.00     0.269 C 
ATOM     32  H   UNK d   1       3.380  11.280 -14.284  0.00  0.00     0.279 HD
ENDBRANCH  28  29
ENDBRANCH  27  28
ENDBRANCH   2  27
TORSDOF 5
ENDMDL
