MODEL 1
REMARK VINA RESULT:    -8.352      0.000      0.000
REMARK INTER + INTRA:         -11.568
REMARK INTER:                 -10.305
REMARK INTRA:                  -1.263
REMARK UNBOUND:                -1.263
REMARK  4 active torsions:
REMARK  status: ('A' for Active; 'I' for Inactive)
REMARK    1  A    between atoms: C_5  and  N_8 
REMARK       I    between atoms: N_8  and  C_9 
REMARK    2  A    between atoms: C_9  and  C_11 
REMARK    3  A    between atoms: C_11  and  N_12 
REMARK    4  A    between atoms: N_18  and  C_19 
ROOT
ATOM      1  N   UNK d   1       3.072   7.662 -13.679  0.00  0.00    -0.205 N 
ATOM      2  N   UNK d   1       1.769   7.921 -13.725  0.00  0.00     0.023 NA
ATOM      3  C   UNK d   1       0.842   7.019 -13.291  0.00  0.00     0.729 A 
ATOM      4  N   UNK d   1       1.254   5.838 -12.806  0.00  0.00    -0.138 N 
ATOM      5  C   UNK d   1       0.120   5.024 -12.426  0.00  0.00     0.172 A 
ATOM      6  C   UNK d   1      -1.112   5.830 -12.714  0.00  0.00     0.169 A 
ATOM      7  N   UNK d   1      -0.576   7.085 -13.206  0.00  0.00    -0.178 N 
ATOM      8  C   UNK d   1       2.553   5.519 -12.734  0.00  0.00     0.332 A 
ATOM      9  O   UNK d   1       2.935   4.415 -12.280  0.00  0.00    -0.261 OA
ATOM     10  C   UNK d   1       3.448   6.469 -13.185  0.00  0.00     0.333 A 
ATOM     11  O   UNK d   1       4.678   6.215 -13.139  0.00  0.00    -0.260 OA
ENDROOT
BRANCH   1  12
ATOM     12  C   UNK d   1       4.085   8.638 -14.112  0.00  0.00     0.258 C 
BRANCH  12  13
ATOM     13  C   UNK d   1       3.659  10.001 -13.797  0.00  0.00     0.242 C 
ATOM     14  N   UNK d   1       2.943  10.442 -12.678  0.00  0.00    -0.326 N 
ATOM     15  H   UNK d   1       2.665   9.700 -11.975  0.00  0.00     0.169 HD
ATOM     16  O   UNK d   1       4.014  10.865 -14.694  0.00  0.00    -0.271 OA
BRANCH  14  17
ATOM     17  C   UNK d   1       2.564  11.762 -12.419  0.00  0.00     0.034 A 
ATOM     18  C   UNK d   1       3.278  12.712 -11.733  0.00  0.00     0.031 A 
ATOM     19  C   UNK d   1       2.821  14.025 -11.550  0.00  0.00     0.021 A 
ATOM     20  C   UNK d   1       1.616  14.437 -12.055  0.00  0.00     0.011 A 
ATOM     21 Br   UNK d   1       0.979  16.222 -11.818  0.00  0.00    -0.051 Br
ATOM     22  C   UNK d   1       0.878  13.498 -12.749  0.00  0.00     0.021 A 
ATOM     23  C   UNK d   1       1.330  12.219 -12.923  0.00  0.00     0.031 A 
ENDBRANCH  14  17
ENDBRANCH  12  13
ENDBRANCH   1  12
BRANCH   7  24
ATOM     24  C   UNK d   1      -1.397   8.189 -13.538  0.00  0.00     0.051 A 
ATOM     25  C   UNK d   1      -1.086   9.488 -13.237  0.00  0.00     0.030 A 
ATOM     26  C   UNK d   1      -1.917  10.545 -13.561  0.00  0.00     0.002 A 
ATOM     27  C   UNK d   1      -3.110  10.299 -14.214  0.00  0.00     0.000 A 
ATOM     28  C   UNK d   1      -3.437   9.016 -14.523  0.00  0.00     0.002 A 
ATOM     29  C   UNK d   1      -2.603   7.969 -14.195  0.00  0.00     0.030 A 
ENDBRANCH   7  24
TORSDOF 4
ENDMDL
