MODEL 1
REMARK VINA RESULT:   -11.499      0.000      0.000
REMARK INTER + INTRA:         -14.064
REMARK INTER:                 -14.187
REMARK INTRA:                   0.124
REMARK UNBOUND:                 0.124
REMARK  4 active torsions:
REMARK  status: ('A' for Active; 'I' for Inactive)
REMARK    1  A    between atoms: C_5  and  N_8 
REMARK       I    between atoms: N_8  and  C_9 
REMARK    2  A    between atoms: C_9  and  C_11 
REMARK    3  A    between atoms: C_11  and  N_12 
REMARK    4  A    between atoms: N_19  and  C_22 
ROOT
ATOM      1  N   UNK d   1      -0.325  16.647 -12.531  0.00  0.00    -0.261 N 
ATOM      2  N   UNK d   1      -0.469  16.246 -13.794  0.00  0.00    -0.239 N 
ATOM      3  N   UNK d   1      -1.548  16.791 -14.306  0.00  0.00    -0.279 N 
ATOM      4  C   UNK d   1      -2.125  17.569 -13.359  0.00  0.00     0.152 A 
ATOM      5  C   UNK d   1      -1.356  17.469 -12.268  0.00  0.00     0.155 A 
ATOM      6  C   UNK d   1      -1.975  18.271 -11.332  0.00  0.00     0.286 A 
ATOM      7  O   UNK d   1      -1.522  18.423 -10.159  0.00  0.00    -0.265 OA
ATOM      8  N   UNK d   1      -3.084  18.849 -11.818  0.00  0.00    -0.241 N 
ATOM      9  C   UNK d   1      -3.185  18.407 -13.104  0.00  0.00     0.286 A 
ATOM     10  O   UNK d   1      -4.123  18.752 -13.873  0.00  0.00    -0.265 OA
ATOM     11  H   UNK d   1       0.198  15.598 -14.263  0.00  0.00     0.208 HD
ATOM     12  H   UNK d   1      -1.942  16.680 -15.273  0.00  0.00     0.189 HD
ENDROOT
BRANCH   1  13
ATOM     13  C   UNK d   1       0.758  16.239 -11.658  0.00  0.00     0.254 C 
BRANCH  13  14
ATOM     14  C   UNK d   1       1.551  15.144 -12.352  0.00  0.00     0.242 C 
ATOM     15  N   UNK d   1       1.241  13.799 -12.115  0.00  0.00    -0.326 N 
ATOM     16  H   UNK d   1       0.445  13.572 -11.438  0.00  0.00     0.169 HD
ATOM     17  O   UNK d   1       2.476  15.465 -13.127  0.00  0.00    -0.271 OA
BRANCH  15  18
ATOM     18  C   UNK d   1       1.886  12.682 -12.693  0.00  0.00     0.034 A 
ATOM     19  C   UNK d   1       3.188  12.299 -12.456  0.00  0.00     0.031 A 
ATOM     20  C   UNK d   1       3.767  11.176 -13.031  0.00  0.00     0.021 A 
ATOM     21  C   UNK d   1       3.044  10.382 -13.884  0.00  0.00     0.011 A 
ATOM     22 Br   UNK d   1       3.772   8.831 -14.706  0.00  0.00    -0.051 Br
ATOM     23  C   UNK d   1       1.739  10.745 -14.137  0.00  0.00     0.021 A 
ATOM     24  C   UNK d   1       1.175  11.844 -13.573  0.00  0.00     0.031 A 
ENDBRANCH  15  18
ENDBRANCH  13  14
ENDBRANCH   1  13
BRANCH   8  25
ATOM     25  C   UNK d   1      -3.995  19.744 -11.163  0.00  0.00     0.046 A 
ATOM     26  C   UNK d   1      -5.286  19.902 -11.620  0.00  0.00     0.031 A 
ATOM     27  C   UNK d   1      -6.171  20.753 -10.990  0.00  0.00     0.009 A 
ATOM     28  C   UNK d   1      -5.812  21.489  -9.875  0.00  0.00    -0.062 A 
ATOM     29  C   UNK d   1      -4.522  21.333  -9.415  0.00  0.00     0.009 A 
ATOM     30  C   UNK d   1      -6.793  22.394  -9.216  0.00  0.00     0.048 C 
ATOM     31  C   UNK d   1      -3.638  20.477 -10.051  0.00  0.00     0.031 A 
ENDBRANCH   8  25
TORSDOF 4
ENDMDL
