/Users/jonathanwahrer/Desktop/Msc/3_Semester/Drug_Design_Praktikum/waehrer_HTS_screening/HTS_experiment/out/docking_results/vina_output/6q9y/0385_docked.pdbqt
 OpenBabel03222219203D

 32 35  0  0  1  0  0  0  0  0999 V2000
    0.3070    8.0210  -12.9340 C   0  0  2  0  0  3  0  0  0  0  0  0
    0.3110    9.5110  -13.1020 C   0  0  0  0  0  2  0  0  0  0  0  0
    1.3890   10.0270  -13.9560 C   0  0  0  0  0  0  0  0  0  0  0  0
    1.1670   11.0780  -14.6160 O   0  0  0  0  0  0  0  0  0  0  0  0
    2.6310    9.3490  -14.0250 N   0  0  0  0  0  0  0  0  0  0  0  0
    2.7390    8.0230  -13.5520 C   0  0  0  0  0  0  0  0  0  0  0  0
    3.9530    7.3920  -13.6160 N   0  0  0  0  0  0  0  0  0  0  0  0
    4.1300    6.1450  -13.1750 C   0  0  0  0  0  0  0  0  0  0  0  0
    3.0690    5.5120  -12.6590 N   0  0  0  0  0  0  0  0  0  0  0  0
    1.8370    6.0940  -12.5730 C   0  0  0  0  0  0  0  0  0  0  0  0
    1.6280    7.3830  -13.0210 C   0  0  0  0  0  0  0  0  0  0  0  0
    3.4970    9.8120  -14.4260 H   0  0  0  0  0  0  0  0  0  0  0  0
   -0.6570    7.4950  -14.0180 C   0  0  0  0  0  0  0  0  0  0  0  0
   -1.8940    7.9600  -14.0790 N   0  0  0  0  0  0  0  0  0  0  0  0
   -2.2030    7.0260  -15.0210 H   0  0  0  0  0  0  0  0  0  0  0  0
   -0.0490    6.6130  -14.7460 O   0  0  0  0  0  0  0  0  0  0  0  0
   -3.1770    8.4410  -14.1430 C   0  0  0  0  0  0  0  0  0  0  0  0
   -3.3770    9.7810  -13.6810 C   0  0  0  0  0  3  0  0  0  0  0  0
   -4.5800   10.3840  -13.7640 C   0  0  0  0  0  3  0  0  0  0  0  0
   -5.6710    9.7420  -14.2940 C   0  0  0  0  0  0  0  0  0  0  0  0
   -7.3750   10.6200  -14.4090 Br  0  0  0  0  0  0  0  0  0  0  0  0
   -5.5220    8.4500  -14.7480 C   0  0  0  0  0  3  0  0  0  0  0  0
   -4.2980    7.8340  -14.6670 C   0  0  0  0  0  3  0  0  0  0  0  0
    0.7370    5.3740  -12.0260 N   0  0  0  0  0  0  0  0  0  0  0  0
   -0.2240    5.4710  -12.3690 H   0  0  0  0  0  0  0  0  0  0  0  0
    0.9180    4.7150  -11.2270 H   0  0  0  0  0  0  0  0  0  0  0  0
    5.4210    5.4990  -13.2570 N   0  0  0  0  0  0  0  0  0  0  0  0
    6.5570    6.3390  -13.4070 C   0  0  0  0  0  2  0  0  0  0  0  0
    7.8600    5.6880  -13.0420 C   0  0  0  0  0  2  0  0  0  0  0  0
    7.6900    4.4050  -12.5350 O   0  0  0  0  0  0  0  0  0  0  0  0
    6.8980    3.6210  -13.3640 C   0  0  0  0  0  2  0  0  0  0  0  0
    5.4670    4.0530  -13.1740 C   0  0  0  0  0  2  0  0  0  0  0  0
  1 13  1  6  0  0  0
  2  1  1  0  0  0  0
  3  2  1  0  0  0  0
  4  3  2  0  0  0  0
  5  3  1  0  0  0  0
  5  6  1  0  0  0  0
  6 11  2  0  0  0  0
  7  6  1  0  0  0  0
  7  8  2  0  0  0  0
  8  9  1  0  0  0  0
  9 10  2  0  0  0  0
 10 24  1  0  0  0  0
 11  1  1  0  0  0  0
 11 10  1  0  0  0  0
 12  5  1  0  0  0  0
 14 13  1  0  0  0  0
 15 14  1  0  0  0  0
 16 13  2  0  0  0  0
 17 14  1  0  0  0  0
 17 18  1  0  0  0  0
 19 18  2  0  0  0  0
 20 19  1  0  0  0  0
 21 20  1  0  0  0  0
 22 23  1  0  0  0  0
 22 20  2  0  0  0  0
 23 17  2  0  0  0  0
 24 26  1  0  0  0  0
 25 24  1  0  0  0  0
 27  8  1  0  0  0  0
 27 32  1  0  0  0  0
 28 27  1  0  0  0  0
 28 29  1  0  0  0  0
 29 30  1  0  0  0  0
 31 32  1  0  0  0  0
 31 30  1  0  0  0  0
M  END
>  <Pose>
1

>  <Score>
-8.512

$$$$
