MODEL 1
REMARK VINA RESULT:    -8.512      0.000      0.000
REMARK INTER + INTRA:         -10.895
REMARK INTER:                 -10.254
REMARK INTRA:                  -0.641
REMARK UNBOUND:                -0.641
REMARK  4 active torsions:
REMARK  status: ('A' for Active; 'I' for Inactive)
REMARK    1  A    between atoms: C_5  and  N_8 
REMARK       I    between atoms: N_8  and  C_9 
REMARK    2  A    between atoms: C_9  and  C_11 
REMARK    3  A    between atoms: C_18  and  N_23 
REMARK    4  A    between atoms: C_20  and  N_22 
ROOT
ATOM      1  C   UNK d   1       0.307   8.021 -12.934  0.00  0.00     0.127 C 
ATOM      2  C   UNK d   1       0.311   9.511 -13.102  0.00  0.00     0.122 C 
ATOM      3  C   UNK d   1       1.389  10.027 -13.956  0.00  0.00     0.224 C 
ATOM      4  O   UNK d   1       1.167  11.078 -14.616  0.00  0.00    -0.273 OA
ATOM      5  N   UNK d   1       2.631   9.349 -14.025  0.00  0.00    -0.310 N 
ATOM      6  C   UNK d   1       2.739   8.023 -13.552  0.00  0.00     0.160 A 
ATOM      7  N   UNK d   1       3.953   7.392 -13.616  0.00  0.00    -0.044 NA
ATOM      8  C   UNK d   1       4.130   6.145 -13.175  0.00  0.00     0.728 A 
ATOM      9  N   UNK d   1       3.069   5.512 -12.659  0.00  0.00    -0.045 NA
ATOM     10  C   UNK d   1       1.837   6.094 -12.573  0.00  0.00     0.151 A 
ATOM     11  C   UNK d   1       1.628   7.383 -13.021  0.00  0.00     0.048 A 
ATOM     12  H   UNK d   1       3.497   9.812 -14.426  0.00  0.00     0.170 HD
ENDROOT
BRANCH   1  13
ATOM     13  C   UNK d   1      -0.657   7.495 -14.018  0.00  0.00     0.231 C 
ATOM     14  N   UNK d   1      -1.894   7.960 -14.079  0.00  0.00    -0.327 N 
ATOM     15  H   UNK d   1      -2.203   7.026 -15.021  0.00  0.00     0.169 HD
ATOM     16  O   UNK d   1      -0.049   6.613 -14.746  0.00  0.00    -0.272 OA
BRANCH  14  17
ATOM     17  C   UNK d   1      -3.177   8.441 -14.143  0.00  0.00     0.034 A 
ATOM     18  C   UNK d   1      -3.377   9.781 -13.681  0.00  0.00     0.031 A 
ATOM     19  C   UNK d   1      -4.580  10.384 -13.764  0.00  0.00     0.021 A 
ATOM     20  C   UNK d   1      -5.671   9.742 -14.294  0.00  0.00     0.011 A 
ATOM     21 Br   UNK d   1      -7.375  10.620 -14.409  0.00  0.00    -0.051 Br
ATOM     22  C   UNK d   1      -5.522   8.450 -14.748  0.00  0.00     0.021 A 
ATOM     23  C   UNK d   1      -4.298   7.834 -14.667  0.00  0.00     0.031 A 
ENDBRANCH  14  17
ENDBRANCH   1  13
BRANCH  10  24
ATOM     24  N   UNK d   1       0.737   5.374 -12.026  0.00  0.00    -0.383 N 
ATOM     25  H   UNK d   1      -0.224   5.471 -12.369  0.00  0.00     0.157 HD
ATOM     26  H   UNK d   1       0.918   4.715 -11.227  0.00  0.00     0.157 HD
ENDBRANCH  10  24
BRANCH   8  27
ATOM     27  N   UNK d   1       5.421   5.499 -13.257  0.00  0.00    -0.210 N 
ATOM     28  C   UNK d   1       6.557   6.339 -13.407  0.00  0.00     0.167 C 
ATOM     29  C   UNK d   1       7.860   5.688 -13.042  0.00  0.00     0.188 C 
ATOM     30  O   UNK d   1       7.690   4.405 -12.535  0.00  0.00    -0.388 OA
ATOM     31  C   UNK d   1       6.898   3.621 -13.364  0.00  0.00     0.188 C 
ATOM     32  C   UNK d   1       5.467   4.053 -13.174  0.00  0.00     0.167 C 
ENDBRANCH   8  27
TORSDOF 4
ENDMDL
