/Users/jonathanwahrer/Desktop/Msc/3_Semester/Drug_Design_Praktikum/waehrer_HTS_screening/HTS_experiment/out/docking_results/vina_output/6q9y/0386_docked.pdbqt
 OpenBabel03222219203D

 36 39  0  0  1  0  0  0  0  0999 V2000
    2.7360    7.6980  -14.0610 C   0  0  2  0  0  3  0  0  0  0  0  0
    1.8220    7.4730  -12.8720 C   0  0  0  0  0  2  0  0  0  0  0  0
    1.9140    6.0310  -12.4910 C   0  0  0  0  0  0  0  0  0  0  0  0
    0.9080    5.3670  -12.3120 O   0  0  0  0  0  0  0  0  0  0  0  0
    3.2050    5.5020  -12.3530 N   0  0  0  0  0  0  0  0  0  0  0  0
    4.3110    6.1200  -12.9800 C   0  0  0  0  0  0  0  0  0  0  0  0
    5.5700    5.6810  -12.7760 N   0  0  0  0  0  0  0  0  0  0  0  0
    6.6750    6.2560  -13.2510 C   0  0  0  0  0  0  0  0  0  0  0  0
    6.4670    7.3730  -13.9940 N   0  0  0  0  0  0  0  0  0  0  0  0
    5.2290    7.8720  -14.2430 C   0  0  0  0  0  0  0  0  0  0  0  0
    4.1010    7.2810  -13.7620 C   0  0  0  0  0  0  0  0  0  0  0  0
    3.4130    4.6390  -11.7820 H   0  0  0  0  0  0  0  0  0  0  0  0
    2.4970    8.9790  -14.7780 C   0  0  0  0  0  0  0  0  0  0  0  0
    2.4030   10.1590  -14.1350 N   0  0  0  0  0  0  0  0  0  0  0  0
    2.3510   10.8080  -15.3150 H   0  0  0  0  0  0  0  0  0  0  0  0
    2.4100    8.7530  -16.0610 O   0  0  0  0  0  0  0  0  0  0  0  0
    2.3060   11.3620  -13.4810 C   0  0  0  0  0  0  0  0  0  0  0  0
    0.9730   11.8800  -13.4020 C   0  0  0  0  0  3  0  0  0  0  0  0
    0.8050   13.0970  -12.8300 C   0  0  0  0  0  3  0  0  0  0  0  0
    1.8500   13.8510  -12.3260 C   0  0  0  0  0  0  0  0  0  0  0  0
    1.5000   15.5410  -11.5480 Br  0  0  0  0  0  0  0  0  0  0  0  0
    3.1260   13.3710  -12.3940 C   0  0  0  0  0  3  0  0  0  0  0  0
    3.3210   12.1360  -12.9710 C   0  0  0  0  0  3  0  0  0  0  0  0
    5.1050    9.0260  -15.0130 O   0  0  0  0  0  0  0  0  0  0  0  0
    4.8650    9.9280  -14.6080 H   0  0  0  0  0  0  0  0  0  0  0  0
    7.9810    5.7450  -13.0640 N   0  0  0  0  0  0  0  0  0  0  0  0
    8.5620    5.3060  -11.8220 C   0  0  0  0  0  2  0  0  0  0  0  0
    9.4160    4.0740  -12.1030 C   0  0  0  0  0  2  0  0  0  0  0  0
    8.9040    3.2820  -13.2700 C   0  0  2  0  0  3  0  0  0  0  0  0
    8.8850    4.0950  -14.5170 C   0  0  0  0  0  2  0  0  0  0  0  0
    8.8620    5.6140  -14.2300 C   0  0  0  0  0  2  0  0  0  0  0  0
    7.6000    2.6410  -12.9760 C   0  0  0  0  0  0  0  0  0  0  0  0
    7.5100    1.9620  -11.9340 O   0  0  0  0  0  0  0  0  0  0  0  0
    6.4640    2.7510  -13.8080 N   0  0  0  0  0  0  0  0  0  0  0  0
    6.2340    3.6170  -14.3300 H   0  0  0  0  0  0  0  0  0  0  0  0
    5.8320    1.9290  -13.9020 H   0  0  0  0  0  0  0  0  0  0  0  0
  1 13  1  1  0  0  0
  1 11  1  0  0  0  0
  1  2  1  0  0  0  0
  2  3  1  0  0  0  0
  3  5  1  0  0  0  0
  3  4  2  0  0  0  0
  5 12  1  0  0  0  0
  6  7  1  0  0  0  0
  6  5  1  0  0  0  0
  8 26  1  0  0  0  0
  8  7  2  0  0  0  0
  9  8  1  0  0  0  0
 10  9  2  0  0  0  0
 10 11  1  0  0  0  0
 11  6  2  0  0  0  0
 13 14  1  0  0  0  0
 14 17  1  0  0  0  0
 15 14  1  0  0  0  0
 16 13  2  0  0  0  0
 17 18  2  0  0  0  0
 17 23  1  0  0  0  0
 18 19  1  0  0  0  0
 19 20  2  0  0  0  0
 20 21  1  0  0  0  0
 22 20  1  0  0  0  0
 23 22  2  0  0  0  0
 24 25  1  0  0  0  0
 24 10  1  0  0  0  0
 26 27  1  0  0  0  0
 28 27  1  0  0  0  0
 29 32  1  1  0  0  0
 29 28  1  0  0  0  0
 30 31  1  0  0  0  0
 30 29  1  0  0  0  0
 31 26  1  0  0  0  0
 32 33  2  0  0  0  0
 34 32  1  0  0  0  0
 35 34  1  0  0  0  0
 36 34  1  0  0  0  0
M  END
>  <Pose>
1

>  <Score>
-8.679

$$$$
