MODEL 1
REMARK VINA RESULT:    -8.679      0.000      0.000
REMARK INTER + INTRA:         -12.417
REMARK INTER:                 -10.962
REMARK INTRA:                  -1.455
REMARK UNBOUND:                -1.455
REMARK  5 active torsions:
REMARK  status: ('A' for Active; 'I' for Inactive)
REMARK    1  A    between atoms: C_5  and  N_8 
REMARK    2  A    between atoms: C_9  and  C_11 
REMARK    3  A    between atoms: C_18  and  N_23 
REMARK    4  A    between atoms: C_20  and  O_22 
REMARK    5  A    between atoms: C_26  and  C_29 
REMARK       I    between atoms: C_29  and  N_31 
ROOT
ATOM      1  C   UNK d   1       2.736   7.698 -14.061  0.00  0.00     0.113 C 
ATOM      2  C   UNK d   1       1.822   7.473 -12.872  0.00  0.00     0.121 C 
ATOM      3  C   UNK d   1       1.914   6.031 -12.491  0.00  0.00     0.224 C 
ATOM      4  O   UNK d   1       0.908   5.367 -12.312  0.00  0.00    -0.273 OA
ATOM      5  N   UNK d   1       3.205   5.502 -12.353  0.00  0.00    -0.310 N 
ATOM      6  C   UNK d   1       4.311   6.120 -12.980  0.00  0.00     0.160 A 
ATOM      7  N   UNK d   1       5.570   5.681 -12.776  0.00  0.00    -0.044 NA
ATOM      8  C   UNK d   1       6.675   6.256 -13.251  0.00  0.00     0.729 A 
ATOM      9  N   UNK d   1       6.467   7.373 -13.994  0.00  0.00    -0.038 NA
ATOM     10  C   UNK d   1       5.229   7.872 -14.243  0.00  0.00     0.192 A 
ATOM     11  C   UNK d   1       4.101   7.281 -13.762  0.00  0.00     0.054 A 
ATOM     12  H   UNK d   1       3.413   4.639 -11.782  0.00  0.00     0.170 HD
ENDROOT
BRANCH   1  13
ATOM     13  C   UNK d   1       2.497   8.979 -14.778  0.00  0.00     0.165 C 
ATOM     14  N   UNK d   1       2.403  10.159 -14.135  0.00  0.00    -0.338 N 
ATOM     15  H   UNK d   1       2.351  10.808 -15.315  0.00  0.00     0.168 HD
ATOM     16  O   UNK d   1       2.410   8.753 -16.061  0.00  0.00    -0.176 OA
BRANCH  14  17
ATOM     17  C   UNK d   1       2.306  11.362 -13.481  0.00  0.00     0.033 A 
ATOM     18  C   UNK d   1       0.973  11.880 -13.402  0.00  0.00     0.031 A 
ATOM     19  C   UNK d   1       0.805  13.097 -12.830  0.00  0.00     0.021 A 
ATOM     20  C   UNK d   1       1.850  13.851 -12.326  0.00  0.00     0.011 A 
ATOM     21 Br   UNK d   1       1.500  15.541 -11.548  0.00  0.00    -0.051 Br
ATOM     22  C   UNK d   1       3.126  13.371 -12.394  0.00  0.00     0.021 A 
ATOM     23  C   UNK d   1       3.321  12.136 -12.971  0.00  0.00     0.031 A 
ENDBRANCH  14  17
ENDBRANCH   1  13
BRANCH  10  24
ATOM     24  O   UNK d   1       5.105   9.026 -15.013  0.00  0.00    -0.344 OA
ATOM     25  H   UNK d   1       4.865   9.928 -14.608  0.00  0.00     0.219 HD
ENDBRANCH  10  24
BRANCH   8  26
ATOM     26  N   UNK d   1       7.981   5.745 -13.064  0.00  0.00    -0.214 N 
ATOM     27  C   UNK d   1       8.562   5.306 -11.822  0.00  0.00     0.142 C 
ATOM     28  C   UNK d   1       9.416   4.074 -12.103  0.00  0.00     0.034 C 
ATOM     29  C   UNK d   1       8.904   3.282 -13.270  0.00  0.00     0.081 C 
ATOM     30  C   UNK d   1       8.885   4.095 -14.517  0.00  0.00     0.034 C 
ATOM     31  C   UNK d   1       8.862   5.614 -14.230  0.00  0.00     0.142 C 
BRANCH  29  32
ATOM     32  C   UNK d   1       7.600   2.641 -12.976  0.00  0.00     0.219 C 
ATOM     33  O   UNK d   1       7.510   1.962 -11.934  0.00  0.00    -0.273 OA
ATOM     34  N   UNK d   1       6.464   2.751 -13.808  0.00  0.00    -0.370 N 
ATOM     35  H   UNK d   1       6.234   3.617 -14.330  0.00  0.00     0.159 HD
ATOM     36  H   UNK d   1       5.832   1.929 -13.902  0.00  0.00     0.159 HD
ENDBRANCH  29  32
ENDBRANCH   8  26
TORSDOF 5
ENDMDL
