MODEL 1
REMARK VINA RESULT:    -6.821      0.000      0.000
REMARK INTER + INTRA:          -8.427
REMARK INTER:                  -8.018
REMARK INTRA:                  -0.410
REMARK UNBOUND:                -0.410
REMARK  3 active torsions:
REMARK  status: ('A' for Active; 'I' for Inactive)
REMARK    1  A    between atoms: C_5  and  N_8 
REMARK    2  A    between atoms: C_11  and  C_18 
REMARK    3  A    between atoms: C_12  and  N_13 
REMARK       I    between atoms: C_18  and  N_20 
ROOT
ATOM      1  N   UNK d   1       1.414   6.645 -13.075  0.00  0.00    -0.216 N 
ATOM      2  N   UNK d   1       1.563   5.464 -12.529  0.00  0.00    -0.177 NA
ATOM      3  C   UNK d   1       2.857   5.100 -12.432  0.00  0.00     0.160 A 
ATOM      4  C   UNK d   1       3.577   6.138 -12.959  0.00  0.00     0.097 A 
ATOM      5  C   UNK d   1       2.658   7.087 -13.352  0.00  0.00     0.153 A 
ENDROOT
BRANCH   4   6
ATOM      6  C   UNK d   1       5.030   6.186 -13.064  0.00  0.00     0.259 C 
ATOM      7  O   UNK d   1       5.585   7.239 -12.669  0.00  0.00    -0.267 OA
ATOM      8  N   UNK d   1       5.810   5.126 -13.575  0.00  0.00    -0.338 N 
ATOM      9  C   UNK d   1       7.244   5.276 -13.635  0.00  0.00     0.146 C 
ATOM     10  C   UNK d   1       5.289   3.868 -14.059  0.00  0.00     0.228 C 
ATOM     11  C   UNK d   1       7.852   4.306 -12.666  0.00  0.00     0.142 C 
ATOM     12  N   UNK d   1       6.948   3.209 -12.344  0.00  0.00    -0.358 N 
ATOM     13  C   UNK d   1       5.885   2.814 -13.205  0.00  0.00     0.235 C 
ATOM     14  H   UNK d   1       7.106   2.698 -11.425  0.00  0.00     0.162 HD
ATOM     15  O   UNK d   1       5.498   1.619 -13.212  0.00  0.00    -0.272 OA
ENDBRANCH   4   6
BRANCH   5  16
ATOM     16  N   UNK d   1       2.959   8.361 -13.966  0.00  0.00    -0.317 N 
ATOM     17  C   UNK d   1       2.965   8.672 -15.254  0.00  0.00     0.098 A 
ATOM     18  C   UNK d   1       3.304   9.994 -15.429  0.00  0.00     0.019 A 
ATOM     19  C   UNK d   1       3.510  10.487 -14.163  0.00  0.00     0.019 A 
ATOM     20  C   UNK d   1       3.291   9.461 -13.272  0.00  0.00     0.098 A 
ENDBRANCH   5  16
BRANCH   1  21
ATOM     21  C   UNK d   1       0.166   7.303 -13.312  0.00  0.00     0.060 A 
ATOM     22  C   UNK d   1      -0.113   8.553 -12.793  0.00  0.00     0.033 A 
ATOM     23  C   UNK d   1      -1.310   9.207 -13.008  0.00  0.00     0.021 A 
ATOM     24  C   UNK d   1      -2.289   8.608 -13.771  0.00  0.00     0.011 A 
ATOM     25 Br   UNK d   1      -3.955   9.494 -14.083  0.00  0.00    -0.051 Br
ATOM     26  C   UNK d   1      -2.028   7.355 -14.297  0.00  0.00     0.021 A 
ATOM     27  C   UNK d   1      -0.826   6.714 -14.074  0.00  0.00     0.033 A 
ENDBRANCH   1  21
TORSDOF 3
ENDMDL
