MODEL 1
REMARK VINA RESULT:    -9.217      0.000      0.000
REMARK INTER + INTRA:         -10.060
REMARK INTER:                 -10.833
REMARK INTRA:                   0.773
REMARK UNBOUND:                 0.773
REMARK  3 active torsions:
REMARK  status: ('A' for Active; 'I' for Inactive)
REMARK    1  A    between atoms: C_5  and  N_8 
REMARK    2  A    between atoms: N_15  and  C_18 
REMARK    3  A    between atoms: C_18  and  C_19 
REMARK       I    between atoms: C_19  and  N_21 
ROOT
ATOM      1  N   UNK d   1       0.906  15.832 -12.306  0.00  0.00    -0.218 N 
ATOM      2  N   UNK d   1       2.137  16.269 -12.104  0.00  0.00     0.012 NA
ATOM      3  N   UNK d   1       3.013  15.280 -12.139  0.00  0.00    -0.150 NA
ATOM      4  C   UNK d   1       2.346  14.118 -12.373  0.00  0.00     0.190 A 
ATOM      5  C   UNK d   1       1.021  14.503 -12.472  0.00  0.00     0.185 A 
ATOM      6  N   UNK d   1       0.124  13.538 -12.706  0.00  0.00    -0.222 NA
ATOM      7  C   UNK d   1       0.508  12.257 -12.836  0.00  0.00     0.215 A 
ATOM      8  N   UNK d   1       1.801  11.872 -12.740  0.00  0.00    -0.298 N 
ATOM      9  C   UNK d   1       2.731  12.805 -12.506  0.00  0.00     0.283 A 
ATOM     10  O   UNK d   1       3.928  12.452 -12.416  0.00  0.00    -0.265 OA
ENDROOT
BRANCH   8  11
ATOM     11  C   UNK d   1       2.117  10.464 -12.894  0.00  0.00     0.236 C 
BRANCH  11  12
ATOM     12  C   UNK d   1       0.974   9.745 -13.564  0.00  0.00     0.238 C 
ATOM     13  O   UNK d   1       0.116  10.385 -14.230  0.00  0.00    -0.272 OA
ATOM     14  N   UNK d   1       0.840   8.341 -13.461  0.00  0.00    -0.346 N 
ATOM     15  C   UNK d   1      -0.251   7.642 -14.098  0.00  0.00     0.157 C 
ATOM     16  C   UNK d   1       1.802   7.572 -12.706  0.00  0.00     0.157 C 
ATOM     17  C   UNK d   1      -0.792   6.650 -13.083  0.00  0.00     0.136 C 
ATOM     18  O   UNK d   1       0.161   5.800 -12.584  0.00  0.00    -0.378 OA
ATOM     19  C   UNK d   1      -1.814   5.789 -13.834  0.00  0.00     0.041 C 
ATOM     20  C   UNK d   1       1.453   6.114 -12.927  0.00  0.00     0.136 C 
ATOM     21  C   UNK d   1       2.477   5.244 -12.260  0.00  0.00     0.041 C 
ENDBRANCH  11  12
ENDBRANCH   8  11
BRANCH   1  22
ATOM     22  C   UNK d   1      -0.306  16.590 -12.341  0.00  0.00     0.057 A 
ATOM     23  C   UNK d   1      -0.630  17.431 -11.297  0.00  0.00     0.032 A 
ATOM     24  C   UNK d   1      -1.804  18.169 -11.325  0.00  0.00     0.021 A 
ATOM     25  C   UNK d   1      -2.688  18.098 -12.382  0.00  0.00     0.011 A 
ATOM     26 Br   UNK d   1      -4.303  19.128 -12.396  0.00  0.00    -0.051 Br
ATOM     27  C   UNK d   1      -2.364  17.257 -13.425  0.00  0.00     0.021 A 
ATOM     28  C   UNK d   1      -1.196  16.524 -13.395  0.00  0.00     0.032 A 
ENDBRANCH   1  22
TORSDOF 3
ENDMDL
