/Users/jonathanwahrer/Desktop/Msc/3_Semester/Drug_Design_Praktikum/waehrer_HTS_screening/HTS_experiment/out/docking_results/vina_output/6q9y/0399_docked.pdbqt
 OpenBabel03222219203D

 28 31  0  0  1  0  0  0  0  0999 V2000
    0.8510    9.3080  -13.4150 N   0  0  0  0  0  0  0  0  0  0  0  0
    1.5770    8.5020  -12.4930 C   0  0  0  0  0  0  0  0  0  0  0  0
    1.0720    7.8720  -11.5390 O   0  0  0  0  0  0  0  0  0  0  0  0
    3.0140    8.5000  -12.8040 C   0  0  2  0  0  3  0  0  0  0  0  0
    3.1740    9.8030  -13.5790 C   0  0  0  0  0  2  0  0  0  0  0  0
    1.8400    9.9480  -14.2440 C   0  0  0  0  0  0  0  0  0  0  0  0
    1.7260   10.5430  -15.3310 O   0  0  0  0  0  0  0  0  0  0  0  0
    3.4710    7.3830  -13.6000 N   0  0  1  0  0  4  0  0  0  0  0  0
    4.3850    7.7870  -14.6420 C   0  0  0  0  0  2  0  0  0  0  0  0
    5.8460    7.6050  -14.2960 C   0  0  0  0  0  2  0  0  0  0  0  0
    6.0710    6.3650  -13.5990 N   0  0  0  0  0  0  0  0  0  0  0  0
    4.9380    5.4690  -13.5940 C   0  0  0  0  0  2  0  0  0  0  0  0
    3.8480    6.2500  -12.8350 C   0  0  0  0  0  2  0  0  0  0  0  0
    2.5900    7.0870  -14.1420 H   0  0  0  0  0  0  0  0  0  0  0  0
    7.2680    6.0370  -12.9540 C   0  0  0  0  0  0  0  0  0  0  0  0
    8.1880    6.9420  -12.4650 C   0  0  0  0  0  3  0  0  0  0  0  0
    9.3730    6.5630  -11.8550 C   0  0  0  0  0  3  0  0  0  0  0  0
    9.6770    5.2350  -11.7150 C   0  0  0  0  0  0  0  0  0  0  0  0
    8.7930    4.2860  -12.1860 C   0  0  0  0  0  3  0  0  0  0  0  0
   10.8520    4.7860  -11.1110 O   0  0  0  0  0  1  0  0  0  0  0  0
    7.6160    4.6910  -12.7910 C   0  0  0  0  0  3  0  0  0  0  0  0
   -0.5620    9.4800  -13.5420 C   0  0  0  0  0  0  0  0  0  0  0  0
   -1.1470   10.7080  -13.4280 C   0  0  0  0  0  3  0  0  0  0  0  0
   -2.5310   10.8720  -13.5510 C   0  0  0  0  0  3  0  0  0  0  0  0
   -3.3550    9.8070  -13.7930 C   0  0  0  0  0  0  0  0  0  0  0  0
   -5.2510   10.0220  -13.9640 Br  0  0  0  0  0  0  0  0  0  0  0  0
   -2.7700    8.5680  -13.9100 C   0  0  0  0  0  3  0  0  0  0  0  0
   -1.3810    8.4150  -13.7830 C   0  0  0  0  0  3  0  0  0  0  0  0
  1  2  1  0  0  0  0
  2  3  2  0  0  0  0
  4  5  1  6  0  0  0
  4  2  1  0  0  0  0
  6  5  1  0  0  0  0
  6  1  1  0  0  0  0
  7  6  2  0  0  0  0
  8 14  1  6  0  0  0
  8 13  1  0  0  0  0
  8  4  1  0  0  0  0
  9 10  1  0  0  0  0
  9  8  1  0  0  0  0
 10 11  1  0  0  0  0
 11 12  1  0  0  0  0
 11 15  1  0  0  0  0
 12 13  1  0  0  0  0
 15 21  2  0  0  0  0
 15 16  1  0  0  0  0
 16 17  2  0  0  0  0
 17 18  1  0  0  0  0
 18 20  1  0  0  0  0
 19 18  2  0  0  0  0
 21 19  1  0  0  0  0
 22 23  1  0  0  0  0
 22  1  1  0  0  0  0
 24 23  2  0  0  0  0
 25 24  1  0  0  0  0
 26 25  1  0  0  0  0
 27 25  2  0  0  0  0
 27 28  1  0  0  0  0
 28 22  2  0  0  0  0
M  END
>  <Pose>
1

>  <Score>
-8.400

$$$$
