MODEL 1
REMARK VINA RESULT:    -7.769      0.000      0.000
REMARK INTER + INTRA:         -10.670
REMARK INTER:                  -9.585
REMARK INTRA:                  -1.084
REMARK UNBOUND:                -1.084
REMARK  4 active torsions:
REMARK  status: ('A' for Active; 'I' for Inactive)
REMARK    1  A    between atoms: C_5  and  N_8 
REMARK    2  A    between atoms: C_11  and  N_15 
REMARK    3  A    between atoms: C_18  and  N_21 
REMARK    4  A    between atoms: C_18  and  C_27 
REMARK       I    between atoms: C_27  and  N_29 
ROOT
ATOM      1  N   UNK d   1       5.890   6.982 -13.523  0.00  0.00    -0.399 N 
ATOM      2  C   UNK d   1       7.015   7.084 -14.361  0.00  0.00     0.120 C 
ATOM      3  C   UNK d   1       8.277   6.850 -13.519  0.00  0.00     0.060 C 
ATOM      4  C   UNK d   1       8.348   5.421 -13.028  0.00  0.00     0.112 C 
ATOM      5  C   UNK d   1       7.007   4.976 -12.603  0.00  0.00     0.060 C 
ATOM      6  C   UNK d   1       6.062   6.134 -12.404  0.00  0.00     0.120 C 
ENDROOT
BRANCH   1   7
ATOM      7  C   UNK d   1       4.602   7.041 -14.084  0.00  0.00     0.181 C 
ATOM      8  C   UNK d   1       4.274   8.447 -14.437  0.00  0.00     0.254 C 
ATOM      9  N   UNK d   1       3.239   8.887 -13.552  0.00  0.00    -0.251 N 
ATOM     10  O   UNK d   1       4.828   9.100 -15.355  0.00  0.00    -0.270 OA
ATOM     11  C   UNK d   1       2.554   7.703 -13.163  0.00  0.00     0.233 C 
ATOM     12  C   UNK d   1       3.502   6.557 -13.166  0.00  0.00     0.138 C 
ATOM     13  O   UNK d   1       1.309   7.654 -12.861  0.00  0.00    -0.273 OA
BRANCH   9  14
ATOM     14  C   UNK d   1       2.967  10.233 -13.156  0.00  0.00     0.045 A 
ATOM     15  C   UNK d   1       1.787  10.828 -13.519  0.00  0.00     0.031 A 
ATOM     16  C   UNK d   1       1.503  12.145 -13.140  0.00  0.00     0.021 A 
ATOM     17  C   UNK d   1       2.385  12.891 -12.394  0.00  0.00     0.011 A 
ATOM     18 Br   UNK d   1       2.006  14.691 -11.870  0.00  0.00    -0.051 Br
ATOM     19  C   UNK d   1       3.572  12.294 -12.028  0.00  0.00     0.021 A 
ATOM     20  C   UNK d   1       3.842  10.989 -12.408  0.00  0.00     0.031 A 
ENDBRANCH   9  14
ENDBRANCH   1   7
BRANCH   4  21
ATOM     21  N   UNK d   1       8.993   4.647 -14.006  0.00  0.00    -0.396 N 
ATOM     22  C   UNK d   1       8.491   3.370 -14.298  0.00  0.00     0.118 C 
ATOM     23  C   UNK d   1       9.657   2.382 -14.116  0.00  0.00     0.019 C 
ATOM     24  C   UNK d   1      10.666   2.738 -15.189  0.00  0.00     0.003 C 
ATOM     25  C   UNK d   1      10.451   4.089 -15.784  0.00  0.00     0.019 C 
ATOM     26  C   UNK d   1      10.052   5.144 -14.741  0.00  0.00     0.118 C 
ENDBRANCH   4  21
BRANCH   4  27
ATOM     27  C   UNK d   1       9.239   5.461 -11.815  0.00  0.00     0.243 C 
ATOM     28  O   UNK d   1       9.924   6.500 -11.569  0.00  0.00    -0.271 OA
ATOM     29  N   UNK d   1       9.358   4.378 -10.912  0.00  0.00    -0.368 N 
ATOM     30  H   UNK d   1      10.265   3.913 -10.792  0.00  0.00     0.159 HD
ATOM     31  H   UNK d   1       8.539   4.046 -10.366  0.00  0.00     0.159 HD
ENDBRANCH   4  27
TORSDOF 4
ENDMDL
