/Users/jonathanwahrer/Desktop/Msc/3_Semester/Drug_Design_Praktikum/waehrer_HTS_screening/HTS_experiment/out/docking_results/vina_output/6q9y/0408_docked.pdbqt
 OpenBabel03222219213D

 31 34  0  0  0  0  0  0  0  0999 V2000
   -3.0750   18.8230  -11.9040 N   0  0  0  0  0  0  0  0  0  0  0  0
   -1.9630   18.2360  -11.4290 C   0  0  0  0  0  0  0  0  0  0  0  0
   -1.5320   18.3960  -10.2460 O   0  0  0  0  0  0  0  0  0  0  0  0
   -1.3630   17.4390  -12.4040 C   0  0  0  0  0  0  0  0  0  0  0  0
   -2.1350   17.5560  -13.4810 C   0  0  0  0  0  0  0  0  0  0  0  0
   -1.5380   16.7830  -14.4060 N   0  0  0  0  0  0  0  0  0  0  0  0
   -0.4500   16.2220  -13.9040 N   0  0  0  0  0  0  0  0  0  0  0  0
   -0.3330   16.6230  -12.6620 N   0  0  0  0  0  0  0  0  0  0  0  0
   -3.1850   18.4020  -13.1840 C   0  0  0  0  0  0  0  0  0  0  0  0
   -4.1130   18.7500  -13.9470 O   0  0  0  0  0  0  0  0  0  0  0  0
   -1.9370   16.6830  -15.3740 H   0  0  0  0  0  0  0  0  0  0  0  0
    0.1660   15.5800  -14.4530 H   0  0  0  0  0  0  0  0  0  0  0  0
    0.7020   16.2690  -11.7230 C   0  0  0  0  0  2  0  0  0  0  0  0
    1.5800   15.1710  -12.2480 C   0  0  0  0  0  0  0  0  0  0  0  0
    2.5830   15.5700  -12.8870 O   0  0  0  0  0  0  0  0  0  0  0  0
    1.3000   13.8180  -12.0380 N   0  0  0  0  0  0  0  0  0  0  0  0
    0.4050   13.6340  -11.4720 H   0  0  0  0  0  0  0  0  0  0  0  0
    2.0460   12.7190  -12.4800 C   0  0  0  0  0  0  0  0  0  0  0  0
    1.4110   11.8220  -13.3530 C   0  0  0  0  0  0  0  0  0  0  0  0
    2.1050   10.7300  -13.8110 C   0  0  0  0  0  3  0  0  0  0  0  0
    0.0150   12.0280  -13.7870 C   0  0  0  0  0  1  0  0  0  0  0  0
    3.4100   10.4690  -13.4530 C   0  0  0  0  0  3  0  0  0  0  0  0
    4.0340   11.3350  -12.6050 C   0  0  0  0  0  3  0  0  0  0  0  0
    3.3460   12.4360  -12.1370 C   0  0  0  0  0  3  0  0  0  0  0  0
   -3.9530   19.7040  -11.2090 C   0  0  0  0  0  0  0  0  0  0  0  0
   -3.5310   20.3610  -10.0660 C   0  0  0  0  0  3  0  0  0  0  0  0
   -4.3660   21.2190   -9.3760 C   0  0  0  0  0  3  0  0  0  0  0  0
   -5.6560   21.4550   -9.8000 C   0  0  0  0  0  0  0  0  0  0  0  0
   -6.8130   22.6480   -8.8390 Br  0  0  0  0  0  0  0  0  0  0  0  0
   -6.0870   20.8070  -10.9360 C   0  0  0  0  0  3  0  0  0  0  0  0
   -5.2480   19.9540  -11.6170 C   0  0  0  0  0  3  0  0  0  0  0  0
  1  2  1  0  0  0  0
  1 25  1  0  0  0  0
  2  3  2  0  0  0  0
  4  2  1  0  0  0  0
  5  9  1  0  0  0  0
  5  4  2  0  0  0  0
  6  7  1  0  0  0  0
  6  5  1  0  0  0  0
  7  8  1  0  0  0  0
  8  4  1  0  0  0  0
  8 13  1  0  0  0  0
  9  1  1  0  0  0  0
 10  9  2  0  0  0  0
 11  6  1  0  0  0  0
 12  7  1  0  0  0  0
 14 16  1  0  0  0  0
 14 13  1  0  0  0  0
 15 14  2  0  0  0  0
 16 17  1  0  0  0  0
 18 24  1  0  0  0  0
 18 16  1  0  0  0  0
 19 18  2  0  0  0  0
 20 22  2  0  0  0  0
 20 19  1  0  0  0  0
 21 19  1  0  0  0  0
 22 23  1  0  0  0  0
 23 24  2  0  0  0  0
 25 26  1  0  0  0  0
 26 27  2  0  0  0  0
 28 27  1  0  0  0  0
 28 29  1  0  0  0  0
 30 28  2  0  0  0  0
 31 25  2  0  0  0  0
 31 30  1  0  0  0  0
M  END
>  <Pose>
1

>  <Score>
-11.459

$$$$
