MODEL 1
REMARK VINA RESULT:   -11.459      0.000      0.000
REMARK INTER + INTRA:         -13.973
REMARK INTER:                 -14.138
REMARK INTRA:                   0.165
REMARK UNBOUND:                 0.165
REMARK  4 active torsions:
REMARK  status: ('A' for Active; 'I' for Inactive)
REMARK    1  A    between atoms: C_5  and  N_8 
REMARK    2  A    between atoms: N_15  and  C_16 
REMARK    3  A    between atoms: C_16  and  C_17 
REMARK       I    between atoms: C_17  and  N_19 
REMARK    4  A    between atoms: N_19  and  C_20 
ROOT
ATOM      1  N   UNK d   1      -3.075  18.823 -11.904  0.00  0.00    -0.241 N 
ATOM      2  C   UNK d   1      -1.963  18.236 -11.429  0.00  0.00     0.286 A 
ATOM      3  O   UNK d   1      -1.532  18.396 -10.246  0.00  0.00    -0.265 OA
ATOM      4  C   UNK d   1      -1.363  17.439 -12.404  0.00  0.00     0.155 A 
ATOM      5  C   UNK d   1      -2.135  17.556 -13.481  0.00  0.00     0.152 A 
ATOM      6  N   UNK d   1      -1.538  16.783 -14.406  0.00  0.00    -0.279 N 
ATOM      7  N   UNK d   1      -0.450  16.222 -13.904  0.00  0.00    -0.239 N 
ATOM      8  N   UNK d   1      -0.333  16.623 -12.662  0.00  0.00    -0.261 N 
ATOM      9  C   UNK d   1      -3.185  18.402 -13.184  0.00  0.00     0.286 A 
ATOM     10  O   UNK d   1      -4.113  18.750 -13.947  0.00  0.00    -0.265 OA
ATOM     11  H   UNK d   1      -1.937  16.683 -15.374  0.00  0.00     0.189 HD
ATOM     12  H   UNK d   1       0.166  15.580 -14.453  0.00  0.00     0.208 HD
ENDROOT
BRANCH   8  13
ATOM     13  C   UNK d   1       0.702  16.269 -11.723  0.00  0.00     0.254 C 
BRANCH  13  14
ATOM     14  C   UNK d   1       1.580  15.171 -12.248  0.00  0.00     0.242 C 
ATOM     15  O   UNK d   1       2.583  15.570 -12.887  0.00  0.00    -0.271 OA
ATOM     16  N   UNK d   1       1.300  13.818 -12.038  0.00  0.00    -0.325 N 
ATOM     17  H   UNK d   1       0.405  13.634 -11.472  0.00  0.00     0.169 HD
BRANCH  16  18
ATOM     18  C   UNK d   1       2.046  12.719 -12.480  0.00  0.00     0.040 A 
ATOM     19  C   UNK d   1       1.411  11.822 -13.353  0.00  0.00    -0.035 A 
ATOM     20  C   UNK d   1       2.105  10.730 -13.811  0.00  0.00     0.009 A 
ATOM     21  C   UNK d   1       0.015  12.028 -13.787  0.00  0.00     0.050 C 
ATOM     22  C   UNK d   1       3.410  10.469 -13.453  0.00  0.00     0.001 A 
ATOM     23  C   UNK d   1       4.034  11.335 -12.605  0.00  0.00     0.002 A 
ATOM     24  C   UNK d   1       3.346  12.436 -12.137  0.00  0.00     0.030 A 
ENDBRANCH  16  18
ENDBRANCH  13  14
ENDBRANCH   8  13
BRANCH   1  25
ATOM     25  C   UNK d   1      -3.953  19.704 -11.209  0.00  0.00     0.046 A 
ATOM     26  C   UNK d   1      -3.531  20.361 -10.066  0.00  0.00     0.031 A 
ATOM     27  C   UNK d   1      -4.366  21.219  -9.376  0.00  0.00     0.021 A 
ATOM     28  C   UNK d   1      -5.656  21.455  -9.800  0.00  0.00     0.011 A 
ATOM     29 Br   UNK d   1      -6.813  22.648  -8.839  0.00  0.00    -0.051 Br
ATOM     30  C   UNK d   1      -6.087  20.807 -10.936  0.00  0.00     0.021 A 
ATOM     31  C   UNK d   1      -5.248  19.954 -11.617  0.00  0.00     0.031 A 
ENDBRANCH   1  25
TORSDOF 4
ENDMDL
