MODEL 1
REMARK VINA RESULT:    -8.762      0.000      0.000
REMARK INTER + INTRA:         -12.522
REMARK INTER:                 -11.835
REMARK INTRA:                  -0.687
REMARK UNBOUND:                -0.687
REMARK  6 active torsions:
REMARK  status: ('A' for Active; 'I' for Inactive)
REMARK    1  A    between atoms: C_5  and  N_8 
REMARK    2  A    between atoms: N_15  and  C_16 
REMARK    3  A    between atoms: C_16  and  C_17 
REMARK       I    between atoms: C_17  and  N_19 
REMARK    4  A    between atoms: N_19  and  C_20 
REMARK    5  A    between atoms: C_22  and  O_28 
REMARK    6  A    between atoms: C_23  and  O_26 
ROOT
ATOM      1  N   UNK d   1       0.133   7.039 -13.746  0.00  0.00    -0.241 N 
ATOM      2  C   UNK d   1       1.273   7.600 -14.181  0.00  0.00     0.286 A 
ATOM      3  O   UNK d   1       1.287   8.536 -15.022  0.00  0.00    -0.265 OA
ATOM      4  C   UNK d   1       2.378   7.015 -13.585  0.00  0.00     0.155 A 
ATOM      5  C   UNK d   1       1.899   6.081 -12.773  0.00  0.00     0.152 A 
ATOM      6  N   UNK d   1       2.970   5.514 -12.197  0.00  0.00    -0.279 N 
ATOM      7  N   UNK d   1       4.073   6.087 -12.645  0.00  0.00    -0.239 N 
ATOM      8  N   UNK d   1       3.730   7.013 -13.500  0.00  0.00    -0.261 N 
ATOM      9  C   UNK d   1       0.523   6.089 -12.867  0.00  0.00     0.286 A 
ATOM     10  O   UNK d   1      -0.265   5.320 -12.223  0.00  0.00    -0.265 OA
ATOM     11  H   UNK d   1       2.971   4.742 -11.501  0.00  0.00     0.189 HD
ATOM     12  H   UNK d   1       5.075   5.855 -12.374  0.00  0.00     0.208 HD
ENDROOT
BRANCH   8  13
ATOM     13  C   UNK d   1       4.600   7.895 -14.241  0.00  0.00     0.254 C 
BRANCH  13  14
ATOM     14  C   UNK d   1       4.080   9.309 -14.132  0.00  0.00     0.242 C 
ATOM     15  O   UNK d   1       4.185  10.075 -15.116  0.00  0.00    -0.271 OA
ATOM     16  N   UNK d   1       3.488   9.752 -12.940  0.00  0.00    -0.326 N 
ATOM     17  H   UNK d   1       3.432   9.041 -12.140  0.00  0.00     0.169 HD
BRANCH  16  18
ATOM     18  C   UNK d   1       2.960  11.037 -12.708  0.00  0.00     0.037 A 
ATOM     19  C   UNK d   1       1.714  11.475 -13.081  0.00  0.00     0.069 A 
ATOM     20  C   UNK d   1       1.262  12.756 -12.839  0.00  0.00     0.103 A 
ATOM     21  C   UNK d   1       2.108  13.630 -12.190  0.00  0.00     0.101 A 
ATOM     22  C   UNK d   1       3.373  13.227 -11.796  0.00  0.00     0.042 A 
ATOM     23  C   UNK d   1       3.802  11.952 -12.048  0.00  0.00     0.032 A 
BRANCH  20  24
ATOM     24  O   UNK d   1      -0.009  13.172 -13.229  0.00  0.00    -0.353 OA
ATOM     25  C   UNK d   1      -1.051  12.188 -13.252  0.00  0.00     0.210 C 
ENDBRANCH  20  24
BRANCH  21  26
ATOM     26  O   UNK d   1       1.670  14.927 -11.935  0.00  0.00    -0.353 OA
ATOM     27  C   UNK d   1       2.274  16.006 -12.621  0.00  0.00     0.210 C 
ENDBRANCH  21  26
ENDBRANCH  16  18
ENDBRANCH  13  14
ENDBRANCH   8  13
BRANCH   1  28
ATOM     28  C   UNK d   1      -1.218   7.327 -14.088  0.00  0.00     0.046 A 
ATOM     29  C   UNK d   1      -1.999   6.474 -14.841  0.00  0.00     0.031 A 
ATOM     30  C   UNK d   1      -3.318   6.788 -15.157  0.00  0.00     0.021 A 
ATOM     31  C   UNK d   1      -3.892   7.968 -14.729  0.00  0.00     0.011 A 
ATOM     32 Br   UNK d   1      -5.705   8.407 -15.161  0.00  0.00    -0.051 Br
ATOM     33  C   UNK d   1      -3.103   8.816 -13.977  0.00  0.00     0.021 A 
ATOM     34  C   UNK d   1      -1.796   8.503 -13.664  0.00  0.00     0.031 A 
ENDBRANCH   1  28
TORSDOF 6
ENDMDL
