/Users/jonathanwahrer/Desktop/Msc/3_Semester/Drug_Design_Praktikum/waehrer_HTS_screening/HTS_experiment/out/docking_results/vina_output/6q9y/0411_docked.pdbqt
 OpenBabel03222219213D

 34 37  0  0  0  0  0  0  0  0999 V2000
    0.1330    7.0390  -13.7460 N   0  0  0  0  0  0  0  0  0  0  0  0
    1.2730    7.6000  -14.1810 C   0  0  0  0  0  0  0  0  0  0  0  0
    1.2870    8.5360  -15.0220 O   0  0  0  0  0  0  0  0  0  0  0  0
    2.3780    7.0150  -13.5850 C   0  0  0  0  0  0  0  0  0  0  0  0
    1.8990    6.0810  -12.7730 C   0  0  0  0  0  0  0  0  0  0  0  0
    2.9700    5.5140  -12.1970 N   0  0  0  0  0  0  0  0  0  0  0  0
    4.0730    6.0870  -12.6450 N   0  0  0  0  0  0  0  0  0  0  0  0
    3.7300    7.0130  -13.5000 N   0  0  0  0  0  0  0  0  0  0  0  0
    0.5230    6.0890  -12.8670 C   0  0  0  0  0  0  0  0  0  0  0  0
   -0.2650    5.3200  -12.2230 O   0  0  0  0  0  0  0  0  0  0  0  0
    2.9710    4.7420  -11.5010 H   0  0  0  0  0  0  0  0  0  0  0  0
    5.0750    5.8550  -12.3740 H   0  0  0  0  0  0  0  0  0  0  0  0
    4.6000    7.8950  -14.2410 C   0  0  0  0  0  2  0  0  0  0  0  0
    4.0800    9.3090  -14.1320 C   0  0  0  0  0  0  0  0  0  0  0  0
    4.1850   10.0750  -15.1160 O   0  0  0  0  0  0  0  0  0  0  0  0
    3.4880    9.7520  -12.9400 N   0  0  0  0  0  0  0  0  0  0  0  0
    3.4320    9.0410  -12.1400 H   0  0  0  0  0  0  0  0  0  0  0  0
    2.9600   11.0370  -12.7080 C   0  0  0  0  0  0  0  0  0  0  0  0
    1.7140   11.4750  -13.0810 C   0  0  0  0  0  3  0  0  0  0  0  0
    1.2620   12.7560  -12.8390 C   0  0  0  0  0  0  0  0  0  0  0  0
    2.1080   13.6300  -12.1900 C   0  0  0  0  0  0  0  0  0  0  0  0
    3.3730   13.2270  -11.7960 C   0  0  0  0  0  3  0  0  0  0  0  0
    3.8020   11.9520  -12.0480 C   0  0  0  0  0  3  0  0  0  0  0  0
   -0.0090   13.1720  -13.2290 O   0  0  0  0  0  0  0  0  0  0  0  0
   -1.0510   12.1880  -13.2520 C   0  0  0  0  0  1  0  0  0  0  0  0
    1.6700   14.9270  -11.9350 O   0  0  0  0  0  0  0  0  0  0  0  0
    2.2740   16.0060  -12.6210 C   0  0  0  0  0  1  0  0  0  0  0  0
   -1.2180    7.3270  -14.0880 C   0  0  0  0  0  0  0  0  0  0  0  0
   -1.9990    6.4740  -14.8410 C   0  0  0  0  0  3  0  0  0  0  0  0
   -3.3180    6.7880  -15.1570 C   0  0  0  0  0  3  0  0  0  0  0  0
   -3.8920    7.9680  -14.7290 C   0  0  0  0  0  0  0  0  0  0  0  0
   -5.7050    8.4070  -15.1610 Br  0  0  0  0  0  0  0  0  0  0  0  0
   -3.1030    8.8160  -13.9770 C   0  0  0  0  0  3  0  0  0  0  0  0
   -1.7960    8.5030  -13.6640 C   0  0  0  0  0  3  0  0  0  0  0  0
  1  9  1  0  0  0  0
  2  1  1  0  0  0  0
  2  4  1  0  0  0  0
  3  2  2  0  0  0  0
  4  8  1  0  0  0  0
  4  5  2  0  0  0  0
  5  6  1  0  0  0  0
  6 11  1  0  0  0  0
  7 12  1  0  0  0  0
  7  6  1  0  0  0  0
  8  7  1  0  0  0  0
  9  5  1  0  0  0  0
  9 10  2  0  0  0  0
 13 14  1  0  0  0  0
 13  8  1  0  0  0  0
 14 16  1  0  0  0  0
 15 14  2  0  0  0  0
 16 18  1  0  0  0  0
 16 17  1  0  0  0  0
 18 23  1  0  0  0  0
 19 20  1  0  0  0  0
 19 18  2  0  0  0  0
 20 21  2  0  0  0  0
 21 26  1  0  0  0  0
 21 22  1  0  0  0  0
 23 22  2  0  0  0  0
 24 20  1  0  0  0  0
 25 24  1  0  0  0  0
 27 26  1  0  0  0  0
 28  1  1  0  0  0  0
 28 34  1  0  0  0  0
 29 28  2  0  0  0  0
 30 29  1  0  0  0  0
 30 31  2  0  0  0  0
 31 33  1  0  0  0  0
 32 31  1  0  0  0  0
 33 34  2  0  0  0  0
M  END
>  <Pose>
1

>  <Score>
-8.762

$$$$
