MODEL 1
REMARK VINA RESULT:   -10.661      0.000      0.000
REMARK INTER + INTRA:         -13.275
REMARK INTER:                 -14.400
REMARK INTRA:                   1.125
REMARK UNBOUND:                 1.125
REMARK  6 active torsions:
REMARK  status: ('A' for Active; 'I' for Inactive)
REMARK    1  A    between atoms: C_5  and  N_8 
REMARK    2  A    between atoms: N_15  and  C_16 
REMARK    3  A    between atoms: C_16  and  C_17 
REMARK       I    between atoms: C_17  and  N_19 
REMARK    4  A    between atoms: N_19  and  C_20 
REMARK    5  A    between atoms: C_22  and  O_28 
REMARK    6  A    between atoms: C_24  and  O_26 
ROOT
ATOM      1  N   UNK d   1      -3.097  18.843 -11.961  0.00  0.00    -0.241 N 
ATOM      2  C   UNK d   1      -2.054  18.101 -11.581  0.00  0.00     0.286 A 
ATOM      3  O   UNK d   1      -1.596  18.067 -10.390  0.00  0.00    -0.265 OA
ATOM      4  C   UNK d   1      -1.503  17.365 -12.605  0.00  0.00     0.155 A 
ATOM      5  C   UNK d   1      -2.259  17.678 -13.675  0.00  0.00     0.152 A 
ATOM      6  N   UNK d   1      -1.737  16.964 -14.701  0.00  0.00    -0.279 N 
ATOM      7  N   UNK d   1      -0.712  16.246 -14.279  0.00  0.00    -0.239 N 
ATOM      8  N   UNK d   1      -0.564  16.488 -12.993  0.00  0.00    -0.261 N 
ATOM      9  C   UNK d   1      -3.230  18.576 -13.297  0.00  0.00     0.286 A 
ATOM     10  O   UNK d   1      -4.123  19.104 -14.003  0.00  0.00    -0.265 OA
ATOM     11  H   UNK d   1      -2.111  16.997 -15.679  0.00  0.00     0.189 HD
ATOM     12  H   UNK d   1      -0.152  15.614 -14.913  0.00  0.00     0.208 HD
ENDROOT
BRANCH   8  13
ATOM     13  C   UNK d   1       0.443  15.897 -12.161  0.00  0.00     0.254 C 
BRANCH  13  14
ATOM     14  C   UNK d   1       0.576  14.452 -12.330  0.00  0.00     0.242 C 
ATOM     15  O   UNK d   1       1.445  13.771 -11.713  0.00  0.00    -0.271 OA
ATOM     16  N   UNK d   1      -0.303  13.803 -13.227  0.00  0.00    -0.326 N 
ATOM     17  H   UNK d   1      -1.039  14.358 -13.762  0.00  0.00     0.169 HD
BRANCH  16  18
ATOM     18  C   UNK d   1      -0.189  12.401 -13.404  0.00  0.00     0.040 A 
ATOM     19  C   UNK d   1      -1.344  11.670 -13.274  0.00  0.00     0.066 A 
ATOM     20  C   UNK d   1      -1.311  10.276 -13.405  0.00  0.00     0.073 A 
ATOM     21  C   UNK d   1      -0.123   9.644 -13.660  0.00  0.00     0.073 A 
ATOM     22  C   UNK d   1       1.057  10.372 -13.794  0.00  0.00     0.073 A 
ATOM     23  C   UNK d   1       0.990  11.750 -13.661  0.00  0.00     0.066 A 
BRANCH  20  24
ATOM     24  O   UNK d   1      -2.525   9.648 -13.260  0.00  0.00    -0.356 OA
ATOM     25  C   UNK d   1      -3.574   9.755 -14.151  0.00  0.00     0.210 C 
ENDBRANCH  20  24
BRANCH  22  26
ATOM     26  O   UNK d   1       2.215   9.667 -14.046  0.00  0.00    -0.356 OA
ATOM     27  C   UNK d   1       2.818   9.454 -15.284  0.00  0.00     0.210 C 
ENDBRANCH  22  26
ENDBRANCH  16  18
ENDBRANCH  13  14
ENDBRANCH   8  13
BRANCH   1  28
ATOM     28  C   UNK d   1      -3.923  19.726 -11.197  0.00  0.00     0.046 A 
ATOM     29  C   UNK d   1      -3.432  20.366 -10.085  0.00  0.00     0.031 A 
ATOM     30  C   UNK d   1      -4.248  21.232  -9.341  0.00  0.00     0.021 A 
ATOM     31  C   UNK d   1      -5.553  21.462  -9.704  0.00  0.00     0.011 A 
ATOM     32 Br   UNK d   1      -6.675  22.655  -8.687  0.00  0.00    -0.051 Br
ATOM     33  C   UNK d   1      -6.042  20.820 -10.819  0.00  0.00     0.021 A 
ATOM     34  C   UNK d   1      -5.235  19.972 -11.540  0.00  0.00     0.031 A 
ENDBRANCH   1  28
TORSDOF 6
ENDMDL
