/Users/jonathanwahrer/Desktop/Msc/3_Semester/Drug_Design_Praktikum/waehrer_HTS_screening/HTS_experiment/out/docking_results/vina_output/6q9y/0414_docked.pdbqt
 OpenBabel03222219223D

 35 38  0  0  0  0  0  0  0  0999 V2000
   -3.0810   18.8110  -11.9100 N   0  0  0  0  0  0  0  0  0  0  0  0
   -1.9640   18.2270  -11.4050 C   0  0  0  0  0  0  0  0  0  0  0  0
   -1.5050   18.3810  -10.2310 O   0  0  0  0  0  0  0  0  0  0  0  0
   -1.3840   17.4230  -12.3710 C   0  0  0  0  0  0  0  0  0  0  0  0
   -2.1620   17.5350  -13.4440 C   0  0  0  0  0  0  0  0  0  0  0  0
   -1.6140   16.7560  -14.4070 N   0  0  0  0  0  0  0  0  0  0  0  0
   -0.5240   16.1950  -13.8920 N   0  0  0  0  0  0  0  0  0  0  0  0
   -0.3500   16.5820  -12.6430 N   0  0  0  0  0  0  0  0  0  0  0  0
   -3.2080   18.3860  -13.1750 C   0  0  0  0  0  0  0  0  0  0  0  0
   -4.1290   18.7200  -13.9530 O   0  0  0  0  0  0  0  0  0  0  0  0
   -1.9890   16.6290  -15.3690 H   0  0  0  0  0  0  0  0  0  0  0  0
    0.0980   15.5460  -14.4060 H   0  0  0  0  0  0  0  0  0  0  0  0
    0.7020   16.2200  -11.7020 C   0  0  0  0  0  2  0  0  0  0  0  0
    1.5150   15.0890  -12.2820 C   0  0  0  0  0  0  0  0  0  0  0  0
    2.5620   15.4890  -12.8480 O   0  0  0  0  0  0  0  0  0  0  0  0
    1.0690   13.7750  -12.1540 N   0  0  0  0  0  0  0  0  0  0  0  0
    0.1440   13.6510  -11.6320 H   0  0  0  0  0  0  0  0  0  0  0  0
    1.7030   12.6030  -12.6360 C   0  0  0  0  0  0  0  0  0  0  0  0
    2.9340   12.1430  -12.2300 C   0  0  0  0  0  3  0  0  0  0  0  0
    3.4950   10.9720  -12.7560 C   0  0  0  0  0  3  0  0  0  0  0  0
    2.8360   10.2270  -13.7050 C   0  0  0  0  0  0  0  0  0  0  0  0
    1.6050   10.6760  -14.1180 C   0  0  0  0  0  3  0  0  0  0  0  0
    1.0540   11.8320  -13.5980 C   0  0  0  0  0  3  0  0  0  0  0  0
    3.4590    9.0140  -14.2240 C   0  0  0  0  0  0  0  0  0  0  0  0
    4.4180    9.1380  -15.0270 O   0  0  0  0  0  0  0  0  0  0  0  0
    3.0690    7.7450  -13.8980 O   0  0  0  0  0  0  0  0  0  0  0  0
    2.2070    7.3850  -12.8580 C   0  0  0  0  0  2  0  0  0  0  0  0
    2.5300    5.9250  -12.5090 C   0  0  0  0  0  1  0  0  0  0  0  0
   -3.9120   19.7010  -11.1690 C   0  0  0  0  0  0  0  0  0  0  0  0
   -5.2170   19.9220  -11.5830 C   0  0  0  0  0  3  0  0  0  0  0  0
   -6.0370   20.7650  -10.9000 C   0  0  0  0  0  3  0  0  0  0  0  0
   -5.6140   21.4350   -9.7720 C   0  0  0  0  0  0  0  0  0  0  0  0
   -6.7270   22.6210   -8.7870 Br  0  0  0  0  0  0  0  0  0  0  0  0
   -4.3160   21.2050   -9.3720 C   0  0  0  0  0  3  0  0  0  0  0  0
   -3.4780   20.3610  -10.0480 C   0  0  0  0  0  3  0  0  0  0  0  0
  1  2  1  0  0  0  0
  1 29  1  0  0  0  0
  2  3  2  0  0  0  0
  4  2  1  0  0  0  0
  5  9  1  0  0  0  0
  5  4  2  0  0  0  0
  6  7  1  0  0  0  0
  6  5  1  0  0  0  0
  7  8  1  0  0  0  0
  8  4  1  0  0  0  0
  8 13  1  0  0  0  0
  9  1  1  0  0  0  0
 10  9  2  0  0  0  0
 11  6  1  0  0  0  0
 12  7  1  0  0  0  0
 14 16  1  0  0  0  0
 14 13  1  0  0  0  0
 15 14  2  0  0  0  0
 16 17  1  0  0  0  0
 18 19  1  0  0  0  0
 18 16  1  0  0  0  0
 20 19  2  0  0  0  0
 21 20  1  0  0  0  0
 22 21  2  0  0  0  0
 22 23  1  0  0  0  0
 23 18  2  0  0  0  0
 24 26  1  0  0  0  0
 24 21  1  0  0  0  0
 25 24  2  0  0  0  0
 26 27  1  0  0  0  0
 27 28  1  0  0  0  0
 29 35  1  0  0  0  0
 30 29  2  0  0  0  0
 30 31  1  0  0  0  0
 31 32  2  0  0  0  0
 32 34  1  0  0  0  0
 32 33  1  0  0  0  0
 35 34  2  0  0  0  0
M  END
>  <Pose>
1

>  <Score>
-10.972

$$$$
