MODEL 1
REMARK VINA RESULT:   -10.972      0.000      0.000
REMARK INTER + INTRA:         -15.380
REMARK INTER:                 -15.462
REMARK INTRA:                   0.082
REMARK UNBOUND:                 0.082
REMARK  7 active torsions:
REMARK  status: ('A' for Active; 'I' for Inactive)
REMARK    1  A    between atoms: C_5  and  N_8 
REMARK    2  A    between atoms: N_15  and  C_16 
REMARK    3  A    between atoms: C_16  and  C_17 
REMARK       I    between atoms: C_17  and  N_19 
REMARK    4  A    between atoms: N_19  and  C_20 
REMARK    5  A    between atoms: C_23  and  C_26 
REMARK    6  A    between atoms: C_26  and  O_28 
REMARK    7  A    between atoms: O_28  and  C_29 
ROOT
ATOM      1  N   UNK d   1      -3.081  18.811 -11.910  0.00  0.00    -0.241 N 
ATOM      2  C   UNK d   1      -1.964  18.227 -11.405  0.00  0.00     0.286 A 
ATOM      3  O   UNK d   1      -1.505  18.381 -10.231  0.00  0.00    -0.265 OA
ATOM      4  C   UNK d   1      -1.384  17.423 -12.371  0.00  0.00     0.155 A 
ATOM      5  C   UNK d   1      -2.162  17.535 -13.444  0.00  0.00     0.152 A 
ATOM      6  N   UNK d   1      -1.614  16.756 -14.407  0.00  0.00    -0.279 N 
ATOM      7  N   UNK d   1      -0.524  16.195 -13.892  0.00  0.00    -0.239 N 
ATOM      8  N   UNK d   1      -0.350  16.582 -12.643  0.00  0.00    -0.261 N 
ATOM      9  C   UNK d   1      -3.208  18.386 -13.175  0.00  0.00     0.286 A 
ATOM     10  O   UNK d   1      -4.129  18.720 -13.953  0.00  0.00    -0.265 OA
ATOM     11  H   UNK d   1      -1.989  16.629 -15.369  0.00  0.00     0.189 HD
ATOM     12  H   UNK d   1       0.098  15.546 -14.406  0.00  0.00     0.208 HD
ENDROOT
BRANCH   8  13
ATOM     13  C   UNK d   1       0.702  16.220 -11.702  0.00  0.00     0.254 C 
BRANCH  13  14
ATOM     14  C   UNK d   1       1.515  15.089 -12.282  0.00  0.00     0.242 C 
ATOM     15  O   UNK d   1       2.562  15.489 -12.848  0.00  0.00    -0.271 OA
ATOM     16  N   UNK d   1       1.069  13.775 -12.154  0.00  0.00    -0.326 N 
ATOM     17  H   UNK d   1       0.144  13.651 -11.632  0.00  0.00     0.169 HD
BRANCH  16  18
ATOM     18  C   UNK d   1       1.703  12.603 -12.636  0.00  0.00     0.034 A 
ATOM     19  C   UNK d   1       2.934  12.143 -12.230  0.00  0.00     0.030 A 
ATOM     20  C   UNK d   1       3.495  10.972 -12.756  0.00  0.00     0.020 A 
ATOM     21  C   UNK d   1       2.836  10.227 -13.705  0.00  0.00     0.039 A 
ATOM     22  C   UNK d   1       1.605  10.676 -14.118  0.00  0.00     0.020 A 
ATOM     23  C   UNK d   1       1.054  11.832 -13.598  0.00  0.00     0.030 A 
BRANCH  21  24
ATOM     24  C   UNK d   1       3.459   9.014 -14.224  0.00  0.00     0.293 C 
ATOM     25  O   UNK d   1       4.418   9.138 -15.027  0.00  0.00    -0.259 OA
BRANCH  24  26
ATOM     26  O   UNK d   1       3.069   7.745 -13.898  0.00  0.00    -0.318 OA
BRANCH  26  27
ATOM     27  C   UNK d   1       2.207   7.385 -12.858  0.00  0.00     0.174 C 
ATOM     28  C   UNK d   1       2.530   5.925 -12.509  0.00  0.00     0.034 C 
ENDBRANCH  26  27
ENDBRANCH  24  26
ENDBRANCH  21  24
ENDBRANCH  16  18
ENDBRANCH  13  14
ENDBRANCH   8  13
BRANCH   1  29
ATOM     29  C   UNK d   1      -3.912  19.701 -11.169  0.00  0.00     0.046 A 
ATOM     30  C   UNK d   1      -5.217  19.922 -11.583  0.00  0.00     0.031 A 
ATOM     31  C   UNK d   1      -6.037  20.765 -10.900  0.00  0.00     0.021 A 
ATOM     32  C   UNK d   1      -5.614  21.435  -9.772  0.00  0.00     0.011 A 
ATOM     33 Br   UNK d   1      -6.727  22.621  -8.787  0.00  0.00    -0.051 Br
ATOM     34  C   UNK d   1      -4.316  21.205  -9.372  0.00  0.00     0.021 A 
ATOM     35  C   UNK d   1      -3.478  20.361 -10.048  0.00  0.00     0.031 A 
ENDBRANCH   1  29
TORSDOF 7
ENDMDL
