MODEL 1
REMARK VINA RESULT:    -9.197      0.000      0.000
REMARK INTER + INTRA:         -10.674
REMARK INTER:                 -10.810
REMARK INTRA:                   0.136
REMARK UNBOUND:                 0.136
REMARK  3 active torsions:
REMARK  status: ('A' for Active; 'I' for Inactive)
REMARK    1  A    between atoms: C_5  and  N_8 
REMARK    2  A    between atoms: N_15  and  C_16 
REMARK    3  A    between atoms: C_19  and  N_22 
ROOT
ATOM      1  N   UNK d   1      -1.449   8.840 -13.883  0.00  0.00    -0.241 N 
ATOM      2  C   UNK d   1      -2.674   9.409 -13.918  0.00  0.00     0.286 A 
ATOM      3  O   UNK d   1      -2.976  10.616 -13.654  0.00  0.00    -0.265 OA
ATOM      4  C   UNK d   1      -3.633   8.487 -14.295  0.00  0.00     0.160 A 
ATOM      5  C   UNK d   1      -2.963   7.349 -14.488  0.00  0.00     0.152 A 
ATOM      6  N   UNK d   1      -3.901   6.443 -14.858  0.00  0.00    -0.278 N 
ATOM      7  N   UNK d   1      -5.080   7.043 -14.878  0.00  0.00    -0.234 N 
ATOM      8  N   UNK d   1      -4.945   8.312 -14.533  0.00  0.00    -0.234 N 
ATOM      9  C   UNK d   1      -1.624   7.555 -14.237  0.00  0.00     0.286 A 
ATOM     10  O   UNK d   1      -0.683   6.726 -14.311  0.00  0.00    -0.265 OA
ATOM     11  H   UNK d   1      -3.696   5.435 -15.085  0.00  0.00     0.189 HD
ATOM     12  H   UNK d   1      -6.010   6.615 -15.124  0.00  0.00     0.209 HD
ENDROOT
BRANCH   8  13
ATOM     13  C   UNK d   1      -5.988   9.291 -14.437  0.00  0.00     0.058 A 
ATOM     14  C   UNK d   1      -6.870   9.496 -15.477  0.00  0.00     0.034 A 
ATOM     15  C   UNK d   1      -7.891  10.436 -15.413  0.00  0.00     0.038 A 
ATOM     16  C   UNK d   1      -8.050  11.205 -14.280  0.00  0.00     0.103 A 
ATOM     17  C   UNK d   1      -7.170  11.002 -13.239  0.00  0.00     0.038 A 
ATOM     18  C   UNK d   1      -6.153  10.063 -13.306  0.00  0.00     0.034 A 
BRANCH  16  19
ATOM     19  N   UNK d   1      -9.087  12.177 -14.184  0.00  0.00    -0.116 N 
ATOM     20  O   UNK d   1      -9.253  12.873 -13.164  0.00  0.00    -0.532 OA
ATOM     21  O   UNK d   1      -9.928  12.357 -15.236  0.00  0.00    -0.532 OA
ENDBRANCH  16  19
ENDBRANCH   8  13
BRANCH   1  22
ATOM     22  C   UNK d   1      -0.224   9.498 -13.534  0.00  0.00     0.046 A 
ATOM     23  C   UNK d   1       0.770   8.876 -12.808  0.00  0.00     0.031 A 
ATOM     24  C   UNK d   1       1.949   9.542 -12.485  0.00  0.00     0.021 A 
ATOM     25  C   UNK d   1       2.161  10.846 -12.881  0.00  0.00     0.011 A 
ATOM     26 Br   UNK d   1       3.775  11.780 -12.447  0.00  0.00    -0.051 Br
ATOM     27  C   UNK d   1       1.169  11.471 -13.608  0.00  0.00     0.021 A 
ATOM     28  C   UNK d   1       0.002  10.802 -13.924  0.00  0.00     0.031 A 
ENDBRANCH   1  22
TORSDOF 3
ENDMDL
