MODEL 1
REMARK VINA RESULT:    -7.729      0.000      0.000
REMARK INTER + INTRA:          -8.384
REMARK INTER:                  -8.633
REMARK INTRA:                   0.249
REMARK UNBOUND:                 0.249
REMARK  2 active torsions:
REMARK  status: ('A' for Active; 'I' for Inactive)
REMARK    1  A    between atoms: C_5  and  N_8 
REMARK    2  A    between atoms: C_12  and  C_20 
ROOT
ATOM      1  N   UNK d   1       2.868   7.394 -12.688  0.00  0.00    -0.252 N 
ATOM      2  C   UNK d   1       1.659   7.551 -11.962  0.00  0.00     0.239 C 
ATOM      3  O   UNK d   1       1.212   6.708 -11.147  0.00  0.00    -0.272 OA
ATOM      4  C   UNK d   1       1.036   8.851 -12.330  0.00  0.00     0.138 C 
ATOM      5  C   UNK d   1       0.023   8.705 -13.423  0.00  0.00     0.142 C 
ATOM      6  O   UNK d   1       0.161   9.954 -14.067  0.00  0.00    -0.360 OA
ATOM      7  C   UNK d   1       1.531   9.821 -14.407  0.00  0.00     0.160 C 
ATOM      8  C   UNK d   1       2.140   9.614 -13.063  0.00  0.00     0.128 C 
ATOM      9  C   UNK d   1       3.290   8.674 -13.156  0.00  0.00     0.239 C 
ATOM     10  O   UNK d   1       4.412   8.975 -13.572  0.00  0.00    -0.272 OA
ATOM     11  C   UNK d   1       1.479   8.511 -15.107  0.00  0.00     0.005 C 
ATOM     12  C   UNK d   1       0.576   7.798 -14.441  0.00  0.00     0.015 C 
ENDROOT
BRANCH   1  13
ATOM     13  C   UNK d   1       3.501   6.122 -12.878  0.00  0.00     0.045 A 
ATOM     14  C   UNK d   1       2.862   4.943 -12.564  0.00  0.00     0.031 A 
ATOM     15  C   UNK d   1       3.459   3.714 -12.739  0.00  0.00     0.021 A 
ATOM     16  C   UNK d   1       4.737   3.678 -13.244  0.00  0.00     0.011 A 
ATOM     17 Br   UNK d   1       5.594   2.006 -13.498  0.00  0.00    -0.051 Br
ATOM     18  C   UNK d   1       5.395   4.840 -13.562  0.00  0.00     0.021 A 
ATOM     19  C   UNK d   1       4.792   6.087 -13.387  0.00  0.00     0.031 A 
ENDBRANCH   1  13
BRANCH   5  20
ATOM     20  C   UNK d   1      -1.351   8.435 -12.983  0.00  0.00     0.298 C 
ATOM     21  O   UNK d   1      -2.028   7.550 -13.778  0.00  0.00    -0.356 OA
ATOM     22  C   UNK d   1      -3.013   8.226 -14.453  0.00  0.00     0.197 C 
ATOM     23  C   UNK d   1      -2.925   9.651 -14.014  0.00  0.00     0.197 C 
ATOM     24  O   UNK d   1      -2.101   9.595 -12.895  0.00  0.00    -0.356 OA
ENDBRANCH   5  20
TORSDOF 2
ENDMDL
