MODEL 1
REMARK VINA RESULT:   -10.501      0.000      0.000
REMARK INTER + INTRA:         -13.740
REMARK INTER:                 -13.570
REMARK INTRA:                  -0.170
REMARK UNBOUND:                -0.170
REMARK  5 active torsions:
REMARK  status: ('A' for Active; 'I' for Inactive)
REMARK    1  A    between atoms: C_5  and  N_8 
REMARK    2  A    between atoms: C_14  and  C_18 
REMARK    3  A    between atoms: C_18  and  O_20 
REMARK    4  A    between atoms: O_20  and  C_21 
REMARK    5  A    between atoms: C_21  and  C_22 
ROOT
ATOM      1  N   UNK d   1      -1.470   8.965 -13.779  0.00  0.00    -0.247 N 
ATOM      2  C   UNK d   1      -1.870   7.600 -14.005  0.00  0.00     0.255 C 
ATOM      3  O   UNK d   1      -1.301   6.569 -13.545  0.00  0.00    -0.270 OA
ATOM      4  C   UNK d   1      -3.068   7.642 -14.874  0.00  0.00     0.210 C 
ATOM      5  N   UNK d   1      -4.034   6.592 -14.615  0.00  0.00    -0.222 NA
ATOM      6  N   UNK d   1      -5.231   7.338 -14.850  0.00  0.00    -0.314 N 
ATOM      7  C   UNK d   1      -5.074   8.638 -14.282  0.00  0.00     0.132 C 
ATOM      8  C   UNK d   1      -3.763   8.848 -14.284  0.00  0.00     0.073 C 
ATOM      9  C   UNK d   1      -2.660   9.744 -13.955  0.00  0.00     0.266 C 
ATOM     10  O   UNK d   1      -2.827  10.991 -13.863  0.00  0.00    -0.267 OA
ATOM     11  H   UNK d   1      -4.011   6.451 -13.566  0.00  0.00     0.147 HD
ATOM     12  H   UNK d   1      -6.078   7.000 -15.347  0.00  0.00     0.181 HD
ENDROOT
BRANCH   7  13
ATOM     13  C   UNK d   1      -6.111   9.548 -13.807  0.00  0.00     0.312 C 
ATOM     14  O   UNK d   1      -6.236   9.830 -12.592  0.00  0.00    -0.258 OA
BRANCH  13  15
ATOM     15  O   UNK d   1      -7.015  10.152 -14.669  0.00  0.00    -0.312 OA
BRANCH  15  16
ATOM     16  C   UNK d   1      -7.618  11.402 -14.363  0.00  0.00     0.217 C 
BRANCH  16  17
ATOM     17  C   UNK d   1      -8.738  11.660 -15.329  0.00  0.00    -0.034 A 
ATOM     18  C   UNK d   1      -8.956  10.798 -16.402  0.00  0.00     0.009 A 
ATOM     19  C   UNK d   1      -9.968  10.994 -17.302  0.00  0.00     0.001 A 
ATOM     20  C   UNK d   1     -10.808  12.093 -17.142  0.00  0.00     0.000 A 
ATOM     21  C   UNK d   1     -10.588  12.943 -16.081  0.00  0.00     0.001 A 
ATOM     22  C   UNK d   1      -9.553  12.732 -15.168  0.00  0.00     0.009 A 
ENDBRANCH  16  17
ENDBRANCH  15  16
ENDBRANCH  13  15
ENDBRANCH   7  13
BRANCH   1  23
ATOM     23  C   UNK d   1      -0.191   9.464 -13.448  0.00  0.00     0.045 A 
ATOM     24  C   UNK d   1       0.185  10.756 -13.836  0.00  0.00     0.031 A 
ATOM     25  C   UNK d   1       1.393  11.311 -13.560  0.00  0.00     0.021 A 
ATOM     26  C   UNK d   1       2.313  10.573 -12.860  0.00  0.00     0.011 A 
ATOM     27 Br   UNK d   1       4.035  11.338 -12.454  0.00  0.00    -0.051 Br
ATOM     28  C   UNK d   1       1.981   9.293 -12.459  0.00  0.00     0.021 A 
ATOM     29  C   UNK d   1       0.745   8.748 -12.751  0.00  0.00     0.031 A 
ENDBRANCH   1  23
TORSDOF 5
ENDMDL
