MODEL 1
REMARK VINA RESULT:    -8.703      0.000      0.000
REMARK INTER + INTRA:          -7.584
REMARK INTER:                  -9.212
REMARK INTRA:                   1.628
REMARK UNBOUND:                 1.628
REMARK  1 active torsions:
REMARK  status: ('A' for Active; 'I' for Inactive)
REMARK    1  A    between atoms: C_5  and  N_8 
ROOT
ATOM      1  N   UNK d   1       4.080   5.992 -13.042  0.00  0.00    -0.231 N 
ATOM      2  C   UNK d   1       3.598   4.775 -12.443  0.00  0.00     0.357 A 
ATOM      3  O   UNK d   1       4.396   3.815 -12.258  0.00  0.00    -0.244 OA
ATOM      4  N   UNK d   1       2.234   4.728 -12.092  0.00  0.00    -0.169 NA
ATOM      5  C   UNK d   1       1.414   5.679 -12.268  0.00  0.00     0.202 A 
ATOM      6  C   UNK d   1       1.727   7.001 -12.867  0.00  0.00     0.140 A 
ATOM      7  C   UNK d   1       0.795   7.227 -14.007  0.00  0.00     0.269 C 
ATOM      8  N   UNK d   1       0.477   8.571 -14.324  0.00  0.00    -0.043 N 
ATOM      9  C   UNK d   1       1.260   9.557 -13.692  0.00  0.00     0.140 A 
ATOM     10  C   UNK d   1       1.759   9.347 -12.400  0.00  0.00    -0.021 A 
ATOM     11  C   UNK d   1       2.517  10.314 -11.803  0.00  0.00     0.016 A 
ATOM     12  C   UNK d   1       2.833  11.513 -12.400  0.00  0.00    -0.061 A 
ATOM     13  C   UNK d   1       2.341  11.716 -13.672  0.00  0.00     0.009 A 
ATOM     14  C   UNK d   1       1.567  10.752 -14.305  0.00  0.00     0.038 A 
ATOM     15  C   UNK d   1       3.660  12.538 -11.721  0.00  0.00     0.048 C 
ATOM     16  C   UNK d   1       1.395   8.040 -11.792  0.00  0.00     0.070 C 
ATOM     17  C   UNK d   1      -0.956   8.863 -14.146  0.00  0.00     0.276 C 
ATOM     18  C   UNK d   1       3.156   7.057 -13.239  0.00  0.00     0.251 A 
ATOM     19  O   UNK d   1       3.647   8.106 -13.775  0.00  0.00    -0.271 OA
ATOM     20  O   UNK d   1       0.073   5.496 -11.867  0.00  0.00    -0.173 OA
ATOM     21  H   UNK d   1       0.632   8.697 -15.369  0.00  0.00     0.286 HD
ENDROOT
BRANCH   1  22
ATOM     22  C   UNK d   1       5.442   6.115 -13.422  0.00  0.00     0.047 A 
ATOM     23  C   UNK d   1       6.267   5.030 -13.228  0.00  0.00     0.031 A 
ATOM     24  C   UNK d   1       7.614   5.063 -13.568  0.00  0.00     0.021 A 
ATOM     25  C   UNK d   1       8.143   6.203 -14.111  0.00  0.00     0.011 A 
ATOM     26 Br   UNK d   1       9.993   6.238 -14.575  0.00  0.00    -0.051 Br
ATOM     27  C   UNK d   1       7.335   7.309 -14.317  0.00  0.00     0.021 A 
ATOM     28  C   UNK d   1       5.995   7.252 -13.970  0.00  0.00     0.031 A 
ENDBRANCH   1  22
TORSDOF 1
ENDMDL
