MODEL 1
REMARK VINA RESULT:    -9.771      0.000      0.000
REMARK INTER + INTRA:         -11.519
REMARK INTER:                 -12.056
REMARK INTRA:                   0.536
REMARK UNBOUND:                 0.536
REMARK  4 active torsions:
REMARK  status: ('A' for Active; 'I' for Inactive)
REMARK    1  A    between atoms: C_5  and  N_8 
REMARK    2  A    between atoms: C_15  and  N_16 
REMARK    3  A    between atoms: N_16  and  N_17 
REMARK    4  A    between atoms: N_17  and  C_18 
ROOT
ATOM      1  N   UNK d   1       0.447  11.438 -13.236  0.00  0.00    -0.229 N 
ATOM      2  C   UNK d   1       1.715  10.808 -13.429  0.00  0.00     0.337 A 
ATOM      3  O   UNK d   1       1.715   9.615 -13.872  0.00  0.00    -0.246 OA
ATOM      4  N   UNK d   1       2.905  11.515 -13.127  0.00  0.00    -0.274 N 
ATOM      5  C   UNK d   1       2.928  12.849 -12.631  0.00  0.00     0.266 A 
ATOM      6  O   UNK d   1       4.006  13.454 -12.371  0.00  0.00    -0.267 OA
ATOM      7  C   UNK d   1       1.639  13.531 -12.420  0.00  0.00     0.117 A 
ATOM      8  C   UNK d   1       1.594  14.771 -11.959  0.00  0.00     0.130 C 
ATOM      9  C   UNK d   1       0.432  12.776 -12.740  0.00  0.00     0.273 A 
ATOM     10  O   UNK d   1      -0.692  13.316 -12.576  0.00  0.00    -0.266 OA
ATOM     11  H   UNK d   1       3.812  11.017 -13.284  0.00  0.00     0.173 HD
ENDROOT
BRANCH   8  12
ATOM     12  N   UNK d   1       0.336  15.401 -11.766  0.00  0.00    -0.296 N 
ATOM     13  H   UNK d   1      -0.252  15.006 -10.982  0.00  0.00     0.186 HD
BRANCH  12  14
ATOM     14  N   UNK d   1      -0.153  16.459 -12.514  0.00  0.00    -0.130 N 
ATOM     15  H   UNK d   1       0.288  16.568 -13.474  0.00  0.00     0.205 HD
BRANCH  14  16
ATOM     16  C   UNK d   1      -1.163  17.360 -12.076  0.00  0.00     0.723 A 
ATOM     17  N   UNK d   1      -2.313  17.598 -12.716  0.00  0.00    -0.175 N 
ATOM     18  C   UNK d   1      -3.033  18.497 -12.025  0.00  0.00     0.166 A 
ATOM     19  C   UNK d   1      -2.809  17.026 -13.972  0.00  0.00     0.176 C 
ATOM     20  C   UNK d   1      -2.296  18.837 -10.899  0.00  0.00     0.186 A 
ATOM     21  C   UNK d   1      -4.248  19.109 -12.178  0.00  0.00     0.282 A 
ATOM     22  N   UNK d   1      -1.176  18.120 -10.980  0.00  0.00    -0.042 NA
ATOM     23  N   UNK d   1      -2.751  19.726  -9.998  0.00  0.00    -0.285 N 
ATOM     24  C   UNK d   1      -3.942  20.292 -10.197  0.00  0.00     0.332 A 
ATOM     25  C   UNK d   1      -1.933  20.026  -8.861  0.00  0.00     0.163 C 
ATOM     26  O   UNK d   1      -4.408  21.135  -9.371  0.00  0.00    -0.246 OA
ATOM     27  N   UNK d   1      -4.716  20.005 -11.278  0.00  0.00    -0.269 N 
ATOM     28  C   UNK d   1      -5.997  20.642 -11.447  0.00  0.00     0.164 C 
ATOM     29  O   UNK d   1      -4.955  18.844 -13.172  0.00  0.00    -0.265 OA
ENDBRANCH  14  16
ENDBRANCH  12  14
ENDBRANCH   8  12
BRANCH   1  30
ATOM     30  C   UNK d   1      -0.727  10.738 -13.532  0.00  0.00     0.047 A 
ATOM     31  C   UNK d   1      -0.802   9.381 -13.286  0.00  0.00     0.031 A 
ATOM     32  C   UNK d   1      -1.941   8.649 -13.561  0.00  0.00     0.021 A 
ATOM     33  C   UNK d   1      -3.057   9.266 -14.101  0.00  0.00     0.011 A 
ATOM     34 Br   UNK d   1      -4.640   8.263 -14.487  0.00  0.00    -0.051 Br
ATOM     35  C   UNK d   1      -2.959  10.620 -14.339  0.00  0.00     0.021 A 
ATOM     36  C   UNK d   1      -1.830  11.367 -14.070  0.00  0.00     0.031 A 
ENDBRANCH   1  30
TORSDOF 4
ENDMDL
