/Users/jonathanwahrer/Desktop/Msc/3_Semester/Drug_Design_Praktikum/waehrer_HTS_screening/HTS_experiment/out/docking_results/vina_output/6q9y/0429_docked.pdbqt
 OpenBabel03222219233D

 36 39  0  0  0  0  0  0  0  0999 V2000
    0.4470   11.4380  -13.2360 N   0  0  0  0  0  0  0  0  0  0  0  0
    1.7150   10.8080  -13.4290 C   0  0  0  0  0  0  0  0  0  0  0  0
    1.7150    9.6150  -13.8720 O   0  0  0  0  0  0  0  0  0  0  0  0
    2.9050   11.5150  -13.1270 N   0  0  0  0  0  0  0  0  0  0  0  0
    2.9280   12.8490  -12.6310 C   0  0  0  0  0  0  0  0  0  0  0  0
    4.0060   13.4540  -12.3710 O   0  0  0  0  0  0  0  0  0  0  0  0
    1.6390   13.5310  -12.4200 C   0  0  0  0  0  0  0  0  0  0  0  0
    1.5940   14.7710  -11.9590 C   0  0  0  0  0  3  0  0  0  0  0  0
    0.4320   12.7760  -12.7400 C   0  0  0  0  0  0  0  0  0  0  0  0
   -0.6920   13.3160  -12.5760 O   0  0  0  0  0  0  0  0  0  0  0  0
    3.8120   11.0170  -13.2840 H   0  0  0  0  0  0  0  0  0  0  0  0
    0.3360   15.4010  -11.7660 N   0  0  0  0  0  0  0  0  0  0  0  0
   -0.2520   15.0060  -10.9820 H   0  0  0  0  0  0  0  0  0  0  0  0
   -0.1530   16.4590  -12.5140 N   0  0  0  0  0  0  0  0  0  0  0  0
    0.2880   16.5680  -13.4740 H   0  0  0  0  0  0  0  0  0  0  0  0
   -1.1630   17.3600  -12.0760 C   0  0  0  0  0  0  0  0  0  0  0  0
   -2.3130   17.5980  -12.7160 N   0  0  0  0  0  0  0  0  0  0  0  0
   -3.0330   18.4970  -12.0250 C   0  0  0  0  0  0  0  0  0  0  0  0
   -2.8090   17.0260  -13.9720 C   0  0  0  0  0  1  0  0  0  0  0  0
   -2.2960   18.8370  -10.8990 C   0  0  0  0  0  0  0  0  0  0  0  0
   -4.2480   19.1090  -12.1780 C   0  0  0  0  0  0  0  0  0  0  0  0
   -1.1760   18.1200  -10.9800 N   0  0  0  0  0  0  0  0  0  0  0  0
   -2.7510   19.7260   -9.9980 N   0  0  0  0  0  0  0  0  0  0  0  0
   -3.9420   20.2920  -10.1970 C   0  0  0  0  0  0  0  0  0  0  0  0
   -1.9330   20.0260   -8.8610 C   0  0  0  0  0  1  0  0  0  0  0  0
   -4.4080   21.1350   -9.3710 O   0  0  0  0  0  0  0  0  0  0  0  0
   -4.7160   20.0050  -11.2780 N   0  0  0  0  0  0  0  0  0  0  0  0
   -5.9970   20.6420  -11.4470 C   0  0  0  0  0  1  0  0  0  0  0  0
   -4.9550   18.8440  -13.1720 O   0  0  0  0  0  0  0  0  0  0  0  0
   -0.7270   10.7380  -13.5320 C   0  0  0  0  0  0  0  0  0  0  0  0
   -0.8020    9.3810  -13.2860 C   0  0  0  0  0  3  0  0  0  0  0  0
   -1.9410    8.6490  -13.5610 C   0  0  0  0  0  3  0  0  0  0  0  0
   -3.0570    9.2660  -14.1010 C   0  0  0  0  0  0  0  0  0  0  0  0
   -4.6400    8.2630  -14.4870 Br  0  0  0  0  0  0  0  0  0  0  0  0
   -2.9590   10.6200  -14.3390 C   0  0  0  0  0  3  0  0  0  0  0  0
   -1.8300   11.3670  -14.0700 C   0  0  0  0  0  3  0  0  0  0  0  0
  1  9  1  0  0  0  0
  2  1  1  0  0  0  0
  2  4  1  0  0  0  0
  3  2  2  0  0  0  0
  4  5  1  0  0  0  0
  5  7  1  0  0  0  0
  5  6  2  0  0  0  0
  7  8  2  0  0  0  0
  8 12  1  0  0  0  0
  9 10  2  0  0  0  0
  9  7  1  0  0  0  0
 11  4  1  0  0  0  0
 12 13  1  0  0  0  0
 14 16  1  0  0  0  0
 14 12  1  0  0  0  0
 15 14  1  0  0  0  0
 16 22  2  0  0  0  0
 17 16  1  0  0  0  0
 17 18  1  0  0  0  0
 18 20  2  0  0  0  0
 19 17  1  0  0  0  0
 20 23  1  0  0  0  0
 21 18  1  0  0  0  0
 21 27  1  0  0  0  0
 22 20  1  0  0  0  0
 23 25  1  0  0  0  0
 24 23  1  0  0  0  0
 24 26  2  0  0  0  0
 27 24  1  0  0  0  0
 28 27  1  0  0  0  0
 29 21  2  0  0  0  0
 30 31  1  0  0  0  0
 30  1  1  0  0  0  0
 32 31  2  0  0  0  0
 33 32  1  0  0  0  0
 34 33  1  0  0  0  0
 35 33  2  0  0  0  0
 35 36  1  0  0  0  0
 36 30  2  0  0  0  0
M  END
>  <Pose>
1

>  <Score>
-9.771

$$$$
