MODEL 1
REMARK VINA RESULT:    -8.561      0.000      0.000
REMARK INTER + INTRA:         -10.406
REMARK INTER:                 -10.063
REMARK INTRA:                  -0.344
REMARK UNBOUND:                -0.344
REMARK  3 active torsions:
REMARK  status: ('A' for Active; 'I' for Inactive)
REMARK    1  A    between atoms: C_5  and  N_8 
REMARK    2  A    between atoms: N_19  and  C_24 
REMARK    3  A    between atoms: C_24  and  C_25 
REMARK       I    between atoms: C_25  and  N_27 
ROOT
ATOM      1  N   UNK d   1      -4.664   8.676 -14.668  0.00  0.00    -0.181 N 
ATOM      2  C   UNK d   1      -4.842   7.390 -15.313  0.00  0.00     0.149 C 
ATOM      3  C   UNK d   1      -3.555   6.607 -15.432  0.00  0.00     0.042 C 
ATOM      4  C   UNK d   1      -2.839   6.722 -14.078  0.00  0.00     0.150 C 
ATOM      5  N   UNK d   1      -2.401   8.091 -14.004  0.00  0.00    -0.172 N 
ATOM      6  C   UNK d   1      -3.338   9.040 -14.305  0.00  0.00     0.712 A 
ATOM      7  N   UNK d   1      -2.768  10.251 -14.190  0.00  0.00    -0.043 NA
ATOM      8  C   UNK d   1      -1.482  10.039 -13.817  0.00  0.00     0.185 A 
ATOM      9  C   UNK d   1      -1.241   8.679 -13.696  0.00  0.00     0.166 A 
ATOM     10  C   UNK d   1       0.005   8.214 -13.326  0.00  0.00     0.283 A 
ATOM     11  O   UNK d   1       0.186   6.954 -13.226  0.00  0.00    -0.265 OA
ATOM     12  N   UNK d   1       0.991   9.094 -13.079  0.00  0.00    -0.255 N 
ATOM     13  C   UNK d   1       0.731  10.408 -13.203  0.00  0.00     0.333 A 
ATOM     14  O   UNK d   1       1.683  11.198 -12.962  0.00  0.00    -0.246 OA
ATOM     15  N   UNK d   1      -0.464  10.879 -13.560  0.00  0.00    -0.285 N 
ATOM     16  C   UNK d   1      -0.710  12.308 -13.684  0.00  0.00     0.163 C 
ENDROOT
BRANCH   1  17
ATOM     17  C   UNK d   1      -5.794   9.492 -14.435  0.00  0.00     0.051 A 
ATOM     18  C   UNK d   1      -6.008  10.197 -13.273  0.00  0.00     0.031 A 
ATOM     19  C   UNK d   1      -7.157  10.980 -13.137  0.00  0.00     0.021 A 
ATOM     20  C   UNK d   1      -8.089  11.063 -14.149  0.00  0.00     0.011 A 
ATOM     21 Br   UNK d   1      -9.650  12.110 -13.998  0.00  0.00    -0.051 Br
ATOM     22  C   UNK d   1      -7.879  10.358 -15.318  0.00  0.00     0.021 A 
ATOM     23  C   UNK d   1      -6.745   9.600 -15.424  0.00  0.00     0.031 A 
ENDBRANCH   1  17
BRANCH  12  24
ATOM     24  C   UNK d   1       2.305   8.615 -12.687  0.00  0.00     0.239 C 
BRANCH  24  25
ATOM     25  C   UNK d   1       3.115   8.375 -13.927  0.00  0.00     0.233 C 
ATOM     26  O   UNK d   1       3.995   7.484 -13.951  0.00  0.00    -0.272 OA
ATOM     27  N   UNK d   1       2.910   9.139 -15.099  0.00  0.00    -0.369 N 
ATOM     28  H   UNK d   1       2.984   8.732 -16.059  0.00  0.00     0.159 HD
ATOM     29  H   UNK d   1       2.672  10.161 -15.050  0.00  0.00     0.159 HD
ENDBRANCH  24  25
ENDBRANCH  12  24
TORSDOF 3
ENDMDL
