MODEL 1
REMARK VINA RESULT:    -8.131      0.000      0.000
REMARK INTER + INTRA:         -10.879
REMARK INTER:                 -10.032
REMARK INTRA:                  -0.846
REMARK UNBOUND:                -0.846
REMARK  4 active torsions:
REMARK  status: ('A' for Active; 'I' for Inactive)
REMARK    1  A    between atoms: C_5  and  N_8 
REMARK    2  A    between atoms: C_12  and  C_13 
REMARK    3  A    between atoms: C_13  and  N_14 
REMARK    4  A    between atoms: N_14  and  C_15 
ROOT
ATOM      1  N   UNK d   1       0.492  15.349 -12.606  0.00  0.00    -0.220 N 
ATOM      2  N   UNK d   1       1.800  15.564 -12.693  0.00  0.00    -0.291 N 
ATOM      3  C   UNK d   1       2.469  14.397 -12.716  0.00  0.00     0.056 A 
ATOM      4  C   UNK d   1       3.785  14.246 -12.798  0.00  0.00     0.045 C 
ATOM      5  C   UNK d   1       1.555  13.366 -12.643  0.00  0.00     0.076 A 
ATOM      6  C   UNK d   1       0.328  14.009 -12.575  0.00  0.00     0.280 A 
ATOM      7  O   UNK d   1      -0.769  13.412 -12.494  0.00  0.00    -0.265 OA
ATOM      8  H   UNK d   1       2.245  16.503 -12.735  0.00  0.00     0.187 HD
ENDROOT
BRANCH   5   9
ATOM      9  C   UNK d   1       1.781  12.049 -12.636  0.00  0.00     0.103 C 
BRANCH   9  10
ATOM     10  N   UNK d   1       1.029  11.240 -13.532  0.00  0.00    -0.384 N 
ATOM     11  H   UNK d   1       0.527  11.710 -14.300  0.00  0.00     0.159 HD
BRANCH  10  12
ATOM     12  C   UNK d   1       0.954   9.814 -13.396  0.00  0.00     0.109 C 
ATOM     13  C   UNK d   1       1.693   9.357 -12.179  0.00  0.00     0.311 C 
ATOM     14  N   UNK d   1       1.511   7.920 -12.023  0.00  0.00     0.147 N 
ATOM     15  C   UNK d   1       0.082   7.669 -11.875  0.00  0.00     0.547 C 
ATOM     16  C   UNK d   1       2.035   7.249 -13.185  0.00  0.00     0.547 C 
ATOM     17  N   UNK d   1      -0.651   8.036 -13.061  0.00  0.00     0.147 N 
ATOM     18  C   UNK d   1      -0.076   7.360 -14.219  0.00  0.00     0.547 C 
ATOM     19  C   UNK d   1      -0.531   9.454 -13.278  0.00  0.00     0.311 C 
ATOM     20  N   UNK d   1       1.329   7.665 -14.375  0.00  0.00     0.147 N 
ATOM     21  C   UNK d   1       1.514   9.080 -14.591  0.00  0.00     0.311 C 
ENDBRANCH  10  12
ENDBRANCH   9  10
ENDBRANCH   5   9
BRANCH   1  22
ATOM     22  C   UNK d   1      -0.550  16.316 -12.554  0.00  0.00     0.060 A 
ATOM     23  C   UNK d   1      -0.642  17.177 -11.480  0.00  0.00     0.033 A 
ATOM     24  C   UNK d   1      -1.649  18.136 -11.397  0.00  0.00     0.021 A 
ATOM     25  C   UNK d   1      -2.576  18.241 -12.390  0.00  0.00     0.011 A 
ATOM     26 Br   UNK d   1      -3.987  19.546 -12.326  0.00  0.00    -0.051 Br
ATOM     27  C   UNK d   1      -2.509  17.390 -13.481  0.00  0.00     0.021 A 
ATOM     28  C   UNK d   1      -1.504  16.452 -13.539  0.00  0.00     0.033 A 
ENDBRANCH   1  22
TORSDOF 4
ENDMDL
