MODEL 1
REMARK VINA RESULT:    -8.968      0.000      0.000
REMARK INTER + INTRA:         -14.121
REMARK INTER:                 -13.163
REMARK INTRA:                  -0.958
REMARK UNBOUND:                -0.958
REMARK  10 active torsions:
REMARK  status: ('A' for Active; 'I' for Inactive)
REMARK    1  A    between atoms: C_5  and  O_8 
REMARK    2  A    between atoms: O_8  and  C_9 
REMARK    3  A    between atoms: C_9  and  C_10 
REMARK       I    between atoms: C_10  and  N_12 
REMARK    4  A    between atoms: N_12  and  C_13 
REMARK    5  A    between atoms: N_16  and  C_23 
REMARK    6  A    between atoms: C_20  and  O_22 
REMARK    7  A    between atoms: C_25  and  C_30 
REMARK    8  A    between atoms: C_26  and  O_29 
REMARK    9  A    between atoms: C_27  and  O_28 
REMARK   10  A    between atoms: C_30  and  O_31 
ROOT
ATOM      1  C   UNK d   1       0.798  14.044 -12.165  0.00  0.00     0.733 A 
ATOM      2  N   UNK d   1       0.820  12.912 -12.894  0.00  0.00    -0.042 NA
ATOM      3  C   UNK d   1       1.905  12.155 -12.893  0.00  0.00     0.185 A 
ATOM      4  N   UNK d   1       2.164  11.004 -13.527  0.00  0.00    -0.293 N 
ATOM      5  C   UNK d   1       3.426  10.668 -13.172  0.00  0.00     0.214 A 
ATOM      6  N   UNK d   1       3.930  11.585 -12.342  0.00  0.00    -0.235 NA
ATOM      7  C   UNK d   1       3.018  12.537 -12.135  0.00  0.00     0.158 A 
ATOM      8  C   UNK d   1       3.003  13.698 -11.385  0.00  0.00     0.214 A 
ATOM      9  N   UNK d   1       1.881  14.422 -11.423  0.00  0.00    -0.036 NA
ENDROOT
BRANCH   1  10
ATOM     10  N   UNK d   1      -0.350  14.888 -12.144  0.00  0.00    -0.154 N 
ATOM     11  C   UNK d   1      -0.662  15.777 -13.192  0.00  0.00     0.260 C 
ATOM     12  O   UNK d   1       0.076  15.855 -14.190  0.00  0.00    -0.270 OA
ATOM     13  H   UNK d   1      -0.979  14.822 -11.292  0.00  0.00     0.187 HD
BRANCH  11  14
ATOM     14  C   UNK d   1      -1.869  16.620 -13.100  0.00  0.00     0.279 C 
BRANCH  14  15
ATOM     15  O   UNK d   1      -1.590  17.947 -12.761  0.00  0.00    -0.342 OA
BRANCH  15  16
ATOM     16  C   UNK d   1      -2.534  18.691 -12.087  0.00  0.00     0.069 A 
ATOM     17  C   UNK d   1      -2.266  19.192 -10.835  0.00  0.00     0.038 A 
ATOM     18  C   UNK d   1      -3.218  19.946 -10.144  0.00  0.00     0.022 A 
ATOM     19  C   UNK d   1      -4.443  20.195 -10.722  0.00  0.00     0.011 A 
ATOM     20 Br   UNK d   1      -5.750  21.232  -9.773  0.00  0.00    -0.051 Br
ATOM     21  C   UNK d   1      -4.708  19.690 -11.978  0.00  0.00     0.022 A 
ATOM     22  C   UNK d   1      -3.761  18.948 -12.646  0.00  0.00     0.038 A 
ENDBRANCH  15  16
ENDBRANCH  14  15
ENDBRANCH  11  14
ENDBRANCH   1  10
BRANCH   8  23
ATOM     23  O   UNK d   1       4.134  14.029 -10.653  0.00  0.00    -0.343 OA
ATOM     24  H   UNK d   1       4.031  14.823 -10.012  0.00  0.00     0.219 HD
ENDBRANCH   8  23
BRANCH   4  25
ATOM     25  C   UNK d   1       1.375  10.220 -14.398  0.00  0.00     0.262 C 
ATOM     26  O   UNK d   1       0.055  10.103 -13.944  0.00  0.00    -0.353 OA
ATOM     27  C   UNK d   1       0.058   8.861 -13.315  0.00  0.00     0.179 C 
ATOM     28  C   UNK d   1       0.671   8.003 -14.411  0.00  0.00     0.182 C 
ATOM     29  C   UNK d   1       1.870   8.883 -14.756  0.00  0.00     0.198 C 
BRANCH  27  30
ATOM     30  C   UNK d   1      -1.322   8.402 -12.940  0.00  0.00     0.198 C 
BRANCH  30  31
ATOM     31  O   UNK d   1      -1.900   7.572 -13.862  0.00  0.00    -0.398 OA
ATOM     32  H   UNK d   1      -2.264   6.780 -13.388  0.00  0.00     0.209 HD
ENDBRANCH  30  31
ENDBRANCH  27  30
BRANCH  28  33
ATOM     33  O   UNK d   1       1.018   6.748 -13.996  0.00  0.00    -0.390 OA
ATOM     34  H   UNK d   1       1.290   6.139 -14.754  0.00  0.00     0.210 HD
ENDBRANCH  28  33
BRANCH  29  35
ATOM     35  O   UNK d   1       2.164   8.775 -16.134  0.00  0.00    -0.388 OA
ATOM     36  H   UNK d   1       2.428   7.831 -16.273  0.00  0.00     0.210 HD
ENDBRANCH  29  35
ENDBRANCH   4  25
TORSDOF 10
ENDMDL
