MODEL 1
REMARK VINA RESULT:    -8.272      0.000      0.000
REMARK INTER + INTRA:         -11.997
REMARK INTER:                 -11.415
REMARK INTRA:                  -0.581
REMARK UNBOUND:                -0.581
REMARK  7 active torsions:
REMARK  status: ('A' for Active; 'I' for Inactive)
REMARK    1  A    between atoms: C_5  and  O_8 
REMARK    2  A    between atoms: O_8  and  C_9 
REMARK    3  A    between atoms: C_9  and  C_10 
REMARK    4  A    between atoms: C_10  and  O_11 
REMARK    5  A    between atoms: C_10  and  C_12 
REMARK    6  A    between atoms: C_12  and  N_13 
REMARK    7  A    between atoms: C_17  and  N_18 
ROOT
ATOM      1  N   UNK d   1      -0.047   7.865 -13.650  0.00  0.00    -0.170 N 
ATOM      2  C   UNK d   1      -1.312   7.491 -13.952  0.00  0.00     0.166 A 
ATOM      3  C   UNK d   1      -2.094   8.622 -14.017  0.00  0.00     0.185 A 
ATOM      4  N   UNK d   1      -1.280   9.623 -13.752  0.00  0.00    -0.044 NA
ATOM      5  C   UNK d   1       0.001   9.199 -13.515  0.00  0.00     0.707 A 
ATOM      6  N   UNK d   1      -3.429   8.611 -14.300  0.00  0.00    -0.286 N 
ATOM      7  C   UNK d   1      -3.998   7.425 -14.525  0.00  0.00     0.330 A 
ATOM      8  O   UNK d   1      -5.231   7.396 -14.789  0.00  0.00    -0.246 OA
ATOM      9  N   UNK d   1      -3.263   6.307 -14.467  0.00  0.00    -0.273 N 
ATOM     10  C   UNK d   1      -1.938   6.287 -14.189  0.00  0.00     0.280 A 
ATOM     11  O   UNK d   1      -1.283   5.236 -14.140  0.00  0.00    -0.265 OA
ATOM     12  C   UNK d   1      -4.174   9.869 -14.356  0.00  0.00     0.163 C 
ATOM     13  H   UNK d   1      -3.742   5.401 -14.647  0.00  0.00     0.173 HD
ENDROOT
BRANCH   1  14
ATOM     14  C   UNK d   1       1.097   6.985 -13.546  0.00  0.00     0.182 C 
BRANCH  14  15
ATOM     15  C   UNK d   1       1.141   6.124 -12.318  0.00  0.00     0.161 C 
BRANCH  15  16
ATOM     16  C   UNK d   1       2.408   5.369 -12.067  0.00  0.00     0.209 C 
BRANCH  16  17
ATOM     17  O   UNK d   1       3.432   5.709 -12.821  0.00  0.00    -0.349 OA
BRANCH  17  18
ATOM     18  C   UNK d   1       4.697   5.831 -13.144  0.00  0.00     0.069 A 
ATOM     19  C   UNK d   1       5.628   4.813 -13.088  0.00  0.00     0.038 A 
ATOM     20  C   UNK d   1       6.947   5.002 -13.438  0.00  0.00     0.022 A 
ATOM     21  C   UNK d   1       7.355   6.240 -13.858  0.00  0.00     0.011 A 
ATOM     22 Br   UNK d   1       9.175   6.494 -14.339  0.00  0.00    -0.051 Br
ATOM     23  C   UNK d   1       6.446   7.277 -13.925  0.00  0.00     0.022 A 
ATOM     24  C   UNK d   1       5.148   7.096 -13.582  0.00  0.00     0.038 A 
ENDBRANCH  17  18
ENDBRANCH  16  17
ENDBRANCH  15  16
BRANCH  15  25
ATOM     25  O   UNK d   1       0.844   6.847 -11.154  0.00  0.00    -0.392 OA
ATOM     26  H   UNK d   1      -0.100   7.201 -11.224  0.00  0.00     0.210 HD
ENDBRANCH  15  25
ENDBRANCH  14  15
ENDBRANCH   1  14
BRANCH   5  27
ATOM     27  N   UNK d   1       1.075  10.080 -13.133  0.00  0.00    -0.212 N 
ATOM     28  C   UNK d   1       0.833  11.494 -13.493  0.00  0.00     0.171 C 
ATOM     29  C   UNK d   1       1.752  12.457 -12.859  0.00  0.00     0.292 C 
ATOM     30  N   UNK d   1       3.090  11.947 -12.686  0.00  0.00     0.087 N 
ATOM     31  C   UNK d   1       2.979  10.843 -11.787  0.00  0.00     0.292 C 
ATOM     32  C   UNK d   1       3.737  11.667 -13.925  0.00  0.00     0.310 C 
ATOM     33  C   UNK d   1       2.236   9.670 -12.425  0.00  0.00     0.171 C 
ENDBRANCH   5  27
TORSDOF 7
ENDMDL
