/Users/jonathanwahrer/Desktop/Msc/3_Semester/Drug_Design_Praktikum/waehrer_HTS_screening/HTS_experiment/out/docking_results/vina_output/6q9y/0454_docked.pdbqt
 OpenBabel03222219243D

 21 25  0  0  1  0  0  0  0  0999 V2000
   -0.0370    9.1910  -12.8690 C   0  0  0  0  0  2  0  0  0  0  0  0
   -1.3290    9.0740  -13.5450 C   0  0  0  0  0  0  0  0  0  0  0  0
   -2.0920   10.2450  -13.6940 C   0  0  0  0  0  0  0  0  0  0  0  0
   -1.4540   11.9820  -13.2110 Br  0  0  0  0  0  0  0  0  0  0  0  0
   -3.3670   10.0870  -14.2060 C   0  0  0  0  0  3  0  0  0  0  0  0
   -3.8440    8.8400  -14.5540 C   0  0  0  0  0  0  0  0  0  0  0  0
   -3.1250    7.6750  -14.4200 C   0  0  0  0  0  0  0  0  0  0  0  0
   -5.1230    8.4950  -15.0880 O   0  0  0  0  0  0  0  0  0  0  0  0
   -1.8650    7.8380  -13.9120 C   0  0  0  0  0  3  0  0  0  0  0  0
   -3.9720    6.6740  -14.8670 O   0  0  0  0  0  0  0  0  0  0  0  0
   -5.3390    7.1210  -14.6450 C   0  0  0  0  0  2  0  0  0  0  0  0
    1.1530    9.2250  -13.6120 N   0  0  2  0  0  4  0  0  0  0  0  0
    2.1460    8.7710  -12.5740 C   0  0  0  0  0  2  0  0  0  0  0  0
    3.4890    8.9800  -12.9160 N   0  0  2  0  0  0  0  0  0  0  0  0
    3.6490   10.3970  -13.1960 C   0  0  0  0  0  2  0  0  0  0  0  0
    3.7480    8.1320  -14.0850 C   0  0  0  0  0  2  0  0  0  0  0  0
    2.8540   10.6940  -14.3620 N   0  0  2  0  0  0  0  0  0  0  0  0
    1.4590   10.5740  -14.0840 C   0  0  0  0  0  2  0  0  0  0  0  0
    3.1680    9.8480  -15.5190 C   0  0  0  0  0  2  0  0  0  0  0  0
    2.8370    8.4820  -15.1480 N   0  0  2  0  0  0  0  0  0  0  0  0
    1.4270    8.3650  -14.7210 C   0  0  0  0  0  2  0  0  0  0  0  0
  2  1  1  0  0  0  0
  3  2  1  0  0  0  0
  3  4  1  0  0  0  0
  5  3  2  0  0  0  0
  6  7  2  0  0  0  0
  6  5  1  0  0  0  0
  7  9  1  0  0  0  0
  8 11  1  0  0  0  0
  8  6  1  0  0  0  0
  9  2  2  0  0  0  0
 10 11  1  0  0  0  0
 10  7  1  0  0  0  0
 12  1  1  1  0  0  0
 12 13  1  0  0  0  0
 14 16  1  6  0  0  0
 14 13  1  0  0  0  0
 15 14  1  0  0  0  0
 17 19  1  6  0  0  0
 17 18  1  0  0  0  0
 17 15  1  0  0  0  0
 18 12  1  0  0  0  0
 20 19  1  1  0  0  0
 20 21  1  0  0  0  0
 20 16  1  0  0  0  0
 21 12  1  0  0  0  0
M  END
>  <Pose>
1

>  <Score>
-7.236

$$$$
