MODEL 1
REMARK VINA RESULT:    -7.236      0.000      0.000
REMARK INTER + INTRA:          -8.123
REMARK INTER:                  -8.082
REMARK INTRA:                  -0.041
REMARK UNBOUND:                -0.041
REMARK  2 active torsions:
REMARK  status: ('A' for Active; 'I' for Inactive)
REMARK    1  A    between atoms: C_7  and  C_8 
REMARK    2  A    between atoms: C_8  and  N_9 
ROOT
ATOM      1  C   UNK d   1      -0.037   9.191 -12.869  0.00  0.00     0.284 C 
ENDROOT
BRANCH   1   2
ATOM      2  C   UNK d   1      -1.329   9.074 -13.545  0.00  0.00    -0.012 A 
ATOM      3  C   UNK d   1      -2.092  10.245 -13.694  0.00  0.00     0.021 A 
ATOM      4 Br   UNK d   1      -1.454  11.982 -13.211  0.00  0.00    -0.050 Br
ATOM      5  C   UNK d   1      -3.367  10.087 -14.206  0.00  0.00     0.059 A 
ATOM      6  C   UNK d   1      -3.844   8.840 -14.554  0.00  0.00     0.106 A 
ATOM      7  C   UNK d   1      -3.125   7.675 -14.420  0.00  0.00     0.105 A 
ATOM      8  O   UNK d   1      -5.123   8.495 -15.088  0.00  0.00    -0.323 OA
ATOM      9  C   UNK d   1      -1.865   7.838 -13.912  0.00  0.00     0.050 A 
ATOM     10  O   UNK d   1      -3.972   6.674 -14.867  0.00  0.00    -0.323 OA
ATOM     11  C   UNK d   1      -5.339   7.121 -14.645  0.00  0.00     0.352 C 
ENDBRANCH   1   2
BRANCH   1  12
ATOM     12  N   UNK d   1       1.153   9.225 -13.612  0.00  0.00     0.016 N 
ATOM     13  C   UNK d   1       2.146   8.771 -12.574  0.00  0.00     0.517 C 
ATOM     14  N   UNK d   1       3.489   8.980 -12.916  0.00  0.00     0.171 N 
ATOM     15  C   UNK d   1       3.649  10.397 -13.196  0.00  0.00     0.551 C 
ATOM     16  C   UNK d   1       3.748   8.132 -14.085  0.00  0.00     0.551 C 
ATOM     17  N   UNK d   1       2.854  10.694 -14.362  0.00  0.00     0.171 N 
ATOM     18  C   UNK d   1       1.459  10.574 -14.084  0.00  0.00     0.517 C 
ATOM     19  C   UNK d   1       3.168   9.848 -15.519  0.00  0.00     0.551 C 
ATOM     20  N   UNK d   1       2.837   8.482 -15.148  0.00  0.00     0.171 N 
ATOM     21  C   UNK d   1       1.427   8.365 -14.721  0.00  0.00     0.517 C 
ENDBRANCH   1  12
TORSDOF 2
ENDMDL
