MODEL 1
REMARK VINA RESULT:    -7.815      0.000      0.000
REMARK INTER + INTRA:         -10.808
REMARK INTER:                 -10.100
REMARK INTRA:                  -0.708
REMARK UNBOUND:                -0.708
REMARK  5 active torsions:
REMARK  status: ('A' for Active; 'I' for Inactive)
REMARK    1  A    between atoms: C_7  and  C_8 
REMARK    2  A    between atoms: C_8  and  N_9 
REMARK    3  A    between atoms: N_12  and  C_15 
REMARK    4  A    between atoms: C_15  and  C_16 
REMARK       I    between atoms: C_16  and  N_18 
REMARK    5  A    between atoms: N_18  and  C_19 
ROOT
ATOM      1  N   UNK d   1       2.302  13.531 -12.624  0.00  0.00     0.095 N 
ATOM      2  C   UNK d   1       2.387  13.643 -11.144  0.00  0.00     0.292 C 
ATOM      3  C   UNK d   1       1.622  14.929 -10.849  0.00  0.00     0.147 C 
ATOM      4  N   UNK d   1       1.336  15.704 -12.000  0.00  0.00    -0.401 N 
ATOM      5  C   UNK d   1       2.483  15.901 -12.848  0.00  0.00     0.147 C 
ATOM      6  C   UNK d   1       3.199  14.601 -13.066  0.00  0.00     0.292 C 
ENDROOT
BRANCH   1   7
ATOM      7  C   UNK d   1       2.809  12.237 -13.037  0.00  0.00     0.312 C 
BRANCH   7   8
ATOM      8  C   UNK d   1       1.688  11.298 -13.290  0.00  0.00    -0.010 A 
ATOM      9  C   UNK d   1       1.915   9.935 -13.468  0.00  0.00     0.021 A 
ATOM     10 Br   UNK d   1       3.728   9.338 -13.401  0.00  0.00    -0.050 Br
ATOM     11  C   UNK d   1       0.894   9.039 -13.683  0.00  0.00     0.059 A 
ATOM     12  C   UNK d   1      -0.414   9.453 -13.733  0.00  0.00     0.103 A 
ATOM     13  C   UNK d   1      -0.672  10.783 -13.563  0.00  0.00     0.102 A 
ATOM     14  O   UNK d   1      -1.473   8.580 -13.947  0.00  0.00    -0.346 OA
ATOM     15  C   UNK d   1       0.366  11.688 -13.346  0.00  0.00     0.050 A 
ATOM     16  O   UNK d   1      -1.986  11.221 -13.610  0.00  0.00    -0.346 OA
ATOM     17  C   UNK d   1      -3.051  10.436 -14.080  0.00  0.00     0.202 C 
ATOM     18  C   UNK d   1      -2.813   8.982 -13.823  0.00  0.00     0.202 C 
ENDBRANCH   7   8
ENDBRANCH   1   7
BRANCH   4  19
ATOM     19  C   UNK d   1       0.107  15.483 -12.663  0.00  0.00     0.219 C 
BRANCH  19  20
ATOM     20  C   UNK d   1      -0.808  16.608 -12.722  0.00  0.00     0.235 C 
ATOM     21  O   UNK d   1      -1.370  16.927 -13.791  0.00  0.00    -0.272 OA
ATOM     22  N   UNK d   1      -1.091  17.376 -11.570  0.00  0.00    -0.355 N 
ATOM     23  H   UNK d   1      -0.656  17.167 -10.625  0.00  0.00     0.162 HD
BRANCH  22  24
ATOM     24  C   UNK d   1      -2.004  18.513 -11.591  0.00  0.00     0.084 A 
ATOM     25  C   UNK d   1      -2.223  19.320 -10.380  0.00  0.00     0.027 A 
ATOM     26  C   UNK d   1      -3.275  18.326 -10.768  0.00  0.00     0.027 A 
ENDBRANCH  22  24
ENDBRANCH  19  20
ENDBRANCH   4  19
TORSDOF 5
ENDMDL
