/Users/jonathanwahrer/Desktop/Msc/3_Semester/Drug_Design_Praktikum/waehrer_HTS_screening/HTS_experiment/out/docking_results/vina_output/6q9y/0459_docked.pdbqt
 OpenBabel03222219253D

 29 32  0  0  0  0  0  0  0  0999 V2000
   -2.2470   17.5790  -12.6720 C   0  0  0  0  0  0  0  0  0  0  0  0
   -1.9730   18.1150  -11.4060 C   0  0  0  0  0  3  0  0  0  0  0  0
   -2.8070   19.0130  -10.7790 C   0  0  0  0  0  3  0  0  0  0  0  0
   -3.9710   19.4290  -11.3870 C   0  0  0  0  0  0  0  0  0  0  0  0
   -4.2550   18.9130  -12.6330 C   0  0  0  0  0  3  0  0  0  0  0  0
   -3.4120   18.0020  -13.2720 C   0  0  0  0  0  3  0  0  0  0  0  0
   -1.3710   16.6820  -13.2590 O   0  0  0  0  0  0  0  0  0  0  0  0
   -0.2240   16.1890  -12.6340 C   0  0  0  0  0  2  0  0  0  0  0  0
    0.0120   14.7520  -12.8520 C   0  0  0  0  0  0  0  0  0  0  0  0
    1.2790   14.1990  -12.6220 C   0  0  0  0  0  0  0  0  0  0  0  0
    2.6670   15.3980  -12.0710 Br  0  0  0  0  0  0  0  0  0  0  0  0
    1.5100   12.8560  -12.7840 C   0  0  0  0  0  3  0  0  0  0  0  0
    0.4970   12.0060  -13.1810 C   0  0  0  0  0  0  0  0  0  0  0  0
   -0.7590   12.5240  -13.4150 C   0  0  0  0  0  0  0  0  0  0  0  0
    0.4240   10.6330  -13.4250 O   0  0  0  0  0  0  0  0  0  0  0  0
   -0.9850   13.8890  -13.2470 C   0  0  0  0  0  3  0  0  0  0  0  0
   -1.5650   11.4690  -13.7940 O   0  0  0  0  0  0  0  0  0  0  0  0
   -0.9260   10.2350  -13.5170 C   0  0  0  0  0  2  0  0  0  0  0  0
   -4.8680   20.3840  -10.7320 C   0  0  0  0  0  0  0  0  0  0  0  0
   -4.6390   21.1490   -9.6520 N   0  0  0  0  0  0  0  0  0  0  0  0
   -5.7350   21.8720   -9.3990 N   0  0  0  0  0  0  0  0  0  0  0  0
   -6.6520   21.5720  -10.3070 N   0  0  0  0  0  0  0  0  0  0  0  0
   -6.1240   20.6680  -11.1140 N   0  0  0  0  0  0  0  0  0  0  0  0
   -5.9490   22.8330   -8.3370 C   0  0  0  0  0  2  0  0  0  0  0  0
   -7.3970   23.0430   -8.1220 C   0  0  0  0  0  0  0  0  0  0  0  0
   -7.9390   22.5900   -7.1010 O   0  0  0  0  0  0  0  0  0  0  0  0
   -8.1420   23.7580   -9.0860 N   0  0  0  0  0  0  0  0  0  0  0  0
   -7.8940   23.7580  -10.1140 H   0  0  0  0  0  0  0  0  0  0  0  0
   -8.9730   24.3140   -8.7930 H   0  0  0  0  0  0  0  0  0  0  0  0
  1  2  1  0  0  0  0
  2  3  2  0  0  0  0
  4  3  1  0  0  0  0
  4 19  1  0  0  0  0
  5  4  2  0  0  0  0
  6  1  2  0  0  0  0
  6  5  1  0  0  0  0
  7  1  1  0  0  0  0
  7  8  1  0  0  0  0
  9  8  1  0  0  0  0
  9 10  1  0  0  0  0
 10 11  1  0  0  0  0
 12 10  2  0  0  0  0
 13 12  1  0  0  0  0
 14 16  1  0  0  0  0
 14 13  2  0  0  0  0
 15 13  1  0  0  0  0
 16  9  2  0  0  0  0
 17 18  1  0  0  0  0
 17 14  1  0  0  0  0
 18 15  1  0  0  0  0
 19 20  2  0  0  0  0
 20 21  1  0  0  0  0
 21 24  1  0  0  0  0
 22 21  1  0  0  0  0
 23 19  1  0  0  0  0
 23 22  2  0  0  0  0
 24 25  1  0  0  0  0
 25 26  2  0  0  0  0
 27 29  1  0  0  0  0
 27 25  1  0  0  0  0
 28 27  1  0  0  0  0
M  END
>  <Pose>
1

>  <Score>
-9.753

$$$$
