MODEL 1
REMARK VINA RESULT:    -8.401      0.000      0.000
REMARK INTER + INTRA:         -11.444
REMARK INTER:                 -10.856
REMARK INTRA:                  -0.588
REMARK UNBOUND:                -0.588
REMARK  5 active torsions:
REMARK  status: ('A' for Active; 'I' for Inactive)
REMARK    1  A    between atoms: C_7  and  C_8 
REMARK    2  A    between atoms: N_9  and  N_10 
REMARK    3  A    between atoms: N_10  and  C_11 
REMARK    4  A    between atoms: C_13  and  N_19 
REMARK    5  A    between atoms: C_15  and  O_17 
ROOT
ATOM      1  C   UNK d   1      -0.419  13.680 -13.060  0.00  0.00     0.762 A 
ATOM      2  N   UNK d   1      -1.043  14.868 -13.019  0.00  0.00     0.132 NA
ATOM      3  C   UNK d   1      -0.490  15.970 -12.443  0.00  0.00     0.744 A 
ATOM      4  N   UNK d   1       0.722  15.803 -11.916  0.00  0.00    -0.017 NA
ATOM      5  C   UNK d   1       1.393  14.654 -11.924  0.00  0.00     0.302 A 
ATOM      6  N   UNK d   1       0.793  13.579 -12.516  0.00  0.00    -0.016 NA
ENDROOT
BRANCH   1   7
ATOM      7  N   UNK d   1      -1.129  12.617 -13.661  0.00  0.00    -0.105 N 
ATOM      8  H   UNK d   1      -1.987  12.837 -14.212  0.00  0.00     0.208 HD
BRANCH   7   9
ATOM      9  N   UNK d   1      -0.736  11.299 -13.547  0.00  0.00    -0.172 NA
ATOM     10  C   UNK d   1      -1.458  10.260 -13.560  0.00  0.00     0.152 C 
BRANCH  10  11
ATOM     11  C   UNK d   1      -0.890   8.934 -13.427  0.00  0.00     0.003 A 
ATOM     12  C   UNK d   1      -1.582   7.804 -13.801  0.00  0.00     0.025 A 
ATOM     13 Br   UNK d   1      -3.327   7.980 -14.518  0.00  0.00    -0.050 Br
ATOM     14  C   UNK d   1      -1.014   6.552 -13.656  0.00  0.00     0.059 A 
ATOM     15  C   UNK d   1       0.267   6.372 -13.131  0.00  0.00     0.106 A 
ATOM     16  C   UNK d   1       0.975   7.510 -12.750  0.00  0.00     0.105 A 
ATOM     17  O   UNK d   1       1.069   5.271 -12.875  0.00  0.00    -0.323 OA
ATOM     18  C   UNK d   1       0.388   8.748 -12.904  0.00  0.00     0.054 A 
ATOM     19  O   UNK d   1       2.189   7.071 -12.272  0.00  0.00    -0.323 OA
ATOM     20  C   UNK d   1       2.215   5.662 -12.165  0.00  0.00     0.352 C 
ENDBRANCH  10  11
ENDBRANCH   7   9
ENDBRANCH   1   7
BRANCH   3  21
ATOM     21  N   UNK d   1      -1.203  17.170 -12.452  0.00  0.00    -0.209 N 
ATOM     22  C   UNK d   1      -2.149  17.475 -13.499  0.00  0.00     0.167 C 
ATOM     23  C   UNK d   1      -3.070  18.606 -13.091  0.00  0.00     0.188 C 
ATOM     24  O   UNK d   1      -3.388  18.661 -11.774  0.00  0.00    -0.388 OA
ATOM     25  C   UNK d   1      -2.441  18.357 -10.846  0.00  0.00     0.188 C 
ATOM     26  C   UNK d   1      -1.037  18.147 -11.406  0.00  0.00     0.167 C 
ENDBRANCH   3  21
BRANCH   5  27
ATOM     27  O   UNK d   1       2.653  14.514 -11.368  0.00  0.00    -0.323 OA
ATOM     28  C   UNK d   1       3.339  13.293 -11.448  0.00  0.00     0.213 C 
ENDBRANCH   5  27
TORSDOF 5
ENDMDL
