MODEL 1
REMARK VINA RESULT:    -7.973      0.000      0.000
REMARK INTER + INTRA:         -10.791
REMARK INTER:                  -9.838
REMARK INTRA:                  -0.954
REMARK UNBOUND:                -0.954
REMARK  4 active torsions:
REMARK  status: ('A' for Active; 'I' for Inactive)
REMARK    1  A    between atoms: C_7  and  N_8 
REMARK       I    between atoms: N_8  and  C_9 
REMARK    2  A    between atoms: C_9  and  C_11 
REMARK    3  A    between atoms: C_11  and  N_12 
REMARK    4  A    between atoms: N_15  and  C_18 
ROOT
ATOM      1  N   UNK d   1       1.868   6.240 -12.505  0.00  0.00    -0.401 N 
ATOM      2  C   UNK d   1       1.092   6.675 -11.443  0.00  0.00     0.137 C 
ATOM      3  C   UNK d   1      -0.009   7.640 -11.657  0.00  0.00     0.144 C 
ATOM      4  N   UNK d   1       0.189   8.301 -12.915  0.00  0.00    -0.362 N 
ATOM      5  C   UNK d   1       0.328   7.405 -14.035  0.00  0.00     0.144 C 
ATOM      6  C   UNK d   1       1.620   6.659 -13.830  0.00  0.00     0.137 C 
ENDROOT
BRANCH   1   7
ATOM      7  C   UNK d   1       2.411   4.907 -12.393  0.00  0.00     0.220 C 
BRANCH   7   8
ATOM      8  C   UNK d   1       3.822   4.835 -12.931  0.00  0.00     0.239 C 
ATOM      9  N   UNK d   1       4.667   5.938 -12.689  0.00  0.00    -0.324 N 
ATOM     10  H   UNK d   1       4.258   6.756 -12.138  0.00  0.00     0.169 HD
ATOM     11  O   UNK d   1       4.134   3.805 -13.551  0.00  0.00    -0.271 OA
BRANCH   9  12
ATOM     12  C   UNK d   1       6.013   6.049 -13.116  0.00  0.00     0.055 A 
ATOM     13  C   UNK d   1       6.338   7.092 -13.995  0.00  0.00     0.040 A 
ATOM     14 Br   UNK d   1       4.962   8.276 -14.548  0.00  0.00    -0.049 Br
ATOM     15  C   UNK d   1       7.633   7.233 -14.435  0.00  0.00     0.061 A 
ATOM     16  C   UNK d   1       8.627   6.391 -14.045  0.00  0.00     0.103 A 
ATOM     17  C   UNK d   1       8.338   5.357 -13.181  0.00  0.00     0.104 A 
ATOM     18  O   UNK d   1       9.946   6.495 -14.464  0.00  0.00    -0.346 OA
ATOM     19  C   UNK d   1       7.027   5.194 -12.721  0.00  0.00     0.070 A 
ATOM     20  O   UNK d   1       9.357   4.520 -12.802  0.00  0.00    -0.346 OA
ATOM     21  C   UNK d   1      10.528   4.309 -13.551  0.00  0.00     0.202 C 
ATOM     22  C   UNK d   1      10.706   5.295 -14.661  0.00  0.00     0.202 C 
ENDBRANCH   9  12
ENDBRANCH   7   8
ENDBRANCH   1   7
BRANCH   4  23
ATOM     23  C   UNK d   1       0.258   9.688 -13.130  0.00  0.00     0.142 A 
ATOM     24  N   UNK d   1      -0.783  10.436 -13.577  0.00  0.00    -0.224 NA
ATOM     25  C   UNK d   1      -0.687  11.763 -13.773  0.00  0.00     0.237 A 
ATOM     26  N   UNK d   1       0.461  12.419 -13.529  0.00  0.00    -0.222 NA
ATOM     27  C   UNK d   1       1.548  11.757 -13.082  0.00  0.00     0.162 A 
ATOM     28  N   UNK d   1       2.807  12.149 -12.760  0.00  0.00    -0.256 N 
ATOM     29  C   UNK d   1       1.434  10.404 -12.888  0.00  0.00     0.076 A 
ATOM     30  N   UNK d   1       3.446  11.058 -12.379  0.00  0.00    -0.182 NA
ATOM     31  C   UNK d   1       3.323  13.517 -12.833  0.00  0.00     0.182 C 
ATOM     32  C   UNK d   1       2.664   9.978 -12.438  0.00  0.00     0.158 A 
ENDBRANCH   4  23
TORSDOF 4
ENDMDL
