MODEL 1
REMARK VINA RESULT:    -8.026      0.000      0.000
REMARK INTER + INTRA:          -9.729
REMARK INTER:                  -9.433
REMARK INTRA:                  -0.296
REMARK UNBOUND:                -0.296
REMARK  3 active torsions:
REMARK  status: ('A' for Active; 'I' for Inactive)
REMARK    1  A    between atoms: C_11  and  C_13 
REMARK       I    between atoms: C_13  and  N_15 
REMARK    2  A    between atoms: N_18  and  C_21 
REMARK    3  A    between atoms: C_21  and  C_22 
ROOT
ATOM      1  C   UNK d   1       1.744   6.371 -12.654  0.00  0.00     0.277 C 
ATOM      2  O   UNK d   1       0.951   5.962 -11.757  0.00  0.00    -0.265 OA
ATOM      3  N   UNK d   1       1.359   7.450 -13.475  0.00  0.00    -0.343 N 
ATOM      4  C   UNK d   1       0.070   8.058 -13.268  0.00  0.00     0.145 C 
ATOM      5  C   UNK d   1       0.153   9.553 -13.042  0.00  0.00     0.137 C 
ATOM      6  N   UNK d   1       1.268  10.053 -13.756  0.00  0.00    -0.404 N 
ATOM      7  C   UNK d   1       1.522   9.344 -14.947  0.00  0.00     0.137 C 
ATOM      8  C   UNK d   1       2.169   8.010 -14.530  0.00  0.00     0.145 C 
ENDROOT
BRANCH   1   9
ATOM      9  C   UNK d   1       3.037   5.690 -12.791  0.00  0.00     0.147 A 
ATOM     10  C   UNK d   1       3.106   4.320 -12.685  0.00  0.00     0.098 A 
ATOM     11  C   UNK d   1       4.298   3.637 -12.807  0.00  0.00     0.187 A 
ATOM     12  C   UNK d   1       5.457   4.353 -13.043  0.00  0.00     0.048 A 
ATOM     13  O   UNK d   1       4.351   2.367 -12.709  0.00  0.00    -0.287 OA
ATOM     14  C   UNK d   1       5.324   5.725 -13.137  0.00  0.00     0.091 A 
ATOM     15  C   UNK d   1       6.659   3.699 -13.168  0.00  0.00     0.020 A 
ATOM     16  C   UNK d   1       6.490   6.438 -13.373  0.00  0.00     0.057 A 
ATOM     17  O   UNK d   1       4.163   6.320 -13.013  0.00  0.00    -0.304 OA
ATOM     18  C   UNK d   1       7.715   5.805 -13.504  0.00  0.00     0.013 A 
ATOM     19 Br   UNK d   1       9.296   6.822 -13.827  0.00  0.00    -0.051 Br
ATOM     20  C   UNK d   1       7.799   4.429 -13.401  0.00  0.00     0.020 A 
ENDBRANCH   1   9
BRANCH   6  21
ATOM     21  C   UNK d   1       2.374  10.489 -13.002  0.00  0.00     0.181 C 
BRANCH  21  22
ATOM     22  C   UNK d   1       2.385  11.907 -12.655  0.00  0.00     0.108 A 
ATOM     23  N   UNK d   1       1.334  12.738 -12.738  0.00  0.00    -0.106 NA
ATOM     24  O   UNK d   1       1.732  13.897 -12.350  0.00  0.00    -0.106 OA
ATOM     25  N   UNK d   1       2.997  13.879 -12.012  0.00  0.00    -0.108 NA
ATOM     26  C   UNK d   1       3.456  12.622 -12.192  0.00  0.00     0.088 A 
ATOM     27  C   UNK d   1       4.842  12.127 -11.938  0.00  0.00     0.075 C 
ENDBRANCH  21  22
ENDBRANCH   6  21
TORSDOF 3
ENDMDL
