/Users/jonathanwahrer/Desktop/Msc/3_Semester/Drug_Design_Praktikum/waehrer_HTS_screening/HTS_experiment/out/docking_results/vina_output/6q9y/0471_docked.pdbqt
 OpenBabel03222219263D

 27 30  0  0  0  0  0  0  0  0999 V2000
    1.7440    6.3710  -12.6540 C   0  0  0  0  0  0  0  0  0  0  0  0
    0.9510    5.9620  -11.7570 O   0  0  0  0  0  0  0  0  0  0  0  0
    1.3590    7.4500  -13.4750 N   0  0  0  0  0  0  0  0  0  0  0  0
    0.0700    8.0580  -13.2680 C   0  0  0  0  0  2  0  0  0  0  0  0
    0.1530    9.5530  -13.0420 C   0  0  0  0  0  2  0  0  0  0  0  0
    1.2680   10.0530  -13.7560 N   0  0  0  0  0  0  0  0  0  0  0  0
    1.5220    9.3440  -14.9470 C   0  0  0  0  0  2  0  0  0  0  0  0
    2.1690    8.0100  -14.5300 C   0  0  0  0  0  2  0  0  0  0  0  0
    3.0370    5.6900  -12.7910 C   0  0  0  0  0  0  0  0  0  0  0  0
    3.1060    4.3200  -12.6850 C   0  0  0  0  0  3  0  0  0  0  0  0
    4.2980    3.6370  -12.8070 C   0  0  0  0  0  0  0  0  0  0  0  0
    5.4570    4.3530  -13.0430 C   0  0  0  0  0  0  0  0  0  0  0  0
    4.3510    2.3670  -12.7090 O   0  0  0  0  0  0  0  0  0  0  0  0
    5.3240    5.7250  -13.1370 C   0  0  0  0  0  0  0  0  0  0  0  0
    6.6590    3.6990  -13.1680 C   0  0  0  0  0  3  0  0  0  0  0  0
    6.4900    6.4380  -13.3730 C   0  0  0  0  0  3  0  0  0  0  0  0
    4.1630    6.3200  -13.0130 O   0  0  0  0  0  0  0  0  0  0  0  0
    7.7150    5.8050  -13.5040 C   0  0  0  0  0  0  0  0  0  0  0  0
    9.2960    6.8220  -13.8270 Br  0  0  0  0  0  0  0  0  0  0  0  0
    7.7990    4.4290  -13.4010 C   0  0  0  0  0  3  0  0  0  0  0  0
    2.3740   10.4890  -13.0020 C   0  0  0  0  0  2  0  0  0  0  0  0
    2.3850   11.9070  -12.6550 C   0  0  0  0  0  0  0  0  0  0  0  0
    1.3340   12.7380  -12.7380 N   0  0  0  0  0  0  0  0  0  0  0  0
    1.7320   13.8970  -12.3500 O   0  0  0  0  0  0  0  0  0  0  0  0
    2.9970   13.8790  -12.0120 N   0  0  0  0  0  0  0  0  0  0  0  0
    3.4560   12.6220  -12.1920 C   0  0  0  0  0  0  0  0  0  0  0  0
    4.8420   12.1270  -11.9380 C   0  0  0  0  0  1  0  0  0  0  0  0
  1  2  2  0  0  0  0
  3  4  1  0  0  0  0
  3  1  1  0  0  0  0
  4  5  1  0  0  0  0
  6  5  1  0  0  0  0
  6 21  1  0  0  0  0
  7  8  1  0  0  0  0
  7  6  1  0  0  0  0
  8  3  1  0  0  0  0
  9 10  2  0  0  0  0
  9  1  1  0  0  0  0
 11 13  2  0  0  0  0
 11 10  1  0  0  0  0
 12 11  1  0  0  0  0
 14 12  1  0  0  0  0
 14 17  1  0  0  0  0
 15 12  2  0  0  0  0
 16 14  2  0  0  0  0
 17  9  1  0  0  0  0
 18 20  2  0  0  0  0
 18 16  1  0  0  0  0
 19 18  1  0  0  0  0
 20 15  1  0  0  0  0
 21 22  1  0  0  0  0
 22 26  1  0  0  0  0
 23 22  2  0  0  0  0
 23 24  1  0  0  0  0
 24 25  1  0  0  0  0
 26 25  2  0  0  0  0
 26 27  1  0  0  0  0
M  END
>  <Pose>
1

>  <Score>
-8.026

$$$$
