MODEL 1
REMARK VINA RESULT:   -10.188      0.000      0.000
REMARK INTER + INTRA:         -13.017
REMARK INTER:                 -13.165
REMARK INTRA:                   0.149
REMARK UNBOUND:                 0.149
REMARK  5 active torsions:
REMARK  status: ('A' for Active; 'I' for Inactive)
REMARK    1  A    between atoms: N_10  and  C_13 
REMARK    2  A    between atoms: C_13  and  C_14 
REMARK    3  A    between atoms: C_14  and  C_15 
REMARK    4  A    between atoms: C_15  and  C_16 
REMARK       I    between atoms: C_16  and  N_18 
REMARK    5  A    between atoms: N_21  and  C_24 
ROOT
ATOM      1  C   UNK d   1      -0.197  14.387 -12.799  0.00  0.00     0.104 C 
ENDROOT
BRANCH   1   2
ATOM      2  C   UNK d   1      -0.107  15.887 -12.818  0.00  0.00     0.029 C 
BRANCH   2   3
ATOM      3  C   UNK d   1      -1.247  16.451 -13.581  0.00  0.00     0.136 C 
BRANCH   3   4
ATOM      4  N   UNK d   1      -2.029  17.409 -12.833  0.00  0.00    -0.280 N 
ATOM      5  C   UNK d   1      -1.555  18.047 -11.656  0.00  0.00     0.261 A 
ATOM      6  C   UNK d   1      -2.595  18.938 -11.172  0.00  0.00     0.048 A 
ATOM      7  O   UNK d   1      -0.427  17.899 -11.085  0.00  0.00    -0.267 OA
ATOM      8  C   UNK d   1      -3.661  18.831 -12.044  0.00  0.00     0.049 A 
ATOM      9  C   UNK d   1      -2.660  19.785 -10.084  0.00  0.00     0.019 A 
ATOM     10  C   UNK d   1      -4.783  19.596 -11.783  0.00  0.00     0.037 A 
ATOM     11  C   UNK d   1      -3.330  17.868 -13.105  0.00  0.00     0.261 A 
ATOM     12  C   UNK d   1      -4.837  20.439 -10.692  0.00  0.00     0.011 A 
ATOM     13 Br   UNK d   1      -6.417  21.466 -10.396  0.00  0.00    -0.051 Br
ATOM     14  C   UNK d   1      -3.776  20.552  -9.818  0.00  0.00     0.020 A 
ATOM     15  O   UNK d   1      -4.087  17.540 -14.060  0.00  0.00    -0.267 OA
ENDBRANCH   3   4
ENDBRANCH   2   3
ENDBRANCH   1   2
BRANCH   1  16
ATOM     16  C   UNK d   1       1.018  13.709 -12.292  0.00  0.00     0.219 C 
ATOM     17  O   UNK d   1       1.611  14.042 -11.233  0.00  0.00    -0.273 OA
ATOM     18  N   UNK d   1       1.590  12.599 -13.012  0.00  0.00    -0.349 N 
ATOM     19  C   UNK d   1       2.774  11.930 -12.524  0.00  0.00     0.145 C 
ATOM     20  C   UNK d   1       1.015  12.105 -14.249  0.00  0.00     0.145 C 
ATOM     21  C   UNK d   1       2.692  10.442 -12.603  0.00  0.00     0.144 C 
ATOM     22  N   UNK d   1       1.457   9.942 -13.159  0.00  0.00    -0.362 N 
ATOM     23  C   UNK d   1       0.649  10.646 -14.119  0.00  0.00     0.144 C 
BRANCH  22  24
ATOM     24  C   UNK d   1       1.005   8.656 -12.726  0.00  0.00     0.143 A 
ATOM     25  N   UNK d   1       0.137   7.917 -13.469  0.00  0.00    -0.241 NA
ATOM     26  C   UNK d   1      -0.308   6.717 -13.102  0.00  0.00     0.138 A 
ATOM     27  C   UNK d   1       0.129   6.180 -11.900  0.00  0.00     0.135 A 
ATOM     28  N   UNK d   1       0.994   6.889 -11.135  0.00  0.00    -0.268 NA
ATOM     29  C   UNK d   1       1.421   8.097 -11.539  0.00  0.00     0.166 A 
ENDBRANCH  22  24
ENDBRANCH   1  16
TORSDOF 5
ENDMDL
