MODEL 1
REMARK VINA RESULT:   -10.692      0.000      0.000
REMARK INTER + INTRA:         -15.968
REMARK INTER:                 -15.693
REMARK INTRA:                  -0.275
REMARK UNBOUND:                -0.275
REMARK  8 active torsions:
REMARK  status: ('A' for Active; 'I' for Inactive)
REMARK    1  A    between atoms: N_8  and  C_28 
REMARK    2  A    between atoms: C_11  and  N_12 
REMARK       I    between atoms: N_13  and  C_14 
REMARK    3  A    between atoms: C_14  and  C_16 
REMARK    4  A    between atoms: C_16  and  O_17 
REMARK    5  A    between atoms: O_17  and  N_18 
REMARK    6  A    between atoms: C_19  and  C_20 
REMARK    7  A    between atoms: C_23  and  O_26 
REMARK    8  A    between atoms: C_28  and  N_29 
ROOT
ATOM      1 Br   UNK d   1      -5.502   9.497 -13.782  0.00  0.00    -0.051 Br
ATOM      2  C   UNK d   1      -3.593   9.530 -13.814  0.00  0.00     0.011 A 
ATOM      3  C   UNK d   1      -2.871  10.669 -13.427  0.00  0.00     0.035 A 
ATOM      4  C   UNK d   1      -1.510  10.574 -13.482  0.00  0.00     0.028 A 
ATOM      5  C   UNK d   1      -0.827   9.448 -13.890  0.00  0.00     0.052 A 
ATOM      6  C   UNK d   1      -1.538   8.334 -14.274  0.00  0.00     0.032 A 
ATOM      7  C   UNK d   1      -2.939   8.389 -14.226  0.00  0.00     0.021 A 
ATOM      8  N   UNK d   1       0.582   9.635 -13.845  0.00  0.00    -0.295 N 
ATOM      9  C   UNK d   1       0.791  10.994 -13.379  0.00  0.00     0.281 A 
ATOM     10  O   UNK d   1       1.905  11.527 -13.195  0.00  0.00    -0.265 OA
ATOM     11  C   UNK d   1      -0.523  11.562 -13.173  0.00  0.00     0.157 A 
ENDROOT
BRANCH  11  12
ATOM     12  N   UNK d   1      -0.834  12.774 -12.921  0.00  0.00    -0.166 NA
ATOM     13  N   UNK d   1      -0.486  13.886 -12.864  0.00  0.00    -0.244 N 
ATOM     14  C   UNK d   1      -0.047  15.227 -12.786  0.00  0.00     0.264 C 
ATOM     15  H   UNK d   1       0.701  13.553 -12.226  0.00  0.00     0.192 HD
ATOM     16  O   UNK d   1       0.992  15.729 -12.419  0.00  0.00    -0.269 OA
BRANCH  14  17
ATOM     17  C   UNK d   1      -1.180  16.161 -13.270  0.00  0.00     0.308 C 
BRANCH  17  18
ATOM     18  O   UNK d   1      -1.012  17.352 -12.471  0.00  0.00    -0.247 OA
BRANCH  18  19
ATOM     19  N   UNK d   1      -2.220  18.058 -12.206  0.00  0.00    -0.145 NA
ATOM     20  C   UNK d   1      -2.312  18.880 -11.235  0.00  0.00     0.157 C 
BRANCH  20  21
ATOM     21  C   UNK d   1      -3.554  19.572 -10.977  0.00  0.00    -0.016 A 
ATOM     22  C   UNK d   1      -4.651  19.542 -11.771  0.00  0.00     0.015 A 
ATOM     23  C   UNK d   1      -5.743  20.355 -11.373  0.00  0.00     0.037 A 
ATOM     24  C   UNK d   1      -5.809  21.135 -10.296  0.00  0.00     0.068 A 
ATOM     25  C   UNK d   1      -4.691  21.128  -9.534  0.00  0.00     0.037 A 
ATOM     26  C   UNK d   1      -3.560  20.438  -9.750  0.00  0.00     0.015 A 
BRANCH  24  27
ATOM     27  O   UNK d   1      -6.960  21.883 -10.020  0.00  0.00    -0.356 OA
ATOM     28  C   UNK d   1      -7.082  22.601  -8.798  0.00  0.00     0.210 C 
ENDBRANCH  24  27
ENDBRANCH  20  21
ENDBRANCH  18  19
ENDBRANCH  17  18
ENDBRANCH  14  17
ENDBRANCH  11  12
BRANCH   8  29
ATOM     29  C   UNK d   1       1.694   8.740 -14.116  0.00  0.00     0.253 C 
BRANCH  29  30
ATOM     30  N   UNK d   1       2.119   8.081 -12.981  0.00  0.00    -0.392 N 
ATOM     31  C   UNK d   1       1.445   8.508 -11.822  0.00  0.00     0.145 C 
ATOM     32  C   UNK d   1       1.043   7.292 -10.985  0.00  0.00     0.187 C 
ATOM     33  O   UNK d   1       0.362   6.466 -11.921  0.00  0.00    -0.388 OA
ATOM     34  C   UNK d   1       1.305   5.839 -12.747  0.00  0.00     0.187 C 
ATOM     35  C   UNK d   1       2.458   6.722 -13.114  0.00  0.00     0.145 C 
ENDBRANCH  29  30
ENDBRANCH   8  29
TORSDOF 8
ENDMDL
