MODEL 1
REMARK VINA RESULT:    -0.304      0.000      0.000
REMARK INTER + INTRA:          -1.527
REMARK INTER:                  -0.383
REMARK INTRA:                  -1.143
REMARK UNBOUND:                -1.143
REMARK  5 active torsions:
REMARK  status: ('A' for Active; 'I' for Inactive)
REMARK    1  A    between atoms: C_16  and  C_17 
REMARK    2  A    between atoms: C_17  and  C_18 
REMARK    3  A    between atoms: C_18  and  O_20 
REMARK    4  A    between atoms: O_20  and  C_21 
REMARK    5  A    between atoms: C_24  and  N_28 
ROOT
ATOM      1 Br   UNK d   1      -1.569   4.479 -15.471  0.00  0.00    -0.051 Br
ATOM      2  C   UNK d   1      -0.768   5.596 -14.123  0.00  0.00     0.011 A 
ATOM      3  C   UNK d   1       0.073   6.632 -14.406  0.00  0.00     0.030 A 
ATOM      4  C   UNK d   1       0.647   7.385 -13.414  0.00  0.00    -0.002 A 
ATOM      5  C   UNK d   1       0.342   7.058 -12.123  0.00  0.00     0.045 A 
ATOM      6  C   UNK d   1      -0.521   6.001 -11.805  0.00  0.00     0.031 A 
ATOM      7  C   UNK d   1      -1.091   5.250 -12.812  0.00  0.00     0.021 A 
ATOM      8  N   UNK d   1       1.032   7.885 -11.207  0.00  0.00    -0.320 N 
ATOM      9  C   UNK d   1       1.808   8.772 -11.950  0.00  0.00     0.247 A 
ATOM     10  O   UNK d   1       2.565   9.637 -11.436  0.00  0.00    -0.271 OA
ATOM     11  C   UNK d   1       1.587   8.520 -13.421  0.00  0.00     0.145 A 
ATOM     12  C   UNK d   1       1.088   9.782 -13.945  0.00  0.00     0.049 A 
ATOM     13  C   UNK d   1       1.834  10.500 -14.829  0.00  0.00     0.200 A 
ATOM     14  N   UNK d   1       1.117  11.620 -15.123  0.00  0.00    -0.148 NA
ATOM     15  N   UNK d   1      -0.010  11.600 -14.460  0.00  0.00    -0.279 N 
ATOM     16  C   UNK d   1      -0.103  10.484 -13.700  0.00  0.00     0.050 A 
ATOM     17  O   UNK d   1       3.099  10.075 -15.283  0.00  0.00    -0.272 OA
ATOM     18  C   UNK d   1       3.567   8.875 -14.784  0.00  0.00     0.162 A 
ATOM     19  C   UNK d   1       2.898   8.148 -13.934  0.00  0.00     0.100 A 
ATOM     20  C   UNK d   1       3.484   6.892 -13.457  0.00  0.00     0.101 C 
ATOM     21  N   UNK d   1       3.933   5.900 -13.099  0.00  0.00    -0.191 NA
ATOM     22  C   UNK d   1       0.941   7.822  -9.734  0.00  0.00     0.159 C 
ATOM     23  H   UNK d   1      -0.778  12.332 -14.481  0.00  0.00     0.189 HD
ENDROOT
BRANCH  18  24
ATOM     24  N   UNK d   1       4.866   8.437 -15.248  0.00  0.00    -0.379 N 
ATOM     25  H   UNK d   1       5.403   8.923 -15.987  0.00  0.00     0.158 HD
ATOM     26  H   UNK d   1       5.271   7.593 -14.812  0.00  0.00     0.158 HD
ENDBRANCH  18  24
BRANCH  16  27
ATOM     27  C   UNK d   1      -1.260  10.134 -12.837  0.00  0.00     0.170 C 
BRANCH  27  28
ATOM     28  C   UNK d   1      -2.474   9.871 -13.640  0.00  0.00     0.264 C 
ATOM     29  O   UNK d   1      -3.188  10.748 -14.190  0.00  0.00    -0.265 OA
BRANCH  28  30
ATOM     30  O   UNK d   1      -2.854   8.557 -13.798  0.00  0.00    -0.322 OA
BRANCH  30  31
ATOM     31  C   UNK d   1      -3.542   8.016 -14.895  0.00  0.00     0.174 C 
ATOM     32  C   UNK d   1      -4.521   6.970 -14.417  0.00  0.00     0.034 C 
ENDBRANCH  30  31
ENDBRANCH  28  30
ENDBRANCH  27  28
ENDBRANCH  16  27
TORSDOF 5
ENDMDL
