/Users/jonathanwahrer/Desktop/Msc/3_Semester/Drug_Design_Praktikum/waehrer_HTS_screening/HTS_experiment/out/docking_results/vina_output/6q9y/0500_docked.pdbqt
 OpenBabel03222219273D

 32 35  0  0  1  0  0  0  0  0999 V2000
   -1.5690    4.4790  -15.4710 Br  0  0  0  0  0  0  0  0  0  0  0  0
   -0.7680    5.5960  -14.1230 C   0  0  0  0  0  0  0  0  0  0  0  0
    0.0730    6.6320  -14.4060 C   0  0  0  0  0  3  0  0  0  0  0  0
    0.6470    7.3850  -13.4140 C   0  0  0  0  0  0  0  0  0  0  0  0
    0.3420    7.0580  -12.1230 C   0  0  0  0  0  0  0  0  0  0  0  0
   -0.5210    6.0010  -11.8050 C   0  0  0  0  0  3  0  0  0  0  0  0
   -1.0910    5.2500  -12.8120 C   0  0  0  0  0  3  0  0  0  0  0  0
    1.0320    7.8850  -11.2070 N   0  0  0  0  0  0  0  0  0  0  0  0
    1.8080    8.7720  -11.9500 C   0  0  0  0  0  0  0  0  0  0  0  0
    2.5650    9.6370  -11.4360 O   0  0  0  0  0  0  0  0  0  0  0  0
    1.5870    8.5200  -13.4210 C   0  0  2  0  0  0  0  0  0  0  0  0
    1.0880    9.7820  -13.9450 C   0  0  0  0  0  0  0  0  0  0  0  0
    1.8340   10.5000  -14.8290 C   0  0  0  0  0  0  0  0  0  0  0  0
    1.1170   11.6200  -15.1230 N   0  0  0  0  0  0  0  0  0  0  0  0
   -0.0100   11.6000  -14.4600 N   0  0  0  0  0  0  0  0  0  0  0  0
   -0.1030   10.4840  -13.7000 C   0  0  0  0  0  0  0  0  0  0  0  0
    3.0990   10.0750  -15.2830 O   0  0  0  0  0  0  0  0  0  0  0  0
    3.5670    8.8750  -14.7840 C   0  0  0  0  0  0  0  0  0  0  0  0
    2.8980    8.1480  -13.9340 C   0  0  0  0  0  0  0  0  0  0  0  0
    3.4840    6.8920  -13.4570 C   0  0  0  0  0  0  0  0  0  0  0  0
    3.9330    5.9000  -13.0990 N   0  0  0  0  0  0  0  0  0  0  0  0
    0.9410    7.8220   -9.7340 C   0  0  0  0  0  1  0  0  0  0  0  0
   -0.7780   12.3320  -14.4810 H   0  0  0  0  0  0  0  0  0  0  0  0
    4.8660    8.4370  -15.2480 N   0  0  0  0  0  0  0  0  0  0  0  0
    5.4030    8.9230  -15.9870 H   0  0  0  0  0  0  0  0  0  0  0  0
    5.2710    7.5930  -14.8120 H   0  0  0  0  0  0  0  0  0  0  0  0
   -1.2600   10.1340  -12.8370 C   0  0  0  0  0  2  0  0  0  0  0  0
   -2.4740    9.8710  -13.6400 C   0  0  0  0  0  0  0  0  0  0  0  0
   -3.1880   10.7480  -14.1900 O   0  0  0  0  0  0  0  0  0  0  0  0
   -2.8540    8.5570  -13.7980 O   0  0  0  0  0  0  0  0  0  0  0  0
   -3.5420    8.0160  -14.8950 C   0  0  0  0  0  2  0  0  0  0  0  0
   -4.5210    6.9700  -14.4170 C   0  0  0  0  0  1  0  0  0  0  0  0
  1  2  1  0  0  0  0
  2  7  1  0  0  0  0
  3  2  2  0  0  0  0
  3  4  1  0  0  0  0
  4  5  2  0  0  0  0
  5  6  1  0  0  0  0
  5  8  1  0  0  0  0
  7  6  2  0  0  0  0
  8 22  1  0  0  0  0
  9 10  2  0  0  0  0
  9  8  1  0  0  0  0
 11 12  1  6  0  0  0
 11  4  1  0  0  0  0
 11  9  1  0  0  0  0
 12 16  2  0  0  0  0
 13 12  1  0  0  0  0
 14 13  2  0  0  0  0
 14 15  1  0  0  0  0
 15 16  1  0  0  0  0
 16 27  1  0  0  0  0
 17 13  1  0  0  0  0
 17 18  1  0  0  0  0
 18 19  2  0  0  0  0
 19 20  1  0  0  0  0
 19 11  1  0  0  0  0
 20 21  3  0  0  0  0
 23 15  1  0  0  0  0
 24 26  1  0  0  0  0
 24 18  1  0  0  0  0
 25 24  1  0  0  0  0
 28 27  1  0  0  0  0
 29 28  2  0  0  0  0
 30 28  1  0  0  0  0
 31 32  1  0  0  0  0
 31 30  1  0  0  0  0
M  END
>  <Pose>
1

>  <Score>
-0.304

$$$$
