/Users/jonathanwahrer/Desktop/Msc/3_Semester/Drug_Design_Praktikum/waehrer_HTS_screening/HTS_experiment/out/docking_results/vina_output/6q9y/0502_docked.pdbqt
 OpenBabel03222219273D

 27 30  0  0  1  0  0  0  0  0999 V2000
    3.9800   13.1370  -11.0410 Br  0  0  0  0  0  0  0  0  0  0  0  0
    3.3970   11.9400  -12.4340 C   0  0  0  0  0  0  0  0  0  0  0  0
    2.3320   11.0990  -12.2440 C   0  0  0  0  0  3  0  0  0  0  0  0
    1.9330   10.2520  -13.2560 C   0  0  0  0  0  0  0  0  0  0  0  0
    2.6340   10.2900  -14.4310 C   0  0  0  0  0  0  0  0  0  0  0  0
    3.7290   11.1560  -14.6250 C   0  0  0  0  0  3  0  0  0  0  0  0
    4.1120   11.9910  -13.6090 C   0  0  0  0  0  3  0  0  0  0  0  0
    2.1050    9.3630  -15.3740 N   0  0  0  0  0  0  0  0  0  0  0  0
    1.0230    8.7080  -14.7730 C   0  0  0  0  0  0  0  0  0  0  0  0
    0.3120    7.8120  -15.3250 O   0  0  0  0  0  0  0  0  0  0  0  0
    0.8520    9.2430  -13.3760 C   0  0  2  0  0  0  0  0  0  0  0  0
   -0.4840    9.8270  -13.3330 C   0  0  0  0  0  0  0  0  0  0  0  0
   -1.4470    9.3270  -12.5130 C   0  0  0  0  0  0  0  0  0  0  0  0
   -2.5630   10.0900  -12.7120 N   0  0  0  0  0  0  0  0  0  0  0  0
   -2.3220   11.0230  -13.6090 N   0  0  0  0  0  0  0  0  0  0  0  0
   -1.0610   10.9000  -14.0180 C   0  0  0  0  0  0  0  0  0  0  0  0
   -0.3090   11.7150  -15.0230 C   0  0  0  0  0  1  0  0  0  0  0  0
   -1.2290    8.2360  -11.6660 O   0  0  0  0  0  0  0  0  0  0  0  0
    0.0460    7.6810  -11.7100 C   0  0  0  0  0  0  0  0  0  0  0  0
    1.0120    8.1160  -12.4760 C   0  0  0  0  0  0  0  0  0  0  0  0
    2.3000    7.4060  -12.3910 C   0  0  0  0  0  0  0  0  0  0  0  0
    3.3290    6.8570  -12.3400 N   0  0  0  0  0  0  0  0  0  0  0  0
    2.5980    9.1250  -16.7390 C   0  0  0  0  0  1  0  0  0  0  0  0
   -2.9750   11.7620  -13.9770 H   0  0  0  0  0  0  0  0  0  0  0  0
    0.3330    6.5420  -10.8500 N   0  0  0  0  0  0  0  0  0  0  0  0
    1.3200    6.2170  -10.8740 H   0  0  0  0  0  0  0  0  0  0  0  0
   -0.3670    6.0890  -10.2660 H   0  0  0  0  0  0  0  0  0  0  0  0
  2  3  1  0  0  0  0
  2  1  1  0  0  0  0
  4  3  2  0  0  0  0
  5  4  1  0  0  0  0
  6  5  2  0  0  0  0
  6  7  1  0  0  0  0
  7  2  2  0  0  0  0
  8  9  1  0  0  0  0
  8  5  1  0  0  0  0
 10  9  2  0  0  0  0
 11  9  1  6  0  0  0
 11 12  1  0  0  0  0
 11  4  1  0  0  0  0
 11 20  1  0  0  0  0
 12 13  1  0  0  0  0
 13 18  1  0  0  0  0
 14 13  2  0  0  0  0
 15 14  1  0  0  0  0
 16 15  1  0  0  0  0
 16 12  2  0  0  0  0
 17 16  1  0  0  0  0
 19 18  1  0  0  0  0
 19 25  1  0  0  0  0
 20 21  1  0  0  0  0
 20 19  2  0  0  0  0
 21 22  3  0  0  0  0
 23  8  1  0  0  0  0
 24 15  1  0  0  0  0
 25 27  1  0  0  0  0
 26 25  1  0  0  0  0
M  END
>  <Pose>
1

>  <Score>
-0.103

$$$$
