MODEL 1
REMARK VINA RESULT:    -0.103      0.000      0.000
REMARK INTER + INTRA:          -0.106
REMARK INTER:                  -0.106
REMARK INTRA:                   0.000
REMARK UNBOUND:                 0.000
REMARK  1 active torsions:
REMARK  status: ('A' for Active; 'I' for Inactive)
REMARK    1  A    between atoms: C_19  and  N_23 
ROOT
ATOM      1 Br   UNK d   1       3.980  13.137 -11.041  0.00  0.00    -0.051 Br
ATOM      2  C   UNK d   1       3.397  11.940 -12.434  0.00  0.00     0.011 A 
ATOM      3  C   UNK d   1       2.332  11.099 -12.244  0.00  0.00     0.030 A 
ATOM      4  C   UNK d   1       1.933  10.252 -13.256  0.00  0.00    -0.002 A 
ATOM      5  C   UNK d   1       2.634  10.290 -14.431  0.00  0.00     0.045 A 
ATOM      6  C   UNK d   1       3.729  11.156 -14.625  0.00  0.00     0.031 A 
ATOM      7  C   UNK d   1       4.112  11.991 -13.609  0.00  0.00     0.021 A 
ATOM      8  N   UNK d   1       2.105   9.363 -15.374  0.00  0.00    -0.320 N 
ATOM      9  C   UNK d   1       1.023   8.708 -14.773  0.00  0.00     0.247 A 
ATOM     10  O   UNK d   1       0.312   7.812 -15.325  0.00  0.00    -0.271 OA
ATOM     11  C   UNK d   1       0.852   9.243 -13.376  0.00  0.00     0.145 A 
ATOM     12  C   UNK d   1      -0.484   9.827 -13.333  0.00  0.00     0.049 A 
ATOM     13  C   UNK d   1      -1.447   9.327 -12.513  0.00  0.00     0.200 A 
ATOM     14  N   UNK d   1      -2.563  10.090 -12.712  0.00  0.00    -0.148 NA
ATOM     15  N   UNK d   1      -2.322  11.023 -13.609  0.00  0.00    -0.280 N 
ATOM     16  C   UNK d   1      -1.061  10.900 -14.018  0.00  0.00     0.036 A 
ATOM     17  C   UNK d   1      -0.309  11.715 -15.023  0.00  0.00     0.070 C 
ATOM     18  O   UNK d   1      -1.229   8.236 -11.666  0.00  0.00    -0.272 OA
ATOM     19  C   UNK d   1       0.046   7.681 -11.710  0.00  0.00     0.162 A 
ATOM     20  C   UNK d   1       1.012   8.116 -12.476  0.00  0.00     0.100 A 
ATOM     21  C   UNK d   1       2.300   7.406 -12.391  0.00  0.00     0.101 C 
ATOM     22  N   UNK d   1       3.329   6.857 -12.340  0.00  0.00    -0.191 NA
ATOM     23  C   UNK d   1       2.598   9.125 -16.739  0.00  0.00     0.159 C 
ATOM     24  H   UNK d   1      -2.975  11.762 -13.977  0.00  0.00     0.189 HD
ENDROOT
BRANCH  19  25
ATOM     25  N   UNK d   1       0.333   6.542 -10.850  0.00  0.00    -0.379 N 
ATOM     26  H   UNK d   1       1.320   6.217 -10.874  0.00  0.00     0.158 HD
ATOM     27  H   UNK d   1      -0.367   6.089 -10.266  0.00  0.00     0.158 HD
ENDBRANCH  19  25
TORSDOF 1
ENDMDL
