/Users/jonathanwahrer/Desktop/Msc/3_Semester/Drug_Design_Praktikum/waehrer_HTS_screening/HTS_experiment/out/docking_results/vina_output/6q9y/0504_docked.pdbqt
 OpenBabel03222219273D

 29 32  0  0  1  0  0  0  0  0999 V2000
   -3.5230   10.6250  -14.0190 Br  0  0  0  0  0  0  0  0  0  0  0  0
   -1.7370   10.9990  -13.4910 C   0  0  0  0  0  0  0  0  0  0  0  0
   -0.6970   10.1220  -13.6900 C   0  0  0  0  0  3  0  0  0  0  0  0
    0.5870   10.4710  -13.2730 C   0  0  0  0  0  0  0  0  0  0  0  0
    0.8770   11.6490  -12.6720 C   0  0  0  0  0  0  0  0  0  0  0  0
   -0.1800   12.5410  -12.4700 C   0  0  0  0  0  3  0  0  0  0  0  0
   -1.4550   12.2130  -12.8750 C   0  0  0  0  0  3  0  0  0  0  0  0
    2.2490   11.7610  -12.3480 N   0  0  0  0  0  0  0  0  0  0  0  0
    2.8810   10.5750  -12.7690 C   0  0  0  0  0  0  0  0  0  0  0  0
    4.1080   10.3030  -12.6510 O   0  0  0  0  0  0  0  0  0  0  0  0
    1.8570    9.6850  -13.3840 C   0  0  1  0  0  0  0  0  0  0  0  0
    1.7340    8.4250  -12.6090 C   0  0  0  0  0  0  0  0  0  0  0  0
    1.8250    7.2650  -13.1530 C   0  0  0  0  0  0  0  0  0  0  0  0
    2.0580    7.0810  -14.5770 N   0  0  0  0  0  0  0  0  0  0  0  0
    2.1770    8.2720  -15.3270 C   0  0  0  0  0  0  0  0  0  0  0  0
    2.0880    9.4600  -14.7940 C   0  0  0  0  0  0  0  0  0  0  0  0
    2.2320   10.5980  -15.6940 C   0  0  0  0  0  0  0  0  0  0  0  0
    2.3440   11.5160  -16.3910 N   0  0  0  0  0  0  0  0  0  0  0  0
    1.6560    6.2230  -12.0940 C   0  0  0  0  0  0  0  0  0  0  0  0
    1.4630    6.9210  -10.9200 O   0  0  0  0  0  0  0  0  0  0  0  0
    1.4950    8.2650  -11.1370 C   0  0  0  0  0  0  0  0  0  0  0  0
    1.3610    9.2280  -10.3230 O   0  0  0  0  0  0  0  0  0  0  0  0
    2.8680    5.3120  -12.0650 C   0  0  0  0  0  1  0  0  0  0  0  0
    0.4140    5.3900  -12.3560 C   0  0  0  0  0  1  0  0  0  0  0  0
    2.9300   12.8870  -11.6920 C   0  0  0  0  0  1  0  0  0  0  0  0
    2.1230    6.1240  -14.9630 H   0  0  0  0  0  0  0  0  0  0  0  0
    2.4100    8.1500  -16.7570 N   0  0  0  0  0  0  0  0  0  0  0  0
    3.3300    7.7640  -17.0510 H   0  0  0  0  0  0  0  0  0  0  0  0
    1.6990    8.4330  -17.4450 H   0  0  0  0  0  0  0  0  0  0  0  0
  1  2  1  0  0  0  0
  2  7  1  0  0  0  0
  3  2  2  0  0  0  0
  3  4  1  0  0  0  0
  4  5  2  0  0  0  0
  5  6  1  0  0  0  0
  5  8  1  0  0  0  0
  7  6  2  0  0  0  0
  8 25  1  0  0  0  0
  9 10  2  0  0  0  0
  9  8  1  0  0  0  0
 11 16  1  6  0  0  0
 11  4  1  0  0  0  0
 11  9  1  0  0  0  0
 11 12  1  0  0  0  0
 12 21  1  0  0  0  0
 13 12  2  0  0  0  0
 13 19  1  0  0  0  0
 14 13  1  0  0  0  0
 15 16  2  0  0  0  0
 15 14  1  0  0  0  0
 17 16  1  0  0  0  0
 18 17  3  0  0  0  0
 19 23  1  0  0  0  0
 19 20  1  0  0  0  0
 21 20  1  0  0  0  0
 21 22  2  0  0  0  0
 24 19  1  0  0  0  0
 26 14  1  0  0  0  0
 27 15  1  0  0  0  0
 28 27  1  0  0  0  0
 29 27  1  0  0  0  0
M  END
>  <Pose>
1

>  <Score>
3.157

$$$$
