MODEL 1
REMARK VINA RESULT:     3.157      0.000      0.000
REMARK INTER + INTRA:           3.249
REMARK INTER:                   3.249
REMARK INTRA:                   0.000
REMARK UNBOUND:                 0.000
REMARK  1 active torsions:
REMARK  status: ('A' for Active; 'I' for Inactive)
REMARK    1  A    between atoms: C_15  and  N_19 
ROOT
ATOM      1 Br   UNK d   1      -3.523  10.625 -14.019  0.00  0.00    -0.051 Br
ATOM      2  C   UNK d   1      -1.737  10.999 -13.491  0.00  0.00     0.011 A 
ATOM      3  C   UNK d   1      -0.697  10.122 -13.690  0.00  0.00     0.030 A 
ATOM      4  C   UNK d   1       0.587  10.471 -13.273  0.00  0.00    -0.002 A 
ATOM      5  C   UNK d   1       0.877  11.649 -12.672  0.00  0.00     0.045 A 
ATOM      6  C   UNK d   1      -0.180  12.541 -12.470  0.00  0.00     0.031 A 
ATOM      7  C   UNK d   1      -1.455  12.213 -12.875  0.00  0.00     0.021 A 
ATOM      8  N   UNK d   1       2.249  11.761 -12.348  0.00  0.00    -0.320 N 
ATOM      9  C   UNK d   1       2.881  10.575 -12.769  0.00  0.00     0.247 A 
ATOM     10  O   UNK d   1       4.108  10.303 -12.651  0.00  0.00    -0.271 OA
ATOM     11  C   UNK d   1       1.857   9.685 -13.384  0.00  0.00     0.146 A 
ATOM     12  C   UNK d   1       1.734   8.425 -12.609  0.00  0.00     0.071 A 
ATOM     13  C   UNK d   1       1.825   7.265 -13.153  0.00  0.00     0.060 A 
ATOM     14  N   UNK d   1       2.058   7.081 -14.577  0.00  0.00    -0.342 N 
ATOM     15  C   UNK d   1       2.177   8.272 -15.327  0.00  0.00     0.118 A 
ATOM     16  C   UNK d   1       2.088   9.460 -14.794  0.00  0.00     0.093 A 
ATOM     17  C   UNK d   1       2.232  10.598 -15.694  0.00  0.00     0.101 C 
ATOM     18  N   UNK d   1       2.344  11.516 -16.391  0.00  0.00    -0.191 NA
ATOM     19  C   UNK d   1       1.656   6.223 -12.094  0.00  0.00     0.106 A 
ATOM     20  O   UNK d   1       1.463   6.921 -10.920  0.00  0.00    -0.301 OA
ATOM     21  C   UNK d   1       1.495   8.265 -11.137  0.00  0.00     0.294 A 
ATOM     22  O   UNK d   1       1.361   9.228 -10.323  0.00  0.00    -0.259 OA
ATOM     23  C   UNK d   1       2.868   5.312 -12.065  0.00  0.00     0.053 C 
ATOM     24  C   UNK d   1       0.414   5.390 -12.356  0.00  0.00     0.053 C 
ATOM     25  C   UNK d   1       2.930  12.887 -11.692  0.00  0.00     0.159 C 
ATOM     26  H   UNK d   1       2.123   6.124 -14.963  0.00  0.00     0.167 HD
ENDROOT
BRANCH  15  27
ATOM     27  N   UNK d   1       2.410   8.150 -16.757  0.00  0.00    -0.384 N 
ATOM     28  H   UNK d   1       3.330   7.764 -17.051  0.00  0.00     0.157 HD
ATOM     29  H   UNK d   1       1.699   8.433 -17.445  0.00  0.00     0.157 HD
ENDBRANCH  15  27
TORSDOF 1
ENDMDL
