MODEL 1
REMARK VINA RESULT:     2.896      0.000      0.000
REMARK INTER + INTRA:           3.144
REMARK INTER:                   3.234
REMARK INTRA:                  -0.090
REMARK UNBOUND:                -0.090
REMARK  3 active torsions:
REMARK  status: ('A' for Active; 'I' for Inactive)
REMARK    1  A    between atoms: C_15  and  N_19 
REMARK    2  A    between atoms: C_23  and  C_25 
REMARK    3  A    between atoms: C_25  and  O_26 
ROOT
ATOM      1 Br   UNK d   1       3.031   9.127 -17.234  0.00  0.00    -0.051 Br
ATOM      2  C   UNK d   1       2.541   8.912 -15.408  0.00  0.00     0.011 A 
ATOM      3  C   UNK d   1       1.361   8.279 -15.084  0.00  0.00     0.030 A 
ATOM      4  C   UNK d   1       0.979   8.109 -13.750  0.00  0.00     0.000 A 
ATOM      5  C   UNK d   1       1.810   8.589 -12.790  0.00  0.00     0.045 A 
ATOM      6  C   UNK d   1       3.018   9.237 -13.122  0.00  0.00     0.031 A 
ATOM      7  C   UNK d   1       3.387   9.400 -14.437  0.00  0.00     0.021 A 
ATOM      8  N   UNK d   1       1.245   8.318 -11.514  0.00  0.00    -0.320 N 
ATOM      9  C   UNK d   1       0.019   7.646 -11.670  0.00  0.00     0.249 A 
ATOM     10  O   UNK d   1      -0.759   7.248 -10.767  0.00  0.00    -0.271 OA
ATOM     11  C   UNK d   1      -0.223   7.473 -13.133  0.00  0.00     0.163 A 
ATOM     12  C   UNK d   1      -1.455   8.155 -13.546  0.00  0.00     0.119 A 
ATOM     13  C   UNK d   1      -2.448   7.500 -14.198  0.00  0.00     0.159 A 
ATOM     14  O   UNK d   1      -2.318   6.139 -14.494  0.00  0.00    -0.286 OA
ATOM     15  C   UNK d   1      -1.179   5.451 -14.126  0.00  0.00     0.161 A 
ATOM     16  C   UNK d   1      -0.214   6.054 -13.501  0.00  0.00     0.102 A 
ATOM     17  C   UNK d   1       0.961   5.243 -13.148  0.00  0.00     0.101 C 
ATOM     18  N   UNK d   1       1.875   4.618 -12.882  0.00  0.00    -0.191 NA
ATOM     19  C   UNK d   1      -3.603   8.191 -14.573  0.00  0.00     0.210 A 
ATOM     20  O   UNK d   1      -4.510   7.576 -15.172  0.00  0.00    -0.285 OA
ATOM     21  C   UNK d   1      -3.716   9.529 -14.274  0.00  0.00     0.092 A 
ATOM     22  C   UNK d   1      -2.675  10.142 -13.611  0.00  0.00     0.080 A 
ATOM     23  O   UNK d   1      -1.633   9.453 -13.290  0.00  0.00    -0.312 OA
ATOM     24  C   UNK d   1       1.894   8.708 -10.247  0.00  0.00     0.159 C 
ENDROOT
BRANCH  15  25
ATOM     25  N   UNK d   1      -1.117   4.055 -14.464  0.00  0.00    -0.379 N 
ATOM     26  H   UNK d   1      -0.981   3.377 -13.716  0.00  0.00     0.158 HD
ATOM     27  H   UNK d   1      -1.210   3.789 -15.443  0.00  0.00     0.158 HD
ENDBRANCH  15  25
BRANCH  22  28
ATOM     28  C   UNK d   1      -2.777  11.614 -13.271  0.00  0.00     0.229 C 
BRANCH  28  29
ATOM     29  O   UNK d   1      -1.494  12.126 -13.076  0.00  0.00    -0.394 OA
ATOM     30  H   UNK d   1      -1.045  12.232 -13.968  0.00  0.00     0.209 HD
ENDBRANCH  28  29
ENDBRANCH  22  28
TORSDOF 3
ENDMDL
