/Users/jonathanwahrer/Desktop/Msc/3_Semester/Drug_Design_Praktikum/waehrer_HTS_screening/HTS_experiment/out/docking_results/vina_output/6q9y/0505_docked.pdbqt
 OpenBabel03222219283D

 30 33  0  0  1  0  0  0  0  0999 V2000
    3.0310    9.1270  -17.2340 Br  0  0  0  0  0  0  0  0  0  0  0  0
    2.5410    8.9120  -15.4080 C   0  0  0  0  0  0  0  0  0  0  0  0
    1.3610    8.2790  -15.0840 C   0  0  0  0  0  3  0  0  0  0  0  0
    0.9790    8.1090  -13.7500 C   0  0  0  0  0  0  0  0  0  0  0  0
    1.8100    8.5890  -12.7900 C   0  0  0  0  0  0  0  0  0  0  0  0
    3.0180    9.2370  -13.1220 C   0  0  0  0  0  3  0  0  0  0  0  0
    3.3870    9.4000  -14.4370 C   0  0  0  0  0  3  0  0  0  0  0  0
    1.2450    8.3180  -11.5140 N   0  0  0  0  0  0  0  0  0  0  0  0
    0.0190    7.6460  -11.6700 C   0  0  0  0  0  0  0  0  0  0  0  0
   -0.7590    7.2480  -10.7670 O   0  0  0  0  0  0  0  0  0  0  0  0
   -0.2230    7.4730  -13.1330 C   0  0  1  0  0  0  0  0  0  0  0  0
   -1.4550    8.1550  -13.5460 C   0  0  0  0  0  0  0  0  0  0  0  0
   -2.4480    7.5000  -14.1980 C   0  0  0  0  0  0  0  0  0  0  0  0
   -2.3180    6.1390  -14.4940 O   0  0  0  0  0  0  0  0  0  0  0  0
   -1.1790    5.4510  -14.1260 C   0  0  0  0  0  0  0  0  0  0  0  0
   -0.2140    6.0540  -13.5010 C   0  0  0  0  0  0  0  0  0  0  0  0
    0.9610    5.2430  -13.1480 C   0  0  0  0  0  0  0  0  0  0  0  0
    1.8750    4.6180  -12.8820 N   0  0  0  0  0  0  0  0  0  0  0  0
   -3.6030    8.1910  -14.5730 C   0  0  0  0  0  0  0  0  0  0  0  0
   -4.5100    7.5760  -15.1720 O   0  0  0  0  0  0  0  0  0  0  0  0
   -3.7160    9.5290  -14.2740 C   0  0  0  0  0  3  0  0  0  0  0  0
   -2.6750   10.1420  -13.6110 C   0  0  0  0  0  0  0  0  0  0  0  0
   -1.6330    9.4530  -13.2900 O   0  0  0  0  0  0  0  0  0  0  0  0
    1.8940    8.7080  -10.2470 C   0  0  0  0  0  1  0  0  0  0  0  0
   -1.1170    4.0550  -14.4640 N   0  0  0  0  0  0  0  0  0  0  0  0
   -0.9810    3.3770  -13.7160 H   0  0  0  0  0  0  0  0  0  0  0  0
   -1.2100    3.7890  -15.4430 H   0  0  0  0  0  0  0  0  0  0  0  0
   -2.7770   11.6140  -13.2710 C   0  0  0  0  0  2  0  0  0  0  0  0
   -1.4940   12.1260  -13.0760 O   0  0  0  0  0  0  0  0  0  0  0  0
   -1.0450   12.2320  -13.9680 H   0  0  0  0  0  0  0  0  0  0  0  0
  1  2  1  0  0  0  0
  2  3  2  0  0  0  0
  2  7  1  0  0  0  0
  3  4  1  0  0  0  0
  4  5  2  0  0  0  0
  5  8  1  0  0  0  0
  6  5  1  0  0  0  0
  7  6  2  0  0  0  0
  8 24  1  0  0  0  0
  9  8  1  0  0  0  0
  9 10  2  0  0  0  0
 11  4  1  6  0  0  0
 11  9  1  0  0  0  0
 12 23  1  0  0  0  0
 12 11  1  0  0  0  0
 13 12  2  0  0  0  0
 14 13  1  0  0  0  0
 14 15  1  0  0  0  0
 15 16  2  0  0  0  0
 16 17  1  0  0  0  0
 16 11  1  0  0  0  0
 17 18  3  0  0  0  0
 19 21  1  0  0  0  0
 19 13  1  0  0  0  0
 20 19  2  0  0  0  0
 21 22  2  0  0  0  0
 22 23  1  0  0  0  0
 22 28  1  0  0  0  0
 25 15  1  0  0  0  0
 25 26  1  0  0  0  0
 27 25  1  0  0  0  0
 28 29  1  0  0  0  0
 30 29  1  0  0  0  0
M  END
>  <Pose>
1

>  <Score>
2.896

$$$$
