MODEL 1
REMARK VINA RESULT:    -9.563      0.000      0.000
REMARK INTER + INTRA:         -11.957
REMARK INTER:                 -11.800
REMARK INTRA:                  -0.158
REMARK UNBOUND:                -0.158
REMARK  4 active torsions:
REMARK  status: ('A' for Active; 'I' for Inactive)
REMARK    1  A    between atoms: C_12  and  N_13 
REMARK    2  A    between atoms: N_13  and  N_14 
REMARK       I    between atoms: N_14  and  C_15 
REMARK    3  A    between atoms: C_15  and  C_17 
REMARK    4  A    between atoms: C_17  and  N_18 
ROOT
ATOM      1  N   UNK d   1      -0.769  14.597 -12.494  0.00  0.00    -0.269 N 
ATOM      2  C   UNK d   1      -0.641  15.870 -13.114  0.00  0.00     0.254 C 
ATOM      3  O   UNK d   1      -0.395  15.885 -14.330  0.00  0.00    -0.270 OA
ATOM      4  H   UNK d   1      -0.962  14.586 -11.469  0.00  0.00     0.190 HD
ENDROOT
BRANCH   1   5
ATOM      5  N   UNK d   1      -0.648  13.398 -13.172  0.00  0.00    -0.308 N 
ATOM      6  H   UNK d   1      -1.467  13.024 -13.724  0.00  0.00     0.186 HD
BRANCH   5   7
ATOM      7  C   UNK d   1       0.514  12.614 -13.188  0.00  0.00     0.125 C 
ATOM      8  C   UNK d   1       0.546  11.307 -13.336  0.00  0.00     0.061 A 
ATOM      9  C   UNK d   1      -0.565  10.367 -13.516  0.00  0.00     0.009 A 
ATOM     10  C   UNK d   1       1.756  10.469 -13.354  0.00  0.00     0.258 A 
ATOM     11  C   UNK d   1      -1.930  10.539 -13.588  0.00  0.00     0.034 A 
ATOM     12  C   UNK d   1      -0.094   9.080 -13.634  0.00  0.00     0.046 A 
ATOM     13  C   UNK d   1      -2.823   9.483 -13.772  0.00  0.00     0.011 A 
ATOM     14 Br   UNK d   1      -4.707   9.809 -13.865  0.00  0.00    -0.051 Br
ATOM     15  C   UNK d   1      -2.314   8.215 -13.884  0.00  0.00     0.021 A 
ATOM     16  C   UNK d   1      -0.962   7.995 -13.819  0.00  0.00     0.032 A 
ATOM     17  N   UNK d   1       1.323   9.133 -13.536  0.00  0.00    -0.322 N 
ATOM     18  H   UNK d   1       1.968   8.310 -13.588  0.00  0.00     0.169 HD
ATOM     19  O   UNK d   1       2.926  10.903 -13.226  0.00  0.00    -0.267 OA
ENDBRANCH   5   7
ENDBRANCH   1   5
BRANCH   2  20
ATOM     20  C   UNK d   1      -0.790  17.147 -12.381  0.00  0.00     0.236 C 
BRANCH  20  21
ATOM     21  N   UNK d   1      -2.038  17.724 -12.568  0.00  0.00    -0.316 N 
ATOM     22  C   UNK d   1      -2.756  18.561 -11.821  0.00  0.00     0.149 A 
ATOM     23  C   UNK d   1      -3.977  18.783 -12.444  0.00  0.00     0.170 A 
ATOM     24  N   UNK d   1      -2.440  19.158 -10.654  0.00  0.00    -0.287 N 
ATOM     25  N   UNK d   1      -3.969  18.060 -13.579  0.00  0.00    -0.234 NA
ATOM     26  C   UNK d   1      -4.902  19.630 -11.867  0.00  0.00     0.283 A 
ATOM     27  C   UNK d   1      -2.818  17.431 -13.656  0.00  0.00     0.212 A 
ATOM     28  O   UNK d   1      -6.001  19.810 -12.453  0.00  0.00    -0.265 OA
ATOM     29  N   UNK d   1      -4.574  20.205 -10.720  0.00  0.00    -0.269 N 
ATOM     30  C   UNK d   1      -3.387  19.984 -10.127  0.00  0.00     0.332 A 
ATOM     31  C   UNK d   1      -5.525  21.115 -10.060  0.00  0.00     0.164 C 
ATOM     32  O   UNK d   1      -3.116  20.550  -9.041  0.00  0.00    -0.246 OA
ATOM     33  C   UNK d   1      -1.168  18.972 -10.015  0.00  0.00     0.163 C 
ENDBRANCH  20  21
ENDBRANCH   2  20
TORSDOF 4
ENDMDL
