MODEL 1
REMARK VINA RESULT:   -11.267      0.000      0.000
REMARK INTER + INTRA:         -14.397
REMARK INTER:                 -13.901
REMARK INTRA:                  -0.496
REMARK UNBOUND:                -0.496
REMARK  4 active torsions:
REMARK  status: ('A' for Active; 'I' for Inactive)
REMARK    1  A    between atoms: N_12  and  N_13 
REMARK       I    between atoms: N_13  and  C_14 
REMARK    2  A    between atoms: C_14  and  C_16 
REMARK    3  A    between atoms: C_16  and  N_17 
REMARK       I    between atoms: N_17  and  C_18 
REMARK    4  A    between atoms: C_18  and  C_20 
ROOT
ATOM      1  N   UNK d   1      -1.909   8.917 -13.393  0.00  0.00    -0.245 N 
ATOM      2  C   UNK d   1      -3.085   9.439 -13.963  0.00  0.00     0.255 C 
ATOM      3  O   UNK d   1      -3.054  10.635 -14.424  0.00  0.00    -0.270 OA
ATOM      4  H   UNK d   1      -1.922   7.938 -12.998  0.00  0.00     0.192 HD
ENDROOT
BRANCH   2   5
ATOM      5  C   UNK d   1      -4.379   8.766 -14.111  0.00  0.00     0.227 C 
BRANCH   5   6
ATOM      6  N   UNK d   1      -5.415   9.516 -14.763  0.00  0.00    -0.348 N 
ATOM      7  C   UNK d   1      -6.476  10.119 -14.030  0.00  0.00     0.252 C 
ATOM      8  O   UNK d   1      -6.443   9.941 -12.750  0.00  0.00    -0.268 OA
ATOM      9  H   UNK d   1      -5.445   9.635 -15.787  0.00  0.00     0.163 HD
BRANCH   7  10
ATOM     10  C   UNK d   1      -7.555  10.886 -14.571  0.00  0.00     0.034 A 
ATOM     11  C   UNK d   1      -8.147  10.680 -15.809  0.00  0.00     0.056 A 
ATOM     12  C   UNK d   1      -9.173  11.439 -16.259  0.00  0.00     0.106 A 
ATOM     13  C   UNK d   1      -9.686  12.469 -15.497  0.00  0.00     0.105 A 
ATOM     14  O   UNK d   1      -9.973  11.455 -17.462  0.00  0.00    -0.323 OA
ATOM     15  C   UNK d   1      -9.134  12.710 -14.278  0.00  0.00     0.041 A 
ATOM     16  O   UNK d   1     -10.738  13.068 -16.209  0.00  0.00    -0.323 OA
ATOM     17  C   UNK d   1      -8.072  11.932 -13.793  0.00  0.00     0.020 A 
ATOM     18  C   UNK d   1     -11.267  11.951 -16.963  0.00  0.00     0.352 C 
ENDBRANCH   7  10
ENDBRANCH   5   6
ENDBRANCH   2   5
BRANCH   1  19
ATOM     19  N   UNK d   1      -0.783   9.658 -13.351  0.00  0.00    -0.166 NA
ATOM     20  C   UNK d   1       0.378   9.623 -13.617  0.00  0.00     0.157 A 
ATOM     21  C   UNK d   1       1.452  10.613 -13.465  0.00  0.00     0.028 A 
ATOM     22  C   UNK d   1       0.978   8.410 -14.249  0.00  0.00     0.277 A 
ATOM     23  C   UNK d   1       1.430  11.887 -12.940  0.00  0.00     0.035 A 
ATOM     24  C   UNK d   1       2.586  10.047 -13.954  0.00  0.00     0.048 A 
ATOM     25  C   UNK d   1       2.558  12.654 -12.883  0.00  0.00     0.011 A 
ATOM     26 Br   UNK d   1       2.547  14.408 -12.159  0.00  0.00    -0.051 Br
ATOM     27  C   UNK d   1       3.730  12.095 -13.378  0.00  0.00     0.021 A 
ATOM     28  C   UNK d   1       3.747  10.826 -13.899  0.00  0.00     0.032 A 
ATOM     29  N   UNK d   1       2.357   8.740 -14.434  0.00  0.00    -0.321 N 
ATOM     30  H   UNK d   1       3.055   8.083 -14.858  0.00  0.00     0.169 HD
ATOM     31  O   UNK d   1       0.349   7.385 -14.520  0.00  0.00    -0.266 OA
ENDBRANCH   1  19
TORSDOF 4
ENDMDL
