MODEL 1
REMARK VINA RESULT:    -5.926      0.000      0.000
REMARK INTER + INTRA:          -6.803
REMARK INTER:                  -6.619
REMARK INTRA:                  -0.184
REMARK UNBOUND:                -0.184
REMARK  2 active torsions:
REMARK  status: ('A' for Active; 'I' for Inactive)
REMARK    1  A    between atoms: N_18  and  C_21 
REMARK    2  A    between atoms: C_21  and  C_22 
ROOT
ATOM      1 Br   UNK d   1       7.847   6.162 -11.561  0.00  0.00    -0.051 Br
ATOM      2  C   UNK d   1       6.670   6.887 -12.875  0.00  0.00     0.011 A 
ATOM      3  C   UNK d   1       5.313   7.069 -12.632  0.00  0.00     0.031 A 
ATOM      4  C   UNK d   1       4.474   7.589 -13.580  0.00  0.00     0.019 A 
ATOM      5  C   UNK d   1       5.032   7.932 -14.803  0.00  0.00     0.044 A 
ATOM      6  C   UNK d   1       6.377   7.754 -15.051  0.00  0.00     0.031 A 
ATOM      7  C   UNK d   1       7.210   7.229 -14.091  0.00  0.00     0.021 A 
ATOM      8  N   UNK d   1       4.027   8.461 -15.671  0.00  0.00    -0.324 N 
ATOM      9  C   UNK d   1       2.792   8.458 -14.988  0.00  0.00     0.267 A 
ATOM     10  O   UNK d   1       1.724   8.862 -15.471  0.00  0.00    -0.270 OA
ATOM     11  C   UNK d   1       3.048   7.897 -13.644  0.00  0.00     0.281 A 
ATOM     12  N   UNK d   1       2.156   6.789 -13.471  0.00  0.00     0.118 N 
ATOM     13  C   UNK d   1       0.860   7.414 -13.215  0.00  0.00     0.239 C 
ATOM     14  C   UNK d   1       1.142   8.685 -12.484  0.00  0.00     0.128 C 
ATOM     15  C   UNK d   1       2.623   8.831 -12.538  0.00  0.00     0.147 C 
ATOM     16  C   UNK d   1       2.853  10.239 -12.842  0.00  0.00     0.235 C 
ATOM     17  O   UNK d   1       3.957  10.828 -12.838  0.00  0.00    -0.272 OA
ATOM     18  N   UNK d   1       1.628  10.856 -13.151  0.00  0.00    -0.285 N 
ATOM     19  C   UNK d   1       0.572   9.883 -13.180  0.00  0.00     0.233 C 
ATOM     20  O   UNK d   1      -0.580   9.980 -13.672  0.00  0.00    -0.272 OA
ATOM     21  C   UNK d   1       0.134   6.471 -12.267  0.00  0.00     0.038 C 
ATOM     22  C   UNK d   1       1.067   5.297 -12.052  0.00  0.00     0.032 C 
ATOM     23  C   UNK d   1       2.421   5.974 -12.303  0.00  0.00     0.275 C 
ATOM     24  H   UNK d   1       4.204   8.795 -16.664  0.00  0.00     0.169 HD
ENDROOT
BRANCH  18  25
ATOM     25  C   UNK d   1       1.426  12.248 -13.404  0.00  0.00     0.166 C 
BRANCH  25  26
ATOM     26  C   UNK d   1       1.766  13.154 -12.277  0.00  0.00     0.140 C 
ATOM     27  O   UNK d   1       0.763  14.065 -11.966  0.00  0.00    -0.384 OA
ATOM     28  C   UNK d   1       1.378  14.939 -11.079  0.00  0.00     0.168 C 
ATOM     29  C   UNK d   1       2.797  15.125 -11.515  0.00  0.00     0.029 C 
ATOM     30  C   UNK d   1       3.034  13.923 -12.429  0.00  0.00     0.035 C 
ENDBRANCH  25  26
ENDBRANCH  18  25
TORSDOF 2
ENDMDL
