/Users/jonathanwahrer/Desktop/Msc/3_Semester/Drug_Design_Praktikum/waehrer_HTS_screening/HTS_experiment/out/docking_results/vina_output/6q9y/0550_docked.pdbqt
 OpenBabel03222219283D

 30 35  0  0  1  0  0  0  0  0999 V2000
    7.8470    6.1620  -11.5610 Br  0  0  0  0  0  0  0  0  0  0  0  0
    6.6700    6.8870  -12.8750 C   0  0  0  0  0  0  0  0  0  0  0  0
    5.3130    7.0690  -12.6320 C   0  0  0  0  0  3  0  0  0  0  0  0
    4.4740    7.5890  -13.5800 C   0  0  0  0  0  0  0  0  0  0  0  0
    5.0320    7.9320  -14.8030 C   0  0  0  0  0  0  0  0  0  0  0  0
    6.3770    7.7540  -15.0510 C   0  0  0  0  0  3  0  0  0  0  0  0
    7.2100    7.2290  -14.0910 C   0  0  0  0  0  3  0  0  0  0  0  0
    4.0270    8.4610  -15.6710 N   0  0  0  0  0  0  0  0  0  0  0  0
    2.7920    8.4580  -14.9880 C   0  0  0  0  0  0  0  0  0  0  0  0
    1.7240    8.8620  -15.4710 O   0  0  0  0  0  0  0  0  0  0  0  0
    3.0480    7.8970  -13.6440 C   0  0  1  0  0  0  0  0  0  0  0  0
    2.1560    6.7890  -13.4710 N   0  0  2  0  0  0  0  0  0  0  0  0
    0.8600    7.4140  -13.2150 C   0  0  2  0  0  3  0  0  0  0  0  0
    1.1420    8.6850  -12.4840 C   0  0  1  0  0  3  0  0  0  0  0  0
    2.6230    8.8310  -12.5380 C   0  0  2  0  0  3  0  0  0  0  0  0
    2.8530   10.2390  -12.8420 C   0  0  0  0  0  0  0  0  0  0  0  0
    3.9570   10.8280  -12.8380 O   0  0  0  0  0  0  0  0  0  0  0  0
    1.6280   10.8560  -13.1510 N   0  0  0  0  0  0  0  0  0  0  0  0
    0.5720    9.8830  -13.1800 C   0  0  0  0  0  0  0  0  0  0  0  0
   -0.5800    9.9800  -13.6720 O   0  0  0  0  0  0  0  0  0  0  0  0
    0.1340    6.4710  -12.2670 C   0  0  0  0  0  2  0  0  0  0  0  0
    1.0670    5.2970  -12.0520 C   0  0  0  0  0  2  0  0  0  0  0  0
    2.4210    5.9740  -12.3030 C   0  0  0  0  0  2  0  0  0  0  0  0
    4.2040    8.7950  -16.6640 H   0  0  0  0  0  0  0  0  0  0  0  0
    1.4260   12.2480  -13.4040 C   0  0  0  0  0  2  0  0  0  0  0  0
    1.7660   13.1540  -12.2770 C   0  0  2  0  0  3  0  0  0  0  0  0
    0.7630   14.0650  -11.9660 O   0  0  0  0  0  0  0  0  0  0  0  0
    1.3780   14.9390  -11.0790 C   0  0  0  0  0  2  0  0  0  0  0  0
    2.7970   15.1250  -11.5150 C   0  0  0  0  0  2  0  0  0  0  0  0
    3.0340   13.9230  -12.4290 C   0  0  0  0  0  2  0  0  0  0  0  0
  2  3  1  0  0  0  0
  2  1  1  0  0  0  0
  4  3  2  0  0  0  0
  5  4  1  0  0  0  0
  6  5  2  0  0  0  0
  6  7  1  0  0  0  0
  7  2  2  0  0  0  0
  8  9  1  0  0  0  0
  8  5  1  0  0  0  0
 10  9  2  0  0  0  0
 11  9  1  6  0  0  0
 11  4  1  0  0  0  0
 11 12  1  0  0  0  0
 11 15  1  0  0  0  0
 12 13  1  0  0  0  0
 12 23  1  1  0  0  0
 13 14  1  0  0  0  0
 13 21  1  1  0  0  0
 14 19  1  6  0  0  0
 15 16  1  6  0  0  0
 15 14  1  0  0  0  0
 16 17  2  0  0  0  0
 18 16  1  0  0  0  0
 19 18  1  0  0  0  0
 20 19  2  0  0  0  0
 21 22  1  0  0  0  0
 23 22  1  0  0  0  0
 24  8  1  0  0  0  0
 25 18  1  0  0  0  0
 26 25  1  6  0  0  0
 26 27  1  0  0  0  0
 27 28  1  0  0  0  0
 29 28  1  0  0  0  0
 30 26  1  0  0  0  0
 30 29  1  0  0  0  0
M  END
>  <Pose>
1

>  <Score>
-5.926

$$$$
