MODEL 1
REMARK VINA RESULT:    -3.997      0.000      0.000
REMARK INTER + INTRA:          -5.211
REMARK INTER:                  -4.815
REMARK INTRA:                  -0.396
REMARK UNBOUND:                -0.396
REMARK  4 active torsions:
REMARK  status: ('A' for Active; 'I' for Inactive)
REMARK    1  A    between atoms: C_19  and  N_26 
REMARK    2  A    between atoms: C_20  and  C_21 
REMARK    3  A    between atoms: C_21  and  O_23 
REMARK    4  A    between atoms: O_23  and  C_24 
ROOT
ATOM      1 Br   UNK d   1     -11.255  20.764  -4.426  0.00  0.00    -0.051 Br
ATOM      2  C   UNK d   1     -10.024  22.202  -4.193  0.00  0.00     0.011 A 
ATOM      3  C   UNK d   1     -10.129  23.263  -5.060  0.00  0.00     0.030 A 
ATOM      4  C   UNK d   1      -9.249  24.343  -4.929  0.00  0.00    -0.002 A 
ATOM      5  C   UNK d   1      -8.311  24.318  -3.949  0.00  0.00     0.043 A 
ATOM      6  C   UNK d   1      -8.187  23.241  -3.050  0.00  0.00     0.031 A 
ATOM      7  C   UNK d   1      -9.065  22.194  -3.203  0.00  0.00     0.021 A 
ATOM      8  N   UNK d   1      -7.518  25.491  -3.984  0.00  0.00    -0.325 N 
ATOM      9  C   UNK d   1      -7.984  26.282  -5.036  0.00  0.00     0.245 A 
ATOM     10  O   UNK d   1      -7.525  27.430  -5.410  0.00  0.00    -0.271 OA
ATOM     11  C   UNK d   1      -9.131  25.579  -5.685  0.00  0.00     0.141 A 
ATOM     12  C   UNK d   1     -10.242  26.491  -5.625  0.00  0.00     0.048 A 
ATOM     13  C   UNK d   1     -10.755  27.046  -6.737  0.00  0.00     0.176 A 
ATOM     14  N   UNK d   1     -11.791  27.856  -6.338  0.00  0.00    -0.256 N 
ATOM     15  N   UNK d   1     -11.894  27.787  -5.029  0.00  0.00    -0.177 NA
ATOM     16  C   UNK d   1     -10.975  26.967  -4.518  0.00  0.00     0.063 A 
ATOM     17  C   UNK d   1     -10.741  26.605  -3.090  0.00  0.00     0.073 C 
ATOM     18  O   UNK d   1     -10.260  26.789  -8.029  0.00  0.00    -0.275 OA
ATOM     19  C   UNK d   1      -9.187  25.911  -8.108  0.00  0.00     0.158 A 
ATOM     20  C   UNK d   1      -8.651  25.346  -7.069  0.00  0.00     0.095 A 
ATOM     21  H   UNK d   1      -6.713  25.755  -3.348  0.00  0.00     0.169 HD
ATOM     22  H   UNK d   1     -12.393  28.429  -6.972  0.00  0.00     0.191 HD
ENDROOT
BRANCH  20  23
ATOM     23  C   UNK d   1      -7.500  24.417  -7.265  0.00  0.00     0.295 C 
ATOM     24  O   UNK d   1      -6.353  24.870  -7.102  0.00  0.00    -0.259 OA
BRANCH  23  25
ATOM     25  O   UNK d   1      -7.650  23.101  -7.609  0.00  0.00    -0.318 OA
BRANCH  25  26
ATOM     26  C   UNK d   1      -7.719  22.620  -8.930  0.00  0.00     0.174 C 
ATOM     27  C   UNK d   1      -6.411  21.872  -9.209  0.00  0.00     0.034 C 
ENDBRANCH  25  26
ENDBRANCH  23  25
ENDBRANCH  20  23
BRANCH  19  28
ATOM     28  N   UNK d   1      -8.622  25.596  -9.401  0.00  0.00    -0.379 N 
ATOM     29  H   UNK d   1      -7.855  26.178  -9.746  0.00  0.00     0.158 HD
ATOM     30  H   UNK d   1      -8.997  24.809  -9.932  0.00  0.00     0.158 HD
ENDBRANCH  19  28
TORSDOF 4
ENDMDL
