MODEL 1
REMARK VINA RESULT:     0.456      0.000      0.000
REMARK INTER + INTRA:           0.469
REMARK INTER:                   0.469
REMARK INTRA:                   0.000
REMARK UNBOUND:                 0.000
REMARK  1 active torsions:
REMARK  status: ('A' for Active; 'I' for Inactive)
REMARK    1  A    between atoms: C_15  and  N_19 
ROOT
ATOM      1 Br   UNK d   1       3.367  13.045 -10.651  0.00  0.00    -0.051 Br
ATOM      2  C   UNK d   1       2.744  12.136 -12.198  0.00  0.00     0.011 A 
ATOM      3  C   UNK d   1       2.734  10.740 -12.285  0.00  0.00     0.030 A 
ATOM      4  C   UNK d   1       2.283  10.092 -13.404  0.00  0.00    -0.002 A 
ATOM      5  C   UNK d   1       1.833  10.823 -14.464  0.00  0.00     0.043 A 
ATOM      6  C   UNK d   1       1.824  12.225 -14.425  0.00  0.00     0.031 A 
ATOM      7  C   UNK d   1       2.281  12.847 -13.289  0.00  0.00     0.021 A 
ATOM      8  N   UNK d   1       1.412   9.976 -15.520  0.00  0.00    -0.325 N 
ATOM      9  C   UNK d   1       1.610   8.650 -15.099  0.00  0.00     0.246 A 
ATOM     10  O   UNK d   1       1.366   7.591 -15.735  0.00  0.00    -0.271 OA
ATOM     11  C   UNK d   1       2.174   8.659 -13.731  0.00  0.00     0.146 A 
ATOM     12  C   UNK d   1       3.526   8.012 -13.745  0.00  0.00     0.071 A 
ATOM     13  C   UNK d   1       3.888   6.997 -13.005  0.00  0.00     0.060 A 
ATOM     14  N   UNK d   1       2.939   6.450 -12.109  0.00  0.00    -0.342 N 
ATOM     15  C   UNK d   1       1.633   6.997 -12.026  0.00  0.00     0.118 A 
ATOM     16  C   UNK d   1       1.266   8.014 -12.767  0.00  0.00     0.093 A 
ATOM     17  C   UNK d   1      -0.102   8.519 -12.621  0.00  0.00     0.101 C 
ATOM     18  N   UNK d   1      -1.180   8.926 -12.523  0.00  0.00    -0.191 NA
ATOM     19  C   UNK d   1       5.299   6.663 -13.321  0.00  0.00     0.106 A 
ATOM     20  O   UNK d   1       5.726   7.568 -14.306  0.00  0.00    -0.301 OA
ATOM     21  C   UNK d   1       4.666   8.408 -14.590  0.00  0.00     0.294 A 
ATOM     22  O   UNK d   1       4.691   9.360 -15.443  0.00  0.00    -0.259 OA
ATOM     23  C   UNK d   1       5.400   5.270 -13.945  0.00  0.00     0.053 C 
ATOM     24  C   UNK d   1       6.171   6.739 -12.076  0.00  0.00     0.053 C 
ATOM     25  H   UNK d   1       1.019  10.307 -16.456  0.00  0.00     0.169 HD
ATOM     26  H   UNK d   1       3.175   5.633 -11.488  0.00  0.00     0.167 HD
ENDROOT
BRANCH  15  27
ATOM     27  N   UNK d   1       0.675   6.417 -11.099  0.00  0.00    -0.384 N 
ATOM     28  H   UNK d   1       0.498   5.402 -11.024  0.00  0.00     0.157 HD
ATOM     29  H   UNK d   1       0.150   7.063 -10.487  0.00  0.00     0.157 HD
ENDBRANCH  15  27
TORSDOF 1
ENDMDL
