/Users/jonathanwahrer/Desktop/Msc/3_Semester/Drug_Design_Praktikum/waehrer_HTS_screening/HTS_experiment/out/docking_results/vina_output/6q9y/0559_docked.pdbqt
 OpenBabel03222219293D

 32 35  0  0  1  0  0  0  0  0999 V2000
    1.4310   14.8600  -11.3370 Br  0  0  0  0  0  0  0  0  0  0  0  0
    2.5000   13.5810  -12.2890 C   0  0  0  0  0  0  0  0  0  0  0  0
    2.0880   12.2720  -12.4600 C   0  0  0  0  0  3  0  0  0  0  0  0
    2.8500   11.3460  -13.1430 C   0  0  0  0  0  0  0  0  0  0  0  0
    4.0530   11.7940  -13.6480 C   0  0  0  0  0  0  0  0  0  0  0  0
    4.4710   13.1100  -13.4780 C   0  0  0  0  0  3  0  0  0  0  0  0
    3.7000   14.0040  -12.8010 C   0  0  0  0  0  3  0  0  0  0  0  0
    4.7080   10.7030  -14.3150 N   0  0  0  0  0  0  0  0  0  0  0  0
    3.8940    9.5470  -14.2210 C   0  0  0  0  0  0  0  0  0  0  0  0
    4.2010    8.4300  -14.7000 O   0  0  0  0  0  0  0  0  0  0  0  0
    2.6700    9.9150  -13.4790 C   0  0  1  0  0  0  0  0  0  0  0  0
    2.5040    9.0900  -12.3130 N   0  0  0  0  0  0  0  0  0  0  0  0
    1.9260    7.8670  -12.8310 C   0  0  2  0  0  3  0  0  0  0  0  0
    0.9040    8.3520  -13.8250 C   0  0  2  0  0  3  0  0  0  0  0  0
    1.4830    9.6490  -14.3350 C   0  0  1  0  0  3  0  0  0  0  0  0
    0.3930   10.6290  -14.2320 C   0  0  0  0  0  0  0  0  0  0  0  0
    0.3990   11.8110  -14.6620 O   0  0  0  0  0  0  0  0  0  0  0  0
   -0.7330   10.0360  -13.5450 N   0  0  0  0  0  0  0  0  0  0  0  0
   -0.3900    8.7030  -13.2000 C   0  0  0  0  0  0  0  0  0  0  0  0
   -1.0940    7.9610  -12.4750 O   0  0  0  0  0  0  0  0  0  0  0  0
    5.6370   10.7970  -14.7800 H   0  0  0  0  0  0  0  0  0  0  0  0
    1.8180    9.5350  -11.6820 H   0  0  0  0  0  0  0  0  0  0  0  0
    1.3420    7.0480  -11.7130 C   0  0  0  0  0  2  0  0  0  0  0  0
    1.3910    5.6110  -12.0290 C   0  0  0  0  0  0  0  0  0  0  0  0
    0.3140    4.9550  -12.0370 O   0  0  0  0  0  0  0  0  0  0  0  0
    2.5750    4.8920  -12.3320 N   0  0  0  0  0  0  0  0  0  0  0  0
    3.4540    4.9370  -11.7960 H   0  0  0  0  0  0  0  0  0  0  0  0
    2.5460    4.2610  -13.1760 H   0  0  0  0  0  0  0  0  0  0  0  0
   -1.9950   10.6680  -13.2510 C   0  0  0  0  0  0  0  0  0  0  0  0
   -2.6970   10.0130  -12.0870 C   0  0  0  0  0  1  0  0  0  0  0  0
   -1.7450   12.1460  -12.9350 C   0  0  0  0  0  1  0  0  0  0  0  0
   -2.9280   10.5870  -14.4390 C   0  0  0  0  0  1  0  0  0  0  0  0
  2  1  1  0  0  0  0
  3  2  1  0  0  0  0
  4  3  2  0  0  0  0
  5  6  2  0  0  0  0
  5  4  1  0  0  0  0
  6  7  1  0  0  0  0
  7  2  2  0  0  0  0
  8  9  1  0  0  0  0
  8  5  1  0  0  0  0
 10  9  2  0  0  0  0
 11  9  1  6  0  0  0
 11  4  1  0  0  0  0
 11 12  1  0  0  0  0
 12 22  1  0  0  0  0
 13 12  1  0  0  0  0
 13 23  1  1  0  0  0
 14 19  1  1  0  0  0
 14 13  1  0  0  0  0
 15 16  1  1  0  0  0
 15 14  1  0  0  0  0
 15 11  1  0  0  0  0
 16 18  1  0  0  0  0
 17 16  2  0  0  0  0
 18 29  1  0  0  0  0
 18 19  1  0  0  0  0
 19 20  2  0  0  0  0
 21  8  1  0  0  0  0
 24 23  1  0  0  0  0
 25 24  2  0  0  0  0
 26 24  1  0  0  0  0
 26 27  1  0  0  0  0
 28 26  1  0  0  0  0
 29 31  1  0  0  0  0
 29 30  1  0  0  0  0
 32 29  1  0  0  0  0
M  END
>  <Pose>
1

>  <Score>
-6.637

$$$$
