MODEL 1
REMARK VINA RESULT:    -6.637      0.000      0.000
REMARK INTER + INTRA:          -7.391
REMARK INTER:                  -7.801
REMARK INTRA:                   0.410
REMARK UNBOUND:                 0.410
REMARK  3 active torsions:
REMARK  status: ('A' for Active; 'I' for Inactive)
REMARK    1  A    between atoms: C_13  and  C_25 
REMARK    2  A    between atoms: N_18  and  C_21 
REMARK    3  A    between atoms: C_25  and  C_26 
REMARK       I    between atoms: C_26  and  N_28 
ROOT
ATOM      1 Br   UNK d   1       1.431  14.860 -11.337  0.00  0.00    -0.051 Br
ATOM      2  C   UNK d   1       2.500  13.581 -12.289  0.00  0.00     0.011 A 
ATOM      3  C   UNK d   1       2.088  12.272 -12.460  0.00  0.00     0.031 A 
ATOM      4  C   UNK d   1       2.850  11.346 -13.143  0.00  0.00     0.019 A 
ATOM      5  C   UNK d   1       4.053  11.794 -13.648  0.00  0.00     0.044 A 
ATOM      6  C   UNK d   1       4.471  13.110 -13.478  0.00  0.00     0.031 A 
ATOM      7  C   UNK d   1       3.700  14.004 -12.801  0.00  0.00     0.021 A 
ATOM      8  N   UNK d   1       4.708  10.703 -14.315  0.00  0.00    -0.324 N 
ATOM      9  C   UNK d   1       3.894   9.547 -14.221  0.00  0.00     0.267 A 
ATOM     10  O   UNK d   1       4.201   8.430 -14.700  0.00  0.00    -0.270 OA
ATOM     11  C   UNK d   1       2.670   9.915 -13.479  0.00  0.00     0.279 A 
ATOM     12  N   UNK d   1       2.504   9.090 -12.313  0.00  0.00     0.114 N 
ATOM     13  C   UNK d   1       1.926   7.867 -12.831  0.00  0.00     0.245 C 
ATOM     14  C   UNK d   1       0.904   8.352 -13.825  0.00  0.00     0.128 C 
ATOM     15  C   UNK d   1       1.483   9.649 -14.335  0.00  0.00     0.147 C 
ATOM     16  C   UNK d   1       0.393  10.629 -14.232  0.00  0.00     0.235 C 
ATOM     17  O   UNK d   1       0.399  11.811 -14.662  0.00  0.00    -0.272 OA
ATOM     18  N   UNK d   1      -0.733  10.036 -13.545  0.00  0.00    -0.279 N 
ATOM     19  C   UNK d   1      -0.390   8.703 -13.200  0.00  0.00     0.234 C 
ATOM     20  O   UNK d   1      -1.094   7.961 -12.475  0.00  0.00    -0.272 OA
ATOM     21  H   UNK d   1       5.637  10.797 -14.780  0.00  0.00     0.169 HD
ATOM     22  H   UNK d   1       1.818   9.535 -11.682  0.00  0.00     0.318 HD
ENDROOT
BRANCH  13  23
ATOM     23  C   UNK d   1       1.342   7.048 -11.713  0.00  0.00     0.139 C 
BRANCH  23  24
ATOM     24  C   UNK d   1       1.391   5.611 -12.029  0.00  0.00     0.217 C 
ATOM     25  O   UNK d   1       0.314   4.955 -12.037  0.00  0.00    -0.274 OA
ATOM     26  N   UNK d   1       2.575   4.892 -12.332  0.00  0.00    -0.370 N 
ATOM     27  H   UNK d   1       3.454   4.937 -11.796  0.00  0.00     0.159 HD
ATOM     28  H   UNK d   1       2.546   4.261 -13.176  0.00  0.00     0.159 HD
ENDBRANCH  23  24
ENDBRANCH  13  23
BRANCH  18  29
ATOM     29  C   UNK d   1      -1.995  10.668 -13.251  0.00  0.00     0.032 C 
ATOM     30  C   UNK d   1      -2.697  10.013 -12.087  0.00  0.00     0.038 C 
ATOM     31  C   UNK d   1      -1.745  12.146 -12.935  0.00  0.00     0.038 C 
ATOM     32  C   UNK d   1      -2.928  10.587 -14.439  0.00  0.00     0.038 C 
ENDBRANCH  18  29
TORSDOF 3
ENDMDL
