MODEL 1
REMARK VINA RESULT:    -4.513      0.000      0.000
REMARK INTER + INTRA:          -6.606
REMARK INTER:                  -5.700
REMARK INTRA:                  -0.906
REMARK UNBOUND:                -0.906
REMARK  5 active torsions:
REMARK  status: ('A' for Active; 'I' for Inactive)
REMARK    1  A    between atoms: C_13  and  C_29 
REMARK    2  A    between atoms: N_18  and  C_21 
REMARK    3  A    between atoms: C_21  and  C_22 
REMARK    4  A    between atoms: C_22  and  C_23 
REMARK    5  A    between atoms: C_29  and  O_30 
ROOT
ATOM      1 Br   UNK d   1       3.338   9.675 -15.793  0.00  0.00    -0.051 Br
ATOM      2  C   UNK d   1       1.826  10.178 -14.741  0.00  0.00     0.011 A 
ATOM      3  C   UNK d   1       0.736   9.355 -14.568  0.00  0.00     0.031 A 
ATOM      4  C   UNK d   1      -0.376   9.733 -13.799  0.00  0.00     0.019 A 
ATOM      5  C   UNK d   1      -0.342  10.973 -13.210  0.00  0.00     0.044 A 
ATOM      6  C   UNK d   1       0.754  11.807 -13.378  0.00  0.00     0.031 A 
ATOM      7  C   UNK d   1       1.839  11.426 -14.137  0.00  0.00     0.021 A 
ATOM      8  N   UNK d   1      -1.529  11.221 -12.482  0.00  0.00    -0.324 N 
ATOM      9  C   UNK d   1      -2.354  10.085 -12.618  0.00  0.00     0.267 A 
ATOM     10  O   UNK d   1      -3.493  10.003 -12.079  0.00  0.00    -0.270 OA
ATOM     11  C   UNK d   1      -1.649   9.096 -13.461  0.00  0.00     0.279 A 
ATOM     12  N   UNK d   1      -2.427   8.806 -14.669  0.00  0.00     0.116 N 
ATOM     13  C   UNK d   1      -2.154   7.422 -14.983  0.00  0.00     0.264 C 
ATOM     14  C   UNK d   1      -1.775   6.731 -13.733  0.00  0.00     0.130 C 
ATOM     15  C   UNK d   1      -1.578   7.825 -12.700  0.00  0.00     0.147 C 
ATOM     16  C   UNK d   1      -0.328   7.504 -12.022  0.00  0.00     0.234 C 
ATOM     17  O   UNK d   1       0.271   8.218 -11.180  0.00  0.00    -0.272 OA
ATOM     18  N   UNK d   1       0.155   6.213 -12.455  0.00  0.00    -0.287 N 
ATOM     19  C   UNK d   1      -0.476   6.030 -13.740  0.00  0.00     0.233 C 
ATOM     20  O   UNK d   1       0.011   5.384 -14.680  0.00  0.00    -0.272 OA
ATOM     21  H   UNK d   1      -1.754  12.098 -11.937  0.00  0.00     0.169 HD
ATOM     22  H   UNK d   1      -2.157   9.437 -15.458  0.00  0.00     0.318 HD
ENDROOT
BRANCH  13  23
ATOM     23  C   UNK d   1      -3.338   6.802 -15.688  0.00  0.00     0.148 C 
ATOM     24  C   UNK d   1      -4.647   7.137 -15.015  0.00  0.00     0.041 C 
BRANCH  23  25
ATOM     25  O   UNK d   1      -3.146   5.441 -15.825  0.00  0.00    -0.394 OA
ATOM     26  H   UNK d   1      -3.873   4.919 -15.435  0.00  0.00     0.210 HD
ENDBRANCH  23  25
ENDBRANCH  13  23
BRANCH  18  27
ATOM     27  C   UNK d   1       1.020   5.298 -11.783  0.00  0.00     0.139 C 
BRANCH  27  28
ATOM     28  C   UNK d   1       2.465   5.697 -11.696  0.00  0.00     0.059 C 
BRANCH  28  29
ATOM     29  C   UNK d   1       3.393   4.839 -12.453  0.00  0.00    -0.057 A 
ATOM     30  C   UNK d   1       4.544   5.396 -12.998  0.00  0.00     0.007 A 
ATOM     31  C   UNK d   1       5.418   4.613 -13.674  0.00  0.00     0.001 A 
ATOM     32  C   UNK d   1       5.223   3.274 -13.850  0.00  0.00     0.000 A 
ATOM     33  C   UNK d   1       4.073   2.729 -13.302  0.00  0.00     0.001 A 
ATOM     34  C   UNK d   1       3.175   3.497 -12.617  0.00  0.00     0.007 A 
ENDBRANCH  28  29
ENDBRANCH  27  28
ENDBRANCH  18  27
TORSDOF 5
ENDMDL
