/Users/jonathanwahrer/Desktop/Msc/3_Semester/Drug_Design_Praktikum/waehrer_HTS_screening/HTS_experiment/out/docking_results/vina_output/6q9y/0578_docked.pdbqt
 OpenBabel03222219293D

 27 30  0  0  1  0  0  0  0  0999 V2000
    3.3620   12.9650  -12.0360 Br  0  0  0  0  0  0  0  0  0  0  0  0
    1.7060   12.2160  -12.6230 C   0  0  0  0  0  0  0  0  0  0  0  0
    1.5290   10.8650  -12.7840 C   0  0  0  0  0  3  0  0  0  0  0  0
    0.3260   10.2780  -13.2140 C   0  0  0  0  0  0  0  0  0  0  0  0
   -0.7080   11.1260  -13.4780 C   0  0  0  0  0  0  0  0  0  0  0  0
   -0.5450   12.5150  -13.3200 C   0  0  0  0  0  3  0  0  0  0  0  0
    0.6460   13.0580  -12.8970 C   0  0  0  0  0  3  0  0  0  0  0  0
   -1.8590   10.4030  -13.8920 N   0  0  0  0  0  0  0  0  0  0  0  0
   -1.5200    9.0360  -13.8820 C   0  0  0  0  0  0  0  0  0  0  0  0
   -2.3090    8.0670  -14.1850 O   0  0  0  0  0  0  0  0  0  0  0  0
   -0.1110    8.9210  -13.4650 C   0  0  2  0  0  0  0  0  0  0  0  0
   -0.1870    8.1680  -12.2000 N   0  0  0  0  0  0  0  0  0  0  0  0
    0.1590    6.8050  -12.4610 C   0  0  2  0  0  3  0  0  0  0  0  0
    1.0740    6.8730  -13.6280 C   0  0  1  0  0  3  0  0  0  0  0  0
    0.7120    8.1130  -14.3990 C   0  0  2  0  0  3  0  0  0  0  0  0
    1.9900    8.6400  -14.8210 C   0  0  0  0  0  0  0  0  0  0  0  0
    2.1540    9.5240  -15.7130 O   0  0  0  0  0  0  0  0  0  0  0  0
    3.0220    8.0080  -14.0770 N   0  0  0  0  0  0  0  0  0  0  0  0
    2.4580    7.1270  -13.1160 C   0  0  0  0  0  0  0  0  0  0  0  0
    3.0440    6.7030  -12.1000 O   0  0  0  0  0  0  0  0  0  0  0  0
   -1.0180    5.8840  -12.6810 C   0  0  0  0  0  1  0  0  0  0  0  0
   -2.8070   10.7990  -14.1620 H   0  0  0  0  0  0  0  0  0  0  0  0
    0.4290    8.5960  -11.4750 H   0  0  0  0  0  0  0  0  0  0  0  0
    4.4360    8.2670  -14.3120 C   0  0  0  0  0  2  0  0  0  0  0  0
    5.2550    7.0130  -14.2510 C   0  0  0  0  0  2  0  0  0  0  0  0
    6.5510    7.1870  -13.5050 C   0  0  0  0  0  2  0  0  0  0  0  0
    6.7840    5.8840  -12.7320 C   0  0  0  0  0  1  0  0  0  0  0  0
  2  1  1  0  0  0  0
  3  2  1  0  0  0  0
  4  3  2  0  0  0  0
  5  6  2  0  0  0  0
  5  4  1  0  0  0  0
  6  7  1  0  0  0  0
  7  2  2  0  0  0  0
  8  9  1  0  0  0  0
  8  5  1  0  0  0  0
 10  9  2  0  0  0  0
 11  9  1  6  0  0  0
 11  4  1  0  0  0  0
 11 12  1  0  0  0  0
 12 23  1  0  0  0  0
 13 21  1  6  0  0  0
 13 12  1  0  0  0  0
 14 19  1  1  0  0  0
 14 13  1  0  0  0  0
 15 16  1  1  0  0  0
 15 14  1  0  0  0  0
 15 11  1  0  0  0  0
 16 18  1  0  0  0  0
 17 16  2  0  0  0  0
 18 19  1  0  0  0  0
 19 20  2  0  0  0  0
 22  8  1  0  0  0  0
 24 25  1  0  0  0  0
 24 18  1  0  0  0  0
 25 26  1  0  0  0  0
 26 27  1  0  0  0  0
M  END
>  <Pose>
1

>  <Score>
-7.754

$$$$
