MODEL 1
REMARK VINA RESULT:    -7.754      0.000      0.000
REMARK INTER + INTRA:          -9.255
REMARK INTER:                  -9.114
REMARK INTRA:                  -0.141
REMARK UNBOUND:                -0.141
REMARK  3 active torsions:
REMARK  status: ('A' for Active; 'I' for Inactive)
REMARK    1  A    between atoms: N_18  and  C_21 
REMARK    2  A    between atoms: C_21  and  C_22 
REMARK    3  A    between atoms: C_22  and  C_23 
ROOT
ATOM      1 Br   UNK d   1       3.362  12.965 -12.036  0.00  0.00    -0.051 Br
ATOM      2  C   UNK d   1       1.706  12.216 -12.623  0.00  0.00     0.011 A 
ATOM      3  C   UNK d   1       1.529  10.865 -12.784  0.00  0.00     0.031 A 
ATOM      4  C   UNK d   1       0.326  10.278 -13.214  0.00  0.00     0.019 A 
ATOM      5  C   UNK d   1      -0.708  11.126 -13.478  0.00  0.00     0.044 A 
ATOM      6  C   UNK d   1      -0.545  12.515 -13.320  0.00  0.00     0.031 A 
ATOM      7  C   UNK d   1       0.646  13.058 -12.897  0.00  0.00     0.021 A 
ATOM      8  N   UNK d   1      -1.859  10.403 -13.892  0.00  0.00    -0.324 N 
ATOM      9  C   UNK d   1      -1.520   9.036 -13.882  0.00  0.00     0.267 A 
ATOM     10  O   UNK d   1      -2.309   8.067 -14.185  0.00  0.00    -0.270 OA
ATOM     11  C   UNK d   1      -0.111   8.921 -13.465  0.00  0.00     0.279 A 
ATOM     12  N   UNK d   1      -0.187   8.168 -12.200  0.00  0.00     0.113 N 
ATOM     13  C   UNK d   1       0.159   6.805 -12.461  0.00  0.00     0.232 C 
ATOM     14  C   UNK d   1       1.074   6.873 -13.628  0.00  0.00     0.127 C 
ATOM     15  C   UNK d   1       0.712   8.113 -14.399  0.00  0.00     0.147 C 
ATOM     16  C   UNK d   1       1.990   8.640 -14.821  0.00  0.00     0.234 C 
ATOM     17  O   UNK d   1       2.154   9.524 -15.713  0.00  0.00    -0.272 OA
ATOM     18  N   UNK d   1       3.022   8.008 -14.077  0.00  0.00    -0.288 N 
ATOM     19  C   UNK d   1       2.458   7.127 -13.116  0.00  0.00     0.233 C 
ATOM     20  O   UNK d   1       3.044   6.703 -12.100  0.00  0.00    -0.272 OA
ATOM     21  C   UNK d   1      -1.018   5.884 -12.681  0.00  0.00     0.043 C 
ATOM     22  H   UNK d   1      -2.807  10.799 -14.162  0.00  0.00     0.169 HD
ATOM     23  H   UNK d   1       0.429   8.596 -11.475  0.00  0.00     0.318 HD
ENDROOT
BRANCH  18  24
ATOM     24  C   UNK d   1       4.436   8.267 -14.312  0.00  0.00     0.135 C 
BRANCH  24  25
ATOM     25  C   UNK d   1       5.255   7.013 -14.251  0.00  0.00     0.020 C 
BRANCH  25  26
ATOM     26  C   UNK d   1       6.551   7.187 -13.505  0.00  0.00    -0.003 C 
ATOM     27  C   UNK d   1       6.784   5.884 -12.732  0.00  0.00     0.005 C 
ENDBRANCH  25  26
ENDBRANCH  24  25
ENDBRANCH  18  24
TORSDOF 3
ENDMDL
