MODEL 1
REMARK VINA RESULT:    -5.801      0.000      0.000
REMARK INTER + INTRA:          -7.522
REMARK INTER:                  -7.497
REMARK INTRA:                  -0.026
REMARK UNBOUND:                -0.026
REMARK  5 active torsions:
REMARK  status: ('A' for Active; 'I' for Inactive)
REMARK    1  A    between atoms: C_13  and  C_25 
REMARK    2  A    between atoms: N_18  and  C_21 
REMARK    3  A    between atoms: C_21  and  C_22 
REMARK    4  A    between atoms: C_22  and  O_23 
REMARK    5  A    between atoms: C_25  and  C_26 
REMARK       I    between atoms: C_26  and  N_28 
ROOT
ATOM      1 Br   UNK d   1       2.231  14.324 -10.916  0.00  0.00    -0.051 Br
ATOM      2  C   UNK d   1       2.649  12.949 -12.169  0.00  0.00     0.011 A 
ATOM      3  C   UNK d   1       1.882  11.816 -12.320  0.00  0.00     0.031 A 
ATOM      4  C   UNK d   1       2.193  10.815 -13.239  0.00  0.00     0.019 A 
ATOM      5  C   UNK d   1       3.306  10.953 -14.029  0.00  0.00     0.044 A 
ATOM      6  C   UNK d   1       4.099  12.083 -13.900  0.00  0.00     0.031 A 
ATOM      7  C   UNK d   1       3.763  13.074 -12.970  0.00  0.00     0.021 A 
ATOM      8  N   UNK d   1       3.436   9.825 -14.899  0.00  0.00    -0.324 N 
ATOM      9  C   UNK d   1       2.358   8.941 -14.642  0.00  0.00     0.267 A 
ATOM     10  O   UNK d   1       2.192   7.868 -15.254  0.00  0.00    -0.270 OA
ATOM     11  C   UNK d   1       1.544   9.517 -13.584  0.00  0.00     0.279 A 
ATOM     12  N   UNK d   1       0.209   9.742 -14.139  0.00  0.00     0.114 N 
ATOM     13  C   UNK d   1      -0.708   9.421 -13.086  0.00  0.00     0.245 C 
ATOM     14  C   UNK d   1      -0.073   8.267 -12.400  0.00  0.00     0.128 C 
ATOM     15  C   UNK d   1       1.383   8.668 -12.358  0.00  0.00     0.147 C 
ATOM     16  C   UNK d   1       2.113   7.408 -12.357  0.00  0.00     0.235 C 
ATOM     17  O   UNK d   1       3.307   7.252 -12.024  0.00  0.00    -0.272 OA
ATOM     18  N   UNK d   1       1.224   6.390 -12.802  0.00  0.00    -0.286 N 
ATOM     19  C   UNK d   1      -0.024   7.012 -13.190  0.00  0.00     0.233 C 
ATOM     20  O   UNK d   1      -0.799   6.502 -14.015  0.00  0.00    -0.272 OA
ATOM     21  H   UNK d   1       4.217   9.700 -15.602  0.00  0.00     0.169 HD
ATOM     22  H   UNK d   1       0.030   9.082 -14.933  0.00  0.00     0.318 HD
ENDROOT
BRANCH  13  23
ATOM     23  C   UNK d   1      -2.106   9.201 -13.552  0.00  0.00     0.139 C 
BRANCH  23  24
ATOM     24  C   UNK d   1      -2.684  10.468 -14.012  0.00  0.00     0.217 C 
ATOM     25  O   UNK d   1      -2.048  11.546 -13.835  0.00  0.00    -0.274 OA
ATOM     26  N   UNK d   1      -3.956  10.501 -14.657  0.00  0.00    -0.370 N 
ATOM     27  H   UNK d   1      -4.166  11.234 -15.364  0.00  0.00     0.159 HD
ATOM     28  H   UNK d   1      -4.671   9.786 -14.415  0.00  0.00     0.159 HD
ENDBRANCH  23  24
ENDBRANCH  13  23
BRANCH  18  29
ATOM     29  C   UNK d   1       1.548   4.994 -12.843  0.00  0.00     0.161 C 
BRANCH  29  30
ATOM     30  C   UNK d   1       2.885   4.631 -12.286  0.00  0.00     0.187 C 
BRANCH  30  31
ATOM     31  O   UNK d   1       3.627   3.818 -13.128  0.00  0.00    -0.394 OA
ATOM     32  C   UNK d   1       4.954   4.233 -13.205  0.00  0.00     0.201 C 
ENDBRANCH  30  31
ENDBRANCH  29  30
ENDBRANCH  18  29
TORSDOF 5
ENDMDL
