MODEL 1
REMARK VINA RESULT:    -7.747      0.000      0.000
REMARK INTER + INTRA:          -7.747
REMARK INTER:                  -7.747
REMARK INTRA:                   0.000
REMARK UNBOUND:                 0.000
REMARK  0 active torsions:
REMARK  status: ('A' for Active; 'I' for Inactive)
ROOT
ATOM      1 Br   UNK d   1       6.351   5.136 -13.204  0.00  0.00    -0.051 Br
ATOM      2  C   UNK d   1       4.663   6.019 -13.179  0.00  0.00     0.012 A 
ATOM      3  C   UNK d   1       4.535   7.193 -13.864  0.00  0.00     0.038 A 
ATOM      4  C   UNK d   1       3.320   7.856 -13.863  0.00  0.00     0.062 A 
ATOM      5  C   UNK d   1       2.236   7.331 -13.170  0.00  0.00     0.078 A 
ATOM      6  C   UNK d   1       2.349   6.145 -12.473  0.00  0.00     0.034 A 
ATOM      7  C   UNK d   1       3.576   5.522 -12.502  0.00  0.00     0.021 A 
ATOM      8  N   UNK d   1       0.951   7.917 -13.099  0.00  0.00    -0.195 N 
ATOM      9  N   UNK d   1      -0.129   7.179 -12.816  0.00  0.00    -0.039 NA
ATOM     10  N   UNK d   1      -1.140   8.005 -12.826  0.00  0.00    -0.023 NA
ATOM     11  N   UNK d   1      -0.731   9.233 -13.105  0.00  0.00    -0.111 NA
ATOM     12  C   UNK d   1       0.621   9.183 -13.283  0.00  0.00     0.182 A 
ATOM     13  C   UNK d   1       1.419  10.414 -13.616  0.00  0.00     0.102 C 
ATOM     14  N   UNK d   1       2.419  10.120 -14.639  0.00  0.00    -0.340 N 
ATOM     15  C   UNK d   1       3.399   9.089 -14.656  0.00  0.00     0.255 C 
ATOM     16  O   UNK d   1       4.407   9.239 -15.401  0.00  0.00    -0.268 OA
ATOM     17  C   UNK d   1       2.185  10.763 -12.368  0.00  0.00     0.076 C 
ATOM     18  C   UNK d   1       2.603  12.196 -12.417  0.00  0.00     0.056 C 
ATOM     19  O   UNK d   1       1.461  12.952 -12.431  0.00  0.00    -0.381 OA
ATOM     20  C   UNK d   1       0.684  12.830 -13.551  0.00  0.00     0.171 C 
ATOM     21  C   UNK d   1       0.504  11.479 -14.097  0.00  0.00     0.066 C 
ATOM     22  C   UNK d   1       3.353  12.548 -11.126  0.00  0.00     0.045 C 
ATOM     23  C   UNK d   1       3.545  12.509 -13.549  0.00  0.00     0.045 C 
ATOM     24  H   UNK d   1       2.432  10.752 -15.496  0.00  0.00     0.164 HD
ENDROOT
TORSDOF 0
ENDMDL
