MODEL 1
REMARK VINA RESULT:    -7.628      0.000      0.000
REMARK INTER + INTRA:          -7.628
REMARK INTER:                  -7.628
REMARK INTRA:                   0.000
REMARK UNBOUND:                 0.000
REMARK  0 active torsions:
REMARK  status: ('A' for Active; 'I' for Inactive)
ROOT
ATOM      1 Br   UNK d   1      -0.057   7.989 -12.428  0.00  0.00    -0.051 Br
ATOM      2  C   UNK d   1       1.558   6.975 -12.647  0.00  0.00     0.012 A 
ATOM      3  C   UNK d   1       2.682   7.561 -13.188  0.00  0.00     0.038 A 
ATOM      4  C   UNK d   1       3.840   6.827 -13.343  0.00  0.00     0.061 A 
ATOM      5  C   UNK d   1       3.940   5.499 -12.976  0.00  0.00     0.072 A 
ATOM      6  C   UNK d   1       2.794   4.923 -12.432  0.00  0.00     0.034 A 
ATOM      7  C   UNK d   1       1.633   5.650 -12.273  0.00  0.00     0.021 A 
ATOM      8  N   UNK d   1       5.033   4.615 -13.065  0.00  0.00    -0.218 N 
ATOM      9  N   UNK d   1       4.926   3.304 -12.923  0.00  0.00     0.032 NA
ATOM     10  N   UNK d   1       6.135   2.784 -13.063  0.00  0.00    -0.052 NA
ATOM     11  N   UNK d   1       6.986   3.755 -13.291  0.00  0.00    -0.116 NA
ATOM     12  C   UNK d   1       6.322   4.938 -13.300  0.00  0.00     0.176 A 
ATOM     13  C   UNK d   1       7.038   6.194 -13.532  0.00  0.00     0.100 C 
ATOM     14  N   UNK d   1       6.296   7.251 -14.126  0.00  0.00    -0.340 N 
ATOM     15  C   UNK d   1       4.935   7.602 -13.932  0.00  0.00     0.255 C 
ATOM     16  O   UNK d   1       4.548   8.742 -14.302  0.00  0.00    -0.268 OA
ATOM     17  C   UNK d   1       7.625   6.756 -12.228  0.00  0.00     0.069 C 
ATOM     18  C   UNK d   1       8.922   7.457 -12.545  0.00  0.00     0.275 C 
ATOM     19  N   UNK d   1       9.932   6.440 -12.730  0.00  0.00     0.084 N 
ATOM     20  C   UNK d   1       9.423   5.429 -13.619  0.00  0.00     0.275 C 
ATOM     21  C   UNK d   1       8.235   5.892 -14.426  0.00  0.00     0.069 C 
ATOM     22  C   UNK d   1      10.252   5.890 -11.413  0.00  0.00     0.309 C 
ATOM     23  H   UNK d   1       6.827   7.848 -14.793  0.00  0.00     0.164 HD
ENDROOT
TORSDOF 0
ENDMDL
