/Users/jonathanwahrer/Desktop/Msc/3_Semester/Drug_Design_Praktikum/waehrer_HTS_screening/HTS_experiment/out/docking_results/vina_output/6q9y/0591_docked.pdbqt
 OpenBabel03222219303D

 23 26  0  0  0  0  0  0  0  0999 V2000
   -0.0570    7.9890  -12.4280 Br  0  0  0  0  0  0  0  0  0  0  0  0
    1.5580    6.9750  -12.6470 C   0  0  0  0  0  0  0  0  0  0  0  0
    2.6820    7.5610  -13.1880 C   0  0  0  0  0  3  0  0  0  0  0  0
    3.8400    6.8270  -13.3430 C   0  0  0  0  0  0  0  0  0  0  0  0
    3.9400    5.4990  -12.9760 C   0  0  0  0  0  0  0  0  0  0  0  0
    2.7940    4.9230  -12.4320 C   0  0  0  0  0  3  0  0  0  0  0  0
    1.6330    5.6500  -12.2730 C   0  0  0  0  0  3  0  0  0  0  0  0
    5.0330    4.6150  -13.0650 N   0  0  0  0  0  0  0  0  0  0  0  0
    4.9260    3.3040  -12.9230 N   0  0  0  0  0  0  0  0  0  0  0  0
    6.1350    2.7840  -13.0630 N   0  0  0  0  0  0  0  0  0  0  0  0
    6.9860    3.7550  -13.2910 N   0  0  0  0  0  0  0  0  0  0  0  0
    6.3220    4.9380  -13.3000 C   0  0  0  0  0  0  0  0  0  0  0  0
    7.0380    6.1940  -13.5320 C   0  0  0  0  0  0  0  0  0  0  0  0
    6.2960    7.2510  -14.1260 N   0  0  0  0  0  0  0  0  0  0  0  0
    4.9350    7.6020  -13.9320 C   0  0  0  0  0  0  0  0  0  0  0  0
    4.5480    8.7420  -14.3020 O   0  0  0  0  0  0  0  0  0  0  0  0
    7.6250    6.7560  -12.2280 C   0  0  0  0  0  2  0  0  0  0  0  0
    8.9220    7.4570  -12.5450 C   0  0  0  0  0  2  0  0  0  0  0  0
    9.9320    6.4400  -12.7300 N   0  0  0  0  0  0  0  0  0  0  0  0
    9.4230    5.4290  -13.6190 C   0  0  0  0  0  2  0  0  0  0  0  0
    8.2350    5.8920  -14.4260 C   0  0  0  0  0  2  0  0  0  0  0  0
   10.2520    5.8900  -11.4130 C   0  0  0  0  0  1  0  0  0  0  0  0
    6.8270    7.8480  -14.7930 H   0  0  0  0  0  0  0  0  0  0  0  0
  2  1  1  0  0  0  0
  2  7  1  0  0  0  0
  3  2  2  0  0  0  0
  4  3  1  0  0  0  0
  4  5  2  0  0  0  0
  5  6  1  0  0  0  0
  6  7  2  0  0  0  0
  8  5  1  0  0  0  0
  8  9  1  0  0  0  0
 10  9  2  0  0  0  0
 11 10  1  0  0  0  0
 12 11  2  0  0  0  0
 12  8  1  0  0  0  0
 13 12  1  0  0  0  0
 13 17  1  0  0  0  0
 14 15  1  0  0  0  0
 14 13  1  0  0  0  0
 15  4  1  0  0  0  0
 16 15  2  0  0  0  0
 18 17  1  0  0  0  0
 19 18  1  0  0  0  0
 19 22  1  0  0  0  0
 20 19  1  0  0  0  0
 21 20  1  0  0  0  0
 21 13  1  0  0  0  0
 23 14  1  0  0  0  0
M  END
>  <Pose>
1

>  <Score>
-7.628

$$$$
