MODEL 1
REMARK VINA RESULT:    -5.122      0.000      0.000
REMARK INTER + INTRA:          -5.272
REMARK INTER:                  -5.272
REMARK INTRA:                   0.000
REMARK UNBOUND:                 0.000
REMARK  1 active torsions:
REMARK  status: ('A' for Active; 'I' for Inactive)
REMARK    1  A    between atoms: C_9  and  N_23 
ROOT
ATOM      1 Br   UNK d   1       3.017  13.504 -12.017  0.00  0.00    -0.051 Br
ATOM      2  C   UNK d   1       1.604  12.385 -12.616  0.00  0.00     0.011 A 
ATOM      3  C   UNK d   1       1.822  11.038 -12.713  0.00  0.00     0.031 A 
ATOM      4  C   UNK d   1       0.781  10.215 -13.155  0.00  0.00     0.005 A 
ATOM      5  C   UNK d   1      -0.411  10.779 -13.472  0.00  0.00     0.086 A 
ATOM      6  C   UNK d   1      -0.631  12.168 -13.370  0.00  0.00     0.039 A 
ATOM      7  C   UNK d   1       0.394  12.973 -12.937  0.00  0.00     0.022 A 
ATOM      8  O   UNK d   1      -1.471  10.008 -13.913  0.00  0.00    -0.292 OA
ATOM      9  C   UNK d   1      -1.295   8.646 -14.025  0.00  0.00     0.160 A 
ATOM     10  C   UNK d   1      -0.173   8.031 -13.737  0.00  0.00     0.100 A 
ATOM     11  C   UNK d   1       0.998   8.758 -13.266  0.00  0.00     0.145 A 
ATOM     12  C   UNK d   1       2.220   8.450 -14.048  0.00  0.00     0.041 A 
ATOM     13  C   UNK d   1       3.128   7.853 -13.219  0.00  0.00     0.160 A 
ATOM     14  N   UNK d   1       4.251   7.571 -13.943  0.00  0.00    -0.156 NA
ATOM     15  N   UNK d   1       4.018   7.990 -15.174  0.00  0.00    -0.280 N 
ATOM     16  C   UNK d   1       2.798   8.530 -15.284  0.00  0.00     0.036 A 
ATOM     17  C   UNK d   1       2.238   9.095 -16.550  0.00  0.00     0.070 C 
ATOM     18  N   UNK d   1       2.616   7.726 -11.910  0.00  0.00    -0.308 N 
ATOM     19  C   UNK d   1       1.321   8.268 -11.908  0.00  0.00     0.247 A 
ATOM     20  O   UNK d   1       0.530   8.345 -10.930  0.00  0.00    -0.271 OA
ATOM     21  C   UNK d   1      -0.065   6.599 -13.881  0.00  0.00     0.101 C 
ATOM     22  N   UNK d   1       0.021   5.448 -13.976  0.00  0.00    -0.191 NA
ATOM     23  H   UNK d   1       4.740   7.887 -15.936  0.00  0.00     0.189 HD
ATOM     24  H   UNK d   1       3.143   7.289 -11.082  0.00  0.00     0.170 HD
ENDROOT
BRANCH   9  25
ATOM     25  N   UNK d   1      -2.406   7.859 -14.485  0.00  0.00    -0.379 N 
ATOM     26  H   UNK d   1      -2.795   8.027 -15.438  0.00  0.00     0.158 HD
ATOM     27  H   UNK d   1      -2.847   7.117 -13.897  0.00  0.00     0.158 HD
ENDBRANCH   9  25
TORSDOF 1
ENDMDL
