/Users/jonathanwahrer/Desktop/Msc/3_Semester/Drug_Design_Praktikum/waehrer_HTS_screening/HTS_experiment/out/docking_results/vina_output/6q9y/0592_docked.pdbqt
 OpenBabel03222219303D

 27 30  0  0  1  0  0  0  0  0999 V2000
    3.0170   13.5040  -12.0170 Br  0  0  0  0  0  0  0  0  0  0  0  0
    1.6040   12.3850  -12.6160 C   0  0  0  0  0  0  0  0  0  0  0  0
    1.8220   11.0380  -12.7130 C   0  0  0  0  0  3  0  0  0  0  0  0
    0.7810   10.2150  -13.1550 C   0  0  0  0  0  0  0  0  0  0  0  0
   -0.4110   10.7790  -13.4720 C   0  0  0  0  0  0  0  0  0  0  0  0
   -0.6310   12.1680  -13.3700 C   0  0  0  0  0  3  0  0  0  0  0  0
    0.3940   12.9730  -12.9370 C   0  0  0  0  0  3  0  0  0  0  0  0
   -1.4710   10.0080  -13.9130 O   0  0  0  0  0  0  0  0  0  0  0  0
   -1.2950    8.6460  -14.0250 C   0  0  0  0  0  0  0  0  0  0  0  0
   -0.1730    8.0310  -13.7370 C   0  0  0  0  0  0  0  0  0  0  0  0
    0.9980    8.7580  -13.2660 C   0  0  1  0  0  0  0  0  0  0  0  0
    2.2200    8.4500  -14.0480 C   0  0  0  0  0  0  0  0  0  0  0  0
    3.1280    7.8530  -13.2190 C   0  0  0  0  0  0  0  0  0  0  0  0
    4.2510    7.5710  -13.9430 N   0  0  0  0  0  0  0  0  0  0  0  0
    4.0180    7.9900  -15.1740 N   0  0  0  0  0  0  0  0  0  0  0  0
    2.7980    8.5300  -15.2840 C   0  0  0  0  0  0  0  0  0  0  0  0
    2.2380    9.0950  -16.5500 C   0  0  0  0  0  1  0  0  0  0  0  0
    2.6160    7.7260  -11.9100 N   0  0  0  0  0  0  0  0  0  0  0  0
    1.3210    8.2680  -11.9080 C   0  0  0  0  0  0  0  0  0  0  0  0
    0.5300    8.3450  -10.9300 O   0  0  0  0  0  0  0  0  0  0  0  0
   -0.0650    6.5990  -13.8810 C   0  0  0  0  0  0  0  0  0  0  0  0
    0.0210    5.4480  -13.9760 N   0  0  0  0  0  0  0  0  0  0  0  0
    4.7400    7.8870  -15.9360 H   0  0  0  0  0  0  0  0  0  0  0  0
    3.1430    7.2890  -11.0820 H   0  0  0  0  0  0  0  0  0  0  0  0
   -2.4060    7.8590  -14.4850 N   0  0  0  0  0  0  0  0  0  0  0  0
   -2.7950    8.0270  -15.4380 H   0  0  0  0  0  0  0  0  0  0  0  0
   -2.8470    7.1170  -13.8970 H   0  0  0  0  0  0  0  0  0  0  0  0
  2  1  1  0  0  0  0
  3  2  1  0  0  0  0
  4  3  2  0  0  0  0
  5  6  2  0  0  0  0
  5  4  1  0  0  0  0
  6  7  1  0  0  0  0
  7  2  2  0  0  0  0
  8  5  1  0  0  0  0
  9  8  1  0  0  0  0
  9 10  2  0  0  0  0
 10 11  1  0  0  0  0
 11 12  1  6  0  0  0
 11  4  1  0  0  0  0
 11 19  1  0  0  0  0
 12 13  1  0  0  0  0
 13 18  1  0  0  0  0
 14 13  2  0  0  0  0
 15 14  1  0  0  0  0
 16 15  1  0  0  0  0
 16 12  2  0  0  0  0
 17 16  1  0  0  0  0
 18 19  1  0  0  0  0
 18 24  1  0  0  0  0
 19 20  2  0  0  0  0
 21 10  1  0  0  0  0
 22 21  3  0  0  0  0
 23 15  1  0  0  0  0
 25  9  1  0  0  0  0
 25 27  1  0  0  0  0
 26 25  1  0  0  0  0
M  END
>  <Pose>
1

>  <Score>
-5.122

$$$$
