MODEL 1
REMARK VINA RESULT:    -9.815      0.000      0.000
REMARK INTER + INTRA:         -11.080
REMARK INTER:                 -11.537
REMARK INTRA:                   0.457
REMARK UNBOUND:                 0.457
REMARK  3 active torsions:
REMARK  status: ('A' for Active; 'I' for Inactive)
REMARK    1  A    between atoms: C_11  and  C_13 
REMARK    2  A    between atoms: C_23  and  C_24 
REMARK    3  A    between atoms: C_24  and  N_25 
ROOT
ATOM      1  C   UNK d   1       1.128  12.269 -13.143  0.00  0.00    -0.001 A 
ATOM      2  C   UNK d   1       2.439  11.864 -13.343  0.00  0.00     0.096 A 
ATOM      3  C   UNK d   1       2.719  10.563 -13.704  0.00  0.00     0.289 A 
ATOM      4  O   UNK d   1       3.945  10.267 -13.866  0.00  0.00    -0.260 OA
ATOM      5  O   UNK d   1       1.765   9.698 -13.865  0.00  0.00    -0.274 OA
ATOM      6  C   UNK d   1       0.537  10.007 -13.698  0.00  0.00     0.101 A 
ATOM      7  C   UNK d   1       0.161  11.312 -13.329  0.00  0.00     0.010 A 
ATOM      8  C   UNK d   1      -1.160  11.615 -13.170  0.00  0.00     0.018 A 
ATOM      9  C   UNK d   1      -2.095  10.596 -13.380  0.00  0.00     0.041 A 
ATOM     10  C   UNK d   1      -1.693   9.324 -13.738  0.00  0.00     0.118 A 
ATOM     11  C   UNK d   1      -0.370   8.985 -13.909  0.00  0.00     0.039 A 
ATOM     12  O   UNK d   1      -2.716   8.368 -13.920  0.00  0.00    -0.191 OA
ENDROOT
BRANCH   1  13
ATOM     13  C   UNK d   1       0.817  13.627 -12.702  0.00  0.00     0.052 A 
ATOM     14  C   UNK d   1       1.605  14.264 -11.766  0.00  0.00     0.299 A 
ATOM     15  O   UNK d   1       1.312  15.448 -11.357  0.00  0.00    -0.274 OA
ATOM     16  O   UNK d   1       2.611  13.606 -11.356  0.00  0.00    -0.259 OA
ATOM     17  C   UNK d   1       0.254  16.133 -11.795  0.00  0.00     0.089 A 
ATOM     18  C   UNK d   1      -0.573  15.551 -12.733  0.00  0.00     0.000 A 
ATOM     19  C   UNK d   1       0.007  17.405 -11.300  0.00  0.00     0.039 A 
ATOM     20  C   UNK d   1      -1.663  16.283 -13.169  0.00  0.00     0.033 A 
ATOM     21  C   UNK d   1      -0.288  14.288 -13.187  0.00  0.00     0.032 A 
ATOM     22  C   UNK d   1      -1.959  17.555 -12.713  0.00  0.00     0.011 A 
ATOM     23 Br   UNK d   1      -3.459  18.514 -13.361  0.00  0.00    -0.051 Br
ATOM     24  C   UNK d   1      -1.088  18.098 -11.758  0.00  0.00     0.022 A 
ENDBRANCH   1  13
BRANCH  11  25
ATOM     25  C   UNK d   1      -0.025   7.616 -14.184  0.00  0.00     0.278 C 
BRANCH  25  26
ATOM     26  N   UNK d   1      -0.364   6.534 -13.354  0.00  0.00    -0.075 N 
ATOM     27  C   UNK d   1      -1.050   5.423 -13.954  0.00  0.00     0.269 C 
ATOM     28  C   UNK d   1       0.769   6.106 -12.493  0.00  0.00     0.269 C 
ATOM     29  H   UNK d   1      -1.067   6.897 -12.646  0.00  0.00     0.279 HD
ENDBRANCH  25  26
ENDBRANCH  11  25
TORSDOF 3
ENDMDL
