MODEL 1
REMARK VINA RESULT:    -8.662      0.000      0.000
REMARK INTER + INTRA:         -10.928
REMARK INTER:                 -11.193
REMARK INTRA:                   0.265
REMARK UNBOUND:                 0.265
REMARK  5 active torsions:
REMARK  status: ('A' for Active; 'I' for Inactive)
REMARK    1  A    between atoms: C_7  and  N_17 
REMARK    2  A    between atoms: C_9  and  C_10 
REMARK       I    between atoms: N_20  and  C_23 
REMARK    3  A    between atoms: C_23  and  C_25 
REMARK    4  A    between atoms: C_25  and  C_26 
REMARK    5  A    between atoms: C_26  and  C_27 
ROOT
ATOM      1 Br   UNK d   1       6.375   1.620 -12.377  0.00  0.00    -0.051 Br
ATOM      2  C   UNK d   1       5.588   3.301 -12.819  0.00  0.00     0.011 A 
ATOM      3  C   UNK d   1       6.383   4.383 -13.188  0.00  0.00     0.035 A 
ATOM      4  C   UNK d   1       5.812   5.606 -13.510  0.00  0.00     0.024 A 
ATOM      5  C   UNK d   1       4.443   5.759 -13.468  0.00  0.00     0.073 A 
ATOM      6  N   UNK d   1       3.882   6.953 -13.787  0.00  0.00    -0.207 NA
ATOM      7  C   UNK d   1       4.628   8.012 -14.149  0.00  0.00     0.327 A 
ATOM      8  N   UNK d   1       5.956   7.844 -14.185  0.00  0.00    -0.206 NA
ATOM      9  C   UNK d   1       6.579   6.691 -13.881  0.00  0.00     0.085 A 
ATOM     10  C   UNK d   1       3.671   4.666 -13.096  0.00  0.00     0.034 A 
ATOM     11  C   UNK d   1       4.218   3.443 -12.773  0.00  0.00     0.021 A 
ENDROOT
BRANCH   7  12
ATOM     12  N   UNK d   1       4.000   9.256 -14.482  0.00  0.00    -0.004 N 
ATOM     13  C   UNK d   1       3.694   9.989 -13.284  0.00  0.00     0.265 C 
ATOM     14  C   UNK d   1       2.521   9.469 -12.525  0.00  0.00     0.154 C 
ATOM     15  N   UNK d   1       1.734   8.530 -13.294  0.00  0.00    -0.349 N 
ATOM     16  C   UNK d   1       1.583   8.812 -14.705  0.00  0.00     0.154 C 
ATOM     17  C   UNK d   1       1.170   7.413 -12.633  0.00  0.00     0.220 C 
ATOM     18  C   UNK d   1       2.890   9.110 -15.372  0.00  0.00     0.265 C 
ATOM     19  O   UNK d   1       1.345   7.235 -11.408  0.00  0.00    -0.273 OA
ATOM     20  H   UNK d   1       4.764   9.813 -14.970  0.00  0.00     0.290 HD
BRANCH  17  21
ATOM     21  C   UNK d   1       0.367   6.478 -13.473  0.00  0.00     0.113 C 
BRANCH  21  22
ATOM     22  C   UNK d   1      -1.088   6.526 -13.113  0.00  0.00     0.122 C 
BRANCH  22  23
ATOM     23  C   UNK d   1      -1.955   6.893 -14.243  0.00  0.00     0.172 C 
ATOM     24  O   UNK d   1      -2.106   6.135 -15.224  0.00  0.00    -0.648 OA
ATOM     25  O   UNK d   1      -2.620   8.102 -14.221  0.00  0.00    -0.648 OA
ENDBRANCH  22  23
ENDBRANCH  21  22
ENDBRANCH  17  21
ENDBRANCH   7  12
BRANCH   9  26
ATOM     26  C   UNK d   1       8.029   6.614 -13.952  0.00  0.00     0.015 A 
ATOM     27  C   UNK d   1       8.812   7.161 -12.945  0.00  0.00     0.046 A 
ATOM     28  C   UNK d   1      10.188   7.095 -12.971  0.00  0.00     0.025 A 
ATOM     29 Cl   UNK d   1       7.992   7.961 -11.602  0.00  0.00    -0.083 Cl
ATOM     30  C   UNK d   1      10.851   6.475 -14.010  0.00  0.00     0.002 A 
ATOM     31  C   UNK d   1      10.066   5.928 -15.018  0.00  0.00     0.001 A 
ATOM     32  C   UNK d   1       8.691   5.999 -14.984  0.00  0.00     0.015 A 
ENDBRANCH   9  26
TORSDOF 5
ENDMDL
