MODEL 1
REMARK VINA RESULT:   -10.409      0.000      0.000
REMARK INTER + INTRA:         -14.391
REMARK INTER:                 -14.059
REMARK INTRA:                  -0.332
REMARK UNBOUND:                -0.332
REMARK  6 active torsions:
REMARK  status: ('A' for Active; 'I' for Inactive)
REMARK    1  A    between atoms: C_7  and  N_17 
REMARK    2  A    between atoms: C_9  and  C_10 
REMARK       I    between atoms: N_20  and  C_23 
REMARK    3  A    between atoms: C_23  and  C_25 
REMARK    4  A    between atoms: C_25  and  C_26 
REMARK    5  A    between atoms: C_26  and  C_27 
REMARK    6  A    between atoms: C_27  and  C_28 
ROOT
ATOM      1 Br   UNK d   1       3.065  11.506 -13.163  0.00  0.00    -0.051 Br
ATOM      2  C   UNK d   1       1.179  11.385 -13.448  0.00  0.00     0.011 A 
ATOM      3  C   UNK d   1       0.494  10.189 -13.327  0.00  0.00     0.035 A 
ATOM      4  C   UNK d   1      -0.864  10.068 -13.526  0.00  0.00     0.024 A 
ATOM      5  C   UNK d   1      -1.608  11.183 -13.865  0.00  0.00     0.073 A 
ATOM      6  N   UNK d   1      -2.945  11.085 -14.073  0.00  0.00    -0.207 NA
ATOM      7  C   UNK d   1      -3.608   9.922 -13.961  0.00  0.00     0.327 A 
ATOM      8  N   UNK d   1      -2.886   8.836 -13.630  0.00  0.00    -0.206 NA
ATOM      9  C   UNK d   1      -1.550   8.881 -13.413  0.00  0.00     0.085 A 
ATOM     10  C   UNK d   1      -0.935  12.379 -13.987  0.00  0.00     0.034 A 
ATOM     11  C   UNK d   1       0.435  12.494 -13.786  0.00  0.00     0.021 A 
ENDROOT
BRANCH   7  12
ATOM     12  N   UNK d   1      -5.011   9.857 -14.186  0.00  0.00    -0.004 N 
ATOM     13  C   UNK d   1      -5.739   9.901 -12.938  0.00  0.00     0.265 C 
ATOM     14  C   UNK d   1      -7.156  10.283 -13.227  0.00  0.00     0.154 C 
ATOM     15  N   UNK d   1      -7.400  10.120 -14.646  0.00  0.00    -0.349 N 
ATOM     16  C   UNK d   1      -6.901   8.907 -15.270  0.00  0.00     0.154 C 
ATOM     17  C   UNK d   1      -8.094  11.125 -15.339  0.00  0.00     0.219 C 
ATOM     18  C   UNK d   1      -5.432   8.677 -14.897  0.00  0.00     0.265 C 
ATOM     19  O   UNK d   1      -8.289  10.962 -16.569  0.00  0.00    -0.273 OA
ATOM     20  H   UNK d   1      -5.267  10.684 -14.765  0.00  0.00     0.290 HD
BRANCH  17  21
ATOM     21  C   UNK d   1      -8.588  12.337 -14.681  0.00  0.00     0.103 C 
BRANCH  21  22
ATOM     22  C   UNK d   1     -10.071  12.459 -14.883  0.00  0.00     0.020 C 
BRANCH  22  23
ATOM     23  C   UNK d   1     -10.463  13.762 -15.545  0.00  0.00     0.113 C 
BRANCH  23  24
ATOM     24  C   UNK d   1     -11.264  13.572 -16.770  0.00  0.00     0.172 C 
ATOM     25  O   UNK d   1     -11.201  12.453 -17.332  0.00  0.00    -0.648 OA
ATOM     26  O   UNK d   1     -12.046  14.608 -17.258  0.00  0.00    -0.648 OA
ENDBRANCH  23  24
ENDBRANCH  22  23
ENDBRANCH  21  22
ENDBRANCH  17  21
ENDBRANCH   7  12
BRANCH   9  27
ATOM     27  C   UNK d   1      -0.817   7.674 -13.059  0.00  0.00     0.015 A 
ATOM     28  C   UNK d   1      -0.944   6.501 -13.787  0.00  0.00     0.046 A 
ATOM     29  C   UNK d   1      -0.268   5.342 -13.449  0.00  0.00     0.025 A 
ATOM     30 Cl   UNK d   1      -2.000   6.474 -15.190  0.00  0.00    -0.083 Cl
ATOM     31  C   UNK d   1       0.568   5.386 -12.327  0.00  0.00     0.002 A 
ATOM     32  C   UNK d   1       0.716   6.537 -11.582  0.00  0.00     0.001 A 
ATOM     33  C   UNK d   1       0.032   7.651 -11.950  0.00  0.00     0.015 A 
ENDBRANCH   9  27
TORSDOF 6
ENDMDL
