MODEL 1
REMARK VINA RESULT:    -9.019      0.000      0.000
REMARK INTER + INTRA:         -10.707
REMARK INTER:                 -10.600
REMARK INTRA:                  -0.107
REMARK UNBOUND:                -0.107
REMARK  3 active torsions:
REMARK  status: ('A' for Active; 'I' for Inactive)
REMARK    1  A    between atoms: C_7  and  C_9 
REMARK       I    between atoms: C_9  and  N_11 
REMARK       I    between atoms: N_14  and  C_17 
REMARK    2  A    between atoms: C_17  and  C_19 
REMARK    3  A    between atoms: C_19  and  N_20 
ROOT
ATOM      1  C   UNK d   1      -2.457  17.679 -13.216  0.00  0.00     0.270 C 
ATOM      2  O   UNK d   1      -3.142  17.348 -14.257  0.00  0.00    -0.266 OA
ATOM      3  N   UNK d   1      -1.190  17.104 -13.118  0.00  0.00    -0.344 N 
ATOM      4  C   UNK d   1      -0.243  17.298 -12.053  0.00  0.00     0.146 C 
ATOM      5  C   UNK d   1       1.027  16.460 -12.247  0.00  0.00     0.145 C 
ATOM      6  N   UNK d   1       0.636  15.096 -12.568  0.00  0.00    -0.348 N 
ATOM      7  C   UNK d   1      -0.446  14.855 -13.525  0.00  0.00     0.145 C 
ATOM      8  C   UNK d   1      -0.717  16.202 -14.202  0.00  0.00     0.146 C 
ATOM      9  C   UNK d   1       1.279  13.990 -11.970  0.00  0.00     0.248 C 
ATOM     10  O   UNK d   1       2.197  14.236 -11.151  0.00  0.00    -0.271 OA
ENDROOT
BRANCH   1  11
ATOM     11  C   UNK d   1      -3.051  18.596 -12.263  0.00  0.00     0.102 A 
ATOM     12  N   UNK d   1      -2.579  19.157 -11.147  0.00  0.00    -0.351 N 
ATOM     13  C   UNK d   1      -3.521  19.960 -10.561  0.00  0.00     0.043 A 
ATOM     14  H   UNK d   1      -1.644  19.049 -10.729  0.00  0.00     0.166 HD
ATOM     15  C   UNK d   1      -4.655  19.922 -11.325  0.00  0.00    -0.006 A 
ATOM     16  C   UNK d   1      -3.508  20.735  -9.416  0.00  0.00     0.031 A 
ATOM     17  C   UNK d   1      -5.776  20.663 -10.940  0.00  0.00     0.032 A 
ATOM     18  C   UNK d   1      -4.376  19.089 -12.371  0.00  0.00     0.049 A 
ATOM     19  C   UNK d   1      -5.771  21.434  -9.806  0.00  0.00     0.011 A 
ATOM     20 Br   UNK d   1      -7.305  22.454  -9.267  0.00  0.00    -0.051 Br
ATOM     21  C   UNK d   1      -4.626  21.466  -9.042  0.00  0.00     0.021 A 
ENDBRANCH   1  11
BRANCH   9  22
ATOM     22  C   UNK d   1       0.858  12.643 -12.320  0.00  0.00     0.374 C 
BRANCH  22  23
ATOM     23  N   UNK d   1       1.447  12.111 -13.528  0.00  0.00     0.101 N 
ATOM     24  C   UNK d   1       0.736  10.888 -13.906  0.00  0.00     0.299 C 
ATOM     25  C   UNK d   1       1.455   9.678 -13.421  0.00  0.00     0.198 C 
ATOM     26  O   UNK d   1       2.055   9.922 -12.188  0.00  0.00    -0.388 OA
ATOM     27  C   UNK d   1       3.128  10.807 -12.313  0.00  0.00     0.198 C 
ATOM     28  C   UNK d   1       2.866  11.833 -13.391  0.00  0.00     0.299 C 
ENDBRANCH  22  23
ENDBRANCH   9  22
TORSDOF 3
ENDMDL
