MODEL 1
REMARK VINA RESULT:    -9.069      0.000      0.000
REMARK INTER + INTRA:         -10.964
REMARK INTER:                 -10.659
REMARK INTRA:                  -0.305
REMARK UNBOUND:                -0.305
REMARK  3 active torsions:
REMARK  status: ('A' for Active; 'I' for Inactive)
REMARK    1  A    between atoms: N_11  and  C_14 
REMARK    2  A    between atoms: C_14  and  C_15 
REMARK    3  A    between atoms: C_15  and  N_16 
ROOT
ATOM      1 Br   UNK d   1      -5.678  22.934  -7.928  0.00  0.00    -0.051 Br
ATOM      2  C   UNK d   1      -5.477  21.737  -9.393  0.00  0.00     0.011 A 
ATOM      3  C   UNK d   1      -4.325  20.997  -9.563  0.00  0.00     0.035 A 
ATOM      4  C   UNK d   1      -4.163  20.124 -10.620  0.00  0.00     0.023 A 
ATOM      5  C   UNK d   1      -5.199  20.002 -11.526  0.00  0.00     0.045 A 
ATOM      6  N   UNK d   1      -4.778  19.103 -12.434  0.00  0.00    -0.349 N 
ATOM      7  C   UNK d   1      -3.531  18.658 -12.137  0.00  0.00     0.131 A 
ATOM      8  C   UNK d   1      -3.124  19.296 -10.986  0.00  0.00     0.103 A 
ATOM      9  N   UNK d   1      -1.902  19.012 -10.492  0.00  0.00    -0.240 NA
ATOM     10  C   UNK d   1      -1.079  18.129 -11.089  0.00  0.00     0.213 A 
ATOM     11  N   UNK d   1      -1.449  17.493 -12.208  0.00  0.00    -0.305 N 
ATOM     12  C   UNK d   1      -2.661  17.762 -12.716  0.00  0.00     0.277 A 
ATOM     13  O   UNK d   1      -3.024  17.176 -13.766  0.00  0.00    -0.265 OA
ATOM     14  C   UNK d   1      -6.347  20.750 -11.345  0.00  0.00     0.032 A 
ATOM     15  C   UNK d   1      -6.518  21.625 -10.291  0.00  0.00     0.021 A 
ATOM     16  H   UNK d   1      -5.314  18.776 -13.259  0.00  0.00     0.166 HD
ENDROOT
BRANCH  11  17
ATOM     17  C   UNK d   1      -0.552  16.528 -12.867  0.00  0.00     0.152 C 
BRANCH  17  18
ATOM     18  C   UNK d   1       0.591  16.199 -11.986  0.00  0.00     0.137 C 
BRANCH  18  19
ATOM     19  N   UNK d   1       0.772  14.832 -11.655  0.00  0.00    -0.408 N 
ATOM     20  C   UNK d   1       1.927  14.538 -10.881  0.00  0.00     0.147 C 
ATOM     21  C   UNK d   1       3.099  14.080 -11.702  0.00  0.00     0.289 C 
ATOM     22  N   UNK d   1       2.704  13.249 -12.818  0.00  0.00     0.086 N 
ATOM     23  C   UNK d   1       1.355  12.737 -12.642  0.00  0.00     0.289 C 
ATOM     24  H   UNK d   1       2.798  13.744 -13.734  0.00  0.00     0.316 HD
ATOM     25  C   UNK d   1       0.434  13.931 -12.698  0.00  0.00     0.147 C 
ENDBRANCH  18  19
ENDBRANCH  17  18
ENDBRANCH  11  17
TORSDOF 3
ENDMDL
