MODEL 1
REMARK VINA RESULT:    -8.202      0.000      0.000
REMARK INTER + INTRA:          -8.311
REMARK INTER:                  -8.682
REMARK INTRA:                   0.370
REMARK UNBOUND:                 0.370
REMARK  1 active torsions:
REMARK  status: ('A' for Active; 'I' for Inactive)
REMARK    1  A    between atoms: C_10  and  C_15 
REMARK       I    between atoms: C_15  and  N_17 
ROOT
ATOM      1 Br   UNK d   1      -0.092  14.494 -12.918  0.00  0.00    -0.051 Br
ATOM      2  C   UNK d   1      -0.046  12.608 -13.178  0.00  0.00     0.012 A 
ATOM      3  C   UNK d   1      -1.237  11.915 -13.250  0.00  0.00     0.028 A 
ATOM      4  C   UNK d   1      -1.237  10.528 -13.441  0.00  0.00    -0.027 A 
ATOM      5  C   UNK d   1      -0.040   9.896 -13.552  0.00  0.00     0.055 A 
ATOM      6  C   UNK d   1       1.174  10.544 -13.486  0.00  0.00     0.044 A 
ATOM      7  C   UNK d   1       1.148  11.902 -13.299  0.00  0.00     0.037 A 
ATOM      8  C   UNK d   1       2.305   9.783 -13.613  0.00  0.00     0.201 A 
ATOM      9  O   UNK d   1       3.406  10.354 -13.557  0.00  0.00    -0.286 OA
ATOM     10  C   UNK d   1       2.267   8.409 -13.801  0.00  0.00     0.098 A 
ATOM     11  C   UNK d   1       1.021   7.823 -13.858  0.00  0.00     0.112 A 
ATOM     12  N   UNK d   1      -0.118   8.576 -13.731  0.00  0.00    -0.354 N 
ATOM     13  C   UNK d   1      -1.522   8.228 -13.752  0.00  0.00     0.133 A 
ATOM     14  C   UNK d   1      -2.291   9.506 -13.560  0.00  0.00     0.061 A 
ENDROOT
BRANCH  10  15
ATOM     15  C   UNK d   1       3.482   7.613 -13.936  0.00  0.00     0.259 C 
ATOM     16  O   UNK d   1       4.329   7.932 -14.801  0.00  0.00    -0.267 OA
ATOM     17  N   UNK d   1       3.711   6.476 -13.092  0.00  0.00    -0.344 N 
ATOM     18  C   UNK d   1       4.907   5.669 -13.204  0.00  0.00     0.152 C 
ATOM     19  C   UNK d   1       2.745   6.086 -12.084  0.00  0.00     0.152 C 
ATOM     20  C   UNK d   1       4.427   4.223 -13.387  0.00  0.00     0.187 C 
ATOM     21  O   UNK d   1       3.556   3.902 -12.374  0.00  0.00    -0.388 OA
ATOM     22  C   UNK d   1       2.384   4.629 -12.385  0.00  0.00     0.187 C 
ENDBRANCH  10  15
TORSDOF 1
ENDMDL
