MODEL 1
REMARK VINA RESULT:    -7.341      0.000      0.000
REMARK INTER + INTRA:         -11.404
REMARK INTER:                 -10.560
REMARK INTRA:                  -0.844
REMARK UNBOUND:                -0.844
REMARK  8 active torsions:
REMARK  status: ('A' for Active; 'I' for Inactive)
REMARK    1  A    between atoms: N_5  and  C_23 
REMARK    2  A    between atoms: C_6  and  C_17 
REMARK    3  A    between atoms: C_7  and  C_12 
REMARK    4  A    between atoms: C_10  and  O_11 
REMARK    5  A    between atoms: C_12  and  O_14 
REMARK    6  A    between atoms: O_14  and  C_15 
REMARK    7  A    between atoms: C_17  and  N_18 
REMARK    8  A    between atoms: C_23  and  C_24 
ROOT
ATOM      1 Br   UNK d   1      -0.999   7.933 -12.506  0.00  0.00    -0.048 Br
ATOM      2  C   UNK d   1       0.755   7.292 -12.760  0.00  0.00     0.046 A 
ATOM      3  C   UNK d   1       1.722   8.068 -13.377  0.00  0.00     0.052 A 
ATOM      4  C   UNK d   1       2.994   7.621 -13.588  0.00  0.00     0.048 A 
ATOM      5  N   UNK d   1       4.081   8.258 -14.119  0.00  0.00    -0.343 N 
ATOM      6  C   UNK d   1       5.120   7.409 -14.033  0.00  0.00     0.055 A 
ATOM      7  C   UNK d   1       4.676   6.188 -13.460  0.00  0.00     0.076 A 
ATOM      8  C   UNK d   1       3.345   6.379 -13.192  0.00  0.00     0.012 A 
ATOM      9  C   UNK d   1       2.388   5.577 -12.565  0.00  0.00     0.052 A 
ATOM     10  C   UNK d   1       1.092   6.019 -12.342  0.00  0.00     0.084 A 
ENDROOT
BRANCH   5  11
ATOM     11  C   UNK d   1       3.929   9.496 -14.909  0.00  0.00     0.167 C 
BRANCH  11  12
ATOM     12  C   UNK d   1       3.551  10.587 -13.882  0.00  0.00    -0.040 A 
ATOM     13  C   UNK d   1       2.305  11.124 -14.031  0.00  0.00     0.009 A 
ATOM     14  C   UNK d   1       1.887  12.113 -13.126  0.00  0.00     0.001 A 
ATOM     15  C   UNK d   1       2.670  12.555 -12.102  0.00  0.00     0.000 A 
ATOM     16  C   UNK d   1       3.933  11.973 -11.989  0.00  0.00     0.001 A 
ATOM     17  C   UNK d   1       4.365  10.989 -12.887  0.00  0.00     0.009 A 
ENDBRANCH  11  12
ENDBRANCH   5  11
BRANCH   6  18
ATOM     18  C   UNK d   1       6.528   7.623 -14.368  0.00  0.00     0.292 C 
BRANCH  18  19
ATOM     19  N   UNK d   1       7.534   7.096 -13.498  0.00  0.00    -0.066 N 
ATOM     20  C   UNK d   1       8.015   7.562 -12.320  0.00  0.00     0.235 C 
ATOM     21  C   UNK d   1       9.514   7.183 -12.241  0.00  0.00     0.029 C 
ATOM     22  C   UNK d   1       9.525   5.956 -13.150  0.00  0.00     0.029 C 
ATOM     23  C   UNK d   1       8.636   6.490 -14.264  0.00  0.00     0.235 C 
ATOM     24  H   UNK d   1       7.003   6.079 -13.225  0.00  0.00     0.280 HD
ENDBRANCH  18  19
ENDBRANCH   6  18
BRANCH   7  25
ATOM     25  C   UNK d   1       5.411   4.920 -13.349  0.00  0.00     0.296 C 
ATOM     26  O   UNK d   1       6.273   4.831 -12.435  0.00  0.00    -0.259 OA
BRANCH  25  27
ATOM     27  O   UNK d   1       5.232   3.832 -14.137  0.00  0.00    -0.318 OA
BRANCH  27  28
ATOM     28  C   UNK d   1       4.403   2.733 -14.019  0.00  0.00     0.174 C 
ATOM     29  C   UNK d   1       4.125   2.298 -12.586  0.00  0.00     0.034 C 
ENDBRANCH  27  28
ENDBRANCH  25  27
ENDBRANCH   7  25
BRANCH  10  30
ATOM     30  O   UNK d   1       0.109   5.240 -11.706  0.00  0.00    -0.359 OA
ATOM     31  H   UNK d   1      -0.538   5.694 -11.044  0.00  0.00     0.217 HD
ENDBRANCH  10  30
TORSDOF 8
ENDMDL
