MODEL 1
REMARK VINA RESULT:    -7.952      0.000      0.000
REMARK INTER + INTRA:         -11.405
REMARK INTER:                 -10.973
REMARK INTRA:                  -0.431
REMARK UNBOUND:                -0.431
REMARK  7 active torsions:
REMARK  status: ('A' for Active; 'I' for Inactive)
REMARK    1  A    between atoms: C_6  and  O_28 
REMARK    2  A    between atoms: C_10  and  N_11 
REMARK       I    between atoms: N_11  and  C_12 
REMARK    3  A    between atoms: C_12  and  C_14 
REMARK    4  A    between atoms: C_14  and  N_15 
REMARK    5  A    between atoms: N_18  and  C_21 
REMARK    6  A    between atoms: C_21  and  C_22 
REMARK       I    between atoms: C_22  and  N_24 
REMARK    7  A    between atoms: N_24  and  C_25 
ROOT
ATOM      1  N   UNK d   1       2.416   8.808 -14.047  0.00  0.00    -0.324 N 
ATOM      2  C   UNK d   1       2.065   9.920 -13.270  0.00  0.00     0.239 C 
ATOM      3  O   UNK d   1       2.663  10.150 -12.188  0.00  0.00    -0.271 OA
ATOM      4  H   UNK d   1       1.867   8.707 -14.954  0.00  0.00     0.169 HD
ENDROOT
BRANCH   2   5
ATOM      5  C   UNK d   1       1.013  10.874 -13.635  0.00  0.00     0.220 C 
BRANCH   5   6
ATOM      6  N   UNK d   1      -0.308  10.398 -13.749  0.00  0.00    -0.401 N 
ATOM      7  C   UNK d   1      -0.678   9.254 -12.997  0.00  0.00     0.136 C 
ATOM      8  C   UNK d   1      -1.936   8.583 -13.548  0.00  0.00     0.136 C 
ATOM      9  N   UNK d   1      -2.944   9.551 -13.627  0.00  0.00    -0.401 N 
ATOM     10  C   UNK d   1      -2.618  10.897 -13.357  0.00  0.00     0.136 C 
ATOM     11  C   UNK d   1      -1.314  11.394 -13.905  0.00  0.00     0.136 C 
BRANCH   9  12
ATOM     12  C   UNK d   1      -4.056   9.238 -14.405  0.00  0.00     0.219 C 
BRANCH  12  13
ATOM     13  C   UNK d   1      -5.378   9.661 -13.943  0.00  0.00     0.235 C 
ATOM     14  O   UNK d   1      -5.684   9.291 -12.744  0.00  0.00    -0.272 OA
ATOM     15  N   UNK d   1      -6.331  10.405 -14.631  0.00  0.00    -0.355 N 
ATOM     16  H   UNK d   1      -6.140  10.741 -15.596  0.00  0.00     0.162 HD
BRANCH  15  17
ATOM     17  C   UNK d   1      -7.625  10.770 -14.063  0.00  0.00     0.084 A 
ATOM     18  C   UNK d   1      -7.863  12.120 -13.527  0.00  0.00     0.027 A 
ATOM     19  C   UNK d   1      -8.492  11.729 -14.851  0.00  0.00     0.027 A 
ENDBRANCH  15  17
ENDBRANCH  12  13
ENDBRANCH   9  12
ENDBRANCH   5   6
ENDBRANCH   2   5
BRANCH   1  20
ATOM     20  C   UNK d   1       3.410   7.843 -13.770  0.00  0.00     0.054 A 
ATOM     21  C   UNK d   1       3.039   6.648 -13.175  0.00  0.00     0.040 A 
ATOM     22 Br   UNK d   1       1.185   6.409 -12.745  0.00  0.00    -0.049 Br
ATOM     23  C   UNK d   1       3.926   5.639 -12.875  0.00  0.00     0.055 A 
ATOM     24  C   UNK d   1       5.262   5.778 -13.159  0.00  0.00     0.089 A 
ATOM     25  N   UNK d   1       6.367   5.022 -13.009  0.00  0.00    -0.207 NA
ATOM     26  C   UNK d   1       5.649   6.950 -13.745  0.00  0.00     0.066 A 
ATOM     27  C   UNK d   1       7.448   5.673 -13.480  0.00  0.00     0.244 A 
ATOM     28  N   UNK d   1       6.982   6.853 -13.926  0.00  0.00    -0.319 N 
ATOM     29  H   UNK d   1       7.574   7.613 -14.363  0.00  0.00     0.169 HD
ATOM     30  C   UNK d   1       4.750   7.980 -14.053  0.00  0.00     0.063 A 
BRANCH  27  31
ATOM     31  O   UNK d   1       8.775   5.201 -13.494  0.00  0.00    -0.331 OA
ATOM     32  H   UNK d   1       9.477   5.865 -13.141  0.00  0.00     0.221 HD
ENDBRANCH  27  31
ENDBRANCH   1  20
TORSDOF 7
ENDMDL
