MODEL 1
REMARK VINA RESULT:    -8.995      0.000      0.000
REMARK INTER + INTRA:         -12.663
REMARK INTER:                 -11.624
REMARK INTRA:                  -1.039
REMARK UNBOUND:                -1.039
REMARK  5 active torsions:
REMARK  status: ('A' for Active; 'I' for Inactive)
REMARK    1  A    between atoms: C_7  and  N_11 
REMARK    2  A    between atoms: C_13  and  C_17 
REMARK       I    between atoms: C_17  and  N_19 
REMARK    3  A    between atoms: N_19  and  C_20 
REMARK    4  A    between atoms: C_20  and  C_21 
REMARK    5  A    between atoms: C_21  and  C_22 
ROOT
ATOM      1  N   UNK d   1       0.238   7.800 -13.659  0.00  0.00    -0.301 N 
ATOM      2  C   UNK d   1       1.001   8.895 -14.298  0.00  0.00     0.148 C 
ATOM      3  C   UNK d   1       2.427   8.370 -14.284  0.00  0.00     0.105 C 
ATOM      4  C   UNK d   1       2.470   7.551 -13.011  0.00  0.00     0.119 C 
ATOM      5  C   UNK d   1       1.063   7.282 -12.618  0.00  0.00     0.226 C 
ATOM      6  O   UNK d   1       0.664   6.720 -11.589  0.00  0.00    -0.273 OA
ENDROOT
BRANCH   3   7
ATOM      7  C   UNK d   1       3.286   9.565 -14.272  0.00  0.00     0.223 C 
ATOM      8  O   UNK d   1       4.265   9.669 -15.047  0.00  0.00    -0.273 OA
ATOM      9  N   UNK d   1       2.973  10.604 -13.354  0.00  0.00    -0.360 N 
ATOM     10  H   UNK d   1       2.158  10.472 -12.724  0.00  0.00     0.162 HD
BRANCH   9  11
ATOM     11  C   UNK d   1       3.760  11.816 -13.281  0.00  0.00     0.128 C 
BRANCH  11  12
ATOM     12  C   UNK d   1       3.601  12.536 -11.959  0.00  0.00     0.080 C 
BRANCH  12  13
ATOM     13  C   UNK d   1       2.373  13.354 -11.951  0.00  0.00     0.052 A 
ATOM     14  N   UNK d   1       1.293  13.088 -12.704  0.00  0.00    -0.247 NA
ATOM     15  C   UNK d   1       0.343  13.997 -12.480  0.00  0.00     0.207 A 
ATOM     16  N   UNK d   1       0.823  14.874 -11.557  0.00  0.00    -0.359 N 
ATOM     17  C   UNK d   1       2.058  14.472 -11.242  0.00  0.00     0.116 A 
ATOM     18  H   UNK d   1       0.262  15.686 -11.212  0.00  0.00     0.166 HD
ENDBRANCH  12  13
ENDBRANCH  11  12
ENDBRANCH   9  11
ENDBRANCH   3   7
BRANCH   1  19
ATOM     19  C   UNK d   1      -1.040   7.429 -14.114  0.00  0.00     0.139 A 
ATOM     20  N   UNK d   1      -1.465   6.296 -14.691  0.00  0.00    -0.261 N 
ATOM     21  N   UNK d   1      -2.765   6.355 -14.963  0.00  0.00    -0.172 NA
ATOM     22  H   UNK d   1      -0.885   5.463 -14.911  0.00  0.00     0.191 HD
ATOM     23  C   UNK d   1      -3.255   7.544 -14.571  0.00  0.00     0.092 A 
ATOM     24  C   UNK d   1      -4.513   8.099 -14.622  0.00  0.00     0.053 A 
ATOM     25  C   UNK d   1      -2.197   8.230 -14.039  0.00  0.00     0.040 A 
ATOM     26  C   UNK d   1      -4.670   9.386 -14.110  0.00  0.00     0.013 A 
ATOM     27 Br   UNK d   1      -6.378  10.252 -14.130  0.00  0.00    -0.051 Br
ATOM     28  C   UNK d   1      -3.586  10.066 -13.574  0.00  0.00     0.020 A 
ATOM     29  C   UNK d   1      -2.339   9.492 -13.535  0.00  0.00     0.019 A 
ENDBRANCH   1  19
TORSDOF 5
ENDMDL
