/Users/jonathanwahrer/Desktop/Msc/3_Semester/Drug_Design_Praktikum/waehrer_HTS_screening/HTS_experiment/out/docking_results/vina_output/6q9y/0648_docked.pdbqt
 OpenBabel03222219323D

 32 35  0  0  0  0  0  0  0  0999 V2000
    0.9760    8.1930  -14.3660 C   0  0  0  0  0  0  0  0  0  0  0  0
    1.4760    8.4330  -15.5230 O   0  0  0  0  0  0  0  0  0  0  0  0
    1.8340    8.1450  -13.3000 N   0  0  0  0  0  0  0  0  0  0  0  0
    1.4720    7.8760  -11.9430 C   0  0  0  0  0  2  0  0  0  0  0  0
    1.9610    6.5140  -11.5760 C   0  0  0  0  0  2  0  0  0  0  0  0
    3.1270    6.1350  -12.3600 N   0  0  0  0  0  0  0  0  0  0  0  0
    3.9810    7.0790  -13.0020 C   0  0  0  0  0  2  0  0  0  0  0  0
    3.2870    8.3560  -13.4660 C   0  0  0  0  0  2  0  0  0  0  0  0
    3.3020    4.7150  -12.4780 C   0  0  0  0  0  0  0  0  0  0  0  0
    2.3710    3.9670  -11.9620 O   0  0  0  0  0  0  0  0  0  0  0  0
    4.4040    4.0800  -13.1130 C   0  0  0  0  0  0  0  0  0  0  0  0
    4.2690    2.9630  -13.9280 N   0  0  0  0  0  0  0  0  0  0  0  0
    5.4350    2.5620  -14.3180 N   0  0  0  0  0  0  0  0  0  0  0  0
    3.0200    2.3380  -14.2940 C   0  0  0  0  0  1  0  0  0  0  0  0
    6.4010    3.3310  -13.8250 C   0  0  0  0  0  0  0  0  0  0  0  0
    5.7350    4.3030  -13.0520 C   0  0  0  0  0  3  0  0  0  0  0  0
    7.8370    3.2550  -14.0240 C   0  0  0  0  0  0  0  0  0  0  0  0
    8.3340    2.0780  -14.1370 O   0  0  0  0  0  0  0  0  0  0  0  0
    8.7000    4.3370  -14.0960 N   0  0  0  0  0  0  0  0  0  0  0  0
   10.1240    4.0700  -14.3250 C   0  0  0  0  0  2  0  0  0  0  0  0
    8.3100    5.7040  -13.9440 C   0  0  0  0  0  2  0  0  0  0  0  0
   10.8610    4.7940  -13.2180 C   0  0  0  0  0  2  0  0  0  0  0  0
   10.6490    6.1630  -13.4620 O   0  0  0  0  0  0  0  0  0  0  0  0
    9.3550    6.4940  -13.1680 C   0  0  0  0  0  2  0  0  0  0  0  0
   -0.4520    8.0010  -14.3340 C   0  0  0  0  0  0  0  0  0  0  0  0
   -1.4320    8.9370  -13.9860 C   0  0  0  0  0  0  0  0  0  0  0  0
   -1.0570   10.7480  -13.4580 Br  0  0  0  0  0  0  0  0  0  0  0  0
   -2.6610    8.3450  -14.0890 C   0  0  0  0  0  3  0  0  0  0  0  0
   -2.4600    7.0840  -14.4860 N   0  0  0  0  0  0  0  0  0  0  0  0
   -1.1770    6.8830  -14.6290 N   0  0  0  0  0  0  0  0  0  0  0  0
   -3.5650    6.1570  -14.6920 C   0  0  0  0  0  2  0  0  0  0  0  0
   -4.9080    6.8380  -14.7030 C   0  0  0  0  0  1  0  0  0  0  0  0
  1 25  1  0  0  0  0
  1  3  1  0  0  0  0
  2  1  2  0  0  0  0
  3  4  1  0  0  0  0
  4  5  1  0  0  0  0
  6  5  1  0  0  0  0
  7  6  1  0  0  0  0
  8  3  1  0  0  0  0
  8  7  1  0  0  0  0
  9  6  1  0  0  0  0
  9 10  2  0  0  0  0
 11 16  2  0  0  0  0
 11  9  1  0  0  0  0
 12 11  1  0  0  0  0
 13 12  1  0  0  0  0
 13 15  2  0  0  0  0
 14 12  1  0  0  0  0
 15 16  1  0  0  0  0
 17 15  1  0  0  0  0
 18 17  2  0  0  0  0
 19 17  1  0  0  0  0
 19 21  1  0  0  0  0
 20 19  1  0  0  0  0
 20 22  1  0  0  0  0
 21 24  1  0  0  0  0
 23 22  1  0  0  0  0
 23 24  1  0  0  0  0
 25 26  1  0  0  0  0
 26 27  1  0  0  0  0
 28 26  2  0  0  0  0
 29 28  1  0  0  0  0
 30 29  1  0  0  0  0
 30 25  2  0  0  0  0
 31 29  1  0  0  0  0
 32 31  1  0  0  0  0
M  END
>  <Pose>
1

>  <Score>
-6.327

$$$$
