MODEL 1
REMARK VINA RESULT:    -9.020      0.000      0.000
REMARK INTER + INTRA:         -11.984
REMARK INTER:                 -11.657
REMARK INTRA:                  -0.327
REMARK UNBOUND:                -0.327
REMARK  5 active torsions:
REMARK  status: ('A' for Active; 'I' for Inactive)
REMARK    1  A    between atoms: N_4  and  C_7 
REMARK    2  A    between atoms: C_7  and  C_8 
REMARK       I    between atoms: C_8  and  N_10 
REMARK    3  A    between atoms: N_10  and  C_11 
REMARK    4  A    between atoms: C_11  and  C_12 
REMARK    5  A    between atoms: C_15  and  O_24 
ROOT
ATOM      1  C   UNK d   1      -0.025  12.196 -13.328  0.00  0.00     0.003 A 
ATOM      2  C   UNK d   1       1.294  12.383 -13.003  0.00  0.00     0.116 A 
ATOM      3  C   UNK d   1       2.160  11.312 -12.872  0.00  0.00     0.140 A 
ATOM      4  C   UNK d   1       1.722  10.020 -13.064  0.00  0.00     0.120 A 
ATOM      5  C   UNK d   1       0.370   9.814 -13.397  0.00  0.00     0.075 A 
ATOM      6  C   UNK d   1      -0.486  10.875 -13.527  0.00  0.00    -0.027 A 
ATOM      7  C   UNK d   1      -1.889  10.647 -13.884  0.00  0.00     0.060 C 
ATOM      8  C   UNK d   1      -2.451   9.306 -13.629  0.00  0.00     0.130 C 
ATOM      9  N   UNK d   1      -1.494   8.221 -13.806  0.00  0.00    -0.352 N 
ATOM     10  C   UNK d   1      -0.117   8.445 -13.537  0.00  0.00     0.256 C 
ATOM     11  O   UNK d   1       0.660   7.449 -13.423  0.00  0.00    -0.267 OA
ATOM     12  C   UNK d   1      -2.024   6.948 -14.237  0.00  0.00     0.152 C 
ATOM     13  O   UNK d   1       3.393  11.842 -12.547  0.00  0.00    -0.320 OA
ATOM     14  C   UNK d   1       3.371  13.243 -12.648  0.00  0.00     0.352 C 
ATOM     15  O   UNK d   1       1.992  13.587 -12.756  0.00  0.00    -0.322 OA
ENDROOT
BRANCH   1  16
ATOM     16  C   UNK d   1      -0.984  13.316 -13.433  0.00  0.00     0.164 C 
BRANCH  16  17
ATOM     17  N   UNK d   1      -0.635  14.454 -12.602  0.00  0.00    -0.355 N 
ATOM     18  C   UNK d   1      -0.309  15.740 -12.973  0.00  0.00     0.237 C 
ATOM     19  O   UNK d   1      -0.275  16.094 -14.195  0.00  0.00    -0.272 OA
ATOM     20  H   UNK d   1      -0.649  14.224 -11.558  0.00  0.00     0.162 HD
BRANCH  18  21
ATOM     21  C   UNK d   1       0.020  16.773 -11.954  0.00  0.00     0.253 C 
BRANCH  21  22
ATOM     22  N   UNK d   1      -1.178  17.622 -11.809  0.00  0.00    -0.271 N 
ATOM     23  C   UNK d   1      -1.442  18.484 -10.833  0.00  0.00     0.133 A 
ATOM     24  C   UNK d   1      -2.664  19.062 -11.091  0.00  0.00     0.047 A 
ATOM     25 Br   UNK d   1      -3.580  20.372 -10.048  0.00  0.00    -0.048 Br
ATOM     26  C   UNK d   1      -3.144  18.523 -12.263  0.00  0.00     0.159 A 
ATOM     27  N   UNK d   1      -2.202  17.653 -12.658  0.00  0.00    -0.183 NA
ENDBRANCH  21  22
ENDBRANCH  18  21
ENDBRANCH  16  17
ENDBRANCH   1  16
BRANCH   4  28
ATOM     28  O   UNK d   1       2.559   8.925 -12.943  0.00  0.00    -0.352 OA
ATOM     29  C   UNK d   1       3.654   8.741 -13.816  0.00  0.00     0.210 C 
ENDBRANCH   4  28
TORSDOF 5
ENDMDL
