MODEL 1
REMARK VINA RESULT:    -9.036      0.000      0.000
REMARK INTER + INTRA:         -11.054
REMARK INTER:                 -10.621
REMARK INTRA:                  -0.433
REMARK UNBOUND:                -0.433
REMARK  3 active torsions:
REMARK  status: ('A' for Active; 'I' for Inactive)
REMARK    1  A    between atoms: N_4  and  C_7 
REMARK    2  A    between atoms: C_7  and  N_8 
REMARK    3  A    between atoms: C_10  and  C_13 
ROOT
ATOM      1  C   UNK d   1      -5.787  21.763  -9.506  0.00  0.00     0.202 A 
ATOM      2  N   UNK d   1      -6.217  21.193 -10.642  0.00  0.00    -0.142 NA
ATOM      3  N   UNK d   1      -5.300  20.343 -11.107  0.00  0.00    -0.206 N 
ATOM      4  C   UNK d   1      -4.247  20.367 -10.240  0.00  0.00     0.170 A 
ATOM      5  N   UNK d   1      -4.571  21.244  -9.270  0.00  0.00    -0.205 NA
ATOM      6  C   UNK d   1      -3.161  19.562 -10.508  0.00  0.00     0.078 A 
ATOM      7  C   UNK d   1      -3.100  18.735 -11.616  0.00  0.00     0.160 A 
ATOM      8  N   UNK d   1      -1.928  18.077 -11.611  0.00  0.00    -0.261 N 
ATOM      9  N   UNK d   1      -1.265  18.470 -10.536  0.00  0.00    -0.184 NA
ATOM     10  C   UNK d   1      -1.982  19.375  -9.838  0.00  0.00     0.158 A 
ATOM     11  N   UNK d   1      -4.160  18.745 -12.440  0.00  0.00    -0.222 NA
ATOM     12  C   UNK d   1      -5.216  19.531 -12.175  0.00  0.00     0.239 A 
ATOM     13  H   UNK d   1      -1.581  17.383 -12.307  0.00  0.00     0.191 HD
ENDROOT
BRANCH   1  14
ATOM     14  C   UNK d   1      -6.511  22.746  -8.702  0.00  0.00     0.128 A 
ATOM     15  N   UNK d   1      -6.038  23.519  -7.710  0.00  0.00    -0.167 NA
ATOM     16  N   UNK d   1      -6.989  24.289  -7.211  0.00  0.00    -0.261 N 
ATOM     17  C   UNK d   1      -8.137  24.046  -7.867  0.00  0.00     0.117 A 
ATOM     18  C   UNK d   1      -7.847  23.069  -8.813  0.00  0.00     0.056 A 
BRANCH  16  19
ATOM     19  C   UNK d   1      -6.815  25.252  -6.120  0.00  0.00     0.300 C 
BRANCH  19  20
ATOM     20  N   UNK d   1      -5.566  25.974  -6.246  0.00  0.00    -0.260 N 
ATOM     21  C   UNK d   1      -4.518  25.897  -5.410  0.00  0.00     0.135 A 
ATOM     22  C   UNK d   1      -3.529  26.738  -5.879  0.00  0.00     0.047 A 
ATOM     23 Br   UNK d   1      -1.831  27.031  -5.100  0.00  0.00    -0.048 Br
ATOM     24  C   UNK d   1      -4.024  27.320  -7.025  0.00  0.00     0.159 A 
ATOM     25  N   UNK d   1      -5.269  26.825  -7.211  0.00  0.00    -0.182 NA
ENDBRANCH  19  20
ENDBRANCH  16  19
ENDBRANCH   1  14
TORSDOF 3
ENDMDL
