MODEL 1
REMARK VINA RESULT:    -8.417      0.000      0.000
REMARK INTER + INTRA:          -9.985
REMARK INTER:                  -9.401
REMARK INTRA:                  -0.584
REMARK UNBOUND:                -0.584
REMARK  2 active torsions:
REMARK  status: ('A' for Active; 'I' for Inactive)
REMARK    1  A    between atoms: N_4  and  C_7 
REMARK    2  A    between atoms: C_10  and  C_13 
REMARK       I    between atoms: C_13  and  N_15 
ROOT
ATOM      1  C   UNK d   1       0.968   7.576 -13.736  0.00  0.00     0.253 C 
ATOM      2  O   UNK d   1       1.245   6.697 -12.827  0.00  0.00    -0.267 OA
ATOM      3  N   UNK d   1       2.057   8.138 -14.380  0.00  0.00    -0.348 N 
ATOM      4  C   UNK d   1       2.142   9.086 -15.458  0.00  0.00     0.129 C 
ATOM      5  C   UNK d   1       2.437  10.439 -14.840  0.00  0.00     0.061 C 
ATOM      6  C   UNK d   1       3.388  10.289 -13.670  0.00  0.00     0.118 C 
ATOM      7  N   UNK d   1       4.299  11.412 -13.713  0.00  0.00    -0.324 N 
ATOM      8  C   UNK d   1       3.679  12.501 -13.047  0.00  0.00     0.323 C 
ATOM      9  O   UNK d   1       3.953  13.742 -13.148  0.00  0.00    -0.247 OA
ATOM     10  N   UNK d   1       2.656  11.941 -12.208  0.00  0.00    -0.277 N 
ATOM     11  C   UNK d   1       2.684  10.510 -12.393  0.00  0.00     0.254 C 
ATOM     12  O   UNK d   1       2.192   9.687 -11.591  0.00  0.00    -0.270 OA
ATOM     13  C   UNK d   1       4.189   9.027 -13.711  0.00  0.00     0.061 C 
ATOM     14  C   UNK d   1       3.415   7.764 -13.873  0.00  0.00     0.129 C 
ATOM     15  H   UNK d   1       5.243  11.459 -14.143  0.00  0.00     0.165 HD
ATOM     16  H   UNK d   1       1.991  12.428 -11.569  0.00  0.00     0.173 HD
ENDROOT
BRANCH   1  17
ATOM     17  C   UNK d   1      -0.445   7.817 -13.919  0.00  0.00     0.032 A 
ATOM     18  C   UNK d   1      -0.993   9.051 -13.512  0.00  0.00     0.019 A 
ATOM     19  C   UNK d   1      -2.313   9.369 -13.687  0.00  0.00     0.032 A 
ATOM     20  C   UNK d   1      -3.198   8.500 -14.277  0.00  0.00     0.058 A 
ATOM     21  C   UNK d   1      -2.693   7.295 -14.682  0.00  0.00     0.032 A 
ATOM     22  C   UNK d   1      -1.341   6.957 -14.510  0.00  0.00     0.019 A 
BRANCH  20  23
ATOM     23  N   UNK d   1      -4.562   8.857 -14.445  0.00  0.00    -0.244 N 
ATOM     24  C   UNK d   1      -5.215   9.929 -13.963  0.00  0.00     0.139 A 
ATOM     25  C   UNK d   1      -6.531   9.883 -14.368  0.00  0.00     0.047 A 
ATOM     26 Br   UNK d   1      -7.921  11.156 -13.972  0.00  0.00    -0.048 Br
ATOM     27  C   UNK d   1      -6.643   8.734 -15.118  0.00  0.00     0.159 A 
ATOM     28  N   UNK d   1      -5.442   8.159 -15.132  0.00  0.00    -0.179 NA
ENDBRANCH  20  23
ENDBRANCH   1  17
TORSDOF 2
ENDMDL
