MODEL 1
REMARK VINA RESULT:    -8.452      0.000      0.000
REMARK INTER + INTRA:         -11.563
REMARK INTER:                 -10.428
REMARK INTRA:                  -1.135
REMARK UNBOUND:                -1.135
REMARK  4 active torsions:
REMARK  status: ('A' for Active; 'I' for Inactive)
REMARK    1  A    between atoms: C_5  and  N_8 
REMARK    2  A    between atoms: N_8  and  C_9 
REMARK    3  A    between atoms: C_10  and  N_22 
REMARK    4  A    between atoms: N_13  and  C_16 
ROOT
ATOM      1  C   UNK d   1       2.298   6.469 -12.490  0.00  0.00     0.136 A 
ATOM      2  C   UNK d   1       2.982   7.360 -13.145  0.00  0.00     0.140 A 
ATOM      3  C   UNK d   1       4.216   6.703 -13.580  0.00  0.00     0.285 A 
ATOM      4  O   UNK d   1       5.128   7.281 -14.250  0.00  0.00    -0.265 OA
ATOM      5  N   UNK d   1       4.251   5.334 -13.149  0.00  0.00    -0.241 N 
ATOM      6  C   UNK d   1       3.019   5.173 -12.446  0.00  0.00     0.284 A 
ATOM      7  O   UNK d   1       2.618   4.117 -11.890  0.00  0.00    -0.265 OA
ENDROOT
BRANCH   1   8
ATOM      8  N   UNK d   1       1.035   6.598 -11.865  0.00  0.00    -0.335 N 
ATOM      9  H   UNK d   1       0.951   6.579 -10.849  0.00  0.00     0.168 HD
BRANCH   8  10
ATOM     10  C   UNK d   1      -0.103   6.753 -12.689  0.00  0.00     0.127 A 
ATOM     11  N   UNK d   1      -0.625   5.705 -13.381  0.00  0.00    -0.242 NA
ATOM     12  C   UNK d   1      -1.690   5.802 -14.186  0.00  0.00     0.138 A 
ATOM     13  C   UNK d   1      -2.333   6.999 -14.362  0.00  0.00     0.028 A 
ATOM     14 Br   UNK d   1      -3.850   7.175 -15.512  0.00  0.00    -0.050 Br
ATOM     15  C   UNK d   1      -1.859   8.102 -13.691  0.00  0.00     0.024 A 
ATOM     16  C   UNK d   1      -0.769   7.971 -12.874  0.00  0.00     0.052 A 
ENDBRANCH   8  10
ENDBRANCH   1   8
BRANCH   2  17
ATOM     17  N   UNK d   1       2.641   8.719 -13.423  0.00  0.00    -0.326 N 
ATOM     18  C   UNK d   1       2.201   9.063 -14.647  0.00  0.00     0.097 A 
ATOM     19  C   UNK d   1       1.864  10.393 -14.956  0.00  0.00     0.018 A 
ATOM     20  C   UNK d   1       1.985  11.375 -13.992  0.00  0.00     0.003 A 
ATOM     21  C   UNK d   1       2.437  10.998 -12.746  0.00  0.00     0.018 A 
ATOM     22  C   UNK d   1       2.754   9.691 -12.485  0.00  0.00     0.097 A 
ENDBRANCH   2  17
BRANCH   5  23
ATOM     23  C   UNK d   1       5.280   4.383 -13.369  0.00  0.00     0.046 A 
ATOM     24  C   UNK d   1       6.564   4.540 -12.912  0.00  0.00     0.030 A 
ATOM     25  C   UNK d   1       7.558   3.564 -13.135  0.00  0.00     0.002 A 
ATOM     26  C   UNK d   1       7.261   2.412 -13.827  0.00  0.00     0.000 A 
ATOM     27  C   UNK d   1       5.979   2.251 -14.286  0.00  0.00     0.002 A 
ATOM     28  C   UNK d   1       5.008   3.227 -14.056  0.00  0.00     0.030 A 
ENDBRANCH   5  23
TORSDOF 4
ENDMDL
