MODEL 1
REMARK VINA RESULT:    -8.021      0.000      0.000
REMARK INTER + INTRA:          -9.488
REMARK INTER:                  -9.427
REMARK INTRA:                  -0.061
REMARK UNBOUND:                -0.061
REMARK  3 active torsions:
REMARK  status: ('A' for Active; 'I' for Inactive)
REMARK    1  A    between atoms: C_5  and  N_8 
REMARK    2  A    between atoms: C_10  and  C_12 
REMARK    3  A    between atoms: C_12  and  N_13 
ROOT
ATOM      1  C   UNK d   1       2.197  13.782 -12.637  0.00  0.00     0.160 C 
ENDROOT
BRANCH   1   2
ATOM      2  C   UNK d   1       0.934  14.541 -12.381  0.00  0.00     0.043 C 
ATOM      3  C   UNK d   1       1.096  15.875 -11.679  0.00  0.00     0.149 C 
ATOM      4  N   UNK d   1      -0.030  16.297 -12.461  0.00  0.00    -0.213 N 
ATOM      5  C   UNK d   1       0.498  15.470 -13.508  0.00  0.00     0.149 C 
BRANCH   4   6
ATOM      6  C   UNK d   1      -1.133  17.136 -12.272  0.00  0.00     0.724 A 
ATOM      7  N   UNK d   1      -2.144  17.266 -13.159  0.00  0.00    -0.074 NA
ATOM      8  C   UNK d   1      -3.198  18.054 -12.999  0.00  0.00     0.157 A 
ATOM      9  C   UNK d   1      -3.310  18.815 -11.858  0.00  0.00     0.047 A 
ATOM     10 Br   UNK d   1      -4.820  19.962 -11.599  0.00  0.00    -0.048 Br
ATOM     11  C   UNK d   1      -2.298  18.710 -10.928  0.00  0.00     0.157 A 
ATOM     12  N   UNK d   1      -1.251  17.893 -11.141  0.00  0.00    -0.074 NA
ENDBRANCH   4   6
ENDBRANCH   1   2
BRANCH   1  13
ATOM     13  N   UNK d   1       1.855  12.394 -12.802  0.00  0.00    -0.257 N 
ATOM     14  N   UNK d   1       0.542  12.021 -13.092  0.00  0.00    -0.296 N 
ATOM     15  C   UNK d   1       0.157  10.664 -13.264  0.00  0.00     0.051 A 
ATOM     16  H   UNK d   1      -0.170  12.803 -13.180  0.00  0.00     0.187 HD
ATOM     17  C   UNK d   1      -1.099  10.366 -13.537  0.00  0.00    -0.051 A 
ATOM     18  C   UNK d   1       1.138   9.604 -13.141  0.00  0.00     0.036 A 
ATOM     19  C   UNK d   1      -2.524  10.645 -13.804  0.00  0.00     0.041 A 
ATOM     20  C   UNK d   1      -2.092   9.256 -13.814  0.00  0.00     0.041 A 
ATOM     21  C   UNK d   1       2.389   9.934 -12.866  0.00  0.00     0.078 A 
ATOM     22  C   UNK d   1       2.801  11.342 -12.687  0.00  0.00     0.262 A 
ATOM     23  O   UNK d   1       3.999  11.630 -12.426  0.00  0.00    -0.267 OA
ENDBRANCH   1  13
TORSDOF 3
ENDMDL
