/Users/jonathanwahrer/Desktop/Msc/3_Semester/Drug_Design_Praktikum/waehrer_HTS_screening/HTS_experiment/out/docking_results/vina_output/6q9y/0670_docked.pdbqt
 OpenBabel03222219333D

 23 27  0  0  1  0  0  0  0  0999 V2000
    2.1970   13.7820  -12.6370 C   0  0  0  0  0  2  0  0  0  0  0  0
    0.9340   14.5410  -12.3810 C   0  0  1  0  0  3  0  0  0  0  0  0
    1.0960   15.8750  -11.6790 C   0  0  2  0  0  3  0  0  0  0  0  0
   -0.0300   16.2970  -12.4610 N   0  0  0  0  0  0  0  0  0  0  0  0
    0.4980   15.4700  -13.5080 C   0  0  2  0  0  3  0  0  0  0  0  0
   -1.1330   17.1360  -12.2720 C   0  0  0  0  0  0  0  0  0  0  0  0
   -2.1440   17.2660  -13.1590 N   0  0  0  0  0  0  0  0  0  0  0  0
   -3.1980   18.0540  -12.9990 C   0  0  0  0  0  3  0  0  0  0  0  0
   -3.3100   18.8150  -11.8580 C   0  0  0  0  0  0  0  0  0  0  0  0
   -4.8200   19.9620  -11.5990 Br  0  0  0  0  0  0  0  0  0  0  0  0
   -2.2980   18.7100  -10.9280 C   0  0  0  0  0  3  0  0  0  0  0  0
   -1.2510   17.8930  -11.1410 N   0  0  0  0  0  0  0  0  0  0  0  0
    1.8550   12.3940  -12.8020 N   0  0  0  0  0  0  0  0  0  0  0  0
    0.5420   12.0210  -13.0920 N   0  0  0  0  0  0  0  0  0  0  0  0
    0.1570   10.6640  -13.2640 C   0  0  0  0  0  0  0  0  0  0  0  0
   -0.1700   12.8030  -13.1800 H   0  0  0  0  0  0  0  0  0  0  0  0
   -1.0990   10.3660  -13.5370 C   0  0  0  0  0  0  0  0  0  0  0  0
    1.1380    9.6040  -13.1410 C   0  0  0  0  0  3  0  0  0  0  0  0
   -2.5240   10.6450  -13.8040 C   0  0  0  0  0  2  0  0  0  0  0  0
   -2.0920    9.2560  -13.8140 C   0  0  0  0  0  2  0  0  0  0  0  0
    2.3890    9.9340  -12.8660 C   0  0  0  0  0  3  0  0  0  0  0  0
    2.8010   11.3420  -12.6870 C   0  0  0  0  0  0  0  0  0  0  0  0
    3.9990   11.6300  -12.4260 O   0  0  0  0  0  0  0  0  0  0  0  0
  2  1  1  6  0  0  0
  2  3  1  0  0  0  0
  3  4  1  1  0  0  0
  4  6  1  0  0  0  0
  5  4  1  1  0  0  0
  5  2  1  0  0  0  0
  5  3  1  0  0  0  0
  6 12  1  0  0  0  0
  7  8  1  0  0  0  0
  7  6  2  0  0  0  0
  8  9  2  0  0  0  0
  9 10  1  0  0  0  0
  9 11  1  0  0  0  0
 12 11  2  0  0  0  0
 13 22  1  0  0  0  0
 13  1  1  0  0  0  0
 14 13  1  0  0  0  0
 15 18  1  0  0  0  0
 15 14  1  0  0  0  0
 16 14  1  0  0  0  0
 17 15  2  0  0  0  0
 18 21  2  0  0  0  0
 19 17  1  0  0  0  0
 20 19  1  0  0  0  0
 20 17  1  0  0  0  0
 21 22  1  0  0  0  0
 22 23  2  0  0  0  0
M  END
>  <Pose>
1

>  <Score>
-8.021

$$$$
