MODEL 1
REMARK VINA RESULT:    -8.360      0.000      0.000
REMARK INTER + INTRA:          -8.487
REMARK INTER:                  -9.337
REMARK INTRA:                   0.851
REMARK UNBOUND:                 0.851
REMARK  2 active torsions:
REMARK  status: ('A' for Active; 'I' for Inactive)
REMARK    1  A    between atoms: C_6  and  C_8 
REMARK       I    between atoms: C_8  and  N_10 
REMARK    2  A    between atoms: C_12  and  N_14 
ROOT
ATOM      1  C   UNK d   1      -4.313   8.508 -14.312  0.00  0.00     0.255 C 
ATOM      2  O   UNK d   1      -4.470   7.301 -14.727  0.00  0.00    -0.267 OA
ATOM      3  N   UNK d   1      -3.001   8.924 -14.017  0.00  0.00    -0.344 N 
ATOM      4  C   UNK d   1      -2.306  10.076 -13.534  0.00  0.00     0.153 C 
ATOM      5  C   UNK d   1      -1.228   9.115 -13.002  0.00  0.00     0.132 C 
ATOM      6  C   UNK d   1      -1.681   8.271 -14.131  0.00  0.00     0.153 C 
ENDROOT
BRANCH   5   7
ATOM      7  N   UNK d   1       0.087   9.689 -13.087  0.00  0.00    -0.280 N 
ATOM      8  C   UNK d   1       0.462  11.000 -13.551  0.00  0.00     0.232 C 
ATOM      9  O   UNK d   1      -0.283  11.995 -13.546  0.00  0.00    -0.272 OA
ATOM     10  C   UNK d   1       1.888  10.870 -14.011  0.00  0.00     0.095 C 
ATOM     11  C   UNK d   1       2.428   9.948 -12.944  0.00  0.00     0.095 C 
ATOM     12  C   UNK d   1       1.853  10.272 -15.376  0.00  0.00     0.041 C 
ATOM     13  C   UNK d   1       3.675   9.248 -13.407  0.00  0.00     0.041 C 
ATOM     14  C   UNK d   1       1.293   9.033 -12.712  0.00  0.00     0.232 C 
ATOM     15  C   UNK d   1       3.379   8.461 -14.635  0.00  0.00    -0.030 C 
ATOM     16  C   UNK d   1       2.536   8.977 -15.506  0.00  0.00    -0.030 C 
ATOM     17  O   UNK d   1       1.428   7.871 -12.255  0.00  0.00    -0.272 OA
ENDBRANCH   5   7
BRANCH   1  18
ATOM     18  C   UNK d   1      -5.526   9.283 -14.203  0.00  0.00     0.051 A 
ATOM     19  C   UNK d   1      -5.907   9.836 -12.972  0.00  0.00     0.133 A 
ATOM     20  N   UNK d   1      -7.027  10.549 -12.815  0.00  0.00    -0.271 NA
ATOM     21  C   UNK d   1      -7.864  10.780 -13.858  0.00  0.00     0.135 A 
ATOM     22  C   UNK d   1      -7.567  10.274 -15.101  0.00  0.00     0.029 A 
ATOM     23 Br   UNK d   1      -8.758  10.609 -16.549  0.00  0.00    -0.050 Br
ATOM     24  C   UNK d   1      -6.401   9.538 -15.234  0.00  0.00     0.039 A 
ENDBRANCH   1  18
TORSDOF 2
ENDMDL
