/Users/jonathanwahrer/Desktop/Msc/3_Semester/Drug_Design_Praktikum/waehrer_HTS_screening/HTS_experiment/out/docking_results/vina_output/6q9y/0683_docked.pdbqt
 OpenBabel03222219333D

 10 10  0  0  0  0  0  0  0  0999 V2000
   -7.5210   11.2980  -13.8980 Br  0  0  0  0  0  0  0  0  0  0  0  0
   -8.7290   11.5470  -15.3280 C   0  0  0  0  0  0  0  0  0  0  0  0
   -8.8110   10.5970  -16.3330 C   0  0  0  0  0  3  0  0  0  0  0  0
   -9.6840   10.8190  -17.3260 N   0  0  0  0  0  0  0  0  0  0  0  0
  -10.4770   11.8990  -17.4010 C   0  0  0  0  0  3  0  0  0  0  0  0
  -10.3900   12.8350  -16.4020 C   0  0  0  0  0  0  0  0  0  0  0  0
   -9.5130   12.6810  -15.3400 C   0  0  0  0  0  3  0  0  0  0  0  0
  -11.2330   14.0190  -16.4470 C   0  0  0  0  0  0  0  0  0  0  0  0
  -11.2830   14.8100  -15.4620 O   0  0  0  0  0  1  0  0  0  0  0  0
  -12.0010   14.3150  -17.5590 O   0  0  0  0  0  0  0  0  0  0  0  0
  2  1  1  0  0  0  0
  3  2  2  0  0  0  0
  4  3  1  0  0  0  0
  5  4  2  0  0  0  0
  5  6  1  0  0  0  0
  6  7  2  0  0  0  0
  7  2  1  0  0  0  0
  8  6  1  0  0  0  0
  8  9  1  0  0  0  0
 10  8  2  0  0  0  0
M  END
>  <Pose>
1

>  <Score>
-5.874

$$$$
