MODEL 1
REMARK VINA RESULT:    -5.874      0.000      0.000
REMARK INTER + INTRA:          -6.254
REMARK INTER:                  -6.217
REMARK INTRA:                  -0.037
REMARK UNBOUND:                -0.037
REMARK  2 active torsions:
REMARK  status: ('A' for Active; 'I' for Inactive)
REMARK    1  A    between atoms: C_6  and  C_8 
REMARK    2  A    between atoms: C_21  and  N_22 
ROOT
ATOM      1 Br   UNK d   1      -7.521  11.298 -13.898  0.00  0.00    -0.050 Br
ATOM      2  C   UNK d   1      -8.729  11.547 -15.328  0.00  0.00     0.029 A 
ATOM      3  C   UNK d   1      -8.811  10.597 -16.333  0.00  0.00     0.135 A 
ATOM      4  N   UNK d   1      -9.684  10.819 -17.326  0.00  0.00    -0.271 NA
ATOM      5  C   UNK d   1     -10.477  11.899 -17.401  0.00  0.00     0.134 A 
ATOM      6  C   UNK d   1     -10.390  12.835 -16.402  0.00  0.00     0.059 A 
ATOM      7  C   UNK d   1      -9.513  12.681 -15.340  0.00  0.00     0.040 A 
ENDROOT
BRANCH   6   8
ATOM      8  C   UNK d   1     -11.233  14.019 -16.447  0.00  0.00     0.210 C 
ATOM      9  O   UNK d   1     -11.283  14.810 -15.462  0.00  0.00    -0.644 OA
ATOM     10  O   UNK d   1     -12.001  14.315 -17.559  0.00  0.00    -0.644 OA
ENDBRANCH   6   8
TORSDOF 2
ENDMDL
