MODEL 1
REMARK VINA RESULT:    -5.834      0.000      0.000
REMARK INTER + INTRA:          -6.212
REMARK INTER:                  -6.175
REMARK INTRA:                  -0.037
REMARK UNBOUND:                -0.037
REMARK  2 active torsions:
REMARK  status: ('A' for Active; 'I' for Inactive)
REMARK    1  A    between atoms: C_6  and  C_8 
REMARK    2  A    between atoms: C_20  and  N_21 
ROOT
ATOM      1 Br   UNK d   1      -7.366  11.320 -13.899  0.00  0.00    -0.050 Br
ATOM      2  C   UNK d   1      -8.628  11.502 -15.315  0.00  0.00     0.029 A 
ATOM      3  C   UNK d   1      -8.758  10.553 -16.306  0.00  0.00     0.135 A 
ATOM      4  N   UNK d   1      -9.645  10.674 -17.309  0.00  0.00    -0.271 NA
ATOM      5  C   UNK d   1     -10.433  11.759 -17.344  0.00  0.00     0.134 A 
ATOM      6  C   UNK d   1     -10.366  12.752 -16.392  0.00  0.00     0.059 A 
ATOM      7  C   UNK d   1      -9.452  12.603 -15.381  0.00  0.00     0.040 A 
ENDROOT
BRANCH   6   8
ATOM      8  C   UNK d   1     -11.230  13.925 -16.443  0.00  0.00     0.210 C 
ATOM      9  O   UNK d   1     -11.238  14.731 -15.482  0.00  0.00    -0.644 OA
ATOM     10  O   UNK d   1     -12.020  14.111 -17.568  0.00  0.00    -0.644 OA
ENDBRANCH   6   8
TORSDOF 2
ENDMDL
