/Users/jonathanwahrer/Desktop/Msc/3_Semester/Drug_Design_Praktikum/waehrer_HTS_screening/HTS_experiment/out/docking_results/vina_output/6q9y/0684_docked.pdbqt
 OpenBabel03222219333D

 10 10  0  0  0  0  0  0  0  0999 V2000
   -7.3660   11.3200  -13.8990 Br  0  0  0  0  0  0  0  0  0  0  0  0
   -8.6280   11.5020  -15.3150 C   0  0  0  0  0  0  0  0  0  0  0  0
   -8.7580   10.5530  -16.3060 C   0  0  0  0  0  3  0  0  0  0  0  0
   -9.6450   10.6740  -17.3090 N   0  0  0  0  0  0  0  0  0  0  0  0
  -10.4330   11.7590  -17.3440 C   0  0  0  0  0  3  0  0  0  0  0  0
  -10.3660   12.7520  -16.3920 C   0  0  0  0  0  0  0  0  0  0  0  0
   -9.4520   12.6030  -15.3810 C   0  0  0  0  0  3  0  0  0  0  0  0
  -11.2300   13.9250  -16.4430 C   0  0  0  0  0  0  0  0  0  0  0  0
  -11.2380   14.7310  -15.4820 O   0  0  0  0  0  1  0  0  0  0  0  0
  -12.0200   14.1110  -17.5680 O   0  0  0  0  0  0  0  0  0  0  0  0
  2  1  1  0  0  0  0
  3  2  2  0  0  0  0
  4  3  1  0  0  0  0
  5  4  2  0  0  0  0
  5  6  1  0  0  0  0
  6  7  2  0  0  0  0
  7  2  1  0  0  0  0
  8  6  1  0  0  0  0
  8  9  1  0  0  0  0
 10  8  2  0  0  0  0
M  END
>  <Pose>
1

>  <Score>
-5.834

$$$$
