MODEL 1
REMARK VINA RESULT:    -6.202      0.000      0.000
REMARK INTER + INTRA:          -7.993
REMARK INTER:                  -7.653
REMARK INTRA:                  -0.340
REMARK UNBOUND:                -0.340
REMARK  4 active torsions:
REMARK  status: ('A' for Active; 'I' for Inactive)
REMARK    1  A    between atoms: C_11  and  C_14 
REMARK    2  A    between atoms: C_11  and  C_21 
REMARK    3  A    between atoms: C_14  and  N_15 
REMARK    4  A    between atoms: C_21  and  N_22 
ROOT
ATOM      1 Br   UNK d   1       7.771   5.522 -14.288  0.00  0.00    -0.048 Br
ATOM      2  C   UNK d   1       6.080   5.065 -13.552  0.00  0.00     0.046 A 
ATOM      3  C   UNK d   1       5.097   6.032 -13.454  0.00  0.00     0.100 A 
ATOM      4  C   UNK d   1       3.829   5.761 -12.919  0.00  0.00     0.047 A 
ATOM      5  C   UNK d   1       3.549   4.493 -12.475  0.00  0.00     0.037 A 
ATOM      6  C   UNK d   1       4.527   3.522 -12.570  0.00  0.00     0.013 A 
ATOM      7  C   UNK d   1       5.773   3.787 -13.095  0.00  0.00     0.041 A 
ATOM      8 Br   UNK d   1       4.173   1.753 -11.964  0.00  0.00    -0.051 Br
ATOM      9  C   UNK d   1       2.829   6.818 -12.824  0.00  0.00     0.176 C 
ATOM     10  O   UNK d   1       1.923   6.642 -11.964  0.00  0.00    -0.291 OA
ATOM     11  C   UNK d   1       2.866   8.008 -13.666  0.00  0.00     0.095 C 
ATOM     12  C   UNK d   1       4.185   7.997 -14.483  0.00  0.00     0.197 C 
ATOM     13  O   UNK d   1       5.232   7.348 -13.859  0.00  0.00    -0.347 OA
ENDROOT
BRANCH  11  14
ATOM     14  C   UNK d   1       1.826   8.159 -14.679  0.00  0.00     0.256 C 
BRANCH  14  15
ATOM     15  N   UNK d   1       0.454   8.197 -14.465  0.00  0.00    -0.070 N 
ATOM     16  C   UNK d   1      -0.095   8.895 -13.344  0.00  0.00     0.235 C 
ATOM     17  C   UNK d   1      -1.548   9.263 -13.739  0.00  0.00     0.028 C 
ATOM     18  C   UNK d   1      -2.315   7.958 -13.678  0.00  0.00     0.003 C 
ATOM     19  C   UNK d   1      -1.390   6.761 -13.701  0.00  0.00     0.028 C 
ATOM     20  C   UNK d   1      -0.255   6.945 -14.685  0.00  0.00     0.235 C 
ATOM     21  H   UNK d   1       0.089   8.799 -15.292  0.00  0.00     0.279 HD
ENDBRANCH  14  15
ENDBRANCH  11  14
BRANCH  11  22
ATOM     22  C   UNK d   1       2.876   9.224 -12.753  0.00  0.00     0.256 C 
BRANCH  22  23
ATOM     23  N   UNK d   1       3.818  10.233 -13.169  0.00  0.00    -0.070 N 
ATOM     24  C   UNK d   1       3.972  11.179 -12.073  0.00  0.00     0.235 C 
ATOM     25  C   UNK d   1       2.626  11.684 -11.672  0.00  0.00     0.028 C 
ATOM     26  C   UNK d   1       1.809  12.250 -12.775  0.00  0.00     0.003 C 
ATOM     27  C   UNK d   1       1.967  11.584 -14.098  0.00  0.00     0.028 C 
ATOM     28  C   UNK d   1       3.368  11.046 -14.284  0.00  0.00     0.235 C 
ATOM     29  H   UNK d   1       4.723   9.817 -13.455  0.00  0.00     0.279 HD
ENDBRANCH  22  23
ENDBRANCH  11  22
TORSDOF 4
ENDMDL
