/Users/jonathanwahrer/Desktop/Msc/3_Semester/Drug_Design_Praktikum/waehrer_HTS_screening/HTS_experiment/out/docking_results/vina_output/6q9y/0692_docked.pdbqt
 OpenBabel03222219343D

 29 32  0  0  0  0  0  0  0  0999 V2000
    7.7710    5.5220  -14.2880 Br  0  0  0  0  0  0  0  0  0  0  0  0
    6.0800    5.0650  -13.5520 C   0  0  0  0  0  0  0  0  0  0  0  0
    5.0970    6.0320  -13.4540 C   0  0  0  0  0  0  0  0  0  0  0  0
    3.8290    5.7610  -12.9190 C   0  0  0  0  0  0  0  0  0  0  0  0
    3.5490    4.4930  -12.4750 C   0  0  0  0  0  3  0  0  0  0  0  0
    4.5270    3.5220  -12.5700 C   0  0  0  0  0  0  0  0  0  0  0  0
    5.7730    3.7870  -13.0950 C   0  0  0  0  0  3  0  0  0  0  0  0
    4.1730    1.7530  -11.9640 Br  0  0  0  0  0  0  0  0  0  0  0  0
    2.8290    6.8180  -12.8240 C   0  0  0  0  0  0  0  0  0  0  0  0
    1.9230    6.6420  -11.9640 O   0  0  0  0  0  0  0  0  0  0  0  0
    2.8660    8.0080  -13.6660 C   0  0  0  0  0  0  0  0  0  0  0  0
    4.1850    7.9970  -14.4830 C   0  0  0  0  0  2  0  0  0  0  0  0
    5.2320    7.3480  -13.8590 O   0  0  0  0  0  0  0  0  0  0  0  0
    1.8260    8.1590  -14.6790 C   0  0  0  0  0  2  0  0  0  0  0  0
    0.4540    8.1970  -14.4650 N   0  0  0  0  0  4  0  0  0  0  0  0
   -0.0950    8.8950  -13.3440 C   0  0  0  0  0  2  0  0  0  0  0  0
   -1.5480    9.2630  -13.7390 C   0  0  0  0  0  2  0  0  0  0  0  0
   -2.3150    7.9580  -13.6780 C   0  0  0  0  0  2  0  0  0  0  0  0
   -1.3900    6.7610  -13.7010 C   0  0  0  0  0  2  0  0  0  0  0  0
   -0.2550    6.9450  -14.6850 C   0  0  0  0  0  2  0  0  0  0  0  0
    0.0890    8.7990  -15.2920 H   0  0  0  0  0  0  0  0  0  0  0  0
    2.8760    9.2240  -12.7530 C   0  0  0  0  0  2  0  0  0  0  0  0
    3.8180   10.2330  -13.1690 N   0  0  0  0  0  4  0  0  0  0  0  0
    3.9720   11.1790  -12.0730 C   0  0  0  0  0  2  0  0  0  0  0  0
    2.6260   11.6840  -11.6720 C   0  0  0  0  0  2  0  0  0  0  0  0
    1.8090   12.2500  -12.7750 C   0  0  0  0  0  2  0  0  0  0  0  0
    1.9670   11.5840  -14.0980 C   0  0  0  0  0  2  0  0  0  0  0  0
    3.3680   11.0460  -14.2840 C   0  0  0  0  0  2  0  0  0  0  0  0
    4.7230    9.8170  -13.4550 H   0  0  0  0  0  0  0  0  0  0  0  0
  1  2  1  0  0  0  0
  2  3  2  0  0  0  0
  2  7  1  0  0  0  0
  3  4  1  0  0  0  0
  4  9  1  0  0  0  0
  4  5  2  0  0  0  0
  6  5  1  0  0  0  0
  6  8  1  0  0  0  0
  7  6  2  0  0  0  0
  9 10  2  0  0  0  0
 11  9  1  0  0  0  0
 11 22  1  0  0  0  0
 12 13  1  0  0  0  0
 12 11  1  0  0  0  0
 13  3  1  0  0  0  0
 14 15  1  0  0  0  0
 14 11  1  0  0  0  0
 15 16  1  0  0  0  0
 17 18  1  0  0  0  0
 17 16  1  0  0  0  0
 19 18  1  0  0  0  0
 20 15  1  0  0  0  0
 20 19  1  0  0  0  0
 21 15  1  0  0  0  0
 23 22  1  0  0  0  0
 23 24  1  0  0  0  0
 24 25  1  0  0  0  0
 26 25  1  0  0  0  0
 27 26  1  0  0  0  0
 28 27  1  0  0  0  0
 28 23  1  0  0  0  0
 29 23  1  0  0  0  0
M  END
>  <Pose>
1

>  <Score>
-6.202

$$$$
