/Users/jonathanwahrer/Desktop/Msc/3_Semester/Drug_Design_Praktikum/waehrer_HTS_screening/HTS_experiment/out/docking_results/vina_output/6q9y/0695_docked.pdbqt
 OpenBabel03222219343D

 22 25  0  0  0  0  0  0  0  0999 V2000
   -2.0180   11.1630  -13.9270 C   0  0  0  0  0  2  0  0  0  0  0  0
   -0.7780   11.8520  -13.4880 C   0  0  0  0  0  0  0  0  0  0  0  0
   -0.7560   13.1220  -12.9610 C   0  0  0  0  0  3  0  0  0  0  0  0
    0.4250   13.7480  -12.5590 C   0  0  0  0  0  0  0  0  0  0  0  0
    1.6300   13.1000  -12.6760 C   0  0  0  0  0  0  0  0  0  0  0  0
    0.7040   15.0000  -12.0080 O   0  0  0  0  0  0  0  0  0  0  0  0
    1.6200   11.8260  -13.2020 C   0  0  0  0  0  0  0  0  0  0  0  0
    2.6250   13.9630  -12.1990 O   0  0  0  0  0  0  0  0  0  0  0  0
    3.3060   10.9210  -13.3660 Br  0  0  0  0  0  0  0  0  0  0  0  0
    0.4550   11.2020  -13.6020 C   0  0  0  0  0  3  0  0  0  0  0  0
    1.9640   14.8920  -11.3280 C   0  0  0  0  0  2  0  0  0  0  0  0
   -2.1760    9.9380  -13.1810 N   0  0  0  0  0  0  0  0  0  0  0  0
   -2.0570    9.9020  -12.1550 H   0  0  0  0  0  0  0  0  0  0  0  0
   -2.5080    8.7370  -13.9020 C   0  0  0  0  0  0  0  0  0  0  0  0
   -3.6300    8.6560  -14.6310 N   0  0  0  0  0  0  0  0  0  0  0  0
   -3.9320    7.5300  -15.3020 C   0  0  0  0  0  3  0  0  0  0  0  0
   -3.0970    6.4180  -15.2610 C   0  0  0  0  0  3  0  0  0  0  0  0
   -1.9830    6.5060  -14.5340 N   0  0  0  0  0  0  0  0  0  0  0  0
   -1.6750    7.6420  -13.8560 C   0  0  0  0  0  0  0  0  0  0  0  0
   -0.9780    5.6490  -14.2800 C   0  0  0  0  0  3  0  0  0  0  0  0
   -0.5090    7.4350  -13.2230 N   0  0  0  0  0  0  0  0  0  0  0  0
   -0.0720    6.2130  -13.4780 N   0  0  0  0  0  0  0  0  0  0  0  0
  1  2  1  0  0  0  0
  1 12  1  0  0  0  0
  2  3  1  0  0  0  0
  3  4  2  0  0  0  0
  4  6  1  0  0  0  0
  5  4  1  0  0  0  0
  5  8  1  0  0  0  0
  6 11  1  0  0  0  0
  7  5  2  0  0  0  0
  8 11  1  0  0  0  0
  9  7  1  0  0  0  0
 10  2  2  0  0  0  0
 10  7  1  0  0  0  0
 12 13  1  0  0  0  0
 14 19  1  0  0  0  0
 14 12  1  0  0  0  0
 15 14  2  0  0  0  0
 16 17  2  0  0  0  0
 16 15  1  0  0  0  0
 17 18  1  0  0  0  0
 18 20  1  0  0  0  0
 18 19  1  0  0  0  0
 19 21  2  0  0  0  0
 20 22  2  0  0  0  0
 22 21  1  0  0  0  0
M  END
>  <Pose>
1

>  <Score>
-8.027

$$$$
