MODEL 1
REMARK VINA RESULT:    -8.027      0.000      0.000
REMARK INTER + INTRA:          -9.856
REMARK INTER:                  -9.435
REMARK INTRA:                  -0.421
REMARK UNBOUND:                -0.421
REMARK  3 active torsions:
REMARK  status: ('A' for Active; 'I' for Inactive)
REMARK    1  A    between atoms: C_6  and  C_8 
REMARK    2  A    between atoms: C_8  and  N_9 
REMARK    3  A    between atoms: N_9  and  C_10 
ROOT
ATOM      1  C   UNK d   1      -2.018  11.163 -13.927  0.00  0.00     0.160 C 
ENDROOT
BRANCH   1   2
ATOM      2  C   UNK d   1      -0.778  11.852 -13.488  0.00  0.00    -0.036 A 
ATOM      3  C   UNK d   1      -0.756  13.122 -12.961  0.00  0.00     0.048 A 
ATOM      4  C   UNK d   1       0.425  13.748 -12.559  0.00  0.00     0.106 A 
ATOM      5  C   UNK d   1       1.630  13.100 -12.676  0.00  0.00     0.122 A 
ATOM      6  O   UNK d   1       0.704  15.000 -12.008  0.00  0.00    -0.323 OA
ATOM      7  C   UNK d   1       1.620  11.826 -13.202  0.00  0.00     0.047 A 
ATOM      8  O   UNK d   1       2.625  13.963 -12.199  0.00  0.00    -0.322 OA
ATOM      9 Br   UNK d   1       3.306  10.921 -13.366  0.00  0.00    -0.048 Br
ATOM     10  C   UNK d   1       0.455  11.202 -13.602  0.00  0.00     0.031 A 
ATOM     11  C   UNK d   1       1.964  14.892 -11.328  0.00  0.00     0.352 C 
ENDBRANCH   1   2
BRANCH   1  12
ATOM     12  N   UNK d   1      -2.176   9.938 -13.181  0.00  0.00    -0.367 N 
ATOM     13  H   UNK d   1      -2.057   9.902 -12.155  0.00  0.00     0.161 HD
BRANCH  12  14
ATOM     14  C   UNK d   1      -2.508   8.737 -13.902  0.00  0.00     0.172 A 
ATOM     15  N   UNK d   1      -3.630   8.656 -14.631  0.00  0.00    -0.239 NA
ATOM     16  C   UNK d   1      -3.932   7.530 -15.302  0.00  0.00     0.136 A 
ATOM     17  C   UNK d   1      -3.097   6.418 -15.261  0.00  0.00     0.119 A 
ATOM     18  N   UNK d   1      -1.983   6.506 -14.534  0.00  0.00    -0.294 N 
ATOM     19  C   UNK d   1      -1.675   7.642 -13.856  0.00  0.00     0.203 A 
ATOM     20  C   UNK d   1      -0.978   5.649 -14.280  0.00  0.00     0.240 A 
ATOM     21  N   UNK d   1      -0.509   7.435 -13.223  0.00  0.00    -0.126 NA
ATOM     22  N   UNK d   1      -0.072   6.213 -13.478  0.00  0.00    -0.143 NA
ENDBRANCH  12  14
ENDBRANCH   1  12
TORSDOF 3
ENDMDL
