MODEL 1
REMARK VINA RESULT:    -6.540      0.000      0.000
REMARK INTER + INTRA:          -8.626
REMARK INTER:                  -8.261
REMARK INTRA:                  -0.365
REMARK UNBOUND:                -0.365
REMARK  5 active torsions:
REMARK  status: ('A' for Active; 'I' for Inactive)
REMARK    1  A    between atoms: C_9  and  O_25 
REMARK    2  A    between atoms: C_10  and  C_13 
REMARK    3  A    between atoms: C_10  and  C_19 
REMARK    4  A    between atoms: C_13  and  N_14 
REMARK    5  A    between atoms: C_19  and  N_20 
ROOT
ATOM      1 Br   UNK d   1      -3.272   9.127 -14.714  0.00  0.00    -0.048 Br
ATOM      2  C   UNK d   1      -2.093   7.839 -13.970  0.00  0.00     0.045 A 
ATOM      3  C   UNK d   1      -0.805   8.233 -13.583  0.00  0.00     0.095 A 
ATOM      4  C   UNK d   1       0.081   7.355 -13.037  0.00  0.00     0.007 A 
ATOM      5  C   UNK d   1      -0.311   6.039 -12.865  0.00  0.00     0.019 A 
ATOM      6  C   UNK d   1      -1.587   5.639 -13.247  0.00  0.00    -0.060 A 
ATOM      7  C   UNK d   1      -2.480   6.529 -13.798  0.00  0.00     0.028 A 
ATOM      8  C   UNK d   1      -2.048   4.232 -13.079  0.00  0.00     0.048 C 
ATOM      9  C   UNK d   1       1.428   7.807 -12.594  0.00  0.00     0.168 C 
ATOM     10  C   UNK d   1       2.035   8.935 -13.348  0.00  0.00     0.060 C 
ATOM     11  C   UNK d   1       0.987   9.627 -14.253  0.00  0.00     0.191 C 
ATOM     12  O   UNK d   1      -0.323   9.527 -13.721  0.00  0.00    -0.348 OA
ENDROOT
BRANCH  10  13
ATOM     13  C   UNK d   1       3.087   8.485 -14.344  0.00  0.00     0.251 C 
BRANCH  13  14
ATOM     14  N   UNK d   1       4.330   8.042 -13.750  0.00  0.00    -0.070 N 
ATOM     15  C   UNK d   1       5.442   8.371 -14.641  0.00  0.00     0.235 C 
ATOM     16  C   UNK d   1       6.558   7.442 -14.333  0.00  0.00     0.029 C 
ATOM     17  C   UNK d   1       5.954   6.442 -13.407  0.00  0.00     0.029 C 
ATOM     18  C   UNK d   1       4.460   6.595 -13.724  0.00  0.00     0.235 C 
ATOM     19  H   UNK d   1       4.505   8.371 -12.789  0.00  0.00     0.279 HD
ENDBRANCH  13  14
ENDBRANCH  10  13
BRANCH  10  20
ATOM     20  C   UNK d   1       2.503  10.026 -12.461  0.00  0.00     0.251 C 
BRANCH  20  21
ATOM     21  N   UNK d   1       2.982  11.271 -12.774  0.00  0.00    -0.070 N 
ATOM     22  C   UNK d   1       1.880  12.259 -12.770  0.00  0.00     0.235 C 
ATOM     23  C   UNK d   1       2.457  13.533 -12.288  0.00  0.00     0.029 C 
ATOM     24  C   UNK d   1       3.651  13.183 -11.486  0.00  0.00     0.029 C 
ATOM     25  C   UNK d   1       4.044  11.810 -12.030  0.00  0.00     0.235 C 
ATOM     26  H   UNK d   1       3.249  11.339 -13.853  0.00  0.00     0.279 HD
ENDBRANCH  20  21
ENDBRANCH  10  20
BRANCH   9  27
ATOM     27  O   UNK d   1       1.215   8.093 -11.217  0.00  0.00    -0.390 OA
ATOM     28  H   UNK d   1       2.059   8.185 -10.741  0.00  0.00     0.210 HD
ENDBRANCH   9  27
TORSDOF 5
ENDMDL
