MODEL 1
REMARK VINA RESULT:   -10.845      0.000      0.000
REMARK INTER + INTRA:         -15.008
REMARK INTER:                 -14.966
REMARK INTRA:                  -0.042
REMARK UNBOUND:                -0.042
REMARK  7 active torsions:
REMARK  status: ('A' for Active; 'I' for Inactive)
REMARK    1  A    between atoms: C_7  and  O_8 
REMARK    2  A    between atoms: O_8  and  C_9 
REMARK    3  A    between atoms: C_9  and  C_10 
REMARK    4  A    between atoms: C_10  and  O_11 
REMARK    5  A    between atoms: C_10  and  C_12 
REMARK    6  A    between atoms: C_12  and  N_13 
REMARK       I    between atoms: N_16  and  C_19 
REMARK    7  A    between atoms: C_19  and  C_21 
ROOT
ATOM      1  C   UNK d   1      -4.631   9.032 -14.681  0.00  0.00     0.168 C 
ENDROOT
BRANCH   1   2
ATOM      2  C   UNK d   1      -5.828   9.017 -13.764  0.00  0.00     0.209 C 
BRANCH   2   3
ATOM      3  O   UNK d   1      -6.408  10.299 -13.627  0.00  0.00    -0.347 OA
BRANCH   3   4
ATOM      4  C   UNK d   1      -7.389  10.667 -14.546  0.00  0.00     0.087 A 
ATOM      5  C   UNK d   1      -8.149  11.809 -14.382  0.00  0.00     0.055 A 
ATOM      6 Br   UNK d   1      -7.820  12.887 -12.850  0.00  0.00    -0.047 Br
ATOM      7  C   UNK d   1      -9.125  12.191 -15.281  0.00  0.00    -0.006 A 
ATOM      8  C   UNK d   1      -9.385  11.429 -16.401  0.00  0.00    -0.024 A 
ATOM      9  C   UNK d   1      -9.883  13.337 -15.112  0.00  0.00     0.014 A 
ATOM     10  C   UNK d   1      -8.632  10.286 -16.572  0.00  0.00     0.015 A 
ATOM     11  C   UNK d   1     -10.365  11.812 -17.302  0.00  0.00     0.012 A 
ATOM     12  C   UNK d   1      -7.657   9.911 -15.669  0.00  0.00     0.039 A 
ATOM     13  C   UNK d   1     -11.119  12.955 -17.131  0.00  0.00     0.001 A 
ATOM     14  C   UNK d   1     -10.860  13.719 -16.010  0.00  0.00     0.001 A 
ENDBRANCH   3   4
ENDBRANCH   2   3
ENDBRANCH   1   2
BRANCH   1  15
ATOM     15  O   UNK d   1      -4.871   8.435 -15.892  0.00  0.00    -0.392 OA
ATOM     16  H   UNK d   1      -4.362   8.797 -16.639  0.00  0.00     0.210 HD
ENDBRANCH   1  15
BRANCH   1  17
ATOM     17  C   UNK d   1      -3.432   8.470 -13.999  0.00  0.00     0.268 C 
BRANCH  17  18
ATOM     18  N   UNK d   1      -2.646   9.454 -13.289  0.00  0.00    -0.066 N 
ATOM     19  C   UNK d   1      -2.561  10.623 -14.146  0.00  0.00     0.254 C 
ATOM     20  C   UNK d   1      -1.543  11.647 -13.622  0.00  0.00     0.152 C 
ATOM     21  N   UNK d   1      -0.277  11.016 -13.510  0.00  0.00    -0.356 N 
ATOM     22  C   UNK d   1      -0.269   9.578 -13.847  0.00  0.00     0.152 C 
ATOM     23  C   UNK d   1       0.909  11.648 -13.118  0.00  0.00     0.187 C 
ATOM     24  C   UNK d   1      -1.324   8.899 -13.039  0.00  0.00     0.254 C 
ATOM     25  O   UNK d   1       1.950  10.832 -13.094  0.00  0.00    -0.171 OA
ATOM     26  H   UNK d   1      -3.067   9.756 -12.385  0.00  0.00     0.280 HD
BRANCH  23  27
ATOM     27  C   UNK d   1       1.203  12.992 -12.741  0.00  0.00     0.018 A 
ATOM     28  C   UNK d   1       0.338  14.049 -12.738  0.00  0.00     0.016 A 
ATOM     29  C   UNK d   1       0.690  15.338 -12.359  0.00  0.00     0.001 A 
ATOM     30  C   UNK d   1       1.959  15.607 -11.960  0.00  0.00     0.000 A 
ATOM     31  C   UNK d   1       2.858  14.560 -11.951  0.00  0.00     0.001 A 
ATOM     32  C   UNK d   1       2.510  13.287 -12.327  0.00  0.00     0.016 A 
ENDBRANCH  23  27
ENDBRANCH  17  18
ENDBRANCH   1  17
TORSDOF 7
ENDMDL
