/Users/jonathanwahrer/Desktop/Msc/3_Semester/Drug_Design_Praktikum/waehrer_HTS_screening/HTS_experiment/out/docking_results/vina_output/6q9y/0706_docked.pdbqt
 OpenBabel03222219353D

 30 33  0  0  0  0  0  0  0  0999 V2000
    2.2000    8.0160  -14.0730 C   0  0  0  0  0  2  0  0  0  0  0  0
    1.2380    9.0350  -13.8220 N   0  0  0  0  0  0  0  0  0  0  0  0
   -0.0900    8.8240  -13.8920 C   0  0  0  0  0  0  0  0  0  0  0  0
   -0.9840    7.1680  -14.3170 Br  0  0  0  0  0  0  0  0  0  0  0  0
   -0.6820    9.9970  -13.6070 N   0  0  0  0  0  0  0  0  0  0  0  0
    0.2420   10.9340  -13.3630 C   0  0  0  0  0  0  0  0  0  0  0  0
    1.4700   10.3170  -13.5000 C   0  0  0  0  0  0  0  0  0  0  0  0
    0.2080   12.2430  -13.0410 N   0  0  0  0  0  0  0  0  0  0  0  0
    2.5830   11.1050  -13.2960 C   0  0  0  0  0  0  0  0  0  0  0  0
    2.5380   12.4100  -12.9750 N   0  0  0  0  0  0  0  0  0  0  0  0
    3.7030   10.5680  -13.4180 O   0  0  0  0  0  0  0  0  0  0  0  0
    1.3250   12.9790  -12.8480 C   0  0  0  0  0  0  0  0  0  0  0  0
    3.7220   13.2200  -12.7650 C   0  0  0  0  0  1  0  0  0  0  0  0
    1.2480   14.2070  -12.5470 O   0  0  0  0  0  0  0  0  0  0  0  0
   -1.0840   12.8820  -12.8970 C   0  0  0  0  0  1  0  0  0  0  0  0
    3.0570    7.5930  -12.9360 C   0  0  0  0  0  2  0  0  0  0  0  0
    3.4360    6.2220  -12.8710 N   0  0  0  0  0  0  0  0  0  0  0  0
    4.6790    5.7370  -13.1160 C   0  0  0  0  0  0  0  0  0  0  0  0
    4.6710    4.3710  -12.9670 C   0  0  0  0  0  0  0  0  0  0  0  0
    5.8920    6.3150  -13.4670 C   0  0  0  0  0  0  0  0  0  0  0  0
    3.4080    4.0620  -12.6320 N   0  0  0  0  0  0  0  0  0  0  0  0
    5.7740    3.5960  -13.1470 N   0  0  0  0  0  0  0  0  0  0  0  0
    2.6630    5.1740  -12.5740 C   0  0  0  0  0  0  0  0  0  0  0  0
    0.7880    5.3060  -12.1450 Br  0  0  0  0  0  0  0  0  0  0  0  0
    6.9110    4.2310  -13.4860 C   0  0  0  0  0  0  0  0  0  0  0  0
    5.7290    2.1500  -12.9800 C   0  0  0  0  0  1  0  0  0  0  0  0
    7.9410    3.5230  -13.6550 O   0  0  0  0  0  0  0  0  0  0  0  0
    6.9780    5.5640  -13.6450 N   0  0  0  0  0  0  0  0  0  0  0  0
    8.2270    6.1990  -14.0100 C   0  0  0  0  0  1  0  0  0  0  0  0
    5.8870    7.5680  -13.6010 O   0  0  0  0  0  0  0  0  0  0  0  0
  1  2  1  0  0  0  0
  1 16  1  0  0  0  0
  2  7  1  0  0  0  0
  3  2  1  0  0  0  0
  3  5  2  0  0  0  0
  4  3  1  0  0  0  0
  5  6  1  0  0  0  0
  6  8  1  0  0  0  0
  7  6  2  0  0  0  0
  7  9  1  0  0  0  0
  8 15  1  0  0  0  0
  8 12  1  0  0  0  0
  9 10  1  0  0  0  0
 10 12  1  0  0  0  0
 10 13  1  0  0  0  0
 11  9  2  0  0  0  0
 12 14  2  0  0  0  0
 16 17  1  0  0  0  0
 17 23  1  0  0  0  0
 18 19  2  0  0  0  0
 18 17  1  0  0  0  0
 19 21  1  0  0  0  0
 20 18  1  0  0  0  0
 21 23  2  0  0  0  0
 22 26  1  0  0  0  0
 22 19  1  0  0  0  0
 23 24  1  0  0  0  0
 25 22  1  0  0  0  0
 27 25  2  0  0  0  0
 28 25  1  0  0  0  0
 28 20  1  0  0  0  0
 29 28  1  0  0  0  0
 30 20  2  0  0  0  0
M  END
>  <Pose>
1

>  <Score>
-7.897

$$$$
