MODEL 1
REMARK VINA RESULT:    -7.897      0.000      0.000
REMARK INTER + INTRA:          -9.365
REMARK INTER:                  -9.282
REMARK INTRA:                  -0.084
REMARK UNBOUND:                -0.084
REMARK  3 active torsions:
REMARK  status: ('A' for Active; 'I' for Inactive)
REMARK    1  A    between atoms: N_3  and  C_15 
REMARK    2  A    between atoms: C_15  and  C_16 
REMARK    3  A    between atoms: C_16  and  N_17 
ROOT
ATOM      1  C   UNK d   1       2.200   8.016 -14.073  0.00  0.00     0.152 C 
ENDROOT
BRANCH   1   2
ATOM      2  N   UNK d   1       1.238   9.035 -13.822  0.00  0.00    -0.316 N 
ATOM      3  C   UNK d   1      -0.090   8.824 -13.892  0.00  0.00     0.180 A 
ATOM      4 Br   UNK d   1      -0.984   7.168 -14.317  0.00  0.00    -0.008 Br
ATOM      5  N   UNK d   1      -0.682   9.997 -13.607  0.00  0.00    -0.203 NA
ATOM      6  C   UNK d   1       0.242  10.934 -13.363  0.00  0.00     0.169 A 
ATOM      7  C   UNK d   1       1.470  10.317 -13.500  0.00  0.00     0.152 A 
ATOM      8  N   UNK d   1       0.208  12.243 -13.041  0.00  0.00    -0.286 N 
ATOM      9  C   UNK d   1       2.583  11.105 -13.296  0.00  0.00     0.282 A 
ATOM     10  N   UNK d   1       2.538  12.410 -12.975  0.00  0.00    -0.269 N 
ATOM     11  O   UNK d   1       3.703  10.568 -13.418  0.00  0.00    -0.265 OA
ATOM     12  C   UNK d   1       1.325  12.979 -12.848  0.00  0.00     0.332 A 
ATOM     13  C   UNK d   1       3.722  13.220 -12.765  0.00  0.00     0.164 C 
ATOM     14  O   UNK d   1       1.248  14.207 -12.547  0.00  0.00    -0.246 OA
ATOM     15  C   UNK d   1      -1.084  12.882 -12.897  0.00  0.00     0.163 C 
ENDBRANCH   1   2
BRANCH   1  16
ATOM     16  C   UNK d   1       3.057   7.593 -12.936  0.00  0.00     0.152 C 
BRANCH  16  17
ATOM     17  N   UNK d   1       3.436   6.222 -12.871  0.00  0.00    -0.316 N 
ATOM     18  C   UNK d   1       4.679   5.737 -13.116  0.00  0.00     0.152 A 
ATOM     19  C   UNK d   1       4.671   4.371 -12.967  0.00  0.00     0.169 A 
ATOM     20  C   UNK d   1       5.892   6.315 -13.467  0.00  0.00     0.282 A 
ATOM     21  N   UNK d   1       3.408   4.062 -12.632  0.00  0.00    -0.203 NA
ATOM     22  N   UNK d   1       5.774   3.596 -13.147  0.00  0.00    -0.286 N 
ATOM     23  C   UNK d   1       2.663   5.174 -12.574  0.00  0.00     0.180 A 
ATOM     24 Br   UNK d   1       0.788   5.306 -12.145  0.00  0.00    -0.008 Br
ATOM     25  C   UNK d   1       6.911   4.231 -13.486  0.00  0.00     0.332 A 
ATOM     26  C   UNK d   1       5.729   2.150 -12.980  0.00  0.00     0.163 C 
ATOM     27  O   UNK d   1       7.941   3.523 -13.655  0.00  0.00    -0.246 OA
ATOM     28  N   UNK d   1       6.978   5.564 -13.645  0.00  0.00    -0.269 N 
ATOM     29  C   UNK d   1       8.227   6.199 -14.010  0.00  0.00     0.164 C 
ATOM     30  O   UNK d   1       5.887   7.568 -13.601  0.00  0.00    -0.265 OA
ENDBRANCH  16  17
ENDBRANCH   1  16
TORSDOF 3
ENDMDL
