MODEL 1
REMARK VINA RESULT:    -8.237      0.000      0.000
REMARK INTER + INTRA:         -10.836
REMARK INTER:                 -10.163
REMARK INTRA:                  -0.673
REMARK UNBOUND:                -0.673
REMARK  4 active torsions:
REMARK  status: ('A' for Active; 'I' for Inactive)
REMARK    1  A    between atoms: N_4  and  C_7 
REMARK    2  A    between atoms: C_9  and  C_17 
REMARK       I    between atoms: C_17  and  N_19 
REMARK    3  A    between atoms: N_19  and  C_20 
REMARK    4  A    between atoms: C_21  and  C_26 
REMARK       I    between atoms: C_26  and  N_28 
ROOT
ATOM      1  C   UNK d   1       2.599  10.362 -13.378  0.00  0.00     0.059 C 
ATOM      2  C   UNK d   1       3.939   9.665 -13.451  0.00  0.00     0.052 C 
ATOM      3  C   UNK d   1       3.744   8.256 -13.931  0.00  0.00     0.044 C 
ATOM      4  C   UNK d   1       3.246   8.365 -15.379  0.00  0.00     0.024 C 
ATOM      5  C   UNK d   1       1.960   9.151 -15.390  0.00  0.00    -0.011 C 
ATOM      6  C   UNK d   1       2.109  10.529 -14.800  0.00  0.00     0.038 C 
ATOM      7  C   UNK d   1       0.922   8.378 -14.641  0.00  0.00     0.009 C 
ATOM      8  C   UNK d   1       1.384   8.213 -13.210  0.00  0.00    -0.011 C 
ATOM      9  C   UNK d   1       1.577   9.571 -12.624  0.00  0.00     0.038 C 
ATOM     10  C   UNK d   1       2.711   7.487 -13.178  0.00  0.00     0.024 C 
ENDROOT
BRANCH   3  11
ATOM     11  C   UNK d   1       5.013   7.498 -13.921  0.00  0.00     0.231 C 
ATOM     12  O   UNK d   1       5.977   7.952 -14.588  0.00  0.00    -0.272 OA
ATOM     13  N   UNK d   1       5.139   6.290 -13.177  0.00  0.00    -0.323 N 
ATOM     14  H   UNK d   1       4.299   5.982 -12.654  0.00  0.00     0.169 HD
BRANCH  13  15
ATOM     15  C   UNK d   1       6.315   5.496 -13.108  0.00  0.00     0.088 A 
ATOM     16  C   UNK d   1       6.340   4.138 -13.254  0.00  0.00     0.148 A 
ATOM     17  N   UNK d   1       7.630   3.747 -13.125  0.00  0.00    -0.267 N 
ATOM     18  N   UNK d   1       8.376   4.809 -12.909  0.00  0.00    -0.182 NA
ATOM     19  C   UNK d   1       8.161   2.397 -13.203  0.00  0.00     0.180 C 
ATOM     20  C   UNK d   1       7.613   5.908 -12.889  0.00  0.00     0.171 A 
BRANCH  16  21
ATOM     21  C   UNK d   1       5.277   3.185 -13.500  0.00  0.00     0.270 C 
ATOM     22  O   UNK d   1       4.888   2.929 -14.667  0.00  0.00    -0.266 OA
ATOM     23  N   UNK d   1       4.602   2.481 -12.466  0.00  0.00    -0.365 N 
ATOM     24  H   UNK d   1       4.889   1.475 -12.286  0.00  0.00     0.159 HD
ATOM     25  H   UNK d   1       3.847   2.872 -11.871  0.00  0.00     0.159 HD
ENDBRANCH  16  21
ENDBRANCH  13  15
ENDBRANCH   3  11
BRANCH   1  26
ATOM     26  N   UNK d   1       2.764  11.654 -12.714  0.00  0.00    -0.251 N 
ATOM     27  N   UNK d   1       1.896  12.658 -12.675  0.00  0.00    -0.142 NA
ATOM     28  C   UNK d   1       2.393  13.689 -11.968  0.00  0.00     0.217 A 
ATOM     29 Br   UNK d   1       1.554  15.375 -11.607  0.00  0.00    -0.005 Br
ATOM     30  N   UNK d   1       3.623  13.317 -11.547  0.00  0.00    -0.215 NA
ATOM     31  C   UNK d   1       3.831  12.075 -12.010  0.00  0.00     0.232 A 
ENDBRANCH   1  26
TORSDOF 4
ENDMDL
