/Users/jonathanwahrer/Desktop/Msc/3_Semester/Drug_Design_Praktikum/waehrer_HTS_screening/HTS_experiment/out/docking_results/vina_output/6q9y/0716_docked.pdbqt
 OpenBabel03222219353D

 31 35  0  0  1  0  0  0  0  0999 V2000
    2.5990   10.3620  -13.3780 C   0  0  1  0  0  0  0  0  0  0  0  0
    3.9390    9.6650  -13.4510 C   0  0  0  0  0  2  0  0  0  0  0  0
    3.7440    8.2560  -13.9310 C   0  0  2  0  0  0  0  0  0  0  0  0
    3.2460    8.3650  -15.3790 C   0  0  0  0  0  2  0  0  0  0  0  0
    1.9600    9.1510  -15.3900 C   0  0  2  0  0  3  0  0  0  0  0  0
    2.1090   10.5290  -14.8000 C   0  0  0  0  0  2  0  0  0  0  0  0
    0.9220    8.3780  -14.6410 C   0  0  0  0  0  2  0  0  0  0  0  0
    1.3840    8.2130  -13.2100 C   0  0  2  0  0  3  0  0  0  0  0  0
    1.5770    9.5710  -12.6240 C   0  0  0  0  0  2  0  0  0  0  0  0
    2.7110    7.4870  -13.1780 C   0  0  0  0  0  2  0  0  0  0  0  0
    5.0130    7.4980  -13.9210 C   0  0  0  0  0  0  0  0  0  0  0  0
    5.9770    7.9520  -14.5880 O   0  0  0  0  0  0  0  0  0  0  0  0
    5.1390    6.2900  -13.1770 N   0  0  0  0  0  0  0  0  0  0  0  0
    4.2990    5.9820  -12.6540 H   0  0  0  0  0  0  0  0  0  0  0  0
    6.3150    5.4960  -13.1080 C   0  0  0  0  0  0  0  0  0  0  0  0
    6.3400    4.1380  -13.2540 C   0  0  0  0  0  0  0  0  0  0  0  0
    7.6300    3.7470  -13.1250 N   0  0  0  0  0  0  0  0  0  0  0  0
    8.3760    4.8090  -12.9090 N   0  0  0  0  0  0  0  0  0  0  0  0
    8.1610    2.3970  -13.2030 C   0  0  0  0  0  1  0  0  0  0  0  0
    7.6130    5.9080  -12.8890 C   0  0  0  0  0  3  0  0  0  0  0  0
    5.2770    3.1850  -13.5000 C   0  0  0  0  0  0  0  0  0  0  0  0
    4.8880    2.9290  -14.6670 O   0  0  0  0  0  0  0  0  0  0  0  0
    4.6020    2.4810  -12.4660 N   0  0  0  0  0  0  0  0  0  0  0  0
    4.8890    1.4750  -12.2860 H   0  0  0  0  0  0  0  0  0  0  0  0
    3.8470    2.8720  -11.8710 H   0  0  0  0  0  0  0  0  0  0  0  0
    2.7640   11.6540  -12.7140 N   0  0  0  0  0  0  0  0  0  0  0  0
    1.8960   12.6580  -12.6750 N   0  0  0  0  0  0  0  0  0  0  0  0
    2.3930   13.6890  -11.9680 C   0  0  0  0  0  0  0  0  0  0  0  0
    1.5540   15.3750  -11.6070 Br  0  0  0  0  0  0  0  0  0  0  0  0
    3.6230   13.3170  -11.5470 N   0  0  0  0  0  0  0  0  0  0  0  0
    3.8310   12.0750  -12.0100 C   0  0  0  0  0  3  0  0  0  0  0  0
  1  6  1  6  0  0  0
  1 26  1  0  0  0  0
  1  9  1  0  0  0  0
  2  1  1  0  0  0  0
  3 11  1  1  0  0  0
  3  2  1  0  0  0  0
  3 10  1  0  0  0  0
  4  3  1  0  0  0  0
  5  4  1  1  0  0  0
  5  6  1  0  0  0  0
  5  7  1  0  0  0  0
  8  7  1  6  0  0  0
  8 10  1  0  0  0  0
  8  9  1  0  0  0  0
 11 13  1  0  0  0  0
 12 11  2  0  0  0  0
 13 15  1  0  0  0  0
 13 14  1  0  0  0  0
 15 20  1  0  0  0  0
 16 17  1  0  0  0  0
 16 15  2  0  0  0  0
 17 18  1  0  0  0  0
 18 20  2  0  0  0  0
 19 17  1  0  0  0  0
 21 16  1  0  0  0  0
 21 23  1  0  0  0  0
 22 21  2  0  0  0  0
 23 24  1  0  0  0  0
 23 25  1  0  0  0  0
 26 27  1  0  0  0  0
 26 31  1  0  0  0  0
 27 28  2  0  0  0  0
 28 29  1  0  0  0  0
 28 30  1  0  0  0  0
 31 30  2  0  0  0  0
M  END
>  <Pose>
1

>  <Score>
-8.237

$$$$
