MODEL 1
REMARK VINA RESULT:    -6.227      0.000      0.000
REMARK INTER + INTRA:          -6.387
REMARK INTER:                  -6.955
REMARK INTRA:                   0.568
REMARK UNBOUND:                 0.568
REMARK  2 active torsions:
REMARK  status: ('A' for Active; 'I' for Inactive)
REMARK    1  A    between atoms: C_9  and  N_11 
REMARK    2  A    between atoms: C_12  and  C_17 
ROOT
ATOM      1  N   UNK d   1      -1.302   7.737 -14.046  0.00  0.00    -0.348 N 
ATOM      2  C   UNK d   1      -1.237   6.610 -13.170  0.00  0.00     0.189 C 
ATOM      3  C   UNK d   1      -1.764   5.365 -13.773  0.00  0.00     0.201 C 
ATOM      4  O   UNK d   1      -2.417   5.475 -14.970  0.00  0.00    -0.387 OA
ATOM      5  C   UNK d   1      -3.179   6.633 -15.070  0.00  0.00     0.187 C 
ATOM      6  C   UNK d   1      -2.342   7.871 -15.019  0.00  0.00     0.151 C 
ENDROOT
BRANCH   1   7
ATOM      7  C   UNK d   1      -0.343   8.804 -13.985  0.00  0.00     0.145 A 
ATOM      8  N   UNK d   1       0.942   8.557 -14.387  0.00  0.00    -0.223 NA
ATOM      9  C   UNK d   1       1.866   9.534 -14.401  0.00  0.00     0.237 A 
ATOM     10  N   UNK d   1       1.551  10.784 -14.020  0.00  0.00    -0.222 NA
ATOM     11  C   UNK d   1       0.316  11.100 -13.615  0.00  0.00     0.164 A 
ATOM     12  N   UNK d   1      -0.214  12.258 -13.181  0.00  0.00    -0.255 N 
ATOM     13  C   UNK d   1      -0.644  10.081 -13.599  0.00  0.00     0.095 A 
ATOM     14  N   UNK d   1      -1.469  12.000 -12.894  0.00  0.00    -0.163 NA
ATOM     15  C   UNK d   1       0.448  13.542 -13.049  0.00  0.00     0.182 C 
ATOM     16  C   UNK d   1      -1.774  10.705 -13.128  0.00  0.00     0.141 A 
ATOM     17 Br   UNK d   1      -3.446   9.842 -12.835  0.00  0.00    -0.026 Br
ENDBRANCH   1   7
BRANCH   2  18
ATOM     18  C   UNK d   1       0.109   6.457 -12.574  0.00  0.00     0.198 A 
ATOM     19  N   UNK d   1       1.108   5.726 -13.070  0.00  0.00    -0.207 NA
ATOM     20  C   UNK d   1       2.155   5.869 -12.207  0.00  0.00     0.152 A 
ATOM     21  N   UNK d   1       1.731   6.684 -11.225  0.00  0.00    -0.112 NA
ATOM     22  C   UNK d   1       3.498   5.254 -12.317  0.00  0.00     0.096 C 
ATOM     23  O   UNK d   1       0.499   7.023 -11.469  0.00  0.00    -0.194 OA
ENDBRANCH   2  18
TORSDOF 2
ENDMDL
