/Users/jonathanwahrer/Desktop/Msc/3_Semester/Drug_Design_Praktikum/waehrer_HTS_screening/HTS_experiment/out/docking_results/vina_output/6q9y/0727_docked.pdbqt
 OpenBabel03222219363D

 21 24  0  0  0  0  0  0  0  0999 V2000
   -1.5050   11.1610  -13.2150 Br  0  0  0  0  0  0  0  0  0  0  0  0
   -2.5640    9.7130  -13.8500 C   0  0  0  0  0  0  0  0  0  0  0  0
   -3.8910    9.7700  -14.1680 N   0  0  0  0  0  0  0  0  0  0  0  0
   -4.2740    8.5880  -14.5900 N   0  0  0  0  0  0  0  0  0  0  0  0
   -3.2370    7.7350  -14.5630 C   0  0  0  0  0  0  0  0  0  0  0  0
   -3.0880    6.4420  -14.8930 N   0  0  0  0  0  0  0  0  0  0  0  0
   -1.9190    5.8180  -14.7820 C   0  0  0  0  0  3  0  0  0  0  0  0
   -0.8580    6.4810  -14.3300 N   0  0  0  0  0  0  0  0  0  0  0  0
   -0.8990    7.8050  -13.9640 C   0  0  0  0  0  0  0  0  0  0  0  0
   -2.1130    8.4320  -14.0880 C   0  0  0  0  0  0  0  0  0  0  0  0
   -5.6110    8.1760  -15.0400 C   0  0  0  0  0  1  0  0  0  0  0  0
    0.2320    8.4460  -13.4580 N   0  0  0  0  0  0  0  0  0  0  0  0
    0.7450    8.1350  -12.1420 C   0  0  0  0  0  2  0  0  0  0  0  0
    2.0540    7.3410  -12.3390 C   0  0  0  0  0  2  0  0  0  0  0  0
    2.7870    7.8910  -13.5010 C   0  0  0  0  0  0  0  0  0  0  0  0
    4.0320    7.5530  -13.9090 N   0  0  0  0  0  0  0  0  0  0  0  0
    2.3440    8.8400  -14.3720 C   0  0  0  0  0  0  0  0  0  0  0  0
    4.3190    8.2850  -14.9980 C   0  0  0  0  0  3  0  0  0  0  0  0
    4.9320    6.5910  -13.3260 C   0  0  0  0  0  1  0  0  0  0  0  0
    3.2960    9.0830  -15.3000 N   0  0  0  0  0  0  0  0  0  0  0  0
    0.9920    9.4230  -14.1940 C   0  0  0  0  0  2  0  0  0  0  0  0
  2  1  1  0  0  0  0
  3  2  2  0  0  0  0
  4  5  1  0  0  0  0
  4  3  1  0  0  0  0
  5 10  1  0  0  0  0
  6  7  1  0  0  0  0
  6  5  2  0  0  0  0
  7  8  2  0  0  0  0
  8  9  1  0  0  0  0
  9 12  1  0  0  0  0
 10  9  2  0  0  0  0
 10  2  1  0  0  0  0
 11  4  1  0  0  0  0
 12 13  1  0  0  0  0
 14 13  1  0  0  0  0
 15 14  1  0  0  0  0
 16 15  1  0  0  0  0
 16 19  1  0  0  0  0
 17 21  1  0  0  0  0
 17 15  2  0  0  0  0
 18 16  1  0  0  0  0
 20 18  2  0  0  0  0
 20 17  1  0  0  0  0
 21 12  1  0  0  0  0
M  END
>  <Pose>
1

>  <Score>
-7.573

$$$$
