MODEL 1
REMARK VINA RESULT:    -7.573      0.000      0.000
REMARK INTER + INTRA:          -8.038
REMARK INTER:                  -8.016
REMARK INTRA:                  -0.022
REMARK UNBOUND:                -0.022
REMARK  1 active torsions:
REMARK  status: ('A' for Active; 'I' for Inactive)
REMARK    1  A    between atoms: C_9  and  N_11 
ROOT
ATOM      1 Br   UNK d   1      -1.505  11.161 -13.215  0.00  0.00    -0.026 Br
ATOM      2  C   UNK d   1      -2.564   9.713 -13.850  0.00  0.00     0.141 A 
ATOM      3  N   UNK d   1      -3.891   9.770 -14.168  0.00  0.00    -0.163 NA
ATOM      4  N   UNK d   1      -4.274   8.588 -14.590  0.00  0.00    -0.255 N 
ATOM      5  C   UNK d   1      -3.237   7.735 -14.563  0.00  0.00     0.164 A 
ATOM      6  N   UNK d   1      -3.088   6.442 -14.893  0.00  0.00    -0.222 NA
ATOM      7  C   UNK d   1      -1.919   5.818 -14.782  0.00  0.00     0.237 A 
ATOM      8  N   UNK d   1      -0.858   6.481 -14.330  0.00  0.00    -0.223 NA
ATOM      9  C   UNK d   1      -0.899   7.805 -13.964  0.00  0.00     0.144 A 
ATOM     10  C   UNK d   1      -2.113   8.432 -14.088  0.00  0.00     0.095 A 
ATOM     11  C   UNK d   1      -5.611   8.176 -15.040  0.00  0.00     0.182 C 
ENDROOT
BRANCH   9  12
ATOM     12  N   UNK d   1       0.232   8.446 -13.458  0.00  0.00    -0.359 N 
ATOM     13  C   UNK d   1       0.745   8.135 -12.142  0.00  0.00     0.131 C 
ATOM     14  C   UNK d   1       2.054   7.341 -12.339  0.00  0.00     0.079 C 
ATOM     15  C   UNK d   1       2.787   7.891 -13.501  0.00  0.00     0.040 A 
ATOM     16  N   UNK d   1       4.032   7.553 -13.909  0.00  0.00    -0.347 N 
ATOM     17  C   UNK d   1       2.344   8.840 -14.372  0.00  0.00     0.076 A 
ATOM     18  C   UNK d   1       4.319   8.285 -14.998  0.00  0.00     0.209 A 
ATOM     19  C   UNK d   1       4.932   6.591 -13.326  0.00  0.00     0.157 C 
ATOM     20  N   UNK d   1       3.296   9.083 -15.300  0.00  0.00    -0.245 NA
ATOM     21  C   UNK d   1       0.992   9.423 -14.194  0.00  0.00     0.185 C 
ENDBRANCH   9  12
TORSDOF 1
ENDMDL
