MODEL 1
REMARK VINA RESULT:    -7.951      0.000      0.000
REMARK INTER + INTRA:          -9.805
REMARK INTER:                  -9.346
REMARK INTRA:                  -0.459
REMARK UNBOUND:                -0.459
REMARK  3 active torsions:
REMARK  status: ('A' for Active; 'I' for Inactive)
REMARK    1  A    between atoms: C_9  and  N_11 
REMARK    2  A    between atoms: N_14  and  C_17 
REMARK    3  A    between atoms: C_17  and  C_19 
REMARK       I    between atoms: C_19  and  N_21 
ROOT
ATOM      1  N   UNK d   1       1.690  10.144 -13.468  0.00  0.00    -0.362 N 
ATOM      2  C   UNK d   1       0.956   9.216 -12.655  0.00  0.00     0.154 C 
ATOM      3  C   UNK d   1       1.889   8.014 -12.483  0.00  0.00     0.293 C 
ATOM      4  N   UNK d   1       2.918   7.998 -13.530  0.00  0.00     0.103 N 
ATOM      5  C   UNK d   1       2.306   8.316 -14.822  0.00  0.00     0.293 C 
ATOM      6  C   UNK d   1       1.875   9.771 -14.849  0.00  0.00     0.154 C 
ENDROOT
BRANCH   1   7
ATOM      7  C   UNK d   1       2.220  11.326 -12.939  0.00  0.00     0.144 A 
ATOM      8  N   UNK d   1       3.510  11.399 -12.535  0.00  0.00    -0.223 NA
ATOM      9  C   UNK d   1       4.034  12.495 -11.999  0.00  0.00     0.237 A 
ATOM     10  N   UNK d   1       3.265  13.577 -11.847  0.00  0.00    -0.222 NA
ATOM     11  C   UNK d   1       1.974  13.602 -12.218  0.00  0.00     0.164 A 
ATOM     12  N   UNK d   1       1.022  14.553 -12.175  0.00  0.00    -0.255 N 
ATOM     13  C   UNK d   1       1.423  12.454 -12.780  0.00  0.00     0.095 A 
ATOM     14  N   UNK d   1      -0.067  14.040 -12.682  0.00  0.00    -0.163 NA
ATOM     15  C   UNK d   1       1.260  15.887 -11.642  0.00  0.00     0.182 C 
ATOM     16  C   UNK d   1       0.115  12.765 -13.069  0.00  0.00     0.141 A 
ATOM     17 Br   UNK d   1      -1.133  11.588 -13.878  0.00  0.00    -0.026 Br
ENDBRANCH   1   7
BRANCH   4  18
ATOM     18  C   UNK d   1       3.422   6.634 -13.588  0.00  0.00     0.296 C 
ATOM     19  C   UNK d   1       2.928   5.919 -12.301  0.00  0.00     0.052 C 
BRANCH  18  20
ATOM     20  C   UNK d   1       4.895   6.610 -13.598  0.00  0.00     0.186 C 
ATOM     21  O   UNK d   1       5.432   7.793 -13.514  0.00  0.00    -0.175 OA
ATOM     22  N   UNK d   1       5.756   5.505 -13.690  0.00  0.00    -0.361 N 
ATOM     23  C   UNK d   1       5.420   4.120 -13.827  0.00  0.00     0.124 C 
ATOM     24  C   UNK d   1       7.210   5.786 -13.654  0.00  0.00     0.124 C 
ATOM     25  C   UNK d   1       6.205   3.195 -12.920  0.00  0.00     0.020 C 
ATOM     26  C   UNK d   1       7.616   3.612 -12.684  0.00  0.00     0.003 C 
ATOM     27  C   UNK d   1       7.742   5.098 -12.424  0.00  0.00     0.020 C 
ENDBRANCH  18  20
ENDBRANCH   4  18
TORSDOF 3
ENDMDL
