MODEL 1
REMARK VINA RESULT:    -7.468      0.000      0.000
REMARK INTER + INTRA:          -7.889
REMARK INTER:                  -7.905
REMARK INTRA:                   0.016
REMARK UNBOUND:                 0.016
REMARK  1 active torsions:
REMARK  status: ('A' for Active; 'I' for Inactive)
REMARK    1  A    between atoms: N_8  and  C_11 
ROOT
ATOM      1  C   UNK d   1       0.134  13.279 -13.001  0.00  0.00     0.148 A 
ATOM      2  C   UNK d   1      -0.790  14.163 -13.301  0.00  0.00     0.080 A 
ATOM      3  C   UNK d   1      -0.683  15.568 -12.880  0.00  0.00     0.043 A 
ATOM      4  C   UNK d   1      -1.605  16.467 -13.174  0.00  0.00     0.043 C 
ATOM      5  N   UNK d   1       0.481  15.891 -12.135  0.00  0.00    -0.189 N 
ATOM      6  C   UNK d   1       1.480  14.913 -11.818  0.00  0.00     0.730 A 
ATOM      7  N   UNK d   1       1.280  13.641 -12.257  0.00  0.00    -0.044 N 
ATOM      8  N   UNK d   1       2.340  12.943 -11.833  0.00  0.00    -0.143 NA
ATOM      9  C   UNK d   1       3.190  13.723 -11.150  0.00  0.00     0.275 A 
ATOM     10  N   UNK d   1       2.644  14.950 -11.146  0.00  0.00    -0.054 NA
ATOM     11  H   UNK d   1       0.616  16.872 -11.807  0.00  0.00     0.184 HD
ENDROOT
BRANCH   1  12
ATOM     12  N   UNK d   1      -0.019  11.946 -13.430  0.00  0.00    -0.357 N 
ATOM     13  C   UNK d   1       1.102  11.312 -14.079  0.00  0.00     0.203 C 
ATOM     14  C   UNK d   1       1.022   9.830 -13.923  0.00  0.00     0.124 A 
ATOM     15  N   UNK d   1      -0.158   9.220 -13.827  0.00  0.00    -0.325 N 
ATOM     16  N   UNK d   1       1.976   8.865 -13.850  0.00  0.00    -0.243 NA
ATOM     17  C   UNK d   1       0.029   7.901 -13.697  0.00  0.00     0.101 A 
ATOM     18  C   UNK d   1      -1.402   9.961 -13.869  0.00  0.00     0.151 C 
ATOM     19 Br   UNK d   1      -1.294   6.526 -13.517  0.00  0.00    -0.029 Br
ATOM     20  C   UNK d   1       1.388   7.664 -13.709  0.00  0.00     0.156 A 
ATOM     21  C   UNK d   1      -1.288  11.298 -13.197  0.00  0.00     0.145 C 
ENDBRANCH   1  12
TORSDOF 1
ENDMDL
