MODEL 1
REMARK VINA RESULT:    -8.586      0.000      0.000
REMARK INTER + INTRA:         -11.132
REMARK INTER:                 -10.594
REMARK INTRA:                  -0.538
REMARK UNBOUND:                -0.538
REMARK  4 active torsions:
REMARK  status: ('A' for Active; 'I' for Inactive)
REMARK    1  A    between atoms: C_4  and  C_7 
REMARK       I    between atoms: C_7  and  N_9 
REMARK    2  A    between atoms: N_9  and  C_10 
REMARK    3  A    between atoms: C_10  and  C_11 
REMARK    4  A    between atoms: C_11  and  C_12 
REMARK       I    between atoms: C_12  and  N_14 
ROOT
ATOM      1  C   UNK d   1      -3.050   8.366 -14.474  0.00  0.00     0.221 C 
ATOM      2  O   UNK d   1      -3.810   7.906 -15.390  0.00  0.00    -0.273 OA
ATOM      3  N   UNK d   1      -2.055   7.540 -13.885  0.00  0.00    -0.352 N 
ATOM      4  C   UNK d   1      -1.908   6.181 -14.327  0.00  0.00     0.129 C 
ATOM      5  C   UNK d   1      -0.499   5.674 -14.282  0.00  0.00     0.068 C 
ATOM      6  C   UNK d   1       0.369   6.398 -13.295  0.00  0.00     0.204 C 
ATOM      7  N   UNK d   1       1.399   5.538 -12.797  0.00  0.00     0.099 N 
ATOM      8  C   UNK d   1       2.244   6.134 -11.819  0.00  0.00     0.277 C 
ATOM      9  C   UNK d   1       2.692   7.526 -12.123  0.00  0.00     0.091 C 
ATOM     10  C   UNK d   1       2.159   8.043 -13.409  0.00  0.00     0.062 A 
ATOM     11  N   UNK d   1       2.580   9.021 -14.213  0.00  0.00    -0.246 NA
ATOM     12  C   UNK d   1       1.759   9.111 -15.269  0.00  0.00     0.207 A 
ATOM     13  N   UNK d   1       0.798   8.184 -15.149  0.00  0.00    -0.350 N 
ATOM     14  C   UNK d   1       1.038   7.525 -14.009  0.00  0.00     0.074 A 
ATOM     15  C   UNK d   1      -0.484   7.003 -12.192  0.00  0.00     0.068 C 
ATOM     16  C   UNK d   1      -1.232   8.148 -12.844  0.00  0.00     0.129 C 
ATOM     17  H   UNK d   1       0.945   4.696 -12.379  0.00  0.00     0.317 HD
ATOM     18  H   UNK d   1      -0.007   8.003 -15.831  0.00  0.00     0.166 HD
ENDROOT
BRANCH   1  19
ATOM     19  C   UNK d   1      -3.269   9.767 -14.079  0.00  0.00     0.122 C 
BRANCH  19  20
ATOM     20  C   UNK d   1      -4.633  10.013 -13.513  0.00  0.00     0.132 C 
BRANCH  20  21
ATOM     21  N   UNK d   1      -5.622  10.290 -14.508  0.00  0.00    -0.355 N 
ATOM     22  C   UNK d   1      -6.944  10.694 -14.179  0.00  0.00     0.275 C 
ATOM     23  O   UNK d   1      -7.238  10.806 -12.952  0.00  0.00    -0.265 OA
ATOM     24  H   UNK d   1      -5.378  10.198 -15.512  0.00  0.00     0.162 HD
BRANCH  22  25
ATOM     25  C   UNK d   1      -7.957  10.979 -15.163  0.00  0.00     0.144 A 
ATOM     26  O   UNK d   1      -8.733  12.011 -15.200  0.00  0.00    -0.298 OA
ATOM     27  C   UNK d   1      -9.546  11.988 -16.213  0.00  0.00     0.122 A 
ATOM     28 Br   UNK d   1     -10.888  13.272 -16.716  0.00  0.00    -0.023 Br
ATOM     29  C   UNK d   1      -9.286  10.832 -16.913  0.00  0.00     0.048 A 
ATOM     30  C   UNK d   1      -8.270  10.166 -16.260  0.00  0.00     0.046 A 
ENDBRANCH  22  25
ENDBRANCH  20  21
ENDBRANCH  19  20
ENDBRANCH   1  19
TORSDOF 4
ENDMDL
