MODEL 1
REMARK VINA RESULT:    -8.200      0.000      0.000
REMARK INTER + INTRA:         -10.018
REMARK INTER:                  -9.638
REMARK INTRA:                  -0.380
REMARK UNBOUND:                -0.380
REMARK  3 active torsions:
REMARK  status: ('A' for Active; 'I' for Inactive)
REMARK    1  A    between atoms: C_4  and  C_7 
REMARK       I    between atoms: C_7  and  N_9 
REMARK    2  A    between atoms: N_9  and  C_10 
REMARK    3  A    between atoms: C_10  and  C_12 
REMARK       I    between atoms: C_12  and  N_14 
ROOT
ATOM      1  C   UNK d   1       1.511  11.695 -13.611  0.00  0.00     0.242 C 
ATOM      2  O   UNK d   1       0.247  11.533 -13.726  0.00  0.00    -0.271 OA
ATOM      3  N   UNK d   1       2.332  10.786 -14.288  0.00  0.00    -0.350 N 
ATOM      4  C   UNK d   1       3.779  10.854 -14.249  0.00  0.00     0.129 C 
ATOM      5  C   UNK d   1       4.282   9.591 -13.622  0.00  0.00     0.068 C 
ATOM      6  C   UNK d   1       3.721   8.370 -14.280  0.00  0.00     0.206 C 
ATOM      7  N   UNK d   1       4.825   7.544 -14.734  0.00  0.00     0.099 N 
ATOM      8  C   UNK d   1       5.545   7.077 -13.563  0.00  0.00     0.277 C 
ATOM      9  C   UNK d   1       4.758   5.873 -13.033  0.00  0.00     0.089 C 
ATOM     10  C   UNK d   1       3.387   6.373 -12.771  0.00  0.00     0.039 A 
ATOM     11  N   UNK d   1       2.420   5.853 -11.991  0.00  0.00    -0.352 N 
ATOM     12  C   UNK d   1       1.357   6.668 -12.078  0.00  0.00     0.207 A 
ATOM     13  N   UNK d   1       1.672   7.679 -12.906  0.00  0.00    -0.244 NA
ATOM     14  C   UNK d   1       2.929   7.528 -13.356  0.00  0.00     0.097 A 
ATOM     15  C   UNK d   1       2.885   8.778 -15.493  0.00  0.00     0.068 C 
ATOM     16  C   UNK d   1       1.786   9.706 -15.089  0.00  0.00     0.129 C 
ATOM     17  H   UNK d   1       5.520   8.111 -15.296  0.00  0.00     0.317 HD
ATOM     18  H   UNK d   1       2.437   4.981 -11.404  0.00  0.00     0.166 HD
ENDROOT
BRANCH   1  19
ATOM     19  C   UNK d   1       1.940  12.829 -12.774  0.00  0.00     0.173 C 
ATOM     20  C   UNK d   1       2.477  12.466 -11.437  0.00  0.00     0.042 C 
BRANCH  19  21
ATOM     21  N   UNK d   1       0.890  13.813 -12.605  0.00  0.00    -0.342 N 
ATOM     22  C   UNK d   1       1.116  15.201 -12.649  0.00  0.00     0.276 C 
ATOM     23  O   UNK d   1       2.272  15.631 -12.840  0.00  0.00    -0.265 OA
ATOM     24  H   UNK d   1      -0.077  13.465 -12.445  0.00  0.00     0.163 HD
BRANCH  22  25
ATOM     25  C   UNK d   1       0.018  16.138 -12.472  0.00  0.00     0.144 A 
ATOM     26  O   UNK d   1      -0.102  16.989 -11.452  0.00  0.00    -0.298 OA
ATOM     27  C   UNK d   1      -1.194  17.698 -11.573  0.00  0.00     0.122 A 
ATOM     28 Br   UNK d   1      -1.792  19.055 -10.346  0.00  0.00    -0.023 Br
ATOM     29  C   UNK d   1      -1.858  17.320 -12.729  0.00  0.00     0.048 A 
ATOM     30  C   UNK d   1      -1.079  16.335 -13.281  0.00  0.00     0.046 A 
ENDBRANCH  22  25
ENDBRANCH  19  21
ENDBRANCH   1  19
TORSDOF 3
ENDMDL
