/Users/jonathanwahrer/Desktop/Msc/3_Semester/Drug_Design_Praktikum/waehrer_HTS_screening/HTS_experiment/out/docking_results/vina_output/6q9y/0755_docked.pdbqt
 OpenBabel03222219373D

 28 31  0  0  0  0  0  0  0  0999 V2000
    0.7640   11.1870  -13.4620 C   0  0  0  0  0  0  0  0  0  0  0  0
    0.9370   12.2220  -12.8010 O   0  0  0  0  0  0  0  0  0  0  0  0
    1.8590   10.5170  -14.0680 N   0  0  0  0  0  0  0  0  0  0  0  0
    1.6480    9.2990  -14.8460 C   0  0  0  0  0  2  0  0  0  0  0  0
    2.9880    8.7480  -15.3270 C   0  0  0  0  0  2  0  0  0  0  0  0
    3.8660    8.6870  -14.1740 N   0  0  0  0  0  0  0  0  0  0  0  0
    4.1210    9.8950  -13.4380 C   0  0  0  0  0  2  0  0  0  0  0  0
    3.2230   10.9920  -13.9510 C   0  0  0  0  0  2  0  0  0  0  0  0
    4.4760    7.4570  -13.7630 C   0  0  0  0  0  0  0  0  0  0  0  0
    3.7450    6.4150  -13.3420 N   0  0  0  0  0  0  0  0  0  0  0  0
    4.3420    5.2800  -12.9630 C   0  0  0  0  0  0  0  0  0  0  0  0
    5.6820    5.1400  -12.9890 N   0  0  0  0  0  0  0  0  0  0  0  0
    3.5240    4.1320  -12.4990 C   0  0  0  0  0  1  0  0  0  0  0  0
    6.4740    6.1460  -13.4010 C   0  0  0  0  0  0  0  0  0  0  0  0
    5.8390    7.3080  -13.7880 C   0  0  0  0  0  3  0  0  0  0  0  0
    7.8860    6.0480  -13.4470 N   0  0  0  0  0  0  0  0  0  0  0  0
    8.6130    6.4860  -14.6210 C   0  0  0  0  0  2  0  0  0  0  0  0
   10.0790    6.5460  -14.2460 C   0  0  0  0  0  2  0  0  0  0  0  0
   10.5150    5.2270  -13.8740 N   0  0  0  0  0  0  0  0  0  0  0  0
    9.6580    4.5410  -12.9600 C   0  0  0  0  0  2  0  0  0  0  0  0
   10.8610    4.4720  -15.0520 C   0  0  0  0  0  1  0  0  0  0  0  0
    8.6730    5.5170  -12.3510 C   0  0  0  0  0  2  0  0  0  0  0  0
   -0.6020   10.6400  -13.6250 C   0  0  0  0  0  0  0  0  0  0  0  0
   -0.9230    9.3930  -13.8680 O   0  0  0  0  0  0  0  0  0  0  0  0
   -2.2180    9.2220  -13.9570 C   0  0  0  0  0  0  0  0  0  0  0  0
   -3.1070    7.5660  -14.3010 Br  0  0  0  0  0  0  0  0  0  0  0  0
   -2.8110   10.4500  -13.7600 C   0  0  0  0  0  3  0  0  0  0  0  0
   -1.7850   11.3350  -13.5520 C   0  0  0  0  0  3  0  0  0  0  0  0
  1  2  2  0  0  0  0
  3  8  1  0  0  0  0
  3  1  1  0  0  0  0
  4  3  1  0  0  0  0
  5  4  1  0  0  0  0
  5  6  1  0  0  0  0
  6  9  1  0  0  0  0
  6  7  1  0  0  0  0
  8  7  1  0  0  0  0
  9 10  1  0  0  0  0
 10 11  2  0  0  0  0
 11 13  1  0  0  0  0
 12 11  1  0  0  0  0
 14 12  2  0  0  0  0
 15  9  2  0  0  0  0
 15 14  1  0  0  0  0
 16 14  1  0  0  0  0
 16 22  1  0  0  0  0
 17 18  1  0  0  0  0
 17 16  1  0  0  0  0
 18 19  1  0  0  0  0
 19 20  1  0  0  0  0
 20 22  1  0  0  0  0
 21 19  1  0  0  0  0
 23 28  2  0  0  0  0
 23  1  1  0  0  0  0
 24 23  1  0  0  0  0
 25 24  1  0  0  0  0
 25 27  2  0  0  0  0
 26 25  1  0  0  0  0
 27 28  1  0  0  0  0
M  END
>  <Pose>
1

>  <Score>
-8.398

$$$$
