MODEL 1
REMARK VINA RESULT:    -8.398      0.000      0.000
REMARK INTER + INTRA:          -9.996
REMARK INTER:                  -9.871
REMARK INTRA:                  -0.125
REMARK UNBOUND:                -0.125
REMARK  3 active torsions:
REMARK  status: ('A' for Active; 'I' for Inactive)
REMARK    1  A    between atoms: C_4  and  C_7 
REMARK       I    between atoms: C_7  and  N_9 
REMARK    2  A    between atoms: N_12  and  C_15 
REMARK    3  A    between atoms: C_19  and  N_21 
ROOT
ATOM      1  C   UNK d   1       0.764  11.187 -13.462  0.00  0.00     0.277 C 
ATOM      2  O   UNK d   1       0.937  12.222 -12.801  0.00  0.00    -0.265 OA
ATOM      3  N   UNK d   1       1.859  10.517 -14.068  0.00  0.00    -0.343 N 
ATOM      4  C   UNK d   1       1.648   9.299 -14.846  0.00  0.00     0.146 C 
ATOM      5  C   UNK d   1       2.988   8.748 -15.327  0.00  0.00     0.144 C 
ATOM      6  N   UNK d   1       3.866   8.687 -14.174  0.00  0.00    -0.363 N 
ATOM      7  C   UNK d   1       4.121   9.895 -13.438  0.00  0.00     0.144 C 
ATOM      8  C   UNK d   1       3.223  10.992 -13.951  0.00  0.00     0.146 C 
ENDROOT
BRANCH   6   9
ATOM      9  C   UNK d   1       4.476   7.457 -13.763  0.00  0.00     0.131 A 
ATOM     10  N   UNK d   1       3.745   6.415 -13.342  0.00  0.00    -0.216 NA
ATOM     11  C   UNK d   1       4.342   5.280 -12.963  0.00  0.00     0.126 A 
ATOM     12  N   UNK d   1       5.682   5.140 -12.989  0.00  0.00    -0.216 NA
ATOM     13  C   UNK d   1       3.524   4.132 -12.499  0.00  0.00     0.093 C 
ATOM     14  C   UNK d   1       6.474   6.146 -13.401  0.00  0.00     0.131 A 
ATOM     15  C   UNK d   1       5.839   7.308 -13.788  0.00  0.00     0.100 A 
BRANCH  14  16
ATOM     16  N   UNK d   1       7.886   6.048 -13.447  0.00  0.00    -0.362 N 
ATOM     17  C   UNK d   1       8.613   6.486 -14.621  0.00  0.00     0.154 C 
ATOM     18  C   UNK d   1      10.079   6.546 -14.246  0.00  0.00     0.291 C 
ATOM     19  N   UNK d   1      10.515   5.227 -13.874  0.00  0.00     0.087 N 
ATOM     20  C   UNK d   1       9.658   4.541 -12.960  0.00  0.00     0.291 C 
ATOM     21  C   UNK d   1      10.861   4.472 -15.052  0.00  0.00     0.310 C 
ATOM     22  C   UNK d   1       8.673   5.517 -12.351  0.00  0.00     0.154 C 
ENDBRANCH  14  16
ENDBRANCH   6   9
BRANCH   1  23
ATOM     23  C   UNK d   1      -0.602  10.640 -13.625  0.00  0.00     0.144 A 
ATOM     24  O   UNK d   1      -0.923   9.393 -13.868  0.00  0.00    -0.298 OA
ATOM     25  C   UNK d   1      -2.218   9.222 -13.957  0.00  0.00     0.122 A 
ATOM     26 Br   UNK d   1      -3.107   7.566 -14.301  0.00  0.00    -0.023 Br
ATOM     27  C   UNK d   1      -2.811  10.450 -13.760  0.00  0.00     0.048 A 
ATOM     28  C   UNK d   1      -1.785  11.335 -13.552  0.00  0.00     0.046 A 
ENDBRANCH   1  23
TORSDOF 3
ENDMDL
