/Users/jonathanwahrer/Desktop/Msc/3_Semester/Drug_Design_Praktikum/waehrer_HTS_screening/HTS_experiment/out/docking_results/vina_output/6q9y/0769_docked.pdbqt
 OpenBabel03222219373D

 26 29  0  0  0  0  0  0  0  0999 V2000
    3.8400    5.9700  -12.9830 C   0  0  0  0  0  0  0  0  0  0  0  0
    3.1390    5.2110  -12.1630 O   0  0  0  0  0  0  0  0  0  0  0  0
    3.1500    7.0300  -13.5530 N   0  0  0  0  0  0  0  0  0  0  0  0
    1.7190    7.2240  -13.2050 C   0  0  0  0  0  2  0  0  0  0  0  0
    1.5370    8.6210  -12.6630 C   0  0  0  0  0  2  0  0  0  0  0  0
    1.9740    9.5610  -13.6180 N   0  0  0  0  0  0  0  0  0  0  0  0
    2.4810    8.9410  -14.7940 C   0  0  0  0  0  2  0  0  0  0  0  0
    3.6550    7.9910  -14.4580 C   0  0  0  0  0  2  0  0  0  0  0  0
    5.2120    5.5170  -13.1080 C   0  0  0  0  0  0  0  0  0  0  0  0
    6.2990    6.3300  -12.9280 C   0  0  0  0  0  3  0  0  0  0  0  0
    7.5850    5.7990  -13.0690 C   0  0  0  0  0  0  0  0  0  0  0  0
    9.1230    6.8620  -12.8350 Br  0  0  0  0  0  0  0  0  0  0  0  0
    7.7210    4.4700  -13.3860 C   0  0  0  0  0  0  0  0  0  0  0  0
    6.6770    3.7350  -13.5480 O   0  0  0  0  0  0  0  0  0  0  0  0
    8.8560    3.9440  -13.5240 O   0  0  0  0  0  0  0  0  0  0  0  0
    5.4670    4.1800  -13.4280 C   0  0  0  0  0  3  0  0  0  0  0  0
    1.0760   10.6330  -13.9080 C   0  0  0  0  0  2  0  0  0  0  0  0
    1.3540   11.9030  -13.2140 C   0  0  0  0  0  0  0  0  0  0  0  0
    0.4780   12.9330  -13.1030 C   0  0  0  0  0  3  0  0  0  0  0  0
    0.8300   14.0820  -12.4380 C   0  0  0  0  0  0  0  0  0  0  0  0
    2.0770   14.1870  -11.8840 C   0  0  0  0  0  0  0  0  0  0  0  0
    0.1660   15.2870  -12.1610 O   0  0  0  0  0  0  0  0  0  0  0  0
    2.9830   13.1550  -11.9830 C   0  0  0  0  0  3  0  0  0  0  0  0
    2.2080   15.4210  -11.2700 O   0  0  0  0  0  0  0  0  0  0  0  0
    2.6080   12.0310  -12.6460 C   0  0  0  0  0  3  0  0  0  0  0  0
    1.1510   16.2260  -11.7720 C   0  0  0  0  0  2  0  0  0  0  0  0
  1  2  2  0  0  0  0
  3  4  1  0  0  0  0
  3  1  1  0  0  0  0
  4  5  1  0  0  0  0
  6  5  1  0  0  0  0
  7  8  1  0  0  0  0
  7  6  1  0  0  0  0
  8  3  1  0  0  0  0
  9  1  1  0  0  0  0
  9 10  1  0  0  0  0
 11 10  2  0  0  0  0
 11 12  1  0  0  0  0
 13 11  1  0  0  0  0
 14 16  1  0  0  0  0
 14 13  1  0  0  0  0
 15 13  2  0  0  0  0
 16  9  2  0  0  0  0
 17  6  1  0  0  0  0
 17 18  1  0  0  0  0
 18 19  2  0  0  0  0
 18 25  1  0  0  0  0
 19 20  1  0  0  0  0
 20 22  1  0  0  0  0
 20 21  2  0  0  0  0
 21 24  1  0  0  0  0
 22 26  1  0  0  0  0
 23 21  1  0  0  0  0
 25 23  2  0  0  0  0
 26 24  1  0  0  0  0
M  END
>  <Pose>
1

>  <Score>
-8.461

$$$$
