MODEL 1
REMARK VINA RESULT:    -8.461      0.000      0.000
REMARK INTER + INTRA:         -10.320
REMARK INTER:                  -9.944
REMARK INTRA:                  -0.376
REMARK UNBOUND:                -0.376
REMARK  3 active torsions:
REMARK  status: ('A' for Active; 'I' for Inactive)
REMARK    1  A    between atoms: C_4  and  C_9 
REMARK       I    between atoms: C_9  and  N_11 
REMARK    2  A    between atoms: N_14  and  C_17 
REMARK    3  A    between atoms: C_17  and  C_18 
ROOT
ATOM      1  C   UNK d   1       3.840   5.970 -12.983  0.00  0.00     0.189 C 
ATOM      2  O   UNK d   1       3.139   5.211 -12.163  0.00  0.00    -0.171 OA
ATOM      3  N   UNK d   1       3.150   7.030 -13.553  0.00  0.00    -0.355 N 
ATOM      4  C   UNK d   1       1.719   7.224 -13.205  0.00  0.00     0.155 C 
ATOM      5  C   UNK d   1       1.537   8.621 -12.663  0.00  0.00     0.292 C 
ATOM      6  N   UNK d   1       1.974   9.561 -13.618  0.00  0.00     0.095 N 
ATOM      7  C   UNK d   1       2.481   8.941 -14.794  0.00  0.00     0.292 C 
ATOM      8  C   UNK d   1       3.655   7.991 -14.458  0.00  0.00     0.155 C 
ENDROOT
BRANCH   1   9
ATOM      9  C   UNK d   1       5.212   5.517 -13.108  0.00  0.00     0.042 A 
ATOM     10  C   UNK d   1       6.299   6.330 -12.928  0.00  0.00     0.043 A 
ATOM     11  C   UNK d   1       7.585   5.799 -13.069  0.00  0.00     0.087 A 
ATOM     12 Br   UNK d   1       9.123   6.862 -12.835  0.00  0.00    -0.045 Br
ATOM     13  C   UNK d   1       7.721   4.470 -13.386  0.00  0.00     0.305 A 
ATOM     14  O   UNK d   1       6.677   3.735 -13.548  0.00  0.00    -0.286 OA
ATOM     15  O   UNK d   1       8.856   3.944 -13.524  0.00  0.00    -0.258 OA
ATOM     16  C   UNK d   1       5.467   4.180 -13.428  0.00  0.00     0.162 A 
ENDBRANCH   1   9
BRANCH   6  17
ATOM     17  C   UNK d   1       1.076  10.633 -13.908  0.00  0.00     0.311 C 
BRANCH  17  18
ATOM     18  C   UNK d   1       1.354  11.903 -13.214  0.00  0.00    -0.027 A 
ATOM     19  C   UNK d   1       0.478  12.933 -13.103  0.00  0.00     0.048 A 
ATOM     20  C   UNK d   1       0.830  14.082 -12.438  0.00  0.00     0.105 A 
ATOM     21  C   UNK d   1       2.077  14.187 -11.884  0.00  0.00     0.105 A 
ATOM     22  O   UNK d   1       0.166  15.287 -12.161  0.00  0.00    -0.323 OA
ATOM     23  C   UNK d   1       2.983  13.155 -11.983  0.00  0.00     0.040 A 
ATOM     24  O   UNK d   1       2.208  15.421 -11.270  0.00  0.00    -0.323 OA
ATOM     25  C   UNK d   1       2.608  12.031 -12.646  0.00  0.00     0.012 A 
ATOM     26  C   UNK d   1       1.151  16.226 -11.772  0.00  0.00     0.352 C 
ENDBRANCH  17  18
ENDBRANCH   6  17
TORSDOF 3
ENDMDL
