MODEL 1
REMARK VINA RESULT:    -7.688      0.000      0.000
REMARK INTER + INTRA:          -9.302
REMARK INTER:                 -10.384
REMARK INTRA:                   1.082
REMARK UNBOUND:                 1.082
REMARK  7 active torsions:
REMARK  status: ('A' for Active; 'I' for Inactive)
REMARK    1  A    between atoms: N_4  and  C_10 
REMARK    2  A    between atoms: C_11  and  O_33 
REMARK       I    between atoms: N_18  and  C_21 
REMARK    3  A    between atoms: C_21  and  C_23 
REMARK    4  A    between atoms: C_25  and  O_29 
REMARK    5  A    between atoms: O_29  and  C_30 
REMARK    6  A    between atoms: C_30  and  C_31 
REMARK    7  A    between atoms: C_31  and  N_32 
ROOT
ATOM      1  C   UNK d   1       0.424   9.697 -14.207  0.00  0.00     0.152 C 
ATOM      2  C   UNK d   1      -0.469   8.802 -13.338  0.00  0.00     0.080 C 
ATOM      3  C   UNK d   1       0.355   8.192 -12.256  0.00  0.00     0.077 C 
ATOM      4  C   UNK d   1       1.407   7.310 -12.890  0.00  0.00     0.067 C 
ATOM      5  O   UNK d   1       1.624   7.611 -14.221  0.00  0.00    -0.378 OA
ATOM      6  C   UNK d   1       1.700   8.973 -14.479  0.00  0.00     0.197 C 
ATOM      7  C   UNK d   1       2.626   7.381 -12.045  0.00  0.00     0.058 C 
ATOM      8  C   UNK d   1       3.693   6.458 -12.655  0.00  0.00     0.128 C 
ATOM      9  N   UNK d   1       3.233   5.116 -12.518  0.00  0.00    -0.359 N 
ATOM     10  C   UNK d   1       1.812   4.989 -12.048  0.00  0.00     0.128 C 
ATOM     11  C   UNK d   1       0.904   5.883 -12.825  0.00  0.00     0.058 C 
ATOM     12  C   UNK d   1       3.959   3.969 -12.776  0.00  0.00     0.187 C 
ATOM     13  O   UNK d   1       3.321   2.839 -12.553  0.00  0.00    -0.171 OA
ATOM     14  C   UNK d   1      -1.669   9.545 -12.848  0.00  0.00     0.048 C 
ENDROOT
BRANCH   2  15
ATOM     15  O   UNK d   1      -0.914   7.770 -14.168  0.00  0.00    -0.388 OA
ATOM     16  H   UNK d   1      -0.509   7.800 -15.071  0.00  0.00     0.210 HD
ENDBRANCH   2  15
BRANCH   1  17
ATOM     17  N   UNK d   1       0.558  11.015 -13.675  0.00  0.00    -0.298 N 
ATOM     18  C   UNK d   1       1.622  11.445 -12.973  0.00  0.00     0.121 A 
ATOM     19  C   UNK d   1       1.722  12.719 -12.474  0.00  0.00     0.094 A 
ATOM     20 Br   UNK d   1       3.286  13.188 -11.497  0.00  0.00    -0.044 Br
ATOM     21  C   UNK d   1       0.702  13.613 -12.689  0.00  0.00     0.268 A 
ATOM     22  N   UNK d   1      -0.360  13.184 -13.391  0.00  0.00    -0.274 N 
ATOM     23  O   UNK d   1       0.801  14.776 -12.228  0.00  0.00    -0.267 OA
ATOM     24  C   UNK d   1      -0.425  11.947 -13.858  0.00  0.00     0.329 A 
ATOM     25  H   UNK d   1      -1.126  13.873 -13.545  0.00  0.00     0.173 HD
ATOM     26  O   UNK d   1      -1.460  11.619 -14.509  0.00  0.00    -0.246 OA
ENDBRANCH   1  17
BRANCH  12  27
ATOM     27  C   UNK d   1       5.287   3.794 -13.246  0.00  0.00     0.020 A 
ATOM     28  C   UNK d   1       6.250   4.797 -13.032  0.00  0.00     0.052 A 
ATOM     29  C   UNK d   1       7.552   4.741 -13.417  0.00  0.00     0.069 A 
ATOM     30  C   UNK d   1       7.959   3.568 -14.086  0.00  0.00     0.037 A 
ATOM     31  C   UNK d   1       7.051   2.589 -14.303  0.00  0.00     0.004 A 
ATOM     32  C   UNK d   1       5.710   2.679 -13.893  0.00  0.00     0.016 A 
BRANCH  29  33
ATOM     33  O   UNK d   1       8.455   5.737 -13.194  0.00  0.00    -0.349 OA
BRANCH  33  34
ATOM     34  C   UNK d   1       9.551   5.815 -12.387  0.00  0.00     0.205 C 
BRANCH  34  35
ATOM     35  C   UNK d   1      10.836   5.762 -13.142  0.00  0.00     0.293 C 
BRANCH  35  36
ATOM     36  N   UNK d   1      10.834   6.791 -14.183  0.00  0.00     0.080 N 
ATOM     37  H   UNK d   1      11.300   6.472 -15.045  0.00  0.00     0.312 HD
ATOM     38  H   UNK d   1      11.132   7.709 -13.838  0.00  0.00     0.312 HD
ENDBRANCH  35  36
ENDBRANCH  34  35
ENDBRANCH  33  34
ENDBRANCH  29  33
ENDBRANCH  12  27
TORSDOF 7
ENDMDL
