MODEL 1
REMARK VINA RESULT:    -7.058      0.000      0.000
REMARK INTER + INTRA:          -7.881
REMARK INTER:                  -9.327
REMARK INTRA:                   1.446
REMARK UNBOUND:                 1.446
REMARK  7 active torsions:
REMARK  status: ('A' for Active; 'I' for Inactive)
REMARK    1  A    between atoms: N_4  and  C_10 
REMARK    2  A    between atoms: C_11  and  O_33 
REMARK       I    between atoms: N_18  and  C_21 
REMARK    3  A    between atoms: C_21  and  C_23 
REMARK    4  A    between atoms: C_23  and  N_24 
REMARK    5  A    between atoms: C_23  and  C_25 
REMARK    6  A    between atoms: C_25  and  C_26 
REMARK    7  A    between atoms: C_29  and  O_32 
ROOT
ATOM      1  C   UNK d   1       3.373  10.165 -13.890  0.00  0.00     0.152 C 
ATOM      2  C   UNK d   1       2.145  10.969 -14.037  0.00  0.00     0.080 C 
ATOM      3  C   UNK d   1       2.342  12.467 -13.773  0.00  0.00     0.077 C 
ATOM      4  C   UNK d   1       2.973  12.688 -12.421  0.00  0.00     0.067 C 
ATOM      5  O   UNK d   1       3.647  11.565 -11.979  0.00  0.00    -0.378 OA
ATOM      6  C   UNK d   1       4.307  10.860 -12.937  0.00  0.00     0.197 C 
ATOM      7  C   UNK d   1       1.866  13.090 -11.463  0.00  0.00     0.058 C 
ATOM      8  C   UNK d   1       1.790  14.589 -11.345  0.00  0.00     0.129 C 
ATOM      9  N   UNK d   1       1.998  15.167 -12.648  0.00  0.00    -0.350 N 
ATOM     10  C   UNK d   1       3.339  15.029 -13.195  0.00  0.00     0.129 C 
ATOM     11  C   UNK d   1       3.969  13.816 -12.549  0.00  0.00     0.058 C 
ATOM     12  C   UNK d   1       0.967  15.831 -13.317  0.00  0.00     0.253 C 
ATOM     13  O   UNK d   1       1.273  16.299 -14.473  0.00  0.00    -0.271 OA
ATOM     14  C   UNK d   1       0.953  10.476 -13.282  0.00  0.00     0.048 C 
ENDROOT
BRANCH   2  15
ATOM     15  O   UNK d   1       1.778  10.919 -15.407  0.00  0.00    -0.388 OA
ATOM     16  H   UNK d   1       1.406  11.777 -15.716  0.00  0.00     0.210 HD
ENDBRANCH   2  15
BRANCH   1  17
ATOM     17  N   UNK d   1       3.151   8.787 -13.498  0.00  0.00    -0.298 N 
ATOM     18  C   UNK d   1       2.073   8.473 -12.787  0.00  0.00     0.121 A 
ATOM     19  C   UNK d   1       1.837   7.175 -12.394  0.00  0.00     0.094 A 
ATOM     20 Br   UNK d   1       0.272   6.743 -11.368  0.00  0.00    -0.044 Br
ATOM     21  C   UNK d   1       2.745   6.200 -12.752  0.00  0.00     0.268 A 
ATOM     22  N   UNK d   1       3.817   6.580 -13.471  0.00  0.00    -0.274 N 
ATOM     23  O   UNK d   1       2.572   4.992 -12.414  0.00  0.00    -0.267 OA
ATOM     24  C   UNK d   1       4.029   7.851 -13.845  0.00  0.00     0.329 A 
ATOM     25  H   UNK d   1       4.520   5.831 -13.750  0.00  0.00     0.173 HD
ATOM     26  O   UNK d   1       5.076   8.113 -14.526  0.00  0.00    -0.246 OA
ENDBRANCH   1  17
BRANCH  12  27
ATOM     27  C   UNK d   1      -0.407  16.075 -12.891  0.00  0.00     0.313 C 
BRANCH  27  28
ATOM     28  N   UNK d   1      -1.100  14.834 -12.541  0.00  0.00     0.092 N 
ATOM     29  H   UNK d   1      -0.762  14.038 -13.124  0.00  0.00     0.313 HD
ATOM     30  H   UNK d   1      -2.120  14.949 -12.766  0.00  0.00     0.313 HD
ENDBRANCH  27  28
BRANCH  27  31
ATOM     31  C   UNK d   1      -0.561  16.986 -11.694  0.00  0.00     0.083 C 
BRANCH  31  32
ATOM     32  C   UNK d   1      -1.846  17.747 -11.915  0.00  0.00    -0.056 A 
ATOM     33  C   UNK d   1      -2.441  17.754 -13.150  0.00  0.00     0.010 A 
ATOM     34  C   UNK d   1      -3.625  18.468 -13.310  0.00  0.00     0.037 A 
ATOM     35  C   UNK d   1      -4.202  19.158 -12.268  0.00  0.00     0.065 A 
ATOM     36  C   UNK d   1      -3.573  19.127 -11.039  0.00  0.00     0.037 A 
ATOM     37  C   UNK d   1      -2.398  18.429 -10.850  0.00  0.00     0.010 A 
BRANCH  35  38
ATOM     38  O   UNK d   1      -5.378  19.850 -12.485  0.00  0.00    -0.361 OA
ATOM     39  H   UNK d   1      -6.241  19.418 -12.815  0.00  0.00     0.217 HD
ENDBRANCH  35  38
ENDBRANCH  31  32
ENDBRANCH  27  31
ENDBRANCH  12  27
TORSDOF 7
ENDMDL
