MODEL 1
REMARK VINA RESULT:    -7.267      0.000      0.000
REMARK INTER + INTRA:          -9.366
REMARK INTER:                  -9.603
REMARK INTRA:                   0.237
REMARK UNBOUND:                 0.237
REMARK  6 active torsions:
REMARK  status: ('A' for Active; 'I' for Inactive)
REMARK    1  A    between atoms: N_4  and  C_10 
REMARK    2  A    between atoms: C_11  and  O_34 
REMARK       I    between atoms: N_18  and  C_21 
REMARK    3  A    between atoms: C_21  and  C_23 
REMARK    4  A    between atoms: C_23  and  N_24 
REMARK    5  A    between atoms: C_23  and  C_28 
REMARK       I    between atoms: N_24  and  C_25 
REMARK    6  A    between atoms: C_28  and  C_29 
ROOT
ATOM      1  C   UNK d   1      -1.111   8.032 -14.400  0.00  0.00     0.152 C 
ATOM      2  C   UNK d   1      -0.626   8.281 -12.963  0.00  0.00     0.080 C 
ATOM      3  C   UNK d   1       0.757   8.922 -13.145  0.00  0.00     0.077 C 
ATOM      4  C   UNK d   1       1.617   8.081 -14.047  0.00  0.00     0.067 C 
ATOM      5  O   UNK d   1       0.980   6.889 -14.296  0.00  0.00    -0.378 OA
ATOM      6  C   UNK d   1      -0.229   7.001 -14.977  0.00  0.00     0.197 C 
ATOM      7  C   UNK d   1       2.871   7.751 -13.250  0.00  0.00     0.058 C 
ATOM      8  C   UNK d   1       3.867   8.876 -13.379  0.00  0.00     0.129 C 
ATOM      9  N   UNK d   1       3.183  10.125 -13.755  0.00  0.00    -0.350 N 
ATOM     10  C   UNK d   1       2.622  10.142 -15.074  0.00  0.00     0.129 C 
ATOM     11  C   UNK d   1       2.043   8.749 -15.306  0.00  0.00     0.058 C 
ATOM     12  C   UNK d   1       3.054  11.201 -12.878  0.00  0.00     0.243 C 
ATOM     13  O   UNK d   1       3.493  11.125 -11.665  0.00  0.00    -0.271 OA
ATOM     14  C   UNK d   1      -0.555   7.006 -12.183  0.00  0.00     0.048 C 
ENDROOT
BRANCH   2  15
ATOM     15  O   UNK d   1      -1.437   9.167 -12.287  0.00  0.00    -0.388 OA
ATOM     16  H   UNK d   1      -2.344   8.778 -12.204  0.00  0.00     0.210 HD
ENDBRANCH   2  15
BRANCH   1  17
ATOM     17  N   UNK d   1      -2.507   7.891 -14.490  0.00  0.00    -0.298 N 
ATOM     18  C   UNK d   1      -3.403   8.848 -14.237  0.00  0.00     0.121 A 
ATOM     19  C   UNK d   1      -4.776   8.628 -14.350  0.00  0.00     0.094 A 
ATOM     20 Br   UNK d   1      -5.961  10.054 -13.967  0.00  0.00    -0.044 Br
ATOM     21  C   UNK d   1      -5.239   7.389 -14.734  0.00  0.00     0.268 A 
ATOM     22  N   UNK d   1      -4.325   6.435 -14.985  0.00  0.00    -0.274 N 
ATOM     23  O   UNK d   1      -6.487   7.160 -14.844  0.00  0.00    -0.267 OA
ATOM     24  C   UNK d   1      -3.008   6.677 -14.868  0.00  0.00     0.329 A 
ATOM     25  H   UNK d   1      -4.629   5.470 -15.282  0.00  0.00     0.173 HD
ATOM     26  O   UNK d   1      -2.203   5.740 -15.118  0.00  0.00    -0.246 OA
ENDBRANCH   1  17
BRANCH  12  27
ATOM     27  C   UNK d   1       2.432  12.463 -13.248  0.00  0.00     0.182 C 
BRANCH  27  28
ATOM     28  N   UNK d   1       1.048  12.497 -12.841  0.00  0.00    -0.348 N 
ATOM     29  C   UNK d   1      -0.092  12.337 -13.619  0.00  0.00     0.214 C 
ATOM     30  O   UNK d   1      -0.108  12.143 -14.852  0.00  0.00    -0.274 OA
ATOM     31  C   UNK d   1      -1.472  12.390 -12.990  0.00  0.00     0.117 C 
ATOM     32  H   UNK d   1       0.902  12.673 -11.799  0.00  0.00     0.163 HD
ENDBRANCH  27  28
BRANCH  27  33
ATOM     33  C   UNK d   1       3.171  13.679 -12.607  0.00  0.00     0.095 C 
BRANCH  33  34
ATOM     34  C   UNK d   1       2.190  14.671 -12.134  0.00  0.00     0.053 A 
ATOM     35  N   UNK d   1       1.495  15.568 -12.816  0.00  0.00    -0.247 NA
ATOM     36  C   UNK d   1       0.689  16.300 -11.999  0.00  0.00     0.207 A 
ATOM     37  N   UNK d   1       0.894  15.832 -10.753  0.00  0.00    -0.359 N 
ATOM     38  C   UNK d   1       1.807  14.839 -10.814  0.00  0.00     0.116 A 
ATOM     39  H   UNK d   1       0.403  16.213  -9.908  0.00  0.00     0.166 HD
ENDBRANCH  33  34
ENDBRANCH  27  33
ENDBRANCH  12  27
TORSDOF 6
ENDMDL
