MODEL 1
REMARK VINA RESULT:    -7.719      0.000      0.000
REMARK INTER + INTRA:          -9.180
REMARK INTER:                  -9.073
REMARK INTRA:                  -0.107
REMARK UNBOUND:                -0.107
REMARK  3 active torsions:
REMARK  status: ('A' for Active; 'I' for Inactive)
REMARK    1  A    between atoms: C_7  and  C_9 
REMARK    2  A    between atoms: C_9  and  N_10 
REMARK       I    between atoms: N_10  and  C_11 
REMARK    3  A    between atoms: C_11  and  C_13 
ROOT
ATOM      1  N   UNK d   1      -6.975  23.702  -8.090  0.00  0.00    -0.355 N 
ATOM      2  C   UNK d   1      -7.413  23.610  -6.759  0.00  0.00     0.223 C 
ATOM      3  O   UNK d   1      -8.218  22.716  -6.427  0.00  0.00    -0.273 OA
ATOM      4  H   UNK d   1      -6.306  24.449  -8.355  0.00  0.00     0.162 HD
ENDROOT
BRANCH   1   5
ATOM      5  C   UNK d   1      -7.462  22.756  -9.069  0.00  0.00     0.183 C 
BRANCH   5   6
ATOM      6  C   UNK d   1      -6.358  21.916  -9.600  0.00  0.00     0.070 A 
ATOM      7  N   UNK d   1      -5.127  21.753  -9.082  0.00  0.00    -0.232 NA
ATOM      8  C   UNK d   1      -4.421  20.914  -9.859  0.00  0.00     0.134 A 
ATOM      9  N   UNK d   1      -5.199  20.530 -10.887  0.00  0.00    -0.314 N 
ATOM     10  C   UNK d   1      -3.118  20.439  -9.744  0.00  0.00     0.052 A 
ATOM     11  C   UNK d   1      -4.685  19.670 -11.811  0.00  0.00     0.117 A 
ATOM     12  C   UNK d   1      -6.391  21.139 -10.739  0.00  0.00     0.127 A 
ATOM     13  C   UNK d   1      -3.399  19.183 -11.725  0.00  0.00     0.027 A 
ATOM     14 Br   UNK d   1      -2.681  17.973 -13.025  0.00  0.00    -0.050 Br
ATOM     15  C   UNK d   1      -2.598  19.573 -10.673  0.00  0.00     0.024 A 
ENDBRANCH   5   6
ENDBRANCH   1   5
BRANCH   2  16
ATOM     16  C   UNK d   1      -6.929  24.564  -5.744  0.00  0.00     0.096 C 
ATOM     17  C   UNK d   1      -7.017  25.978  -6.261  0.00  0.00     0.145 C 
ATOM     18  N   UNK d   1      -8.414  26.234  -6.553  0.00  0.00    -0.320 N 
ATOM     19  C   UNK d   1      -9.372  25.717  -5.768  0.00  0.00     0.130 A 
ATOM     20  C   UNK d   1      -9.022  26.932  -7.513  0.00  0.00     0.126 A 
ATOM     21  N   UNK d   1     -10.554  26.118  -6.277  0.00  0.00    -0.135 NA
ATOM     22  C   UNK d   1      -9.124  24.877  -4.586  0.00  0.00     0.081 C 
ATOM     23  N   UNK d   1     -10.346  26.852  -7.330  0.00  0.00    -0.135 NA
ATOM     24  C   UNK d   1      -7.722  24.394  -4.474  0.00  0.00     0.023 C 
ATOM     25  C   UNK d   1      -8.408  27.702  -8.639  0.00  0.00     0.093 C 
ENDBRANCH   2  16
TORSDOF 3
ENDMDL
