MODEL 1
REMARK VINA RESULT:    -8.297      0.000      0.000
REMARK INTER + INTRA:          -8.617
REMARK INTER:                  -8.782
REMARK INTRA:                   0.165
REMARK UNBOUND:                 0.165
REMARK  1 active torsions:
REMARK  status: ('A' for Active; 'I' for Inactive)
REMARK    1  A    between atoms: C_6  and  C_11 
REMARK       I    between atoms: C_11  and  N_13 
ROOT
ATOM      1  C   UNK d   1      -5.159   8.030 -14.735  0.00  0.00     0.274 C 
ATOM      2  O   UNK d   1      -5.581   6.865 -14.970  0.00  0.00    -0.266 OA
ATOM      3  N   UNK d   1      -3.768   8.206 -14.522  0.00  0.00    -0.343 N 
ATOM      4  C   UNK d   1      -2.893   7.093 -14.583  0.00  0.00     0.161 C 
ATOM      5  C   UNK d   1      -1.666   7.246 -13.764  0.00  0.00     0.241 C 
ATOM      6  N   UNK d   1      -1.531   8.490 -13.062  0.00  0.00     0.096 N 
ATOM      7  C   UNK d   1      -1.826   9.621 -13.922  0.00  0.00     0.292 C 
ATOM      8  C   UNK d   1      -3.305   9.539 -14.248  0.00  0.00     0.156 C 
ATOM      9  C   UNK d   1      -0.188   8.456 -12.569  0.00  0.00     0.273 C 
ATOM     10  C   UNK d   1       0.623   7.796 -13.656  0.00  0.00     0.032 C 
ATOM     11  C   UNK d   1      -0.399   7.204 -14.601  0.00  0.00     0.039 C 
ENDROOT
BRANCH   1  12
ATOM     12  C   UNK d   1      -6.116   9.144 -14.693  0.00  0.00     0.148 A 
ATOM     13  N   UNK d   1      -7.001   9.555 -15.612  0.00  0.00    -0.161 NA
ATOM     14  N   UNK d   1      -7.689  10.607 -15.196  0.00  0.00    -0.225 N 
ATOM     15  C   UNK d   1      -8.671  11.367 -15.747  0.00  0.00     0.141 A 
ATOM     16  C   UNK d   1      -7.278  10.943 -13.959  0.00  0.00     0.152 A 
ATOM     17  C   UNK d   1      -9.232  12.435 -15.083  0.00  0.00     0.046 A 
ATOM     18 Br   UNK d   1     -10.621  13.497 -15.880  0.00  0.00    -0.048 Br
ATOM     19  C   UNK d   1      -8.795  12.761 -13.818  0.00  0.00     0.139 A 
ATOM     20  N   UNK d   1      -7.824  11.996 -13.296  0.00  0.00    -0.240 NA
ATOM     21  C   UNK d   1      -6.292  10.034 -13.633  0.00  0.00     0.091 A 
ENDBRANCH   1  12
TORSDOF 1
ENDMDL
