MODEL 1
REMARK VINA RESULT:    -6.381      0.000      0.000
REMARK INTER + INTRA:          -7.566
REMARK INTER:                  -7.127
REMARK INTRA:                  -0.439
REMARK UNBOUND:                -0.439
REMARK  2 active torsions:
REMARK  status: ('A' for Active; 'I' for Inactive)
REMARK    1  A    between atoms: C_7  and  C_11 
REMARK       I    between atoms: C_11  and  N_13 
REMARK       I    between atoms: N_16  and  C_19 
REMARK    2  A    between atoms: C_19  and  C_21 
ROOT
ATOM      1  C   UNK d   1       1.193   7.019 -13.434  0.00  0.00     0.259 C 
ATOM      2  O   UNK d   1       1.498   6.286 -12.450  0.00  0.00    -0.267 OA
ATOM      3  N   UNK d   1       2.153   7.876 -14.029  0.00  0.00    -0.345 N 
ATOM      4  C   UNK d   1       1.713   8.695 -15.170  0.00  0.00     0.146 C 
ATOM      5  C   UNK d   1       2.655   9.899 -15.144  0.00  0.00     0.145 C 
ATOM      6  N   UNK d   1       2.847  10.215 -13.760  0.00  0.00    -0.354 N 
ATOM      7  C   UNK d   1       3.909   9.378 -13.130  0.00  0.00     0.145 C 
ATOM      8  C   UNK d   1       3.522   7.955 -13.543  0.00  0.00     0.146 C 
ATOM      9  C   UNK d   1       2.160  11.130 -12.979  0.00  0.00     0.211 C 
ATOM     10  O   UNK d   1       2.554  11.268 -11.747  0.00  0.00    -0.169 OA
ENDROOT
BRANCH   1  11
ATOM     11  C   UNK d   1      -0.159   6.954 -13.931  0.00  0.00     0.099 A 
ATOM     12  C   UNK d   1      -0.762   5.974 -14.685  0.00  0.00     0.160 A 
ATOM     13  N   UNK d   1      -2.037   6.321 -14.926  0.00  0.00    -0.178 NA
ATOM     14  N   UNK d   1      -2.264   7.499 -14.343  0.00  0.00    -0.225 N 
ATOM     15  C   UNK d   1      -3.349   8.262 -14.285  0.00  0.00     0.141 A 
ATOM     16  C   UNK d   1      -1.143   7.915 -13.728  0.00  0.00     0.167 A 
ATOM     17  C   UNK d   1      -3.340   9.447 -13.619  0.00  0.00     0.046 A 
ATOM     18 Br   UNK d   1      -4.900  10.535 -13.541  0.00  0.00    -0.048 Br
ATOM     19  C   UNK d   1      -2.197   9.866 -12.995  0.00  0.00     0.139 A 
ATOM     20  N   UNK d   1      -1.118   9.083 -13.066  0.00  0.00    -0.239 NA
ENDBRANCH   1  11
BRANCH   9  21
ATOM     21  C   UNK d   1       1.037  11.987 -13.320  0.00  0.00     0.128 A 
ATOM     22  O   UNK d   1       0.172  11.744 -14.315  0.00  0.00    -0.318 OA
ATOM     23  C   UNK d   1      -0.729  12.661 -14.407  0.00  0.00     0.142 A 
ATOM     24  C   UNK d   1      -0.514  13.611 -13.440  0.00  0.00     0.027 A 
ATOM     25  C   UNK d   1       0.609  13.167 -12.762  0.00  0.00     0.043 A 
ENDBRANCH   9  21
TORSDOF 2
ENDMDL
