MODEL 1
REMARK VINA RESULT:   -10.309      0.000      0.000
REMARK INTER + INTRA:         -13.950
REMARK INTER:                 -13.323
REMARK INTRA:                  -0.628
REMARK UNBOUND:                -0.628
REMARK  5 active torsions:
REMARK  status: ('A' for Active; 'I' for Inactive)
REMARK    1  A    between atoms: C_7  and  C_11 
REMARK    2  A    between atoms: C_11  and  O_12 
REMARK    3  A    between atoms: O_12  and  C_13 
REMARK    4  A    between atoms: C_13  and  C_15 
REMARK    5  A    between atoms: C_15  and  N_16 
ROOT
ATOM      1  O   UNK d   1      -5.362   8.240 -14.878  0.00  0.00    -0.314 OA
ENDROOT
BRANCH   1   2
ATOM      2  C   UNK d   1      -5.723   9.112 -13.838  0.00  0.00     0.238 C 
BRANCH   2   3
ATOM      3  C   UNK d   1      -6.759  10.104 -14.225  0.00  0.00     0.066 A 
ATOM      4  N   UNK d   1      -7.472   9.979 -15.370  0.00  0.00    -0.233 NA
ATOM      5  C   UNK d   1      -8.416  10.861 -15.740  0.00  0.00     0.137 A 
ATOM      6  N   UNK d   1      -8.724  11.939 -14.997  0.00  0.00    -0.272 N 
ATOM      7  C   UNK d   1      -9.133  10.700 -16.929  0.00  0.00     0.052 A 
ATOM      8  C   UNK d   1      -9.676  12.815 -15.385  0.00  0.00     0.121 A 
ATOM      9  C   UNK d   1      -8.038  12.106 -13.847  0.00  0.00     0.255 A 
ATOM     10  C   UNK d   1     -10.399  12.682 -16.550  0.00  0.00     0.027 A 
ATOM     11 Br   UNK d   1     -11.740  13.957 -17.054  0.00  0.00    -0.050 Br
ATOM     12  C   UNK d   1     -10.106  11.586 -17.334  0.00  0.00     0.024 A 
ATOM     13  C   UNK d   1      -7.057  11.203 -13.447  0.00  0.00     0.104 A 
ATOM     14  O   UNK d   1      -8.315  13.098 -13.155  0.00  0.00    -0.268 OA
ENDBRANCH   2   3
ENDBRANCH   1   2
BRANCH   1  15
ATOM     15  C   UNK d   1      -4.671   7.056 -14.727  0.00  0.00     0.277 C 
ATOM     16  O   UNK d   1      -5.142   6.155 -14.004  0.00  0.00    -0.263 OA
BRANCH  15  17
ATOM     17  C   UNK d   1      -3.381   6.890 -15.436  0.00  0.00     0.246 C 
BRANCH  17  18
ATOM     18  N   UNK d   1      -2.278   6.954 -14.522  0.00  0.00    -0.271 N 
ATOM     19  C   UNK d   1      -1.832   8.101 -13.833  0.00  0.00     0.262 A 
ATOM     20  O   UNK d   1      -2.281   9.276 -13.865  0.00  0.00    -0.267 OA
ATOM     21  C   UNK d   1      -0.672   7.717 -13.000  0.00  0.00     0.048 A 
ATOM     22  C   UNK d   1      -0.446   6.382 -13.195  0.00  0.00     0.048 A 
ATOM     23  C   UNK d   1       0.125   8.456 -12.142  0.00  0.00     0.018 A 
ATOM     24  C   UNK d   1       0.568   5.726 -12.557  0.00  0.00     0.018 A 
ATOM     25  C   UNK d   1      -1.442   5.883 -14.146  0.00  0.00     0.262 A 
ATOM     26  C   UNK d   1       1.373   6.437 -11.702  0.00  0.00     0.001 A 
ATOM     27  C   UNK d   1       1.145   7.785 -11.503  0.00  0.00     0.001 A 
ATOM     28  O   UNK d   1      -1.512   4.680 -14.544  0.00  0.00    -0.267 OA
ENDBRANCH  17  18
ENDBRANCH  15  17
ENDBRANCH   1  15
TORSDOF 5
ENDMDL
