/Users/jonathanwahrer/Desktop/Msc/3_Semester/Drug_Design_Praktikum/waehrer_HTS_screening/HTS_experiment/out/docking_results/vina_output/6q9y/0800_docked.pdbqt
 OpenBabel03222219393D

 29 32  0  0  1  0  0  0  0  0999 V2000
   -0.3640   13.5710  -12.9390 C   0  0  0  0  0  0  0  0  0  0  0  0
   -1.1460   13.1910  -12.0290 O   0  0  0  0  0  0  0  0  0  0  0  0
    0.1810   14.8290  -12.8440 O   0  0  0  0  0  0  0  0  0  0  0  0
   -0.0660   15.8480  -13.7940 C   0  0  0  0  0  2  0  0  0  0  0  0
   -1.1160   16.7510  -13.2600 C   0  0  0  0  0  0  0  0  0  0  0  0
   -0.9610   17.4010  -12.0930 N   0  0  0  0  0  0  0  0  0  0  0  0
   -1.9120   18.2270  -11.5960 C   0  0  1  0  0  3  0  0  0  0  0  0
   -3.0670   18.4310  -12.2620 N   0  0  0  0  0  0  0  0  0  0  0  0
   -1.7020   18.8710  -10.3920 C   0  0  0  0  0  3  0  0  0  0  0  0
   -4.0230   19.2470  -11.7870 C   0  0  0  0  0  3  0  0  0  0  0  0
   -3.2690   17.8000  -13.4400 C   0  0  0  0  0  0  0  0  0  0  0  0
   -3.8200   19.8920  -10.5860 C   0  0  0  0  0  0  0  0  0  0  0  0
   -5.1830   21.0500   -9.9140 Br  0  0  0  0  0  0  0  0  0  0  0  0
   -2.6510   19.7160   -9.8610 C   0  0  0  0  0  3  0  0  0  0  0  0
   -2.2870   16.9470  -13.9540 C   0  0  0  0  0  2  0  0  0  0  0  0
   -4.3300   17.9840  -14.0590 O   0  0  0  0  0  0  0  0  0  0  0  0
   -0.0940   12.6170  -14.0470 C   0  0  0  0  0  2  0  0  0  0  0  0
    0.5240   11.4070  -13.5920 N   0  0  0  0  0  0  0  0  0  0  0  0
    1.8790   11.2510  -13.1710 C   0  0  0  0  0  0  0  0  0  0  0  0
    2.7390   12.1780  -13.1390 O   0  0  0  0  0  0  0  0  0  0  0  0
    2.0720    9.8900  -12.8030 N   0  0  0  0  0  0  0  0  0  0  0  0
    0.8880    9.1430  -13.1410 C   0  0  0  0  0  0  0  0  0  0  0  0
    2.9380    9.5300  -12.3650 H   0  0  0  0  0  0  0  0  0  0  0  0
    1.0920    8.2190  -14.3120 C   0  0  0  0  0  2  0  0  0  0  0  0
    0.4270    8.2230  -12.0630 C   0  0  0  0  0  2  0  0  0  0  0  0
   -0.1260   10.1390  -13.4860 C   0  0  0  0  0  0  0  0  0  0  0  0
   -0.0300    7.2380  -14.1750 C   0  0  0  0  0  2  0  0  0  0  0  0
   -0.5880    7.3650  -12.7870 C   0  0  0  0  0  2  0  0  0  0  0  0
   -1.3550    9.9700  -13.6680 O   0  0  0  0  0  0  0  0  0  0  0  0
  1  3  1  0  0  0  0
  1  2  2  0  0  0  0
  4  5  1  0  0  0  0
  4  3  1  0  0  0  0
  5  6  2  0  0  0  0
  6  7  1  0  0  0  0
  7  9  1  1  0  0  0
  8 10  1  0  0  0  0
  8  7  1  0  0  0  0
  9 14  2  0  0  0  0
 10 12  2  0  0  0  0
 11  8  1  0  0  0  0
 12 13  1  0  0  0  0
 12 14  1  0  0  0  0
 15 11  1  0  0  0  0
 15  5  1  0  0  0  0
 16 11  2  0  0  0  0
 17 18  1  0  0  0  0
 17  1  1  0  0  0  0
 18 26  1  0  0  0  0
 18 19  1  0  0  0  0
 19 20  2  0  0  0  0
 19 21  1  0  0  0  0
 21 23  1  0  0  0  0
 22 21  1  0  0  0  0
 22 25  1  0  0  0  0
 24 27  1  0  0  0  0
 24 22  1  0  0  0  0
 26 22  1  0  0  0  0
 27 28  1  0  0  0  0
 28 25  1  0  0  0  0
 29 26  2  0  0  0  0
M  END
>  <Pose>
1

>  <Score>
-9.756

$$$$
