MODEL 1
REMARK VINA RESULT:    -9.756      0.000      0.000
REMARK INTER + INTRA:         -13.244
REMARK INTER:                 -12.608
REMARK INTRA:                  -0.636
REMARK UNBOUND:                -0.636
REMARK  5 active torsions:
REMARK  status: ('A' for Active; 'I' for Inactive)
REMARK    1  A    between atoms: C_7  and  C_11 
REMARK    2  A    between atoms: C_11  and  O_12 
REMARK    3  A    between atoms: O_12  and  C_13 
REMARK    4  A    between atoms: C_13  and  C_15 
REMARK    5  A    between atoms: C_15  and  N_16 
ROOT
ATOM      1  C   UNK d   1      -0.364  13.571 -12.939  0.00  0.00     0.277 C 
ATOM      2  O   UNK d   1      -1.146  13.191 -12.029  0.00  0.00    -0.263 OA
ENDROOT
BRANCH   1   3
ATOM      3  O   UNK d   1       0.181  14.829 -12.844  0.00  0.00    -0.314 OA
BRANCH   3   4
ATOM      4  C   UNK d   1      -0.066  15.848 -13.794  0.00  0.00     0.238 C 
BRANCH   4   5
ATOM      5  C   UNK d   1      -1.116  16.751 -13.260  0.00  0.00     0.066 A 
ATOM      6  N   UNK d   1      -0.961  17.401 -12.093  0.00  0.00    -0.233 NA
ATOM      7  C   UNK d   1      -1.912  18.227 -11.596  0.00  0.00     0.137 A 
ATOM      8  N   UNK d   1      -3.067  18.431 -12.262  0.00  0.00    -0.272 N 
ATOM      9  C   UNK d   1      -1.702  18.871 -10.392  0.00  0.00     0.052 A 
ATOM     10  C   UNK d   1      -4.023  19.247 -11.787  0.00  0.00     0.121 A 
ATOM     11  C   UNK d   1      -3.269  17.800 -13.440  0.00  0.00     0.255 A 
ATOM     12  C   UNK d   1      -3.820  19.892 -10.586  0.00  0.00     0.027 A 
ATOM     13 Br   UNK d   1      -5.183  21.050  -9.914  0.00  0.00    -0.050 Br
ATOM     14  C   UNK d   1      -2.651  19.716  -9.861  0.00  0.00     0.024 A 
ATOM     15  C   UNK d   1      -2.287  16.947 -13.954  0.00  0.00     0.104 A 
ATOM     16  O   UNK d   1      -4.330  17.984 -14.059  0.00  0.00    -0.268 OA
ENDBRANCH   4   5
ENDBRANCH   3   4
ENDBRANCH   1   3
BRANCH   1  17
ATOM     17  C   UNK d   1      -0.094  12.617 -14.047  0.00  0.00     0.247 C 
BRANCH  17  18
ATOM     18  N   UNK d   1       0.524  11.407 -13.592  0.00  0.00    -0.259 N 
ATOM     19  C   UNK d   1       1.879  11.251 -13.171  0.00  0.00     0.326 C 
ATOM     20  O   UNK d   1       2.739  12.178 -13.139  0.00  0.00    -0.247 OA
ATOM     21  N   UNK d   1       2.072   9.890 -12.803  0.00  0.00    -0.324 N 
ATOM     22  C   UNK d   1       0.888   9.143 -13.141  0.00  0.00     0.116 C 
ATOM     23  H   UNK d   1       2.938   9.530 -12.365  0.00  0.00     0.165 HD
ATOM     24  C   UNK d   1       1.092   8.219 -14.312  0.00  0.00     0.041 C 
ATOM     25  C   UNK d   1       0.427   8.223 -12.063  0.00  0.00     0.041 C 
ATOM     26  C   UNK d   1      -0.126  10.139 -13.486  0.00  0.00     0.256 C 
ATOM     27  C   UNK d   1      -0.030   7.238 -14.175  0.00  0.00     0.003 C 
ATOM     28  C   UNK d   1      -0.588   7.365 -12.787  0.00  0.00     0.003 C 
ATOM     29  O   UNK d   1      -1.355   9.970 -13.668  0.00  0.00    -0.270 OA
ENDBRANCH  17  18
ENDBRANCH   1  17
TORSDOF 5
ENDMDL
