MODEL 1
REMARK VINA RESULT:    -8.923      0.000      0.000
REMARK INTER + INTRA:         -12.756
REMARK INTER:                 -12.053
REMARK INTRA:                  -0.703
REMARK UNBOUND:                -0.703
REMARK  6 active torsions:
REMARK  status: ('A' for Active; 'I' for Inactive)
REMARK    1  A    between atoms: C_16  and  N_17 
REMARK    2  A    between atoms: N_17  and  C_18 
REMARK    3  A    between atoms: C_19  and  C_24 
REMARK    4  A    between atoms: C_24  and  O_26 
REMARK    5  A    between atoms: O_26  and  C_27 
REMARK    6  A    between atoms: C_27  and  C_28 
ROOT
ATOM      1 Br   UNK d   1       0.067   6.308 -13.674  0.00  0.00    -0.046 Br
ATOM      2  C   UNK d   1       0.800   8.037 -13.386  0.00  0.00     0.072 A 
ATOM      3  C   UNK d   1       0.094   9.179 -13.537  0.00  0.00     0.141 A 
ATOM      4  N   UNK d   1       0.577  10.392 -13.253  0.00  0.00    -0.118 N 
ATOM      5  C   UNK d   1       1.825  10.485 -12.795  0.00  0.00     0.716 A 
ATOM      6  N   UNK d   1       2.342  11.712 -12.506  0.00  0.00    -0.063 NA
ATOM      7  C   UNK d   1       1.661  12.839 -12.660  0.00  0.00     0.091 A 
ATOM      8  C   UNK d   1       0.370  12.770 -13.131  0.00  0.00     0.062 A 
ATOM      9  C   UNK d   1      -0.388  13.909 -13.319  0.00  0.00     0.019 A 
ATOM     10  C   UNK d   1       0.107  15.185 -13.044  0.00  0.00     0.001 A 
ATOM     11  C   UNK d   1       1.400  15.242 -12.572  0.00  0.00     0.002 A 
ATOM     12  C   UNK d   1       2.163  14.103 -12.382  0.00  0.00     0.033 A 
ATOM     13  C   UNK d   1      -0.139  11.510 -13.419  0.00  0.00     0.278 A 
ATOM     14  O   UNK d   1      -1.311  11.432 -13.849  0.00  0.00    -0.266 OA
ATOM     15  N   UNK d   1       2.554   9.356 -12.636  0.00  0.00    -0.173 N 
ATOM     16  C   UNK d   1       2.146   8.121 -12.896  0.00  0.00     0.140 A 
ATOM     17  H   UNK d   1       3.536   9.567 -12.262  0.00  0.00     0.186 HD
ENDROOT
BRANCH  16  18
ATOM     18  N   UNK d   1       2.851   6.960 -12.861  0.00  0.00    -0.340 N 
ATOM     19  H   UNK d   1       3.380   7.188 -14.101  0.00  0.00     0.167 HD
BRANCH  18  20
ATOM     20  C   UNK d   1       3.545   5.815 -12.828  0.00  0.00     0.050 A 
ATOM     21  C   UNK d   1       4.818   5.763 -13.411  0.00  0.00     0.066 A 
ATOM     22  C   UNK d   1       5.444   4.575 -13.604  0.00  0.00     0.020 A 
ATOM     23  C   UNK d   1       4.842   3.400 -13.226  0.00  0.00     0.001 A 
ATOM     24  C   UNK d   1       3.595   3.384 -12.641  0.00  0.00     0.002 A 
ATOM     25  C   UNK d   1       2.979   4.600 -12.458  0.00  0.00     0.030 A 
BRANCH  21  26
ATOM     26  C   UNK d   1       5.587   6.980 -13.698  0.00  0.00     0.295 C 
ATOM     27  O   UNK d   1       5.201   7.702 -14.651  0.00  0.00    -0.259 OA
BRANCH  26  28
ATOM     28  O   UNK d   1       6.697   7.395 -13.020  0.00  0.00    -0.317 OA
BRANCH  28  29
ATOM     29  C   UNK d   1       8.012   7.164 -13.486  0.00  0.00     0.178 C 
BRANCH  29  30
ATOM     30  C   UNK d   1       8.940   6.838 -12.312  0.00  0.00     0.022 C 
ATOM     31  C   UNK d   1       8.639   5.438 -11.833  0.00  0.00     0.007 C 
ENDBRANCH  29  30
ENDBRANCH  28  29
ENDBRANCH  26  28
ENDBRANCH  21  26
ENDBRANCH  18  20
ENDBRANCH  16  18
TORSDOF 6
ENDMDL
