/Users/jonathanwahrer/Desktop/Msc/3_Semester/Drug_Design_Praktikum/waehrer_HTS_screening/HTS_experiment/out/docking_results/vina_output/6q9y/0814_docked.pdbqt
 OpenBabel03222219403D

 31 34  0  0  1  0  0  0  0  0999 V2000
    2.9510    6.7400  -13.0640 N   0  0  0  0  0  0  0  0  0  0  0  0
    2.7470    8.0230  -13.2610 N   0  0  0  0  0  0  0  0  0  0  0  0
    3.8190    8.5880  -13.8360 C   0  0  0  0  0  0  0  0  0  0  0  0
    4.7290    7.6170  -14.0040 N   0  0  0  0  0  0  0  0  0  0  0  0
    4.1790    6.4660  -13.5180 C   0  0  2  0  0  3  0  0  0  0  0  0
    4.8160    5.1500  -13.4960 C   0  0  0  0  0  2  0  0  0  0  0  0
    6.1180    5.1370  -12.7300 C   0  0  0  0  0  2  0  0  0  0  0  0
    7.2220    5.8480  -13.4810 C   0  0  0  0  0  2  0  0  0  0  0  0
    7.0440    7.3350  -13.5230 C   0  0  0  0  0  2  0  0  0  0  0  0
    6.0470    7.7660  -14.5890 C   0  0  0  0  0  2  0  0  0  0  0  0
    3.9990    9.9940  -14.2230 C   0  0  0  0  0  2  0  0  0  0  0  0
    3.7620   10.8970  -13.1390 N   0  0  0  0  0  0  0  0  0  0  0  0
    4.4460   10.9770  -12.3730 H   0  0  0  0  0  0  0  0  0  0  0  0
    2.6000   11.7180  -13.0530 C   0  0  0  0  0  0  0  0  0  0  0  0
    1.3860   11.3290  -13.5710 C   0  0  0  0  0  3  0  0  0  0  0  0
    0.2740   12.1260  -13.4780 C   0  0  0  0  0  3  0  0  0  0  0  0
    0.3620   13.3330  -12.8590 C   0  0  0  0  0  0  0  0  0  0  0  0
    1.5760   13.7250  -12.3400 C   0  0  0  0  0  3  0  0  0  0  0  0
    2.7010   12.9320  -12.4270 C   0  0  0  0  0  3  0  0  0  0  0  0
   -0.7360   14.1520  -12.7510 O   0  0  0  0  0  0  0  0  0  0  0  0
   -0.7120   15.5140  -13.1000 C   0  0  0  0  0  1  0  0  0  0  0  0
    2.0390    5.8060  -12.4750 C   0  0  0  0  0  2  0  0  0  0  0  0
    0.7950    6.4700  -12.0020 C   0  0  0  0  0  0  0  0  0  0  0  0
    0.7680    6.8740  -10.8090 O   0  0  0  0  0  0  0  0  0  0  0  0
   -0.3650    6.6680  -12.8450 C   0  0  0  0  0  0  0  0  0  0  0  0
   -0.9970    5.6190  -13.4720 C   0  0  0  0  0  3  0  0  0  0  0  0
   -2.1110    5.8240  -14.2800 C   0  0  0  0  0  3  0  0  0  0  0  0
   -2.6080    7.1020  -14.4680 C   0  0  0  0  0  0  0  0  0  0  0  0
   -4.1490    7.3760  -15.5860 Br  0  0  0  0  0  0  0  0  0  0  0  0
   -1.9830    8.1560  -13.8450 C   0  0  0  0  0  3  0  0  0  0  0  0
   -0.8850    7.9250  -13.0530 C   0  0  0  0  0  3  0  0  0  0  0  0
  1 22  1  0  0  0  0
  2  1  1  0  0  0  0
  3  2  2  0  0  0  0
  4  3  1  0  0  0  0
  4  5  1  0  0  0  0
  5  6  1  6  0  0  0
  5  1  1  0  0  0  0
  6  7  1  0  0  0  0
  8  7  1  0  0  0  0
  9  8  1  0  0  0  0
 10  4  1  0  0  0  0
 10  9  1  0  0  0  0
 11  3  1  0  0  0  0
 11 12  1  0  0  0  0
 12 14  1  0  0  0  0
 12 13  1  0  0  0  0
 14 19  1  0  0  0  0
 15 16  1  0  0  0  0
 15 14  2  0  0  0  0
 16 17  2  0  0  0  0
 17 20  1  0  0  0  0
 17 18  1  0  0  0  0
 19 18  2  0  0  0  0
 21 20  1  0  0  0  0
 22 23  1  0  0  0  0
 23 24  2  0  0  0  0
 25 23  1  0  0  0  0
 26 25  2  0  0  0  0
 27 26  1  0  0  0  0
 28 27  2  0  0  0  0
 28 30  1  0  0  0  0
 29 28  1  0  0  0  0
 30 31  2  0  0  0  0
 31 25  1  0  0  0  0
M  END
>  <Pose>
1

>  <Score>
-9.388

$$$$
