MODEL 1
REMARK VINA RESULT:    -5.050      0.000      0.000
REMARK INTER + INTRA:          -5.985
REMARK INTER:                  -6.379
REMARK INTRA:                   0.394
REMARK UNBOUND:                 0.394
REMARK  5 active torsions:
REMARK  status: ('A' for Active; 'I' for Inactive)
REMARK    1  A    between atoms: C_5  and  C_8 
REMARK    2  A    between atoms: C_8  and  O_27 
REMARK    3  A    between atoms: N_9  and  C_18 
REMARK    4  A    between atoms: C_21  and  O_24 
REMARK    5  A    between atoms: O_24  and  C_25 
ROOT
ATOM      1  C   UNK d   1       3.556   8.955 -15.035  0.00  0.00     0.283 C 
ATOM      2  N   UNK d   1       3.046   7.725 -14.433  0.00  0.00     0.042 N 
ATOM      3  C   UNK d   1       4.087   7.002 -13.904  0.00  0.00     0.210 C 
ATOM      4  C   UNK d   1       4.145   5.737 -13.567  0.00  0.00     0.030 C 
ATOM      5  C   UNK d   1       5.203   4.861 -12.987  0.00  0.00     0.031 C 
ATOM      6  C   UNK d   1       6.551   5.503 -12.900  0.00  0.00     0.005 C 
ATOM      7  C   UNK d   1       6.510   6.777 -12.089  0.00  0.00     0.020 C 
ATOM      8  C   UNK d   1       6.374   7.972 -13.012  0.00  0.00     0.124 C 
ATOM      9  N   UNK d   1       5.242   7.872 -13.877  0.00  0.00    -0.356 N 
ATOM     10  C   UNK d   1       5.107   8.765 -15.035  0.00  0.00     0.200 C 
ATOM     11  H   UNK d   1       2.850   7.146 -15.395  0.00  0.00     0.299 HD
ENDROOT
BRANCH   2  12
ATOM     12  C   UNK d   1       1.786   7.791 -13.899  0.00  0.00     0.146 A 
ATOM     13  C   UNK d   1       0.621   7.702 -14.598  0.00  0.00     0.041 A 
ATOM     14  C   UNK d   1      -0.637   7.951 -14.024  0.00  0.00     0.039 A 
ATOM     15  C   UNK d   1      -0.748   8.301 -12.704  0.00  0.00     0.068 A 
ATOM     16  C   UNK d   1       0.434   8.391 -11.984  0.00  0.00     0.039 A 
ATOM     17  C   UNK d   1       1.666   8.148 -12.552  0.00  0.00     0.041 A 
BRANCH  15  18
ATOM     18  O   UNK d   1      -1.978   8.561 -12.122  0.00  0.00    -0.352 OA
BRANCH  18  19
ATOM     19  C   UNK d   1      -2.932   9.468 -12.612  0.00  0.00     0.171 C 
ATOM     20  C   UNK d   1      -2.125  10.661 -13.160  0.00  0.00     0.034 C 
ENDBRANCH  18  19
ENDBRANCH  15  18
ENDBRANCH   2  12
BRANCH   1  21
ATOM     21  C   UNK d   1       3.378  10.109 -14.108  0.00  0.00     0.007 A 
ATOM     22  C   UNK d   1       4.300  10.432 -13.140  0.00  0.00     0.013 A 
ATOM     23  C   UNK d   1       4.098  11.514 -12.309  0.00  0.00     0.020 A 
ATOM     24  C   UNK d   1       2.962  12.290 -12.438  0.00  0.00     0.011 A 
ATOM     25 Br   UNK d   1       2.705  13.764 -11.277  0.00  0.00    -0.051 Br
ATOM     26  C   UNK d   1       2.034  11.980 -13.399  0.00  0.00     0.020 A 
ATOM     27  C   UNK d   1       2.260  10.877 -14.233  0.00  0.00     0.013 A 
ENDBRANCH   1  21
BRANCH   1  28
ATOM     28  O   UNK d   1       3.174   9.130 -16.308  0.00  0.00    -0.359 OA
ATOM     29  H   UNK d   1       2.661   9.909 -16.570  0.00  0.00     0.213 HD
ENDBRANCH   1  28
TORSDOF 5
ENDMDL
