/Users/jonathanwahrer/Desktop/Msc/3_Semester/Drug_Design_Praktikum/waehrer_HTS_screening/HTS_experiment/out/docking_results/vina_output/6q9y/0827_docked.pdbqt
 OpenBabel03222219403D

 29 32  0  0  1  0  0  0  0  0999 V2000
    3.5560    8.9550  -15.0350 C   0  0  2  0  0  0  0  0  0  0  0  0
    3.0460    7.7250  -14.4330 N   0  0  0  0  0  4  0  0  0  0  0  0
    4.0870    7.0020  -13.9040 C   0  0  0  0  0  0  0  0  0  0  0  0
    4.1450    5.7370  -13.5670 C   0  0  0  0  0  3  0  0  0  0  0  0
    5.2030    4.8610  -12.9870 C   0  0  0  0  0  2  0  0  0  0  0  0
    6.5510    5.5030  -12.9000 C   0  0  0  0  0  2  0  0  0  0  0  0
    6.5100    6.7770  -12.0890 C   0  0  0  0  0  2  0  0  0  0  0  0
    6.3740    7.9720  -13.0120 C   0  0  0  0  0  2  0  0  0  0  0  0
    5.2420    7.8720  -13.8770 N   0  0  0  0  0  0  0  0  0  0  0  0
    5.1070    8.7650  -15.0350 C   0  0  0  0  0  2  0  0  0  0  0  0
    2.8500    7.1460  -15.3950 H   0  0  0  0  0  0  0  0  0  0  0  0
    1.7860    7.7910  -13.8990 C   0  0  0  0  0  0  0  0  0  0  0  0
    0.6210    7.7020  -14.5980 C   0  0  0  0  0  3  0  0  0  0  0  0
   -0.6370    7.9510  -14.0240 C   0  0  0  0  0  3  0  0  0  0  0  0
   -0.7480    8.3010  -12.7040 C   0  0  0  0  0  0  0  0  0  0  0  0
    0.4340    8.3910  -11.9840 C   0  0  0  0  0  3  0  0  0  0  0  0
    1.6660    8.1480  -12.5520 C   0  0  0  0  0  3  0  0  0  0  0  0
   -1.9780    8.5610  -12.1220 O   0  0  0  0  0  0  0  0  0  0  0  0
   -2.9320    9.4680  -12.6120 C   0  0  0  0  0  2  0  0  0  0  0  0
   -2.1250   10.6610  -13.1600 C   0  0  0  0  0  1  0  0  0  0  0  0
    3.3780   10.1090  -14.1080 C   0  0  0  0  0  0  0  0  0  0  0  0
    4.3000   10.4320  -13.1400 C   0  0  0  0  0  3  0  0  0  0  0  0
    4.0980   11.5140  -12.3090 C   0  0  0  0  0  3  0  0  0  0  0  0
    2.9620   12.2900  -12.4380 C   0  0  0  0  0  0  0  0  0  0  0  0
    2.7050   13.7640  -11.2770 Br  0  0  0  0  0  0  0  0  0  0  0  0
    2.0340   11.9800  -13.3990 C   0  0  0  0  0  3  0  0  0  0  0  0
    2.2600   10.8770  -14.2330 C   0  0  0  0  0  3  0  0  0  0  0  0
    3.1740    9.1300  -16.3080 O   0  0  0  0  0  0  0  0  0  0  0  0
    2.6610    9.9090  -16.5700 H   0  0  0  0  0  0  0  0  0  0  0  0
  1 28  1  6  0  0  0
  1 10  1  0  0  0  0
  1  2  1  0  0  0  0
  1 21  1  0  0  0  0
  2  3  1  0  0  0  0
  2 12  1  0  0  0  0
  3  9  1  0  0  0  0
  3  4  2  0  0  0  0
  4  5  1  0  0  0  0
  5  6  1  0  0  0  0
  6  7  1  0  0  0  0
  8  7  1  0  0  0  0
  9  8  1  0  0  0  0
 10  9  1  0  0  0  0
 11  2  1  0  0  0  0
 12 17  1  0  0  0  0
 13 14  1  0  0  0  0
 13 12  2  0  0  0  0
 14 15  2  0  0  0  0
 15 18  1  0  0  0  0
 15 16  1  0  0  0  0
 17 16  2  0  0  0  0
 19 18  1  0  0  0  0
 20 19  1  0  0  0  0
 21 22  1  0  0  0  0
 22 23  2  0  0  0  0
 24 23  1  0  0  0  0
 24 25  1  0  0  0  0
 26 24  2  0  0  0  0
 27 21  2  0  0  0  0
 27 26  1  0  0  0  0
 29 28  1  0  0  0  0
M  END
>  <Pose>
1

>  <Score>
-5.050

$$$$
