MODEL 1
REMARK VINA RESULT:    -8.321      0.000      0.000
REMARK INTER + INTRA:          -8.983
REMARK INTER:                 -10.023
REMARK INTRA:                   1.040
REMARK UNBOUND:                 1.040
REMARK  4 active torsions:
REMARK  status: ('A' for Active; 'I' for Inactive)
REMARK    1  A    between atoms: C_5  and  C_8 
REMARK    2  A    between atoms: C_8  and  O_26 
REMARK    3  A    between atoms: N_16  and  C_18 
REMARK    4  A    between atoms: C_19  and  O_24 
ROOT
ATOM      1  C   UNK d   1       2.331   9.120 -14.773  0.00  0.00     0.189 C 
ATOM      2  N   UNK d   1       1.259   9.118 -13.788  0.00  0.00    -0.324 N 
ATOM      3  C   UNK d   1       0.970   7.965 -12.942  0.00  0.00     0.128 C 
ATOM      4  C   UNK d   1      -0.334   8.065 -12.241  0.00  0.00     0.020 C 
ATOM      5  C   UNK d   1      -1.497   8.383 -13.145  0.00  0.00     0.005 C 
ATOM      6  C   UNK d   1      -1.702   9.883 -13.050  0.00  0.00     0.031 C 
ATOM      7  C   UNK d   1      -0.628  10.693 -13.545  0.00  0.00     0.030 C 
ATOM      8  C   UNK d   1       0.646  10.367 -13.863  0.00  0.00     0.208 C 
ATOM      9  N   UNK d   1       1.547  11.347 -14.324  0.00  0.00     0.011 N 
ATOM     10  C   UNK d   1       2.656  10.573 -14.800  0.00  0.00     0.316 C 
ATOM     11  H   UNK d   1       1.185  11.933 -15.111  0.00  0.00     0.295 HD
ENDROOT
BRANCH   1  12
ATOM     12  C   UNK d   1       3.450   8.267 -14.323  0.00  0.00    -0.001 A 
ATOM     13  C   UNK d   1       4.748   8.628 -14.695  0.00  0.00     0.013 A 
ATOM     14  C   UNK d   1       5.781   7.784 -14.287  0.00  0.00     0.020 A 
ATOM     15  C   UNK d   1       5.515   6.649 -13.556  0.00  0.00     0.011 A 
ATOM     16 Br   UNK d   1       6.962   5.518 -13.017  0.00  0.00    -0.051 Br
ATOM     17  C   UNK d   1       4.215   6.324 -13.205  0.00  0.00     0.020 A 
ATOM     18  C   UNK d   1       3.176   7.150 -13.600  0.00  0.00     0.013 A 
ENDBRANCH   1  12
BRANCH   1  19
ATOM     19  O   UNK d   1       1.812   8.637 -15.946  0.00  0.00    -0.365 OA
ATOM     20  H   UNK d   1       0.862   8.397 -15.897  0.00  0.00     0.213 HD
ENDBRANCH   1  19
BRANCH   9  21
ATOM     21  C   UNK d   1       1.885  12.141 -13.186  0.00  0.00     0.175 A 
ATOM     22  C   UNK d   1       1.148  13.268 -12.863  0.00  0.00     0.103 A 
ATOM     23  C   UNK d   1       1.605  14.013 -11.784  0.00  0.00     0.039 A 
ATOM     24  C   UNK d   1       2.725  13.696 -11.039  0.00  0.00     0.003 A 
ATOM     25  C   UNK d   1       3.444  12.538 -11.405  0.00  0.00     0.002 A 
ATOM     26  C   UNK d   1       2.989  11.822 -12.453  0.00  0.00     0.041 A 
BRANCH  22  27
ATOM     27  O   UNK d   1       0.042  13.590 -13.588  0.00  0.00    -0.354 OA
ATOM     28  C   UNK d   1      -0.738  14.716 -13.280  0.00  0.00     0.210 C 
ENDBRANCH  22  27
ENDBRANCH   9  21
TORSDOF 4
ENDMDL
