/Users/jonathanwahrer/Desktop/Msc/3_Semester/Drug_Design_Praktikum/waehrer_HTS_screening/HTS_experiment/out/docking_results/vina_output/6q9y/0834_docked.pdbqt
 OpenBabel03222219403D

 28 31  0  0  1  0  0  0  0  0999 V2000
    3.2570    8.1990  -13.3860 C   0  0  2  0  0  0  0  0  0  0  0  0
    1.9230    7.7940  -13.0800 N   0  0  0  0  0  0  0  0  0  0  0  0
    1.4450    7.1690  -11.8860 C   0  0  0  0  0  3  0  0  0  0  0  0
    0.5420    6.0060  -12.0380 C   0  0  0  0  0  3  0  0  0  0  0  0
    0.1670    5.6130  -13.4210 C   0  0  0  0  0  2  0  0  0  0  0  0
   -0.8150    6.5980  -14.0560 C   0  0  0  0  0  2  0  0  0  0  0  0
    0.0090    7.6870  -14.6660 C   0  0  0  0  0  3  0  0  0  0  0  0
    1.1620    8.1880  -14.2530 C   0  0  0  0  0  0  0  0  0  0  0  0
    1.8700    9.2200  -14.9290 N   0  0  0  0  0  4  0  0  0  0  0  0
    3.2110    8.7240  -14.8250 C   0  0  0  0  0  2  0  0  0  0  0  0
    1.5260    9.2470  -15.9220 H   0  0  0  0  0  0  0  0  0  0  0  0
    4.2980    7.1740  -13.3990 C   0  0  0  0  0  0  0  0  0  0  0  0
    4.1710    5.8480  -13.1460 C   0  0  0  0  0  3  0  0  0  0  0  0
    5.2520    4.9770  -13.1960 C   0  0  0  0  0  3  0  0  0  0  0  0
    6.5090    5.4480  -13.5120 C   0  0  0  0  0  0  0  0  0  0  0  0
    8.0140    4.2700  -13.5930 Br  0  0  0  0  0  0  0  0  0  0  0  0
    6.6410    6.7910  -13.7700 C   0  0  0  0  0  3  0  0  0  0  0  0
    5.5820    7.6610  -13.7240 C   0  0  0  0  0  3  0  0  0  0  0  0
    3.7230    9.2080  -12.5210 O   0  0  0  0  0  0  0  0  0  0  0  0
    2.9990    9.3260  -11.8540 H   0  0  0  0  0  0  0  0  0  0  0  0
    1.6650   10.4350  -14.2580 C   0  0  0  0  0  0  0  0  0  0  0  0
    0.3650   10.8740  -13.9440 C   0  0  0  0  0  3  0  0  0  0  0  0
    0.1320   12.0560  -13.2940 C   0  0  0  0  0  3  0  0  0  0  0  0
    1.1750   12.8730  -12.9140 C   0  0  0  0  0  0  0  0  0  0  0  0
    2.4510   12.4670  -13.2080 C   0  0  0  0  0  3  0  0  0  0  0  0
    2.6850   11.2760  -13.8640 C   0  0  0  0  0  3  0  0  0  0  0  0
    0.9250   14.0870  -12.2460 O   0  0  0  0  0  0  0  0  0  0  0  0
    1.8650   14.5930  -11.3350 C   0  0  0  0  0  1  0  0  0  0  0  0
  1  2  1  0  0  0  0
  1 19  1  1  0  0  0
  2  3  1  0  0  0  0
  4  3  2  0  0  0  0
  5  4  1  0  0  0  0
  6  5  1  0  0  0  0
  7  8  2  0  0  0  0
  7  6  1  0  0  0  0
  8  2  1  0  0  0  0
  9 10  1  0  0  0  0
  9 21  1  0  0  0  0
  9  8  1  0  0  0  0
 10  1  1  0  0  0  0
 11  9  1  0  0  0  0
 12  1  1  0  0  0  0
 12 13  1  0  0  0  0
 14 13  2  0  0  0  0
 15 14  1  0  0  0  0
 16 15  1  0  0  0  0
 17 18  1  0  0  0  0
 17 15  2  0  0  0  0
 18 12  2  0  0  0  0
 19 20  1  0  0  0  0
 21 22  2  0  0  0  0
 21 26  1  0  0  0  0
 22 23  1  0  0  0  0
 23 24  2  0  0  0  0
 24 27  1  0  0  0  0
 25 24  1  0  0  0  0
 26 25  2  0  0  0  0
 27 28  1  0  0  0  0
M  END
>  <Pose>
1

>  <Score>
-8.025

$$$$
