MODEL 1
REMARK VINA RESULT:    -8.025      0.000      0.000
REMARK INTER + INTRA:          -9.384
REMARK INTER:                  -9.667
REMARK INTRA:                   0.283
REMARK UNBOUND:                 0.283
REMARK  4 active torsions:
REMARK  status: ('A' for Active; 'I' for Inactive)
REMARK    1  A    between atoms: C_5  and  C_8 
REMARK    2  A    between atoms: C_8  and  O_26 
REMARK    3  A    between atoms: N_16  and  C_18 
REMARK    4  A    between atoms: C_21  and  O_24 
ROOT
ATOM      1  C   UNK d   1       3.257   8.199 -13.386  0.00  0.00     0.189 C 
ATOM      2  N   UNK d   1       1.923   7.794 -13.080  0.00  0.00    -0.324 N 
ATOM      3  C   UNK d   1       1.445   7.169 -11.886  0.00  0.00     0.128 C 
ATOM      4  C   UNK d   1       0.542   6.006 -12.038  0.00  0.00     0.020 C 
ATOM      5  C   UNK d   1       0.167   5.613 -13.421  0.00  0.00     0.005 C 
ATOM      6  C   UNK d   1      -0.815   6.598 -14.056  0.00  0.00     0.031 C 
ATOM      7  C   UNK d   1       0.009   7.687 -14.666  0.00  0.00     0.030 C 
ATOM      8  C   UNK d   1       1.162   8.188 -14.253  0.00  0.00     0.208 C 
ATOM      9  N   UNK d   1       1.870   9.220 -14.929  0.00  0.00     0.009 N 
ATOM     10  C   UNK d   1       3.211   8.724 -14.825  0.00  0.00     0.316 C 
ATOM     11  H   UNK d   1       1.526   9.247 -15.922  0.00  0.00     0.295 HD
ENDROOT
BRANCH   1  12
ATOM     12  C   UNK d   1       4.298   7.174 -13.399  0.00  0.00    -0.001 A 
ATOM     13  C   UNK d   1       4.171   5.848 -13.146  0.00  0.00     0.013 A 
ATOM     14  C   UNK d   1       5.252   4.977 -13.196  0.00  0.00     0.020 A 
ATOM     15  C   UNK d   1       6.509   5.448 -13.512  0.00  0.00     0.011 A 
ATOM     16 Br   UNK d   1       8.014   4.270 -13.593  0.00  0.00    -0.051 Br
ATOM     17  C   UNK d   1       6.641   6.791 -13.770  0.00  0.00     0.020 A 
ATOM     18  C   UNK d   1       5.582   7.661 -13.724  0.00  0.00     0.013 A 
ENDBRANCH   1  12
BRANCH   1  19
ATOM     19  O   UNK d   1       3.723   9.208 -12.521  0.00  0.00    -0.365 OA
ATOM     20  H   UNK d   1       2.999   9.326 -11.854  0.00  0.00     0.213 HD
ENDBRANCH   1  19
BRANCH   9  21
ATOM     21  C   UNK d   1       1.665  10.435 -14.258  0.00  0.00     0.142 A 
ATOM     22  C   UNK d   1       0.365  10.874 -13.944  0.00  0.00     0.040 A 
ATOM     23  C   UNK d   1       0.132  12.056 -13.294  0.00  0.00     0.039 A 
ATOM     24  C   UNK d   1       1.175  12.873 -12.914  0.00  0.00     0.068 A 
ATOM     25  C   UNK d   1       2.451  12.467 -13.208  0.00  0.00     0.039 A 
ATOM     26  C   UNK d   1       2.685  11.276 -13.864  0.00  0.00     0.040 A 
BRANCH  24  27
ATOM     27  O   UNK d   1       0.925  14.087 -12.246  0.00  0.00    -0.356 OA
ATOM     28  C   UNK d   1       1.865  14.593 -11.335  0.00  0.00     0.210 C 
ENDBRANCH  24  27
ENDBRANCH   9  21
TORSDOF 4
ENDMDL
