MODEL 1
REMARK VINA RESULT:    -8.149      0.000      0.000
REMARK INTER + INTRA:          -8.164
REMARK INTER:                  -9.816
REMARK INTRA:                   1.652
REMARK UNBOUND:                 1.652
REMARK  4 active torsions:
REMARK  status: ('A' for Active; 'I' for Inactive)
REMARK    1  A    between atoms: C_5  and  C_8 
REMARK    2  A    between atoms: C_8  and  O_25 
REMARK    3  A    between atoms: N_15  and  C_17 
REMARK    4  A    between atoms: C_18  and  O_23 
ROOT
ATOM      1  C   UNK d   1       0.756   8.357 -14.067  0.00  0.00     0.189 C 
ATOM      2  N   UNK d   1       0.468   9.755 -13.829  0.00  0.00    -0.324 N 
ATOM      3  C   UNK d   1       1.137  11.029 -13.987  0.00  0.00     0.128 C 
ATOM      4  C   UNK d   1       0.177  12.136 -14.370  0.00  0.00     0.024 C 
ATOM      5  C   UNK d   1      -0.873  12.230 -13.314  0.00  0.00     0.032 C 
ATOM      6  C   UNK d   1      -1.483  10.914 -13.033  0.00  0.00     0.030 C 
ATOM      7  C   UNK d   1      -0.847   9.764 -13.277  0.00  0.00     0.208 C 
ATOM      8  N   UNK d   1      -1.305   8.454 -13.032  0.00  0.00     0.011 N 
ATOM      9  C   UNK d   1      -0.047   7.681 -12.993  0.00  0.00     0.316 C 
ATOM     10  H   UNK d   1      -1.659   8.354 -12.024  0.00  0.00     0.295 HD
ENDROOT
BRANCH   1  11
ATOM     11  C   UNK d   1       2.201   8.035 -13.975  0.00  0.00    -0.001 A 
ATOM     12  C   UNK d   1       2.630   7.036 -13.126  0.00  0.00     0.013 A 
ATOM     13  C   UNK d   1       3.972   6.681 -13.002  0.00  0.00     0.020 A 
ATOM     14  C   UNK d   1       4.908   7.352 -13.755  0.00  0.00     0.011 A 
ATOM     15 Br   UNK d   1       6.762   6.879 -13.588  0.00  0.00    -0.051 Br
ATOM     16  C   UNK d   1       4.495   8.354 -14.607  0.00  0.00     0.020 A 
ATOM     17  C   UNK d   1       3.160   8.694 -14.720  0.00  0.00     0.013 A 
ENDBRANCH   1  11
BRANCH   1  18
ATOM     18  O   UNK d   1       0.288   7.913 -15.299  0.00  0.00    -0.365 OA
ATOM     19  H   UNK d   1      -0.699   7.928 -15.249  0.00  0.00     0.213 HD
ENDBRANCH   1  18
BRANCH   8  20
ATOM     20  C   UNK d   1      -2.200   7.911 -13.948  0.00  0.00     0.175 A 
ATOM     21  C   UNK d   1      -3.395   8.498 -14.284  0.00  0.00     0.103 A 
ATOM     22  C   UNK d   1      -4.256   7.887 -15.199  0.00  0.00     0.039 A 
ATOM     23  C   UNK d   1      -3.929   6.690 -15.781  0.00  0.00     0.003 A 
ATOM     24  C   UNK d   1      -2.731   6.094 -15.451  0.00  0.00     0.002 A 
ATOM     25  C   UNK d   1      -1.889   6.700 -14.552  0.00  0.00     0.041 A 
BRANCH  21  26
ATOM     26  O   UNK d   1      -3.803   9.703 -13.748  0.00  0.00    -0.354 OA
ATOM     27  C   UNK d   1      -5.122  10.126 -13.844  0.00  0.00     0.210 C 
ENDBRANCH  21  26
ENDBRANCH   8  20
TORSDOF 4
ENDMDL
