MODEL 1
REMARK VINA RESULT:    -6.973      0.000      0.000
REMARK INTER + INTRA:          -9.208
REMARK INTER:                  -8.400
REMARK INTRA:                  -0.808
REMARK UNBOUND:                -0.808
REMARK  4 active torsions:
REMARK  status: ('A' for Active; 'I' for Inactive)
REMARK    1  A    between atoms: C_5  and  C_8 
REMARK    2  A    between atoms: C_8  and  O_25 
REMARK    3  A    between atoms: N_15  and  C_17 
REMARK    4  A    between atoms: C_20  and  O_23 
ROOT
ATOM      1  C   UNK d   1      -0.360   7.794 -14.339  0.00  0.00     0.189 C 
ATOM      2  N   UNK d   1       0.382   7.622 -13.115  0.00  0.00    -0.324 N 
ATOM      3  C   UNK d   1       0.050   7.363 -11.720  0.00  0.00     0.128 C 
ATOM      4  C   UNK d   1       1.074   6.609 -10.965  0.00  0.00     0.024 C 
ATOM      5  C   UNK d   1       2.252   6.116 -11.769  0.00  0.00     0.032 C 
ATOM      6  C   UNK d   1       2.653   7.038 -12.828  0.00  0.00     0.030 C 
ATOM      7  C   UNK d   1       1.750   7.757 -13.469  0.00  0.00     0.208 C 
ATOM      8  N   UNK d   1       1.839   8.716 -14.518  0.00  0.00     0.009 N 
ATOM      9  C   UNK d   1       0.565   8.657 -15.165  0.00  0.00     0.316 C 
ATOM     10  H   UNK d   1       2.600   8.382 -15.169  0.00  0.00     0.295 HD
ENDROOT
BRANCH   1  11
ATOM     11  C   UNK d   1      -1.691   8.373 -14.173  0.00  0.00    -0.001 A 
ATOM     12  C   UNK d   1      -2.806   7.699 -14.627  0.00  0.00     0.013 A 
ATOM     13  C   UNK d   1      -4.086   8.198 -14.499  0.00  0.00     0.020 A 
ATOM     14  C   UNK d   1      -4.315   9.421 -13.897  0.00  0.00     0.011 A 
ATOM     15 Br   UNK d   1      -6.075  10.133 -13.710  0.00  0.00    -0.051 Br
ATOM     16  C   UNK d   1      -3.212  10.108 -13.437  0.00  0.00     0.020 A 
ATOM     17  C   UNK d   1      -1.932   9.601 -13.570  0.00  0.00     0.013 A 
ENDBRANCH   1  11
BRANCH   1  18
ATOM     18  O   UNK d   1      -0.504   6.515 -14.916  0.00  0.00    -0.365 OA
ATOM     19  H   UNK d   1      -0.451   5.874 -14.166  0.00  0.00     0.213 HD
ENDBRANCH   1  18
BRANCH   8  20
ATOM     20  C   UNK d   1       2.182   9.949 -13.979  0.00  0.00     0.142 A 
ATOM     21  C   UNK d   1       3.491  10.243 -13.675  0.00  0.00     0.040 A 
ATOM     22  C   UNK d   1       3.836  11.490 -13.129  0.00  0.00     0.039 A 
ATOM     23  C   UNK d   1       2.895  12.450 -12.881  0.00  0.00     0.068 A 
ATOM     24  C   UNK d   1       1.557  12.145 -13.193  0.00  0.00     0.039 A 
ATOM     25  C   UNK d   1       1.250  10.911 -13.729  0.00  0.00     0.040 A 
BRANCH  23  26
ATOM     26  O   UNK d   1       3.166  13.706 -12.342  0.00  0.00    -0.356 OA
ATOM     27  C   UNK d   1       2.435  14.356 -11.353  0.00  0.00     0.210 C 
ENDBRANCH  23  26
ENDBRANCH   8  20
TORSDOF 4
ENDMDL
