/Users/jonathanwahrer/Desktop/Msc/3_Semester/Drug_Design_Praktikum/waehrer_HTS_screening/HTS_experiment/out/docking_results/vina_output/6q9y/0847_docked.pdbqt
 OpenBabel03222219413D

 31 34  0  0  1  0  0  0  0  0999 V2000
    2.5540   10.9810  -13.8740 C   0  0  0  0  0  0  0  0  0  0  0  0
    2.2990   12.1030  -13.1820 N   0  0  0  0  0  0  0  0  0  0  0  0
    0.9640   12.2230  -13.0610 C   0  0  1  0  0  3  0  0  0  0  0  0
    0.3790   11.1510  -13.6930 N   0  0  0  0  0  0  0  0  0  0  0  0
    1.3740   10.4240  -14.1710 N   0  0  0  0  0  0  0  0  0  0  0  0
    0.1110   13.2250  -12.4150 C   0  0  0  0  0  2  0  0  0  0  0  0
    0.6460   14.6310  -12.4470 C   0  0  0  0  0  2  0  0  0  0  0  0
    1.9530   14.7940  -11.7430 C   0  0  0  0  0  2  0  0  0  0  0  0
    3.0380   14.4230  -12.7290 C   0  0  0  0  0  2  0  0  0  0  0  0
    3.3430   12.9460  -12.7000 C   0  0  0  0  0  2  0  0  0  0  0  0
   -0.9870   10.8190  -13.7910 C   0  0  0  0  0  3  0  0  0  0  0  0
   -1.3890    9.4690  -13.4990 C   0  0  0  0  0  0  0  0  0  0  0  0
   -2.6980    9.2790  -13.6690 O   0  0  0  0  0  1  0  0  0  0  0  0
   -0.7020    8.2850  -13.0670 C   0  0  0  0  0  0  0  0  0  0  0  0
    0.0050    8.2710  -11.8450 C   0  0  0  0  0  3  0  0  0  0  0  0
    0.6820    7.1720  -11.3880 C   0  0  0  0  0  3  0  0  0  0  0  0
    0.7040    6.0080  -12.1150 C   0  0  0  0  0  0  0  0  0  0  0  0
    0.0310    5.9770  -13.3050 C   0  0  0  0  0  3  0  0  0  0  0  0
   -0.6600    7.1150  -13.7620 C   0  0  0  0  0  3  0  0  0  0  0  0
    1.3930    4.8890  -11.6490 O   0  0  0  0  0  0  0  0  0  0  0  0
    2.4620    4.3120  -12.3560 C   0  0  0  0  0  1  0  0  0  0  0  0
    3.8660   10.3850  -14.2860 C   0  0  0  0  0  2  0  0  0  0  0  0
    3.7510    8.9920  -14.6650 N   0  0  0  0  0  0  0  0  0  0  0  0
    2.9450    8.6540  -15.2360 H   0  0  0  0  0  0  0  0  0  0  0  0
    4.7170    8.0040  -14.2850 C   0  0  0  0  0  0  0  0  0  0  0  0
    6.0530    8.1880  -14.5710 C   0  0  0  0  0  3  0  0  0  0  0  0
    6.9730    7.2430  -14.2030 C   0  0  0  0  0  3  0  0  0  0  0  0
    6.5660    6.0910  -13.5390 C   0  0  0  0  0  0  0  0  0  0  0  0
    7.8430    4.7800  -13.0270 Br  0  0  0  0  0  0  0  0  0  0  0  0
    5.2290    5.8870  -13.2430 C   0  0  0  0  0  3  0  0  0  0  0  0
    4.3310    6.8550  -13.6270 C   0  0  0  0  0  3  0  0  0  0  0  0
  1  2  1  0  0  0  0
  2  3  1  0  0  0  0
  2 10  1  0  0  0  0
  3  6  1  1  0  0  0
  4  3  1  0  0  0  0
  5  1  2  0  0  0  0
  5  4  1  0  0  0  0
  7  6  1  0  0  0  0
  7  8  1  0  0  0  0
  9 10  1  0  0  0  0
  9  8  1  0  0  0  0
 11  4  1  0  0  0  0
 11 12  2  0  0  0  0
 12 14  1  0  0  0  0
 13 12  1  0  0  0  0
 14 15  1  0  0  0  0
 15 16  2  0  0  0  0
 17 20  1  0  0  0  0
 17 16  1  0  0  0  0
 18 17  2  0  0  0  0
 19 18  1  0  0  0  0
 19 14  2  0  0  0  0
 21 20  1  0  0  0  0
 22  1  1  0  0  0  0
 23 22  1  0  0  0  0
 23 25  1  0  0  0  0
 24 23  1  0  0  0  0
 25 31  1  0  0  0  0
 26 25  2  0  0  0  0
 26 27  1  0  0  0  0
 27 28  2  0  0  0  0
 28 30  1  0  0  0  0
 28 29  1  0  0  0  0
 31 30  2  0  0  0  0
M  END
>  <Pose>
1

>  <Score>
-8.714

$$$$
