MODEL 1
REMARK VINA RESULT:    -8.714      0.000      0.000
REMARK INTER + INTRA:         -12.441
REMARK INTER:                 -11.771
REMARK INTRA:                  -0.670
REMARK UNBOUND:                -0.670
REMARK  6 active torsions:
REMARK  status: ('A' for Active; 'I' for Inactive)
REMARK    1  A    between atoms: C_5  and  N_8 
REMARK    2  A    between atoms: N_8  and  C_9 
REMARK    3  A    between atoms: C_9  and  C_10 
REMARK    4  A    between atoms: N_13  and  C_15 
REMARK    5  A    between atoms: C_16  and  C_18 
REMARK    6  A    between atoms: C_21  and  O_24 
ROOT
ATOM      1  C   UNK d   1       2.554  10.981 -13.874  0.00  0.00     0.145 A 
ATOM      2  N   UNK d   1       2.299  12.103 -13.182  0.00  0.00    -0.321 N 
ATOM      3  C   UNK d   1       0.964  12.223 -13.061  0.00  0.00     0.104 A 
ATOM      4  N   UNK d   1       0.379  11.151 -13.693  0.00  0.00    -0.250 N 
ATOM      5  N   UNK d   1       1.374  10.424 -14.171  0.00  0.00    -0.155 NA
ATOM      6  C   UNK d   1       0.111  13.225 -12.415  0.00  0.00     0.078 C 
ATOM      7  C   UNK d   1       0.646  14.631 -12.447  0.00  0.00     0.008 C 
ATOM      8  C   UNK d   1       1.953  14.794 -11.743  0.00  0.00     0.002 C 
ATOM      9  C   UNK d   1       3.038  14.423 -12.729  0.00  0.00     0.020 C 
ATOM     10  C   UNK d   1       3.343  12.946 -12.700  0.00  0.00     0.132 C 
ENDROOT
BRANCH   4  11
ATOM     11  C   UNK d   1      -0.987  10.819 -13.791  0.00  0.00     0.221 C 
ATOM     12  C   UNK d   1      -1.389   9.469 -13.499  0.00  0.00     0.114 C 
ATOM     13  O   UNK d   1      -2.698   9.279 -13.669  0.00  0.00    -0.194 OA
BRANCH  12  14
ATOM     14  C   UNK d   1      -0.702   8.285 -13.067  0.00  0.00    -0.002 A 
ATOM     15  C   UNK d   1       0.005   8.271 -11.845  0.00  0.00     0.017 A 
ATOM     16  C   UNK d   1       0.682   7.172 -11.388  0.00  0.00     0.037 A 
ATOM     17  C   UNK d   1       0.704   6.008 -12.115  0.00  0.00     0.068 A 
ATOM     18  C   UNK d   1       0.031   5.977 -13.305  0.00  0.00     0.037 A 
ATOM     19  C   UNK d   1      -0.660   7.115 -13.762  0.00  0.00     0.017 A 
BRANCH  17  20
ATOM     20  O   UNK d   1       1.393   4.889 -11.649  0.00  0.00    -0.356 OA
ATOM     21  C   UNK d   1       2.462   4.312 -12.356  0.00  0.00     0.210 C 
ENDBRANCH  17  20
ENDBRANCH  12  14
ENDBRANCH   4  11
BRANCH   1  22
ATOM     22  C   UNK d   1       3.866  10.385 -14.286  0.00  0.00     0.200 C 
BRANCH  22  23
ATOM     23  N   UNK d   1       3.751   8.992 -14.665  0.00  0.00    -0.383 N 
ATOM     24  H   UNK d   1       2.945   8.654 -15.236  0.00  0.00     0.160 HD
BRANCH  23  25
ATOM     25  C   UNK d   1       4.717   8.004 -14.285  0.00  0.00     0.028 A 
ATOM     26  C   UNK d   1       6.053   8.188 -14.571  0.00  0.00     0.030 A 
ATOM     27  C   UNK d   1       6.973   7.243 -14.203  0.00  0.00     0.021 A 
ATOM     28  C   UNK d   1       6.566   6.091 -13.539  0.00  0.00     0.011 A 
ATOM     29 Br   UNK d   1       7.843   4.780 -13.027  0.00  0.00    -0.051 Br
ATOM     30  C   UNK d   1       5.229   5.887 -13.243  0.00  0.00     0.021 A 
ATOM     31  C   UNK d   1       4.331   6.855 -13.627  0.00  0.00     0.030 A 
ENDBRANCH  23  25
ENDBRANCH  22  23
ENDBRANCH   1  22
TORSDOF 6
ENDMDL
