/Users/jonathanwahrer/Desktop/Msc/3_Semester/Drug_Design_Praktikum/waehrer_HTS_screening/HTS_experiment/out/docking_results/vina_output/6q9y/0850_docked.pdbqt
 OpenBabel03222219413D

 29 32  0  0  1  0  0  0  0  0999 V2000
    2.5080    9.7060  -12.9770 N   0  0  0  0  0  4  0  0  0  0  0  0
    3.2190    9.2940  -14.1500 C   0  0  1  0  0  0  0  0  0  0  0  0
    2.0530    8.7830  -14.9960 C   0  0  0  0  0  2  0  0  0  0  0  0
    1.2030    8.1040  -14.0050 N   0  0  0  0  0  0  0  0  0  0  0  0
    0.2280    7.1530  -14.4100 C   0  0  0  0  0  2  0  0  0  0  0  0
   -0.5210    6.4990  -13.2890 C   0  0  0  0  0  2  0  0  0  0  0  0
    0.4560    5.9920  -12.2640 C   0  0  0  0  0  2  0  0  0  0  0  0
    0.4490    7.0480  -11.1490 C   0  0  0  0  0  2  0  0  0  0  0  0
    1.3360    8.1590  -11.5500 C   0  0  0  0  0  3  0  0  0  0  0  0
    1.6320    8.6160  -12.7450 C   0  0  0  0  0  0  0  0  0  0  0  0
    3.2340    9.8230  -12.2030 H   0  0  0  0  0  0  0  0  0  0  0  0
    4.0220   10.2080  -14.7550 O   0  0  0  0  0  0  0  0  0  0  0  0
    3.9890   10.1750  -15.7280 H   0  0  0  0  0  0  0  0  0  0  0  0
    4.0670    8.0940  -13.8950 C   0  0  0  0  0  0  0  0  0  0  0  0
    3.6060    6.8850  -13.4690 C   0  0  0  0  0  3  0  0  0  0  0  0
    4.4630    5.7850  -13.2530 C   0  0  0  0  0  3  0  0  0  0  0  0
    5.8150    5.8940  -13.4680 C   0  0  0  0  0  0  0  0  0  0  0  0
    6.2920    7.1090  -13.8970 C   0  0  0  0  0  3  0  0  0  0  0  0
    5.4530    8.1800  -14.1050 C   0  0  0  0  0  3  0  0  0  0  0  0
    6.6770    4.8040  -13.2600 O   0  0  0  0  0  0  0  0  0  0  0  0
    8.0760    4.9550  -13.2820 C   0  0  0  0  0  2  0  0  0  0  0  0
    8.6630    5.0760  -11.9110 C   0  0  0  0  0  1  0  0  0  0  0  0
    1.8280   10.9050  -13.0190 C   0  0  0  0  0  0  0  0  0  0  0  0
    2.4340   12.0520  -12.5110 C   0  0  0  0  0  3  0  0  0  0  0  0
    1.8150   13.2930  -12.5470 C   0  0  0  0  0  3  0  0  0  0  0  0
    0.5600   13.4390  -13.0940 C   0  0  0  0  0  0  0  0  0  0  0  0
   -0.3040   15.1480  -13.1710 Br  0  0  0  0  0  0  0  0  0  0  0  0
   -0.0580   12.3360  -13.5970 C   0  0  0  0  0  3  0  0  0  0  0  0
    0.5870   11.1030  -13.5480 C   0  0  0  0  0  3  0  0  0  0  0  0
  1 10  1  0  0  0  0
  1 11  1  0  0  0  0
  2 12  1  6  0  0  0
  2 14  1  0  0  0  0
  2  1  1  0  0  0  0
  3  2  1  0  0  0  0
  3  4  1  0  0  0  0
  4 10  1  0  0  0  0
  5  4  1  0  0  0  0
  5  6  1  0  0  0  0
  6  7  1  0  0  0  0
  7  8  1  0  0  0  0
  9  8  1  0  0  0  0
 10  9  2  0  0  0  0
 13 12  1  0  0  0  0
 14 15  1  0  0  0  0
 15 16  2  0  0  0  0
 17 20  1  0  0  0  0
 17 16  1  0  0  0  0
 18 17  2  0  0  0  0
 19 18  1  0  0  0  0
 19 14  2  0  0  0  0
 21 20  1  0  0  0  0
 21 22  1  0  0  0  0
 23  1  1  0  0  0  0
 23 24  1  0  0  0  0
 25 24  2  0  0  0  0
 26 25  1  0  0  0  0
 27 26  1  0  0  0  0
 28 29  1  0  0  0  0
 28 26  2  0  0  0  0
 29 23  2  0  0  0  0
M  END
>  <Pose>
1

>  <Score>
-8.943

$$$$
