MODEL 1
REMARK VINA RESULT:    -8.943      0.000      0.000
REMARK INTER + INTRA:          -9.949
REMARK INTER:                 -11.296
REMARK INTRA:                   1.347
REMARK UNBOUND:                 1.347
REMARK  5 active torsions:
REMARK  status: ('A' for Active; 'I' for Inactive)
REMARK    1  A    between atoms: C_5  and  N_8 
REMARK    2  A    between atoms: C_9  and  O_18 
REMARK    3  A    between atoms: C_9  and  C_19 
REMARK    4  A    between atoms: C_22  and  O_25 
REMARK    5  A    between atoms: O_25  and  C_26 
ROOT
ATOM      1  N   UNK d   1       2.508   9.706 -12.977  0.00  0.00     0.042 N 
ATOM      2  C   UNK d   1       3.219   9.294 -14.150  0.00  0.00     0.283 C 
ATOM      3  C   UNK d   1       2.053   8.783 -14.996  0.00  0.00     0.200 C 
ATOM      4  N   UNK d   1       1.203   8.104 -14.005  0.00  0.00    -0.356 N 
ATOM      5  C   UNK d   1       0.228   7.153 -14.410  0.00  0.00     0.124 C 
ATOM      6  C   UNK d   1      -0.521   6.499 -13.289  0.00  0.00     0.020 C 
ATOM      7  C   UNK d   1       0.456   5.992 -12.264  0.00  0.00     0.005 C 
ATOM      8  C   UNK d   1       0.449   7.048 -11.149  0.00  0.00     0.031 C 
ATOM      9  C   UNK d   1       1.336   8.159 -11.550  0.00  0.00     0.030 C 
ATOM     10  C   UNK d   1       1.632   8.616 -12.745  0.00  0.00     0.210 C 
ATOM     11  H   UNK d   1       3.234   9.823 -12.203  0.00  0.00     0.299 HD
ENDROOT
BRANCH   2  12
ATOM     12  O   UNK d   1       4.022  10.208 -14.755  0.00  0.00    -0.359 OA
ATOM     13  H   UNK d   1       3.989  10.175 -15.728  0.00  0.00     0.213 HD
ENDBRANCH   2  12
BRANCH   2  14
ATOM     14  C   UNK d   1       4.067   8.094 -13.895  0.00  0.00     0.007 A 
ATOM     15  C   UNK d   1       3.606   6.885 -13.469  0.00  0.00     0.015 A 
ATOM     16  C   UNK d   1       4.463   5.785 -13.253  0.00  0.00     0.037 A 
ATOM     17  C   UNK d   1       5.815   5.894 -13.468  0.00  0.00     0.068 A 
ATOM     18  C   UNK d   1       6.292   7.109 -13.897  0.00  0.00     0.037 A 
ATOM     19  C   UNK d   1       5.453   8.180 -14.105  0.00  0.00     0.015 A 
BRANCH  17  20
ATOM     20  O   UNK d   1       6.677   4.804 -13.260  0.00  0.00    -0.352 OA
BRANCH  20  21
ATOM     21  C   UNK d   1       8.076   4.955 -13.282  0.00  0.00     0.171 C 
ATOM     22  C   UNK d   1       8.663   5.076 -11.911  0.00  0.00     0.034 C 
ENDBRANCH  20  21
ENDBRANCH  17  20
ENDBRANCH   2  14
BRANCH   1  23
ATOM     23  C   UNK d   1       1.828  10.905 -13.019  0.00  0.00     0.146 A 
ATOM     24  C   UNK d   1       2.434  12.052 -12.511  0.00  0.00     0.039 A 
ATOM     25  C   UNK d   1       1.815  13.293 -12.547  0.00  0.00     0.021 A 
ATOM     26  C   UNK d   1       0.560  13.439 -13.094  0.00  0.00     0.011 A 
ATOM     27 Br   UNK d   1      -0.304  15.148 -13.171  0.00  0.00    -0.051 Br
ATOM     28  C   UNK d   1      -0.058  12.336 -13.597  0.00  0.00     0.021 A 
ATOM     29  C   UNK d   1       0.587  11.103 -13.548  0.00  0.00     0.039 A 
ENDBRANCH   1  23
TORSDOF 5
ENDMDL
