MODEL 1
REMARK VINA RESULT:    -5.497      0.000      0.000
REMARK INTER + INTRA:          -5.788
REMARK INTER:                  -6.622
REMARK INTRA:                   0.834
REMARK UNBOUND:                 0.834
REMARK  4 active torsions:
REMARK  status: ('A' for Active; 'I' for Inactive)
REMARK    1  A    between atoms: C_11  and  N_14 
REMARK    2  A    between atoms: C_11  and  C_20 
REMARK    3  A    between atoms: C_12  and  O_13 
REMARK    4  A    between atoms: C_20  and  N_21 
ROOT
ATOM      1 Br   UNK d   1       1.667  15.990 -11.675  0.00  0.00    -0.051 Br
ATOM      2  C   UNK d   1       1.137  14.320 -12.449  0.00  0.00     0.017 A 
ATOM      3  C   UNK d   1       1.913  13.185 -12.323  0.00  0.00     0.032 A 
ATOM      4  C   UNK d   1       1.528  11.987 -12.882  0.00  0.00     0.008 A 
ATOM      5  C   UNK d   1       0.333  11.978 -13.571  0.00  0.00     0.078 A 
ATOM      6  C   UNK d   1      -0.448  13.109 -13.700  0.00  0.00     0.045 A 
ATOM      7  C   UNK d   1      -0.058  14.306 -13.139  0.00  0.00    -0.042 A 
ATOM      8  C   UNK d   1      -0.909  15.522 -13.285  0.00  0.00     0.049 C 
ATOM      9  O   UNK d   1      -0.035  10.754 -14.127  0.00  0.00    -0.348 OA
ATOM     10  C   UNK d   1       0.830   9.682 -14.294  0.00  0.00     0.219 C 
ATOM     11  C   UNK d   1       1.899   9.549 -13.262  0.00  0.00     0.202 C 
ATOM     12  C   UNK d   1       2.410  10.830 -12.703  0.00  0.00     0.194 C 
ENDROOT
BRANCH  11  13
ATOM     13  N   UNK d   1       3.027   8.910 -13.948  0.00  0.00    -0.052 N 
ATOM     14  C   UNK d   1       3.548   7.786 -13.249  0.00  0.00     0.262 C 
ATOM     15  C   UNK d   1       4.435   7.031 -14.251  0.00  0.00     0.195 C 
ATOM     16  O   UNK d   1       5.480   7.884 -14.563  0.00  0.00    -0.388 OA
ATOM     17  C   UNK d   1       5.064   9.072 -15.153  0.00  0.00     0.195 C 
ATOM     18  C   UNK d   1       4.088   9.825 -14.237  0.00  0.00     0.262 C 
ATOM     19  H   UNK d   1       2.640   8.577 -14.860  0.00  0.00     0.281 HD
ENDBRANCH  11  13
BRANCH  11  20
ATOM     20  C   UNK d   1       1.507   8.621 -12.130  0.00  0.00     0.279 C 
BRANCH  20  21
ATOM     21  N   UNK d   1       0.170   8.121 -12.228  0.00  0.00    -0.065 N 
ATOM     22  C   UNK d   1      -0.159   7.655 -13.563  0.00  0.00     0.261 C 
ATOM     23  C   UNK d   1      -0.891   6.322 -13.532  0.00  0.00     0.195 C 
ATOM     24  O   UNK d   1      -0.113   5.306 -13.002  0.00  0.00    -0.388 OA
ATOM     25  C   UNK d   1       0.719   5.780 -11.992  0.00  0.00     0.195 C 
ATOM     26  C   UNK d   1       0.005   6.951 -11.349  0.00  0.00     0.261 C 
ATOM     27  H   UNK d   1      -0.572   8.780 -11.948  0.00  0.00     0.280 HD
ENDBRANCH  20  21
ENDBRANCH  11  20
BRANCH  12  28
ATOM     28  O   UNK d   1       2.650  10.713 -11.312  0.00  0.00    -0.388 OA
ATOM     29  H   UNK d   1       1.835  10.501 -10.812  0.00  0.00     0.210 HD
ENDBRANCH  12  28
TORSDOF 4
ENDMDL
