/Users/jonathanwahrer/Desktop/Msc/3_Semester/Drug_Design_Praktikum/waehrer_HTS_screening/HTS_experiment/out/docking_results/vina_output/6q9y/0862_docked.pdbqt
 OpenBabel03222219423D

 30 33  0  0  0  0  0  0  0  0999 V2000
    4.0700    9.4640  -14.9310 Br  0  0  0  0  0  0  0  0  0  0  0  0
    2.7790   10.5280  -14.0570 C   0  0  0  0  0  0  0  0  0  0  0  0
    1.4740   10.1020  -14.0800 C   0  0  0  0  0  0  0  0  0  0  0  0
    0.4260   10.8080  -13.4640 C   0  0  0  0  0  0  0  0  0  0  0  0
    0.7260   12.0020  -12.7970 C   0  0  0  0  0  3  0  0  0  0  0  0
    2.0390   12.4170  -12.7830 C   0  0  0  0  0  0  0  0  0  0  0  0
    3.0550   11.7060  -13.3960 C   0  0  0  0  0  0  0  0  0  0  0  0
    4.4790   12.1860  -13.3630 C   0  0  0  0  0  1  0  0  0  0  0  0
    2.4460   14.0410  -11.8730 Br  0  0  0  0  0  0  0  0  0  0  0  0
   -0.9360   10.3130  -13.5270 C   0  0  0  0  0  0  0  0  0  0  0  0
   -1.8440   11.1810  -13.5400 O   0  0  0  0  0  0  0  0  0  0  0  0
   -1.1230    8.8500  -13.5710 C   0  0  0  0  0  0  0  0  0  0  0  0
   -0.2420    8.5080  -14.8560 C   0  0  0  0  0  2  0  0  0  0  0  0
    1.0620    8.9410  -14.7080 O   0  0  0  0  0  0  0  0  0  0  0  0
   -2.4540    8.3620  -13.8730 C   0  0  0  0  0  2  0  0  0  0  0  0
   -3.5320    9.0480  -14.4070 N   0  0  0  0  0  4  0  0  0  0  0  0
   -4.5940    9.5430  -13.6220 C   0  0  0  0  0  2  0  0  0  0  0  0
   -5.9170    9.6400  -14.3720 C   0  0  0  0  0  2  0  0  0  0  0  0
   -6.4380    8.2930  -14.7580 C   0  0  0  0  0  2  0  0  0  0  0  0
   -5.2690    7.4090  -15.0680 C   0  0  0  0  0  2  0  0  0  0  0  0
   -4.1150    8.2480  -15.5070 C   0  0  0  0  0  2  0  0  0  0  0  0
   -3.1930    9.9180  -14.9980 H   0  0  0  0  0  0  0  0  0  0  0  0
   -0.4570    8.2200  -12.4070 C   0  0  0  0  0  2  0  0  0  0  0  0
    0.4810    7.1930  -12.5810 N   0  0  0  0  0  4  0  0  0  0  0  0
    1.4900    7.3080  -11.5190 C   0  0  0  0  0  2  0  0  0  0  0  0
    2.6990    6.4350  -11.7860 C   0  0  0  0  0  2  0  0  0  0  0  0
    2.1870    4.9880  -11.7180 C   0  0  0  0  0  2  0  0  0  0  0  0
    1.1640    4.9030  -12.8270 C   0  0  0  0  0  2  0  0  0  0  0  0
   -0.0050    5.8290  -12.4500 C   0  0  0  0  0  2  0  0  0  0  0  0
    1.0490    7.1820  -13.4530 H   0  0  0  0  0  0  0  0  0  0  0  0
  1  2  1  0  0  0  0
  2  7  1  0  0  0  0
  3  2  2  0  0  0  0
  3  4  1  0  0  0  0
  4  5  2  0  0  0  0
  5  6  1  0  0  0  0
  6  9  1  0  0  0  0
  7  8  1  0  0  0  0
  7  6  2  0  0  0  0
 10  4  1  0  0  0  0
 11 10  2  0  0  0  0
 12 10  1  0  0  0  0
 12 23  1  0  0  0  0
 13 14  1  0  0  0  0
 13 12  1  0  0  0  0
 14  3  1  0  0  0  0
 15 12  1  0  0  0  0
 16 15  1  0  0  0  0
 16 17  1  0  0  0  0
 18 17  1  0  0  0  0
 19 18  1  0  0  0  0
 20 19  1  0  0  0  0
 21 20  1  0  0  0  0
 21 16  1  0  0  0  0
 22 16  1  0  0  0  0
 24 29  1  0  0  0  0
 24 23  1  0  0  0  0
 24 25  1  0  0  0  0
 26 27  1  0  0  0  0
 26 25  1  0  0  0  0
 28 29  1  0  0  0  0
 28 27  1  0  0  0  0
 30 24  1  0  0  0  0
M  END
>  <Pose>
1

>  <Score>
-6.274

$$$$
