MODEL 1
REMARK VINA RESULT:    -6.274      0.000      0.000
REMARK INTER + INTRA:          -9.013
REMARK INTER:                  -7.742
REMARK INTRA:                  -1.271
REMARK UNBOUND:                -1.271
REMARK  4 active torsions:
REMARK  status: ('A' for Active; 'I' for Inactive)
REMARK    1  A    between atoms: C_12  and  C_15 
REMARK    2  A    between atoms: C_12  and  C_22 
REMARK    3  A    between atoms: C_15  and  N_16 
REMARK    4  A    between atoms: C_22  and  N_23 
ROOT
ATOM      1 Br   UNK d   1       4.070   9.464 -14.931  0.00  0.00    -0.048 Br
ATOM      2  C   UNK d   1       2.779  10.528 -14.057  0.00  0.00     0.052 A 
ATOM      3  C   UNK d   1       1.474  10.102 -14.080  0.00  0.00     0.100 A 
ATOM      4  C   UNK d   1       0.426  10.808 -13.464  0.00  0.00     0.047 A 
ATOM      5  C   UNK d   1       0.726  12.002 -12.797  0.00  0.00     0.038 A 
ATOM      6  C   UNK d   1       2.039  12.417 -12.783  0.00  0.00     0.019 A 
ATOM      7  C   UNK d   1       3.055  11.706 -13.396  0.00  0.00    -0.024 A 
ATOM      8  C   UNK d   1       4.479  12.186 -13.363  0.00  0.00     0.051 C 
ATOM      9 Br   UNK d   1       2.446  14.041 -11.873  0.00  0.00    -0.051 Br
ATOM     10  C   UNK d   1      -0.936  10.313 -13.527  0.00  0.00     0.176 C 
ATOM     11  O   UNK d   1      -1.844  11.181 -13.540  0.00  0.00    -0.291 OA
ATOM     12  C   UNK d   1      -1.123   8.850 -13.571  0.00  0.00     0.095 C 
ATOM     13  C   UNK d   1      -0.242   8.508 -14.856  0.00  0.00     0.197 C 
ATOM     14  O   UNK d   1       1.062   8.941 -14.708  0.00  0.00    -0.347 OA
ENDROOT
BRANCH  12  15
ATOM     15  C   UNK d   1      -2.454   8.362 -13.873  0.00  0.00     0.256 C 
BRANCH  15  16
ATOM     16  N   UNK d   1      -3.532   9.048 -14.407  0.00  0.00    -0.070 N 
ATOM     17  C   UNK d   1      -4.594   9.543 -13.622  0.00  0.00     0.235 C 
ATOM     18  C   UNK d   1      -5.917   9.640 -14.372  0.00  0.00     0.028 C 
ATOM     19  C   UNK d   1      -6.438   8.293 -14.758  0.00  0.00     0.003 C 
ATOM     20  C   UNK d   1      -5.269   7.409 -15.068  0.00  0.00     0.028 C 
ATOM     21  C   UNK d   1      -4.115   8.248 -15.507  0.00  0.00     0.235 C 
ATOM     22  H   UNK d   1      -3.193   9.918 -14.998  0.00  0.00     0.279 HD
ENDBRANCH  15  16
ENDBRANCH  12  15
BRANCH  12  23
ATOM     23  C   UNK d   1      -0.457   8.220 -12.407  0.00  0.00     0.256 C 
BRANCH  23  24
ATOM     24  N   UNK d   1       0.481   7.193 -12.581  0.00  0.00    -0.070 N 
ATOM     25  C   UNK d   1       1.490   7.308 -11.519  0.00  0.00     0.235 C 
ATOM     26  C   UNK d   1       2.699   6.435 -11.786  0.00  0.00     0.028 C 
ATOM     27  C   UNK d   1       2.187   4.988 -11.718  0.00  0.00     0.003 C 
ATOM     28  C   UNK d   1       1.164   4.903 -12.827  0.00  0.00     0.028 C 
ATOM     29  C   UNK d   1      -0.005   5.829 -12.450  0.00  0.00     0.235 C 
ATOM     30  H   UNK d   1       1.049   7.182 -13.453  0.00  0.00     0.279 HD
ENDBRANCH  23  24
ENDBRANCH  12  23
TORSDOF 4
ENDMDL
