MODEL 1
REMARK VINA RESULT:    -9.057      0.000      0.000
REMARK INTER + INTRA:         -12.449
REMARK INTER:                 -11.704
REMARK INTRA:                  -0.745
REMARK UNBOUND:                -0.745
REMARK  5 active torsions:
REMARK  status: ('A' for Active; 'I' for Inactive)
REMARK    1  A    between atoms: C_5  and  C_8 
REMARK    2  A    between atoms: N_9  and  N_10 
REMARK    3  A    between atoms: N_10  and  C_11 
REMARK    4  A    between atoms: C_13  and  N_23 
REMARK    5  A    between atoms: C_15  and  N_17 
ROOT
ATOM      1  C   UNK d   1      -2.435   9.017 -13.925  0.00  0.00     0.774 A 
ATOM      2  N   UNK d   1      -1.503   8.047 -13.802  0.00  0.00     0.133 NA
ATOM      3  C   UNK d   1      -0.201   8.309 -13.529  0.00  0.00     0.756 A 
ATOM      4  N   UNK d   1       0.130   9.594 -13.386  0.00  0.00     0.131 NA
ATOM      5  C   UNK d   1      -0.742  10.611 -13.495  0.00  0.00     0.756 A 
ATOM      6  N   UNK d   1      -2.019  10.286 -13.766  0.00  0.00     0.133 NA
ENDROOT
BRANCH   1   7
ATOM      7  N   UNK d   1      -3.776   8.672 -14.210  0.00  0.00    -0.105 N 
ATOM      8  H   UNK d   1      -4.016   7.683 -14.389  0.00  0.00     0.208 HD
BRANCH   7   9
ATOM      9  N   UNK d   1      -4.765   9.644 -14.254  0.00  0.00    -0.172 NA
ATOM     10  C   UNK d   1      -6.021   9.384 -14.330  0.00  0.00     0.150 C 
BRANCH  10  11
ATOM     11  C   UNK d   1      -7.003  10.460 -14.371  0.00  0.00    -0.016 A 
ATOM     12  C   UNK d   1      -7.889  10.610 -15.424  0.00  0.00     0.035 A 
ATOM     13  C   UNK d   1      -8.817  11.630 -15.459  0.00  0.00     0.050 A 
ATOM     14  C   UNK d   1      -8.896  12.549 -14.433  0.00  0.00     0.133 A 
ATOM     15 Br   UNK d   1     -10.027  11.812 -16.925  0.00  0.00    -0.048 Br
ATOM     16  F   UNK d   1      -9.805  13.563 -14.446  0.00  0.00    -0.205 F 
ATOM     17  C   UNK d   1      -8.022  12.411 -13.380  0.00  0.00     0.044 A 
ATOM     18  C   UNK d   1      -7.089  11.383 -13.350  0.00  0.00     0.016 A 
ENDBRANCH  10  11
ENDBRANCH   7   9
ENDBRANCH   1   7
BRANCH   3  19
ATOM     19  N   UNK d   1       0.739   7.247 -13.409  0.00  0.00    -0.209 N 
ATOM     20  C   UNK d   1       0.378   5.851 -13.323  0.00  0.00     0.167 C 
ATOM     21  C   UNK d   1       1.073   5.370 -12.050  0.00  0.00     0.188 C 
ATOM     22  O   UNK d   1       2.405   5.389 -12.243  0.00  0.00    -0.388 OA
ATOM     23  C   UNK d   1       2.992   6.456 -12.800  0.00  0.00     0.188 C 
ATOM     24  C   UNK d   1       2.154   7.533 -13.366  0.00  0.00     0.167 C 
ENDBRANCH   3  19
BRANCH   5  25
ATOM     25  N   UNK d   1      -0.316  11.957 -13.330  0.00  0.00    -0.209 N 
ATOM     26  C   UNK d   1      -1.270  12.941 -12.856  0.00  0.00     0.167 C 
ATOM     27  C   UNK d   1      -0.607  14.299 -12.800  0.00  0.00     0.188 C 
ATOM     28  O   UNK d   1       0.602  14.311 -12.165  0.00  0.00    -0.388 OA
ATOM     29  C   UNK d   1       1.447  13.266 -12.425  0.00  0.00     0.188 C 
ATOM     30  C   UNK d   1       1.014  12.413 -13.606  0.00  0.00     0.167 C 
ENDBRANCH   5  25
TORSDOF 5
ENDMDL
