MODEL 1
REMARK VINA RESULT:   -11.460      0.000      0.000
REMARK INTER + INTRA:         -14.013
REMARK INTER:                 -14.139
REMARK INTRA:                   0.126
REMARK UNBOUND:                 0.126
REMARK  4 active torsions:
REMARK  status: ('A' for Active; 'I' for Inactive)
REMARK    1  A    between atoms: C_3  and  N_9 
REMARK       I    between atoms: N_9  and  C_10 
REMARK    2  A    between atoms: C_10  and  C_12 
REMARK    3  A    between atoms: C_12  and  N_13 
REMARK    4  A    between atoms: N_20  and  C_23 
ROOT
ATOM      1  N   UNK d   1      -0.330  16.637 -12.536  0.00  0.00    -0.261 N 
ATOM      2  N   UNK d   1      -0.426  16.202 -13.780  0.00  0.00    -0.239 N 
ATOM      3  N   UNK d   1      -1.515  16.761 -14.276  0.00  0.00    -0.279 N 
ATOM      4  C   UNK d   1      -2.117  17.550 -13.362  0.00  0.00     0.152 A 
ATOM      5  C   UNK d   1      -1.354  17.463 -12.260  0.00  0.00     0.155 A 
ATOM      6  C   UNK d   1      -1.980  18.270 -11.339  0.00  0.00     0.286 A 
ATOM      7  O   UNK d   1      -1.574  18.461 -10.162  0.00  0.00    -0.265 OA
ATOM      8  N   UNK d   1      -3.092  18.840 -11.846  0.00  0.00    -0.241 N 
ATOM      9  C   UNK d   1      -3.184  18.394 -13.110  0.00  0.00     0.286 A 
ATOM     10  O   UNK d   1      -4.094  18.701 -13.923  0.00  0.00    -0.265 OA
ATOM     11  H   UNK d   1       0.228  15.540 -14.289  0.00  0.00     0.208 HD
ATOM     12  H   UNK d   1      -1.840  16.589 -15.264  0.00  0.00     0.189 HD
ENDROOT
BRANCH   1  13
ATOM     13  C   UNK d   1       0.742  16.258 -11.642  0.00  0.00     0.254 C 
BRANCH  13  14
ATOM     14  C   UNK d   1       1.568  15.168 -12.296  0.00  0.00     0.242 C 
ATOM     15  N   UNK d   1       1.270  13.835 -12.028  0.00  0.00    -0.323 N 
ATOM     16  H   UNK d   1       0.446  13.666 -11.355  0.00  0.00     0.169 HD
ATOM     17  O   UNK d   1       2.479  15.537 -13.044  0.00  0.00    -0.271 OA
BRANCH  15  18
ATOM     18  C   UNK d   1       1.953  12.731 -12.562  0.00  0.00     0.073 A 
ATOM     19  C   UNK d   1       3.243  12.448 -12.086  0.00  0.00     0.145 A 
ATOM     20  F   UNK d   1       3.755  13.268 -11.127  0.00  0.00    -0.204 F 
ATOM     21  C   UNK d   1       3.944  11.379 -12.581  0.00  0.00     0.086 A 
ATOM     22  C   UNK d   1       3.400  10.565 -13.553  0.00  0.00     0.119 A 
ATOM     23  C   UNK d   1       2.139  10.808 -14.046  0.00  0.00     0.044 A 
ATOM     24  F   UNK d   1       4.125   9.520 -14.016  0.00  0.00    -0.206 F 
ATOM     25  C   UNK d   1       1.437  11.914 -13.520  0.00  0.00     0.036 A 
ENDBRANCH  15  18
ENDBRANCH  13  14
ENDBRANCH   1  13
BRANCH   8  26
ATOM     26  C   UNK d   1      -3.970  19.735 -11.143  0.00  0.00     0.046 A 
ATOM     27  C   UNK d   1      -5.268  19.934 -11.573  0.00  0.00     0.031 A 
ATOM     28  C   UNK d   1      -6.144  20.783 -10.930  0.00  0.00     0.021 A 
ATOM     29  C   UNK d   1      -5.674  21.447  -9.814  0.00  0.00     0.011 A 
ATOM     30  C   UNK d   1      -4.384  21.287  -9.336  0.00  0.00     0.021 A 
ATOM     31 Br   UNK d   1      -6.913  22.623  -8.935  0.00  0.00    -0.051 Br
ATOM     32  C   UNK d   1      -3.558  20.423 -10.027  0.00  0.00     0.031 A 
ENDBRANCH   8  26
TORSDOF 4
ENDMDL
