/Users/jonathanwahrer/Desktop/Msc/3_Semester/Drug_Design_Praktikum/waehrer_HTS_screening/HTS_experiment/out/docking_results/vina_output/6q9y/0873_docked.pdbqt
 OpenBabel03222219433D

 32 35  0  0  1  0  0  0  0  0999 V2000
    2.9260    9.3370  -12.5370 C   0  0  2  0  0  3  0  0  0  0  0  0
    3.7520    8.7560  -13.5840 N   0  0  0  0  0  0  0  0  0  0  0  0
    3.1150    9.2720  -14.7710 C   0  0  0  0  0  0  0  0  0  0  0  0
    3.6360    9.5570  -15.8820 O   0  0  0  0  0  0  0  0  0  0  0  0
    1.6600    9.4370  -14.4970 C   0  0  0  0  0  0  0  0  0  0  0  0
    0.7260    9.8360  -15.1900 O   0  0  0  0  0  0  0  0  0  0  0  0
    1.5610    8.9750  -13.0810 C   0  0  0  0  0  0  0  0  0  0  0  0
    0.5270    8.4120  -12.5060 C   0  0  0  0  0  0  0  0  0  0  0  0
    0.6100    8.0480  -11.1460 O   0  0  0  0  0  1  0  0  0  0  0  0
    4.8740    7.9200  -13.6000 C   0  0  0  0  0  2  0  0  0  0  0  0
    4.7150    6.4420  -13.5900 C   0  0  0  0  0  2  0  0  0  0  0  0
    5.9520    5.7150  -13.6030 N   0  0  0  0  0  4  0  0  0  0  0  0
    5.6880    4.3330  -13.2590 C   0  0  0  0  0  2  0  0  0  0  0  0
    6.9510    3.4990  -13.3760 C   0  0  0  0  0  2  0  0  0  0  0  0
    7.9100    4.0120  -12.5240 O   0  0  0  0  0  0  0  0  0  0  0  0
    8.1510    5.3530  -12.8110 C   0  0  0  0  0  2  0  0  0  0  0  0
    6.8840    6.1810  -12.5560 C   0  0  0  0  0  2  0  0  0  0  0  0
    6.5050    5.8280  -14.4780 H   0  0  0  0  0  0  0  0  0  0  0  0
    3.0020   10.8040  -12.4360 C   0  0  0  0  0  0  0  0  0  0  0  0
    4.1690   11.4780  -12.1430 C   0  0  0  0  0  0  0  0  0  0  0  0
    5.3170   10.8450  -11.9590 F   0  0  0  0  0  0  0  0  0  0  0  0
    4.1940   12.8710  -12.0270 C   0  0  0  0  0  3  0  0  0  0  0  0
    3.0710   13.6120  -12.1990 C   0  0  0  0  0  3  0  0  0  0  0  0
    1.8960   12.9800  -12.4900 C   0  0  0  0  0  3  0  0  0  0  0  0
    1.8940   11.5980  -12.5990 C   0  0  0  0  0  3  0  0  0  0  0  0
   -0.7080    8.1480  -13.2300 C   0  0  0  0  0  0  0  0  0  0  0  0
   -1.6970    9.1060  -13.2360 C   0  0  0  0  0  3  0  0  0  0  0  0
   -2.9070    8.9100  -13.8820 C   0  0  0  0  0  3  0  0  0  0  0  0
   -3.1450    7.7250  -14.5440 C   0  0  0  0  0  0  0  0  0  0  0  0
   -2.1820    6.7630  -14.5490 C   0  0  0  0  0  3  0  0  0  0  0  0
   -4.8200    7.4230  -15.4510 Br  0  0  0  0  0  0  0  0  0  0  0  0
   -0.9580    6.9740  -13.8900 C   0  0  0  0  0  3  0  0  0  0  0  0
  1 19  1  6  0  0  0
  2  1  1  0  0  0  0
  3  5  1  0  0  0  0
  3  2  1  0  0  0  0
  4  3  2  0  0  0  0
  5  7  1  0  0  0  0
  6  5  2  0  0  0  0
  7  1  1  0  0  0  0
  7  8  2  0  0  0  0
  8  9  1  0  0  0  0
 10 11  1  0  0  0  0
 10  2  1  0  0  0  0
 12 11  1  0  0  0  0
 12 13  1  0  0  0  0
 12 17  1  0  0  0  0
 14 13  1  0  0  0  0
 14 15  1  0  0  0  0
 16 17  1  0  0  0  0
 16 15  1  0  0  0  0
 18 12  1  0  0  0  0
 19 20  1  0  0  0  0
 20 22  2  0  0  0  0
 20 21  1  0  0  0  0
 23 22  1  0  0  0  0
 24 23  2  0  0  0  0
 25 24  1  0  0  0  0
 25 19  2  0  0  0  0
 26  8  1  0  0  0  0
 27 26  1  0  0  0  0
 28 27  2  0  0  0  0
 29 28  1  0  0  0  0
 30 29  2  0  0  0  0
 30 32  1  0  0  0  0
 31 29  1  0  0  0  0
 32 26  2  0  0  0  0
M  END
>  <Pose>
1

>  <Score>
-7.652

$$$$
