MODEL 1
REMARK VINA RESULT:    -7.652      0.000      0.000
REMARK INTER + INTRA:         -10.178
REMARK INTER:                  -9.888
REMARK INTRA:                  -0.290
REMARK UNBOUND:                -0.290
REMARK  5 active torsions:
REMARK  status: ('A' for Active; 'I' for Inactive)
REMARK    1  A    between atoms: C_3  and  C_8 
REMARK    2  A    between atoms: N_9  and  C_24 
REMARK    3  A    between atoms: C_15  and  C_17 
REMARK    4  A    between atoms: C_24  and  C_25 
REMARK    5  A    between atoms: C_25  and  N_26 
ROOT
ATOM      1  C   UNK d   1       2.926   9.337 -12.537  0.00  0.00     0.164 C 
ATOM      2  N   UNK d   1       3.752   8.756 -13.584  0.00  0.00    -0.330 N 
ATOM      3  C   UNK d   1       3.115   9.272 -14.771  0.00  0.00     0.295 C 
ATOM      4  O   UNK d   1       3.636   9.557 -15.882  0.00  0.00    -0.264 OA
ATOM      5  C   UNK d   1       1.660   9.437 -14.497  0.00  0.00     0.250 C 
ATOM      6  O   UNK d   1       0.726   9.836 -15.190  0.00  0.00    -0.282 OA
ATOM      7  C   UNK d   1       1.561   8.975 -13.081  0.00  0.00     0.062 C 
ATOM      8  C   UNK d   1       0.527   8.412 -12.506  0.00  0.00     0.130 C 
ATOM      9  O   UNK d   1       0.610   8.048 -11.146  0.00  0.00    -0.190 OA
ENDROOT
BRANCH   2  10
ATOM     10  C   UNK d   1       4.874   7.920 -13.600  0.00  0.00     0.155 C 
BRANCH  10  11
ATOM     11  C   UNK d   1       4.715   6.442 -13.590  0.00  0.00     0.255 C 
BRANCH  11  12
ATOM     12  N   UNK d   1       5.952   5.715 -13.603  0.00  0.00    -0.066 N 
ATOM     13  C   UNK d   1       5.688   4.333 -13.259  0.00  0.00     0.261 C 
ATOM     14  C   UNK d   1       6.951   3.499 -13.376  0.00  0.00     0.195 C 
ATOM     15  O   UNK d   1       7.910   4.012 -12.524  0.00  0.00    -0.388 OA
ATOM     16  C   UNK d   1       8.151   5.353 -12.811  0.00  0.00     0.195 C 
ATOM     17  C   UNK d   1       6.884   6.181 -12.556  0.00  0.00     0.261 C 
ATOM     18  H   UNK d   1       6.505   5.828 -14.478  0.00  0.00     0.280 HD
ENDBRANCH  11  12
ENDBRANCH  10  11
ENDBRANCH   2  10
BRANCH   1  19
ATOM     19  C   UNK d   1       3.002  10.804 -12.436  0.00  0.00     0.008 A 
ATOM     20  C   UNK d   1       4.169  11.478 -12.143  0.00  0.00     0.125 A 
ATOM     21  F   UNK d   1       5.317  10.845 -11.959  0.00  0.00    -0.205 F 
ATOM     22  C   UNK d   1       4.194  12.871 -12.027  0.00  0.00     0.043 A 
ATOM     23  C   UNK d   1       3.071  13.612 -12.199  0.00  0.00     0.003 A 
ATOM     24  C   UNK d   1       1.896  12.980 -12.490  0.00  0.00     0.001 A 
ATOM     25  C   UNK d   1       1.894  11.598 -12.599  0.00  0.00     0.012 A 
ENDBRANCH   1  19
BRANCH   8  26
ATOM     26  C   UNK d   1      -0.708   8.148 -13.230  0.00  0.00     0.001 A 
ATOM     27  C   UNK d   1      -1.697   9.106 -13.236  0.00  0.00     0.015 A 
ATOM     28  C   UNK d   1      -2.907   8.910 -13.882  0.00  0.00     0.020 A 
ATOM     29  C   UNK d   1      -3.145   7.725 -14.544  0.00  0.00     0.011 A 
ATOM     30  C   UNK d   1      -2.182   6.763 -14.549  0.00  0.00     0.020 A 
ATOM     31 Br   UNK d   1      -4.820   7.423 -15.451  0.00  0.00    -0.051 Br
ATOM     32  C   UNK d   1      -0.958   6.974 -13.890  0.00  0.00     0.015 A 
ENDBRANCH   8  26
TORSDOF 5
ENDMDL
