MODEL 1
REMARK VINA RESULT:    -9.827      0.000      0.000
REMARK INTER + INTRA:         -12.718
REMARK INTER:                 -12.125
REMARK INTRA:                  -0.593
REMARK UNBOUND:                -0.593
REMARK  4 active torsions:
REMARK  status: ('A' for Active; 'I' for Inactive)
REMARK    1  A    between atoms: C_3  and  N_8 
REMARK       I    between atoms: N_8  and  C_9 
REMARK    2  A    between atoms: C_9  and  C_11 
REMARK    3  A    between atoms: C_11  and  N_12 
REMARK    4  A    between atoms: N_19  and  C_22 
ROOT
ATOM      1  N   UNK d   1      -5.273   9.137 -14.405  0.00  0.00    -0.261 N 
ATOM      2  N   UNK d   1      -6.031   8.325 -15.110  0.00  0.00    -0.239 N 
ATOM      3  N   UNK d   1      -5.339   7.260 -15.486  0.00  0.00    -0.279 N 
ATOM      4  C   UNK d   1      -4.082   7.386 -15.006  0.00  0.00     0.152 A 
ATOM      5  C   UNK d   1      -4.057   8.529 -14.352  0.00  0.00     0.155 A 
ATOM      6  C   UNK d   1      -2.769   8.660 -13.859  0.00  0.00     0.286 A 
ATOM      7  O   UNK d   1      -2.371   9.632 -13.180  0.00  0.00    -0.265 OA
ATOM      8  N   UNK d   1      -2.010   7.605 -14.208  0.00  0.00    -0.241 N 
ATOM      9  C   UNK d   1      -2.828   6.811 -14.922  0.00  0.00     0.286 A 
ATOM     10  O   UNK d   1      -2.514   5.716 -15.439  0.00  0.00    -0.265 OA
ATOM     11  H   UNK d   1      -7.042   8.523 -15.327  0.00  0.00     0.208 HD
ATOM     12  H   UNK d   1      -5.700   6.457 -16.057  0.00  0.00     0.189 HD
ENDROOT
BRANCH   1  13
ATOM     13  C   UNK d   1      -5.621  10.409 -13.800  0.00  0.00     0.254 C 
BRANCH  13  14
ATOM     14  C   UNK d   1      -7.025  10.762 -14.151  0.00  0.00     0.242 C 
ATOM     15  N   UNK d   1      -7.350  11.282 -15.400  0.00  0.00    -0.323 N 
ATOM     16  H   UNK d   1      -6.526  11.407 -16.077  0.00  0.00     0.169 HD
ATOM     17  O   UNK d   1      -7.876  10.564 -13.269  0.00  0.00    -0.271 OA
BRANCH  15  18
ATOM     18  C   UNK d   1      -8.633  11.665 -15.883  0.00  0.00     0.073 A 
ATOM     19  C   UNK d   1      -9.265  12.796 -15.341  0.00  0.00     0.143 A 
ATOM     20  F   UNK d   1      -8.615  13.490 -14.363  0.00  0.00    -0.204 F 
ATOM     21  C   UNK d   1     -10.501  13.217 -15.762  0.00  0.00     0.044 A 
ATOM     22  C   UNK d   1     -11.183  12.539 -16.745  0.00  0.00     0.003 A 
ATOM     23  C   UNK d   1     -10.573  11.440 -17.275  0.00  0.00     0.002 A 
ATOM     24  C   UNK d   1      -9.326  11.001 -16.863  0.00  0.00     0.033 A 
ENDBRANCH  15  18
ENDBRANCH  13  14
ENDBRANCH   1  13
BRANCH   8  25
ATOM     25  C   UNK d   1      -0.637   7.395 -13.879  0.00  0.00     0.046 A 
ATOM     26  C   UNK d   1      -0.256   6.399 -13.001  0.00  0.00     0.031 A 
ATOM     27  C   UNK d   1       1.067   6.182 -12.673  0.00  0.00     0.021 A 
ATOM     28  C   UNK d   1       2.071   6.960 -13.212  0.00  0.00     0.011 A 
ATOM     29  C   UNK d   1       1.713   7.961 -14.091  0.00  0.00     0.021 A 
ATOM     30 Br   UNK d   1       3.912   6.682 -12.776  0.00  0.00    -0.051 Br
ATOM     31  C   UNK d   1       0.384   8.162 -14.406  0.00  0.00     0.031 A 
ENDBRANCH   8  25
TORSDOF 4
ENDMDL
