MODEL 1
REMARK VINA RESULT:   -10.386      0.000      0.000
REMARK INTER + INTRA:         -12.853
REMARK INTER:                 -12.815
REMARK INTRA:                  -0.038
REMARK UNBOUND:                -0.038
REMARK  4 active torsions:
REMARK  status: ('A' for Active; 'I' for Inactive)
REMARK    1  A    between atoms: C_5  and  N_8 
REMARK    2  A    between atoms: N_15  and  C_16 
REMARK    3  A    between atoms: C_16  and  C_17 
REMARK       I    between atoms: C_17  and  N_19 
REMARK    4  A    between atoms: N_19  and  C_20 
ROOT
ATOM      1  N   UNK d   1       1.042  11.690 -13.174  0.00  0.00    -0.241 N 
ATOM      2  C   UNK d   1       0.289  12.764 -13.469  0.00  0.00     0.286 A 
ATOM      3  O   UNK d   1      -0.766  12.660 -14.152  0.00  0.00    -0.265 OA
ATOM      4  C   UNK d   1       0.812  13.930 -12.943  0.00  0.00     0.155 A 
ATOM      5  C   UNK d   1       1.918  13.550 -12.309  0.00  0.00     0.152 A 
ATOM      6  N   UNK d   1       2.462  14.652 -11.785  0.00  0.00    -0.279 N 
ATOM      7  N   UNK d   1       1.699  15.683 -12.096  0.00  0.00    -0.239 N 
ATOM      8  N   UNK d   1       0.661  15.271 -12.818  0.00  0.00    -0.261 N 
ATOM      9  C   UNK d   1       2.071  12.186 -12.441  0.00  0.00     0.286 A 
ATOM     10  O   UNK d   1       2.986  11.441 -11.989  0.00  0.00    -0.265 OA
ATOM     11  H   UNK d   1       3.356  14.654 -11.221  0.00  0.00     0.189 HD
ATOM     12  H   UNK d   1       1.863  16.665 -11.831  0.00  0.00     0.208 HD
ENDROOT
BRANCH   8  13
ATOM     13  C   UNK d   1      -0.421  16.034 -13.370  0.00  0.00     0.254 C 
BRANCH  13  14
ATOM     14  C   UNK d   1      -1.049  16.996 -12.457  0.00  0.00     0.242 C 
ATOM     15  O   UNK d   1      -0.423  17.304 -11.431  0.00  0.00    -0.271 OA
ATOM     16  N   UNK d   1      -2.304  17.538 -12.746  0.00  0.00    -0.326 N 
ATOM     17  H   UNK d   1      -2.791  17.225 -13.662  0.00  0.00     0.169 HD
BRANCH  16  18
ATOM     18  C   UNK d   1      -3.069  18.468 -12.003  0.00  0.00     0.034 A 
ATOM     19  C   UNK d   1      -2.667  18.922 -10.769  0.00  0.00     0.031 A 
ATOM     20  C   UNK d   1      -3.396  19.839 -10.006  0.00  0.00     0.021 A 
ATOM     21  C   UNK d   1      -4.573  20.289 -10.549  0.00  0.00     0.011 A 
ATOM     22  C   UNK d   1      -4.996  19.852 -11.779  0.00  0.00     0.021 A 
ATOM     23 Br   UNK d   1      -5.629  21.556  -9.551  0.00  0.00    -0.051 Br
ATOM     24  C   UNK d   1      -4.263  18.952 -12.508  0.00  0.00     0.031 A 
ENDBRANCH  16  18
ENDBRANCH  13  14
ENDBRANCH   8  13
BRANCH   1  25
ATOM     25  C   UNK d   1       0.833  10.328 -13.543  0.00  0.00     0.046 A 
ATOM     26  C   UNK d   1       1.699   9.597 -14.324  0.00  0.00     0.033 A 
ATOM     27  C   UNK d   1       1.441   8.266 -14.660  0.00  0.00     0.044 A 
ATOM     28  C   UNK d   1       0.305   7.651 -14.215  0.00  0.00     0.116 A 
ATOM     29  F   UNK d   1       0.061   6.349 -14.551  0.00  0.00    -0.206 F 
ATOM     30  C   UNK d   1      -0.574   8.363 -13.433  0.00  0.00     0.044 A 
ATOM     31  C   UNK d   1      -0.309   9.674 -13.107  0.00  0.00     0.033 A 
ENDBRANCH   1  25
TORSDOF 4
ENDMDL
