MODEL 1
REMARK VINA RESULT:     2.055      0.000      0.000
REMARK INTER + INTRA:           2.669
REMARK INTER:                   2.175
REMARK INTRA:                   0.493
REMARK UNBOUND:                 0.493
REMARK  1 active torsions:
REMARK  status: ('A' for Active; 'I' for Inactive)
REMARK    1  A    between atoms: C_4  and  C_9 
ROOT
ATOM      1  C   UNK d   1       6.449   7.560 -14.303  0.00  0.00     0.222 C 
ATOM      2  N   UNK d   1       7.264   6.526 -14.900  0.00  0.00    -0.358 N 
ATOM      3  C   UNK d   1       7.986   5.622 -14.058  0.00  0.00     0.088 A 
ATOM      4  S   UNK d   1       8.584   4.005 -14.284  0.00  0.00    -0.074 SA
ATOM      5  C   UNK d   1       9.301   3.759 -12.763  0.00  0.00     0.018 A 
ATOM      6  C   UNK d   1       9.060   4.925 -12.124  0.00  0.00    -0.023 A 
ATOM      7  C   UNK d   1       8.387   5.885 -12.780  0.00  0.00     0.073 A 
ATOM      8  C   UNK d   1       7.977   7.253 -12.355  0.00  0.00     0.256 C 
ATOM      9  O   UNK d   1       8.256   7.688 -11.213  0.00  0.00    -0.267 OA
ATOM     10  N   UNK d   1       7.263   8.103 -13.229  0.00  0.00    -0.331 N 
ATOM     11  C   UNK d   1       9.607   4.990 -10.703  0.00  0.00     0.068 C 
ATOM     12  C   UNK d   1      10.712   3.992 -10.581  0.00  0.00     0.239 C 
ATOM     13  N   UNK d   1      10.086   2.679 -10.805  0.00  0.00    -0.070 N 
ATOM     14  C   UNK d   1      10.018   2.570 -12.246  0.00  0.00     0.281 C 
ATOM     15  C   UNK d   1      10.861   1.619 -10.205  0.00  0.00     0.270 C 
ATOM     16  H   UNK d   1       7.361   6.399 -15.932  0.00  0.00     0.162 HD
ATOM     17  H   UNK d   1       7.305   9.148 -13.119  0.00  0.00     0.165 HD
ATOM     18  H   UNK d   1       9.108   2.710 -10.447  0.00  0.00     0.279 HD
ENDROOT
BRANCH   1  19
ATOM     19  C   UNK d   1       5.244   6.884 -13.753  0.00  0.00     0.023 A 
ATOM     20  C   UNK d   1       4.091   7.539 -13.393  0.00  0.00     0.134 A 
ATOM     21  C   UNK d   1       2.991   6.858 -12.869  0.00  0.00     0.044 A 
ATOM     22  O   UNK d   1       4.012   8.905 -13.550  0.00  0.00    -0.190 OA
ATOM     23  I   UNK d   1       1.255   7.920 -12.336  0.00  0.00    -0.042 I 
ATOM     24  C   UNK d   1       3.016   5.509 -12.695  0.00  0.00     0.040 A 
ATOM     25  C   UNK d   1       4.161   4.834 -13.050  0.00  0.00     0.013 A 
ATOM     26  C   UNK d   1       5.246   5.494 -13.564  0.00  0.00     0.033 A 
ATOM     27 Br   UNK d   1       4.201   2.946 -12.808  0.00  0.00    -0.051 Br
ENDBRANCH   1  19
TORSDOF 1
ENDMDL
