MODEL 1
REMARK VINA RESULT:    -6.537      0.000      0.000
REMARK INTER + INTRA:          -7.725
REMARK INTER:                  -7.302
REMARK INTRA:                  -0.423
REMARK UNBOUND:                -0.423
REMARK  2 active torsions:
REMARK  status: ('A' for Active; 'I' for Inactive)
REMARK    1  A    between atoms: C_4  and  O_23 
REMARK    2  A    between atoms: C_6  and  C_8 
ROOT
ATOM      1  C   UNK d   1       2.551   9.328 -14.418  0.00  0.00     0.219 C 
ATOM      2  N   UNK d   1       3.442  10.260 -13.727  0.00  0.00    -0.358 N 
ATOM      3  C   UNK d   1       3.006  11.603 -13.399  0.00  0.00     0.088 A 
ATOM      4  S   UNK d   1       3.849  13.013 -12.894  0.00  0.00    -0.074 SA
ATOM      5  C   UNK d   1       2.535  14.075 -12.753  0.00  0.00     0.018 A 
ATOM      6  C   UNK d   1       1.461  13.302 -13.104  0.00  0.00    -0.023 A 
ATOM      7  C   UNK d   1       1.714  12.018 -13.438  0.00  0.00     0.073 A 
ATOM      8  C   UNK d   1       0.727  10.980 -13.854  0.00  0.00     0.256 C 
ATOM      9  O   UNK d   1      -0.513  11.236 -13.932  0.00  0.00    -0.267 OA
ATOM     10  N   UNK d   1       1.182   9.684 -14.166  0.00  0.00    -0.332 N 
ATOM     11  C   UNK d   1       0.154  14.085 -13.040  0.00  0.00     0.068 C 
ATOM     12  C   UNK d   1       0.059  14.786 -11.711  0.00  0.00     0.239 C 
ATOM     13  N   UNK d   1       1.263  15.431 -11.306  0.00  0.00    -0.070 N 
ATOM     14  C   UNK d   1       2.247  15.508 -12.380  0.00  0.00     0.281 C 
ATOM     15  C   UNK d   1       1.881  14.586 -10.273  0.00  0.00     0.270 C 
ATOM     16  H   UNK d   1       4.405   9.994 -13.452  0.00  0.00     0.162 HD
ATOM     17  H   UNK d   1       0.478   8.902 -14.225  0.00  0.00     0.165 HD
ATOM     18  H   UNK d   1       1.114  16.390 -10.896  0.00  0.00     0.279 HD
ENDROOT
BRANCH   1  19
ATOM     19  C   UNK d   1       2.787   7.999 -13.790  0.00  0.00    -0.012 A 
ATOM     20  C   UNK d   1       1.713   7.363 -13.180  0.00  0.00     0.050 A 
ATOM     21  C   UNK d   1       1.810   6.147 -12.574  0.00  0.00     0.106 A 
ATOM     22  C   UNK d   1       3.056   5.523 -12.575  0.00  0.00     0.157 A 
ATOM     23  C   UNK d   1       4.140   6.132 -13.174  0.00  0.00     0.046 A 
ATOM     24  O   UNK d   1       3.194   4.288 -11.970  0.00  0.00    -0.188 OA
ATOM     25  I   UNK d   1       6.017   5.170 -13.163  0.00  0.00    -0.041 I 
ATOM     26  C   UNK d   1       4.002   7.371 -13.780  0.00  0.00     0.032 A 
BRANCH  21  27
ATOM     27  O   UNK d   1       0.755   5.487 -11.957  0.00  0.00    -0.353 OA
ATOM     28  C   UNK d   1      -0.537   5.600 -12.524  0.00  0.00     0.210 C 
ENDBRANCH  21  27
ENDBRANCH   1  19
TORSDOF 2
ENDMDL
