/Users/jonathanwahrer/Desktop/Msc/3_Semester/Drug_Design_Praktikum/waehrer_HTS_screening/HTS_experiment/out/docking_results/vina_output/6q9y/0906_docked.pdbqt
 OpenBabel03222219433D

 27 30  0  0  1  0  0  0  0  0999 V2000
    2.0280    9.1870  -13.6150 C   0  0  1  0  0  3  0  0  0  0  0  0
    1.1750    8.4440  -12.9200 N   0  0  0  0  0  0  0  0  0  0  0  0
    1.4020    7.1970  -12.4730 C   0  0  0  0  0  0  0  0  0  0  0  0
    0.7570    6.2510  -11.7820 N   0  0  0  0  0  2  0  0  0  0  0  0
    1.5060    5.1950  -11.6460 O   0  0  0  0  0  0  0  0  0  0  0  0
    2.6530    5.3980  -12.2310 N   0  0  0  0  0  0  0  0  0  0  0  0
    2.6470    6.6290  -12.7640 C   0  0  0  0  0  0  0  0  0  0  0  0
    3.5350    7.3220  -13.4540 N   0  0  0  0  0  0  0  0  0  0  0  0
    3.2620    8.5590  -13.8770 C   0  0  0  0  0  0  0  0  0  0  0  0
    4.3350    8.9800  -14.5260 N   0  0  0  0  0  0  0  0  0  0  0  0
    5.2730    8.0170  -14.5100 N   0  0  0  0  0  0  0  0  0  0  0  0
    4.7920    6.9590  -13.8400 C   0  0  0  0  0  0  0  0  0  0  0  0
    1.8000   10.4950  -14.0900 N   0  0  0  0  0  0  0  0  0  0  0  0
    1.4360   10.5980  -15.1020 H   0  0  0  0  0  0  0  0  0  0  0  0
    1.9870   11.7130  -13.4070 C   0  0  0  0  0  0  0  0  0  0  0  0
    0.8520   12.4770  -13.0570 C   0  0  0  0  0  0  0  0  0  0  0  0
   -1.0730   11.7630  -13.5510 I   0  0  0  0  0  0  0  0  0  0  0  0
    0.9960   13.6730  -12.3970 C   0  0  0  0  0  3  0  0  0  0  0  0
    2.2680   14.1380  -12.0720 C   0  0  0  0  0  3  0  0  0  0  0  0
    3.3480   13.3790  -12.4240 C   0  0  0  0  0  3  0  0  0  0  0  0
    3.2400   12.1570  -13.0930 C   0  0  0  0  0  3  0  0  0  0  0  0
    5.4400    5.6550  -13.5430 C   0  0  0  0  0  2  0  0  0  0  0  0
    6.8470    5.7900  -13.0960 C   0  0  0  0  0  0  0  0  0  0  0  0
    7.1650    6.1110  -11.9320 O   0  0  0  0  0  0  0  0  0  0  0  0
    7.8470    5.5570  -13.9990 O   0  0  0  0  0  0  0  0  0  0  0  0
    8.6840    6.5200  -14.5330 C   0  0  0  0  0  2  0  0  0  0  0  0
   10.0760    6.1020  -14.8120 C   0  0  0  0  0  1  0  0  0  0  0  0
  1 13  1  6  0  0  0
  1  2  1  0  0  0  0
  2  3  2  0  0  0  0
  3  4  1  0  0  0  0
  4  5  1  0  0  0  0
  6  5  1  0  0  0  0
  7  3  1  0  0  0  0
  7  6  2  0  0  0  0
  8  7  1  0  0  0  0
  9  1  1  0  0  0  0
  9  8  1  0  0  0  0
 10 11  1  0  0  0  0
 10  9  2  0  0  0  0
 11 12  2  0  0  0  0
 12 22  1  0  0  0  0
 12  8  1  0  0  0  0
 13 15  1  0  0  0  0
 14 13  1  0  0  0  0
 15 21  2  0  0  0  0
 15 16  1  0  0  0  0
 16 18  2  0  0  0  0
 17 16  1  0  0  0  0
 18 19  1  0  0  0  0
 20 19  2  0  0  0  0
 21 20  1  0  0  0  0
 22 23  1  0  0  0  0
 23 24  2  0  0  0  0
 25 23  1  0  0  0  0
 26 25  1  0  0  0  0
 27 26  1  0  0  0  0
M  END
>  <Pose>
1

>  <Score>
-8.128

$$$$
