MODEL 1
REMARK VINA RESULT:    -8.128      0.000      0.000
REMARK INTER + INTRA:         -11.863
REMARK INTER:                 -10.979
REMARK INTRA:                  -0.884
REMARK UNBOUND:                -0.884
REMARK  6 active torsions:
REMARK  status: ('A' for Active; 'I' for Inactive)
REMARK    1  A    between atoms: C_3  and  N_8 
REMARK    2  A    between atoms: N_8  and  C_9 
REMARK    3  A    between atoms: C_20  and  C_21 
REMARK    4  A    between atoms: C_21  and  C_22 
REMARK    5  A    between atoms: C_22  and  O_24 
REMARK    6  A    between atoms: O_24  and  C_25 
ROOT
ATOM      1  C   UNK d   1       2.028   9.187 -13.615  0.00  0.00     0.179 A 
ATOM      2  N   UNK d   1       1.175   8.444 -12.920  0.00  0.00    -0.202 NA
ATOM      3  C   UNK d   1       1.402   7.197 -12.473  0.00  0.00     0.230 A 
ATOM      4  N   UNK d   1       0.757   6.251 -11.782  0.00  0.00    -0.081 NA
ATOM      5  O   UNK d   1       1.506   5.195 -11.646  0.00  0.00    -0.103 OA
ATOM      6  N   UNK d   1       2.653   5.398 -12.231  0.00  0.00    -0.082 NA
ATOM      7  C   UNK d   1       2.647   6.629 -12.764  0.00  0.00     0.217 A 
ATOM      8  N   UNK d   1       3.535   7.322 -13.454  0.00  0.00    -0.256 N 
ATOM      9  C   UNK d   1       3.262   8.559 -13.877  0.00  0.00     0.206 A 
ATOM     10  N   UNK d   1       4.335   8.980 -14.526  0.00  0.00    -0.126 NA
ATOM     11  N   UNK d   1       5.273   8.017 -14.510  0.00  0.00    -0.133 NA
ATOM     12  C   UNK d   1       4.792   6.959 -13.840  0.00  0.00     0.145 A 
ENDROOT
BRANCH   1  13
ATOM     13  N   UNK d   1       1.800  10.495 -14.090  0.00  0.00    -0.337 N 
ATOM     14  H   UNK d   1       1.436  10.598 -15.102  0.00  0.00     0.167 HD
BRANCH  13  15
ATOM     15  C   UNK d   1       1.987  11.713 -13.407  0.00  0.00     0.050 A 
ATOM     16  C   UNK d   1       0.852  12.477 -13.057  0.00  0.00     0.033 A 
ATOM     17  I   UNK d   1      -1.073  11.763 -13.551  0.00  0.00    -0.042 I 
ATOM     18  C   UNK d   1       0.996  13.673 -12.397  0.00  0.00     0.020 A 
ATOM     19  C   UNK d   1       2.268  14.138 -12.072  0.00  0.00     0.001 A 
ATOM     20  C   UNK d   1       3.348  13.379 -12.424  0.00  0.00     0.002 A 
ATOM     21  C   UNK d   1       3.240  12.157 -13.093  0.00  0.00     0.031 A 
ENDBRANCH  13  15
ENDBRANCH   1  13
BRANCH  12  22
ATOM     22  C   UNK d   1       5.440   5.655 -13.543  0.00  0.00     0.192 C 
BRANCH  22  23
ATOM     23  C   UNK d   1       6.847   5.790 -13.096  0.00  0.00     0.266 C 
ATOM     24  O   UNK d   1       7.165   6.111 -11.932  0.00  0.00    -0.265 OA
BRANCH  23  25
ATOM     25  O   UNK d   1       7.847   5.557 -13.999  0.00  0.00    -0.322 OA
BRANCH  25  26
ATOM     26  C   UNK d   1       8.684   6.520 -14.533  0.00  0.00     0.174 C 
ATOM     27  C   UNK d   1      10.076   6.102 -14.812  0.00  0.00     0.034 C 
ENDBRANCH  25  26
ENDBRANCH  23  25
ENDBRANCH  22  23
ENDBRANCH  12  22
TORSDOF 6
ENDMDL
