MODEL 1
REMARK VINA RESULT:    -8.001      0.000      0.000
REMARK INTER + INTRA:          -8.495
REMARK INTER:                  -8.936
REMARK INTRA:                   0.441
REMARK UNBOUND:                 0.441
REMARK  2 active torsions:
REMARK  status: ('A' for Active; 'I' for Inactive)
REMARK    1  A    between atoms: C_3  and  N_8 
REMARK    2  A    between atoms: N_15  and  C_16 
ROOT
ATOM      1  N   UNK d   1      -1.019   8.844 -13.914  0.00  0.00    -0.240 N 
ATOM      2  C   UNK d   1      -2.266   9.334 -13.797  0.00  0.00     0.286 A 
ATOM      3  O   UNK d   1      -2.562  10.478 -13.336  0.00  0.00    -0.265 OA
ATOM      4  C   UNK d   1      -3.208   8.430 -14.244  0.00  0.00     0.160 A 
ATOM      5  C   UNK d   1      -2.521   7.372 -14.642  0.00  0.00     0.152 A 
ATOM      6  N   UNK d   1      -3.456   6.495 -15.079  0.00  0.00    -0.278 N 
ATOM      7  N   UNK d   1      -4.666   7.006 -14.950  0.00  0.00    -0.234 N 
ATOM      8  N   UNK d   1      -4.537   8.202 -14.436  0.00  0.00    -0.234 N 
ATOM      9  C   UNK d   1      -1.171   7.617 -14.444  0.00  0.00     0.286 A 
ATOM     10  O   UNK d   1      -0.241   6.793 -14.725  0.00  0.00    -0.265 OA
ATOM     11  H   UNK d   1      -3.270   5.546 -15.467  0.00  0.00     0.189 HD
ATOM     12  H   UNK d   1      -5.562   6.544 -15.208  0.00  0.00     0.209 HD
ENDROOT
BRANCH   1  13
ATOM     13  C   UNK d   1       0.221   9.462 -13.566  0.00  0.00     0.062 A 
ATOM     14  C   UNK d   1       1.027   8.951 -12.569  0.00  0.00     0.034 A 
ATOM     15  I   UNK d   1       0.353   7.211 -11.571  0.00  0.00    -0.042 I 
ATOM     16  C   UNK d   1       2.228   9.531 -12.216  0.00  0.00     0.020 A 
ATOM     17  C   UNK d   1       2.679  10.665 -12.859  0.00  0.00     0.001 A 
ATOM     18  C   UNK d   1       1.881  11.185 -13.857  0.00  0.00     0.002 A 
ATOM     19  C   UNK d   1       0.678  10.596 -14.205  0.00  0.00     0.031 A 
ENDBRANCH   1  13
BRANCH   8  20
ATOM     20  C   UNK d   1      -5.556   9.138 -14.114  0.00  0.00     0.058 A 
ATOM     21  C   UNK d   1      -5.769   9.574 -12.825  0.00  0.00     0.031 A 
ATOM     22  C   UNK d   1      -6.771  10.488 -12.543  0.00  0.00     0.002 A 
ATOM     23  C   UNK d   1      -7.591  10.997 -13.529  0.00  0.00     0.000 A 
ATOM     24  C   UNK d   1      -7.379  10.562 -14.820  0.00  0.00     0.002 A 
ATOM     25  C   UNK d   1      -6.388   9.656 -15.108  0.00  0.00     0.031 A 
ENDBRANCH   8  20
TORSDOF 2
ENDMDL
