/Users/jonathanwahrer/Desktop/Msc/3_Semester/Drug_Design_Praktikum/waehrer_HTS_screening/HTS_experiment/out/docking_results/vina_output/6q9y/0908_docked.pdbqt
 OpenBabel03222219443D

 25 28  0  0  0  0  0  0  0  0999 V2000
   -1.0190    8.8440  -13.9140 N   0  0  0  0  0  0  0  0  0  0  0  0
   -2.2660    9.3340  -13.7970 C   0  0  0  0  0  0  0  0  0  0  0  0
   -2.5620   10.4780  -13.3360 O   0  0  0  0  0  0  0  0  0  0  0  0
   -3.2080    8.4300  -14.2440 C   0  0  0  0  0  0  0  0  0  0  0  0
   -2.5210    7.3720  -14.6420 C   0  0  0  0  0  0  0  0  0  0  0  0
   -3.4560    6.4950  -15.0790 N   0  0  0  0  0  0  0  0  0  0  0  0
   -4.6660    7.0060  -14.9500 N   0  0  0  0  0  0  0  0  0  0  0  0
   -4.5370    8.2020  -14.4360 N   0  0  0  0  0  0  0  0  0  0  0  0
   -1.1710    7.6170  -14.4440 C   0  0  0  0  0  0  0  0  0  0  0  0
   -0.2410    6.7930  -14.7250 O   0  0  0  0  0  0  0  0  0  0  0  0
   -3.2700    5.5460  -15.4670 H   0  0  0  0  0  0  0  0  0  0  0  0
   -5.5620    6.5440  -15.2080 H   0  0  0  0  0  0  0  0  0  0  0  0
    0.2210    9.4620  -13.5660 C   0  0  0  0  0  0  0  0  0  0  0  0
    1.0270    8.9510  -12.5690 C   0  0  0  0  0  0  0  0  0  0  0  0
    0.3530    7.2110  -11.5710 I   0  0  0  0  0  0  0  0  0  0  0  0
    2.2280    9.5310  -12.2160 C   0  0  0  0  0  3  0  0  0  0  0  0
    2.6790   10.6650  -12.8590 C   0  0  0  0  0  3  0  0  0  0  0  0
    1.8810   11.1850  -13.8570 C   0  0  0  0  0  3  0  0  0  0  0  0
    0.6780   10.5960  -14.2050 C   0  0  0  0  0  3  0  0  0  0  0  0
   -5.5560    9.1380  -14.1140 C   0  0  0  0  0  0  0  0  0  0  0  0
   -5.7690    9.5740  -12.8250 C   0  0  0  0  0  3  0  0  0  0  0  0
   -6.7710   10.4880  -12.5430 C   0  0  0  0  0  3  0  0  0  0  0  0
   -7.5910   10.9970  -13.5290 C   0  0  0  0  0  3  0  0  0  0  0  0
   -7.3790   10.5620  -14.8200 C   0  0  0  0  0  3  0  0  0  0  0  0
   -6.3880    9.6560  -15.1080 C   0  0  0  0  0  3  0  0  0  0  0  0
  1  2  1  0  0  0  0
  1 13  1  0  0  0  0
  2  3  2  0  0  0  0
  4  2  1  0  0  0  0
  5  9  1  0  0  0  0
  5  4  2  0  0  0  0
  6  7  1  0  0  0  0
  6  5  1  0  0  0  0
  7  8  1  0  0  0  0
  8  4  1  0  0  0  0
  8 20  1  0  0  0  0
  9  1  1  0  0  0  0
 10  9  2  0  0  0  0
 11  6  1  0  0  0  0
 12  7  1  0  0  0  0
 13 14  1  0  0  0  0
 14 16  2  0  0  0  0
 14 15  1  0  0  0  0
 17 16  1  0  0  0  0
 18 17  2  0  0  0  0
 19 18  1  0  0  0  0
 19 13  2  0  0  0  0
 20 21  1  0  0  0  0
 21 22  2  0  0  0  0
 23 22  1  0  0  0  0
 24 23  2  0  0  0  0
 25 24  1  0  0  0  0
 25 20  2  0  0  0  0
M  END
>  <Pose>
1

>  <Score>
-8.001

$$$$
