MODEL 1
REMARK VINA RESULT:    -7.215      0.000      0.000
REMARK INTER + INTRA:          -9.107
REMARK INTER:                  -8.480
REMARK INTRA:                  -0.626
REMARK UNBOUND:                -0.626
REMARK  3 active torsions:
REMARK  status: ('A' for Active; 'I' for Inactive)
REMARK    1  A    between atoms: C_3  and  C_8 
REMARK       I    between atoms: C_8  and  N_10 
REMARK    2  A    between atoms: N_10  and  C_11 
REMARK    3  A    between atoms: C_17  and  N_20 
ROOT
ATOM      1  C   UNK d   1       5.848   6.031 -13.491  0.00  0.00     0.069 A 
ATOM      2  C   UNK d   1       4.610   5.477 -13.088  0.00  0.00     0.146 A 
ATOM      3  N   UNK d   1       4.293   4.264 -12.650  0.00  0.00    -0.101 NA
ATOM      4  O   UNK d   1       3.017   4.238 -12.411  0.00  0.00    -0.106 OA
ATOM      5  N   UNK d   1       2.488   5.377 -12.675  0.00  0.00    -0.101 NA
ATOM      6  C   UNK d   1       3.459   6.193 -13.107  0.00  0.00     0.146 A 
ATOM      7  C   UNK d   1       3.475   7.504 -13.528  0.00  0.00     0.064 A 
ATOM      8  C   UNK d   1       4.658   8.071 -13.926  0.00  0.00     0.034 A 
ATOM      9  C   UNK d   1       5.838   7.353 -13.912  0.00  0.00     0.034 A 
ENDROOT
BRANCH   1  10
ATOM     10  N   UNK d   1       6.936   5.198 -13.334  0.00  0.00    -0.319 N 
ATOM     11  C   UNK d   1       7.988   4.393 -13.183  0.00  0.00     0.275 C 
ATOM     12  O   UNK d   1       8.485   4.056 -12.032  0.00  0.00    -0.266 OA
ATOM     13  H   UNK d   1       6.950   5.492 -12.005  0.00  0.00     0.169 HD
BRANCH  11  14
ATOM     14  C   UNK d   1       8.766   3.753 -14.278  0.00  0.00     0.138 A 
ATOM     15  C   UNK d   1       9.922   4.263 -14.829  0.00  0.00     0.059 A 
ATOM     16  I   UNK d   1      10.861   6.104 -14.320  0.00  0.00    -0.040 I 
ATOM     17  C   UNK d   1      10.364   3.362 -15.766  0.00  0.00     0.159 A 
ATOM     18  N   UNK d   1       9.489   2.359 -15.759  0.00  0.00    -0.183 NA
ATOM     19  N   UNK d   1       8.527   2.581 -14.871  0.00  0.00    -0.268 N 
ATOM     20  C   UNK d   1       7.442   1.619 -14.602  0.00  0.00     0.180 C 
ENDBRANCH  11  14
ENDBRANCH   1  10
BRANCH   7  21
ATOM     21  N   UNK d   1       2.262   8.208 -13.540  0.00  0.00    -0.375 N 
ATOM     22  C   UNK d   1       1.716   8.864 -12.351  0.00  0.00     0.149 C 
ATOM     23  C   UNK d   1       0.406   8.149 -12.088  0.00  0.00     0.187 C 
ATOM     24  O   UNK d   1       0.110   7.169 -13.022  0.00  0.00    -0.388 OA
ATOM     25  C   UNK d   1       0.137   7.581 -14.337  0.00  0.00     0.187 C 
ATOM     26  C   UNK d   1       1.374   8.399 -14.665  0.00  0.00     0.149 C 
ENDBRANCH   7  21
TORSDOF 3
ENDMDL
