MODEL 1
REMARK VINA RESULT:    -8.726      0.000      0.000
REMARK INTER + INTRA:          -9.772
REMARK INTER:                 -10.257
REMARK INTRA:                   0.485
REMARK UNBOUND:                 0.485
REMARK  3 active torsions:
REMARK  status: ('A' for Active; 'I' for Inactive)
REMARK    1  A    between atoms: C_5  and  C_8 
REMARK    2  A    between atoms: C_10  and  N_11 
REMARK    3  A    between atoms: C_15  and  C_19 
ROOT
ATOM      1  N   UNK d   1       0.632  12.675 -12.864  0.00  0.00    -0.353 N 
ATOM      2  C   UNK d   1       0.786  11.423 -13.163  0.00  0.00     0.149 A 
ATOM      3  S   UNK d   1       2.079  10.196 -13.411  0.00  0.00    -0.063 SA
ATOM      4  C   UNK d   1       0.933   8.886 -13.775  0.00  0.00     0.083 A 
ATOM      5  C   UNK d   1      -0.290   9.361 -13.705  0.00  0.00     0.053 A 
ATOM      6  N   UNK d   1      -0.410  10.733 -13.375  0.00  0.00    -0.325 N 
ATOM      7  C   UNK d   1      -1.498  11.722 -13.168  0.00  0.00     0.151 A 
ATOM      8  C   UNK d   1      -0.769  12.991 -12.895  0.00  0.00     0.145 A 
ENDROOT
BRANCH   1   9
ATOM      9  C   UNK d   1       1.676  13.592 -12.597  0.00  0.00     0.193 C 
ATOM     10  C   UNK d   1       1.488  15.013 -12.715  0.00  0.00     0.112 C 
ATOM     11  O   UNK d   1       2.616  15.670 -12.763  0.00  0.00    -0.194 OA
BRANCH  10  12
ATOM     12  C   UNK d   1       0.322  15.851 -12.792  0.00  0.00    -0.002 A 
ATOM     13  C   UNK d   1      -0.443  15.948 -13.914  0.00  0.00     0.015 A 
ATOM     14  C   UNK d   1      -1.538  16.769 -13.959  0.00  0.00     0.019 A 
ATOM     15  C   UNK d   1      -1.936  17.545 -12.887  0.00  0.00     0.006 A 
ATOM     16  I   UNK d   1      -3.589  18.810 -12.905  0.00  0.00    -0.045 I 
ATOM     17  C   UNK d   1      -1.147  17.440 -11.741  0.00  0.00     0.019 A 
ATOM     18  C   UNK d   1      -0.064  16.627 -11.700  0.00  0.00     0.015 A 
ENDBRANCH  10  12
ENDBRANCH   1   9
BRANCH   5  19
ATOM     19  C   UNK d   1      -1.419   8.424 -13.985  0.00  0.00    -0.009 A 
ATOM     20  C   UNK d   1      -2.684   8.867 -14.267  0.00  0.00     0.014 A 
ATOM     21  C   UNK d   1      -3.744   7.980 -14.539  0.00  0.00     0.001 A 
ATOM     22  C   UNK d   1      -3.529   6.622 -14.528  0.00  0.00     0.000 A 
ATOM     23  C   UNK d   1      -2.263   6.172 -14.246  0.00  0.00     0.001 A 
ATOM     24  C   UNK d   1      -1.225   7.055 -13.979  0.00  0.00     0.014 A 
ENDBRANCH   5  19
TORSDOF 3
ENDMDL
