MODEL 1
REMARK VINA RESULT:    -9.224      0.000      0.000
REMARK INTER + INTRA:         -12.640
REMARK INTER:                 -11.920
REMARK INTRA:                  -0.720
REMARK UNBOUND:                -0.720
REMARK  5 active torsions:
REMARK  status: ('A' for Active; 'I' for Inactive)
REMARK    1  A    between atoms: C_5  and  C_8 
REMARK    2  A    between atoms: N_9  and  N_10 
REMARK    3  A    between atoms: N_10  and  C_11 
REMARK    4  A    between atoms: C_13  and  N_23 
REMARK    5  A    between atoms: C_15  and  N_17 
ROOT
ATOM      1  C   UNK d   1      -0.755  12.416 -13.155  0.00  0.00     0.774 A 
ATOM      2  N   UNK d   1       0.427  11.794 -13.302  0.00  0.00     0.133 NA
ATOM      3  C   UNK d   1       0.493  10.498 -13.631  0.00  0.00     0.756 A 
ATOM      4  N   UNK d   1      -0.675   9.857 -13.802  0.00  0.00     0.131 NA
ATOM      5  C   UNK d   1      -1.880  10.447 -13.663  0.00  0.00     0.756 A 
ATOM      6  N   UNK d   1      -1.902  11.751 -13.333  0.00  0.00     0.133 NA
ENDROOT
BRANCH   1   7
ATOM      7  N   UNK d   1      -0.800  13.819 -12.801  0.00  0.00    -0.105 N 
ATOM      8  H   UNK d   1      -1.659  14.216 -12.360  0.00  0.00     0.208 HD
BRANCH   7   9
ATOM      9  N   UNK d   1       0.269  14.607 -13.072  0.00  0.00    -0.172 NA
ATOM     10  C   UNK d   1       0.245  15.866 -13.057  0.00  0.00     0.150 C 
BRANCH  10  11
ATOM     11  C   UNK d   1      -0.864  16.732 -12.763  0.00  0.00    -0.017 A 
ATOM     12  C   UNK d   1      -1.958  16.974 -13.540  0.00  0.00     0.014 A 
ATOM     13  C   UNK d   1      -2.992  17.842 -13.158  0.00  0.00     0.019 A 
ATOM     14  C   UNK d   1      -2.931  18.487 -11.961  0.00  0.00     0.006 A 
ATOM     15  I   UNK d   1      -4.422  19.798 -11.303  0.00  0.00    -0.045 I 
ATOM     16  C   UNK d   1      -1.836  18.260 -11.156  0.00  0.00     0.019 A 
ATOM     17  C   UNK d   1      -0.826  17.410 -11.535  0.00  0.00     0.014 A 
ENDBRANCH  10  11
ENDBRANCH   7   9
ENDBRANCH   1   7
BRANCH   3  18
ATOM     18  N   UNK d   1       1.737   9.815 -13.792  0.00  0.00    -0.209 N 
ATOM     19  C   UNK d   1       2.920  10.157 -13.063  0.00  0.00     0.167 C 
ATOM     20  C   UNK d   1       4.073   9.332 -13.640  0.00  0.00     0.188 C 
ATOM     21  O   UNK d   1       4.116   9.414 -15.022  0.00  0.00    -0.388 OA
ATOM     22  C   UNK d   1       3.023   8.857 -15.637  0.00  0.00     0.188 C 
ATOM     23  C   UNK d   1       1.819   8.717 -14.741  0.00  0.00     0.167 C 
ENDBRANCH   3  18
BRANCH   5  24
ATOM     24  N   UNK d   1      -3.069   9.695 -13.861  0.00  0.00    -0.209 N 
ATOM     25  C   UNK d   1      -2.980   8.293 -14.200  0.00  0.00     0.167 C 
ATOM     26  C   UNK d   1      -4.153   8.031 -15.155  0.00  0.00     0.188 C 
ATOM     27  O   UNK d   1      -5.310   8.199 -14.440  0.00  0.00    -0.388 OA
ATOM     28  C   UNK d   1      -5.532   9.445 -13.924  0.00  0.00     0.188 C 
ATOM     29  C   UNK d   1      -4.342  10.314 -13.729  0.00  0.00     0.167 C 
ENDBRANCH   5  24
TORSDOF 5
ENDMDL
