MODEL 1
REMARK VINA RESULT:    -7.836      0.000      0.000
REMARK INTER + INTRA:          -6.280
REMARK INTER:                  -9.210
REMARK INTRA:                   2.929
REMARK UNBOUND:                 2.929
REMARK  3 active torsions:
REMARK  status: ('A' for Active; 'I' for Inactive)
REMARK    1  A    between atoms: C_5  and  N_8 
REMARK    2  A    between atoms: C_10  and  C_16 
REMARK    3  A    between atoms: C_22  and  O_29 
ROOT
ATOM      1  N   UNK d   1       4.017   6.527 -13.380  0.00  0.00    -0.241 N 
ATOM      2  C   UNK d   1       5.299   6.608 -13.778  0.00  0.00     0.204 A 
ATOM      3  C   UNK d   1       6.170   5.544 -13.691  0.00  0.00     0.100 A 
ATOM      4  C   UNK d   1       5.647   4.377 -13.169  0.00  0.00     0.262 A 
ATOM      5  O   UNK d   1       6.316   3.310 -13.022  0.00  0.00    -0.267 OA
ATOM      6  N   UNK d   1       4.343   4.281 -12.761  0.00  0.00    -0.274 N 
ATOM      7  C   UNK d   1       3.561   5.368 -12.879  0.00  0.00     0.336 A 
ATOM      8  O   UNK d   1       2.357   5.328 -12.517  0.00  0.00    -0.246 OA
ATOM      9  O   UNK d   1       5.780   7.784 -14.294  0.00  0.00    -0.171 OA
ATOM     10  H   UNK d   1       3.955   3.403 -12.369  0.00  0.00     0.173 HD
ENDROOT
BRANCH   3  11
ATOM     11  C   UNK d   1       7.567   5.559 -14.083  0.00  0.00     0.267 C 
ATOM     12  N   UNK d   1       8.187   6.833 -14.261  0.00  0.00    -0.062 N 
ATOM     13  C   UNK d   1       8.280   7.627 -13.067  0.00  0.00     0.240 C 
ATOM     14  C   UNK d   1       9.596   6.527 -14.627  0.00  0.00     0.270 C 
ATOM     15  H   UNK d   1       7.884   7.384 -15.081  0.00  0.00     0.280 HD
ATOM     16  C   UNK d   1       7.924   6.863 -11.809  0.00  0.00     0.067 C 
ATOM     17  C   UNK d   1       8.596   5.512 -11.868  0.00  0.00    -0.042 A 
ATOM     18  C   UNK d   1       8.421   4.855 -13.059  0.00  0.00     0.020 A 
ATOM     19  C   UNK d   1       9.339   4.987 -10.862  0.00  0.00     0.047 A 
ATOM     20  C   UNK d   1       9.002   3.629 -13.272  0.00  0.00     0.113 A 
ATOM     21  C   UNK d   1       9.761   3.097 -12.239  0.00  0.00     0.139 A 
ATOM     22  C   UNK d   1       9.947   3.744 -11.035  0.00  0.00     0.108 A 
ATOM     23  O   UNK d   1      10.478   1.896 -12.124  0.00  0.00    -0.320 OA
ATOM     24  O   UNK d   1      10.748   2.950 -10.228  0.00  0.00    -0.323 OA
ATOM     25  C   UNK d   1      10.779   1.619 -10.769  0.00  0.00     0.352 C 
BRANCH  20  26
ATOM     26  O   UNK d   1       8.823   2.983 -14.462  0.00  0.00    -0.352 OA
ATOM     27  C   UNK d   1       9.770   2.787 -15.464  0.00  0.00     0.210 C 
ENDBRANCH  20  26
ENDBRANCH   3  11
BRANCH   1  28
ATOM     28  C   UNK d   1       3.139   7.637 -13.479  0.00  0.00     0.046 A 
ATOM     29  C   UNK d   1       2.340   8.049 -12.424  0.00  0.00     0.031 A 
ATOM     30  C   UNK d   1       1.495   9.116 -12.516  0.00  0.00     0.020 A 
ATOM     31  C   UNK d   1       1.405   9.843 -13.699  0.00  0.00     0.006 A 
ATOM     32  I   UNK d   1       0.101  11.482 -13.827  0.00  0.00    -0.045 I 
ATOM     33  C   UNK d   1       2.197   9.437 -14.747  0.00  0.00     0.020 A 
ATOM     34  C   UNK d   1       3.054   8.359 -14.664  0.00  0.00     0.031 A 
ENDBRANCH   1  28
TORSDOF 3
ENDMDL
