/Users/jonathanwahrer/Desktop/Msc/3_Semester/Drug_Design_Praktikum/waehrer_HTS_screening/HTS_experiment/out/docking_results/vina_output/6q9y/0935_docked.pdbqt
 OpenBabel03222219443D

 34 38  0  0  1  0  0  0  0  0999 V2000
    4.0170    6.5270  -13.3800 N   0  0  0  0  0  0  0  0  0  0  0  0
    5.2990    6.6080  -13.7780 C   0  0  0  0  0  0  0  0  0  0  0  0
    6.1700    5.5440  -13.6910 C   0  0  2  0  0  3  0  0  0  0  0  0
    5.6470    4.3770  -13.1690 C   0  0  0  0  0  0  0  0  0  0  0  0
    6.3160    3.3100  -13.0220 O   0  0  0  0  0  0  0  0  0  0  0  0
    4.3430    4.2810  -12.7610 N   0  0  0  0  0  0  0  0  0  0  0  0
    3.5610    5.3680  -12.8790 C   0  0  0  0  0  0  0  0  0  0  0  0
    2.3570    5.3280  -12.5170 O   0  0  0  0  0  0  0  0  0  0  0  0
    5.7800    7.7840  -14.2940 O   0  0  0  0  0  0  0  0  0  0  0  0
    3.9550    3.4030  -12.3690 H   0  0  0  0  0  0  0  0  0  0  0  0
    7.5670    5.5590  -14.0830 C   0  0  1  0  0  3  0  0  0  0  0  0
    8.1870    6.8330  -14.2610 N   0  0  0  0  0  4  0  0  0  0  0  0
    8.2800    7.6270  -13.0670 C   0  0  0  0  0  2  0  0  0  0  0  0
    9.5960    6.5270  -14.6270 C   0  0  0  0  0  1  0  0  0  0  0  0
    7.8840    7.3840  -15.0810 H   0  0  0  0  0  0  0  0  0  0  0  0
    7.9240    6.8630  -11.8090 C   0  0  0  0  0  2  0  0  0  0  0  0
    8.5960    5.5120  -11.8680 C   0  0  0  0  0  0  0  0  0  0  0  0
    8.4210    4.8550  -13.0590 C   0  0  0  0  0  0  0  0  0  0  0  0
    9.3390    4.9870  -10.8620 C   0  0  0  0  0  3  0  0  0  0  0  0
    9.0020    3.6290  -13.2720 C   0  0  0  0  0  0  0  0  0  0  0  0
    9.7610    3.0970  -12.2390 C   0  0  0  0  0  0  0  0  0  0  0  0
    9.9470    3.7440  -11.0350 C   0  0  0  0  0  0  0  0  0  0  0  0
   10.4780    1.8960  -12.1240 O   0  0  0  0  0  0  0  0  0  0  0  0
   10.7480    2.9500  -10.2280 O   0  0  0  0  0  0  0  0  0  0  0  0
   10.7790    1.6190  -10.7690 C   0  0  0  0  0  2  0  0  0  0  0  0
    8.8230    2.9830  -14.4620 O   0  0  0  0  0  0  0  0  0  0  0  0
    9.7700    2.7870  -15.4640 C   0  0  0  0  0  1  0  0  0  0  0  0
    3.1390    7.6370  -13.4790 C   0  0  0  0  0  0  0  0  0  0  0  0
    2.3400    8.0490  -12.4240 C   0  0  0  0  0  3  0  0  0  0  0  0
    1.4950    9.1160  -12.5160 C   0  0  0  0  0  3  0  0  0  0  0  0
    1.4050    9.8430  -13.6990 C   0  0  0  0  0  0  0  0  0  0  0  0
    0.1010   11.4820  -13.8270 I   0  0  0  0  0  0  0  0  0  0  0  0
    2.1970    9.4370  -14.7470 C   0  0  0  0  0  3  0  0  0  0  0  0
    3.0540    8.3590  -14.6640 C   0  0  0  0  0  3  0  0  0  0  0  0
  1  7  1  0  0  0  0
  2  1  1  0  0  0  0
  3  2  1  1  0  0  0
  3  4  1  0  0  0  0
  4  5  2  0  0  0  0
  4  6  1  0  0  0  0
  6 10  1  0  0  0  0
  7  6  1  0  0  0  0
  7  8  2  0  0  0  0
  9  2  2  0  0  0  0
 11  3  1  0  0  0  0
 11 18  1  1  0  0  0
 12 11  1  0  0  0  0
 12 13  1  0  0  0  0
 13 16  1  0  0  0  0
 14 12  1  0  0  0  0
 15 12  1  0  0  0  0
 17 16  1  0  0  0  0
 17 19  1  0  0  0  0
 18 17  2  0  0  0  0
 20 18  1  0  0  0  0
 20 21  2  0  0  0  0
 21 23  1  0  0  0  0
 21 22  1  0  0  0  0
 22 19  2  0  0  0  0
 22 24  1  0  0  0  0
 23 25  1  0  0  0  0
 25 24  1  0  0  0  0
 26 20  1  0  0  0  0
 27 26  1  0  0  0  0
 28  1  1  0  0  0  0
 28 29  1  0  0  0  0
 30 29  2  0  0  0  0
 31 30  1  0  0  0  0
 32 31  1  0  0  0  0
 33 34  1  0  0  0  0
 33 31  2  0  0  0  0
 34 28  2  0  0  0  0
M  END
>  <Pose>
1

>  <Score>
-7.836

$$$$
