MODEL 1
REMARK VINA RESULT:    -7.635      0.000      0.000
REMARK INTER + INTRA:          -8.923
REMARK INTER:                  -8.974
REMARK INTRA:                   0.051
REMARK UNBOUND:                 0.051
REMARK  3 active torsions:
REMARK  status: ('A' for Active; 'I' for Inactive)
REMARK    1  A    between atoms: C_5  and  N_8 
REMARK    2  A    between atoms: C_11  and  N_15 
REMARK    3  A    between atoms: N_18  and  C_21 
ROOT
ATOM      1  N   UNK d   1       2.331  11.703 -13.205  0.00  0.00    -0.251 N 
ATOM      2  C   UNK d   1       2.237  10.609 -14.101  0.00  0.00     0.254 C 
ATOM      3  O   UNK d   1       1.616  10.653 -15.195  0.00  0.00    -0.270 OA
ATOM      4  C   UNK d   1       2.975   9.441 -13.544  0.00  0.00     0.181 C 
ATOM      5  C   UNK d   1       4.049  10.129 -12.718  0.00  0.00     0.138 C 
ATOM      6  C   UNK d   1       3.478  11.451 -12.396  0.00  0.00     0.233 C 
ATOM      7  O   UNK d   1       3.916  12.269 -11.535  0.00  0.00    -0.273 OA
ENDROOT
BRANCH   4   8
ATOM      8  N   UNK d   1       2.080   8.672 -12.783  0.00  0.00    -0.397 N 
ATOM      9  C   UNK d   1       0.953   9.245 -12.193  0.00  0.00     0.138 C 
ATOM     10  C   UNK d   1      -0.095   8.113 -12.026  0.00  0.00     0.161 C 
ATOM     11  N   UNK d   1      -0.208   7.416 -13.299  0.00  0.00    -0.211 N 
ATOM     12  C   UNK d   1       0.993   6.792 -13.797  0.00  0.00     0.161 C 
ATOM     13  C   UNK d   1       2.149   7.274 -12.925  0.00  0.00     0.138 C 
BRANCH  11  14
ATOM     14  C   UNK d   1      -1.430   7.367 -14.001  0.00  0.00     0.724 A 
ATOM     15  N   UNK d   1      -2.330   8.382 -13.899  0.00  0.00    -0.075 NA
ATOM     16  C   UNK d   1      -3.495   8.397 -14.544  0.00  0.00     0.138 A 
ATOM     17  C   UNK d   1      -3.847   7.341 -15.373  0.00  0.00     0.040 A 
ATOM     18  C   UNK d   1      -2.927   6.311 -15.472  0.00  0.00     0.138 A 
ATOM     19  N   UNK d   1      -1.766   6.337 -14.805  0.00  0.00    -0.075 NA
ENDBRANCH  11  14
ENDBRANCH   4   8
BRANCH   1  20
ATOM     20  C   UNK d   1       1.466  12.850 -13.104  0.00  0.00     0.045 A 
ATOM     21  C   UNK d   1       2.009  14.093 -12.854  0.00  0.00     0.031 A 
ATOM     22  C   UNK d   1       1.219  15.220 -12.747  0.00  0.00     0.020 A 
ATOM     23  C   UNK d   1      -0.150  15.141 -12.887  0.00  0.00     0.006 A 
ATOM     24  I   UNK d   1      -1.395  16.841 -12.732  0.00  0.00    -0.045 I 
ATOM     25  C   UNK d   1      -0.710  13.907 -13.137  0.00  0.00     0.020 A 
ATOM     26  C   UNK d   1       0.099  12.793 -13.240  0.00  0.00     0.031 A 
ENDBRANCH   1  20
TORSDOF 3
ENDMDL
