/Users/jonathanwahrer/Desktop/Msc/3_Semester/Drug_Design_Praktikum/waehrer_HTS_screening/HTS_experiment/out/docking_results/vina_output/6q9y/0950_docked.pdbqt
 OpenBabel03222219453D

 26 29  0  0  0  0  0  0  0  0999 V2000
   -0.0820   13.5650  -12.8020 C   0  0  0  0  0  0  0  0  0  0  0  0
    1.2540   13.3890  -12.4290 C   0  0  0  0  0  0  0  0  0  0  0  0
    2.0780   14.1460  -11.6840 N   0  0  0  0  0  0  0  0  0  0  0  0
    3.2360   13.5570  -11.6230 O   0  0  0  0  0  0  0  0  0  0  0  0
    3.2120   12.4470  -12.2940 N   0  0  0  0  0  0  0  0  0  0  0  0
    1.9830   12.2970  -12.8220 C   0  0  0  0  0  0  0  0  0  0  0  0
    1.3970   11.3290  -13.6100 C   0  0  0  0  0  0  0  0  0  0  0  0
    0.0850   11.5120  -13.9680 C   0  0  0  0  0  3  0  0  0  0  0  0
   -0.6680   12.6250  -13.5730 C   0  0  0  0  0  3  0  0  0  0  0  0
   -0.7350   14.7310  -12.3380 N   0  0  0  0  0  0  0  0  0  0  0  0
   -0.8730   15.9380  -13.0080 C   0  0  0  0  0  0  0  0  0  0  0  0
   -0.3720   16.0790  -14.1770 O   0  0  0  0  0  0  0  0  0  0  0  0
   -1.1690   14.7060  -11.3610 H   0  0  0  0  0  0  0  0  0  0  0  0
   -1.5690   17.1240  -12.4750 C   0  0  0  0  0  0  0  0  0  0  0  0
   -2.6540   17.8090  -12.9000 C   0  0  0  0  0  0  0  0  0  0  0  0
   -3.8100   17.4870  -14.6050 I   0  0  0  0  0  0  0  0  0  0  0  0
   -2.8820   18.8340  -11.9820 C   0  0  0  0  0  3  0  0  0  0  0  0
   -1.9510   18.7610  -11.0290 N   0  0  0  0  0  0  0  0  0  0  0  0
   -1.1750   17.7530  -11.3170 N   0  0  0  0  0  0  0  0  0  0  0  0
   -1.8540   19.6700   -9.8790 C   0  0  0  0  0  1  0  0  0  0  0  0
    2.1670   10.2070  -14.0060 N   0  0  0  0  0  0  0  0  0  0  0  0
    3.5400   10.3690  -14.4350 C   0  0  0  0  0  2  0  0  0  0  0  0
    4.1240    9.0270  -14.7100 C   0  0  0  0  0  2  0  0  0  0  0  0
    3.9160    8.1000  -13.7080 O   0  0  0  0  0  0  0  0  0  0  0  0
    2.6150    7.8860  -13.3790 C   0  0  0  0  0  2  0  0  0  0  0  0
    1.6450    8.8550  -14.0070 C   0  0  0  0  0  2  0  0  0  0  0  0
  1  2  1  0  0  0  0
  1 10  1  0  0  0  0
  2  3  2  0  0  0  0
  3  4  1  0  0  0  0
  5  4  1  0  0  0  0
  6  2  1  0  0  0  0
  6  5  2  0  0  0  0
  7  6  1  0  0  0  0
  8  7  2  0  0  0  0
  8  9  1  0  0  0  0
  9  1  2  0  0  0  0
 10 13  1  0  0  0  0
 11 14  1  0  0  0  0
 11 10  1  0  0  0  0
 12 11  2  0  0  0  0
 14 19  2  0  0  0  0
 15 14  1  0  0  0  0
 15 17  2  0  0  0  0
 16 15  1  0  0  0  0
 17 18  1  0  0  0  0
 18 20  1  0  0  0  0
 19 18  1  0  0  0  0
 21  7  1  0  0  0  0
 22 21  1  0  0  0  0
 23 22  1  0  0  0  0
 23 24  1  0  0  0  0
 24 25  1  0  0  0  0
 26 21  1  0  0  0  0
 26 25  1  0  0  0  0
M  END
>  <Pose>
1

>  <Score>
-8.244

$$$$
