MODEL 1
REMARK VINA RESULT:    -8.244      0.000      0.000
REMARK INTER + INTRA:          -9.898
REMARK INTER:                  -9.690
REMARK INTRA:                  -0.208
REMARK UNBOUND:                -0.208
REMARK  3 active torsions:
REMARK  status: ('A' for Active; 'I' for Inactive)
REMARK    1  A    between atoms: C_6  and  C_7 
REMARK       I    between atoms: C_7  and  N_9 
REMARK    2  A    between atoms: N_9  and  C_10 
REMARK    3  A    between atoms: C_16  and  N_19 
ROOT
ATOM      1  C   UNK d   1      -0.082  13.565 -12.802  0.00  0.00     0.069 A 
ATOM      2  C   UNK d   1       1.254  13.389 -12.429  0.00  0.00     0.146 A 
ATOM      3  N   UNK d   1       2.078  14.146 -11.684  0.00  0.00    -0.101 NA
ATOM      4  O   UNK d   1       3.236  13.557 -11.623  0.00  0.00    -0.106 OA
ATOM      5  N   UNK d   1       3.212  12.447 -12.294  0.00  0.00    -0.101 NA
ATOM      6  C   UNK d   1       1.983  12.297 -12.822  0.00  0.00     0.146 A 
ATOM      7  C   UNK d   1       1.397  11.329 -13.610  0.00  0.00     0.064 A 
ATOM      8  C   UNK d   1       0.085  11.512 -13.968  0.00  0.00     0.034 A 
ATOM      9  C   UNK d   1      -0.668  12.625 -13.573  0.00  0.00     0.034 A 
ENDROOT
BRANCH   1  10
ATOM     10  N   UNK d   1      -0.735  14.731 -12.338  0.00  0.00    -0.319 N 
ATOM     11  C   UNK d   1      -0.873  15.938 -13.008  0.00  0.00     0.278 C 
ATOM     12  O   UNK d   1      -0.372  16.079 -14.177  0.00  0.00    -0.265 OA
ATOM     13  H   UNK d   1      -1.169  14.706 -11.361  0.00  0.00     0.169 HD
BRANCH  11  14
ATOM     14  C   UNK d   1      -1.569  17.124 -12.475  0.00  0.00     0.162 A 
ATOM     15  C   UNK d   1      -2.654  17.809 -12.900  0.00  0.00     0.059 A 
ATOM     16  I   UNK d   1      -3.810  17.487 -14.605  0.00  0.00    -0.040 I 
ATOM     17  C   UNK d   1      -2.882  18.834 -11.982  0.00  0.00     0.132 A 
ATOM     18  N   UNK d   1      -1.951  18.761 -11.029  0.00  0.00    -0.283 N 
ATOM     19  N   UNK d   1      -1.175  17.753 -11.317  0.00  0.00    -0.166 NA
ATOM     20  C   UNK d   1      -1.854  19.670  -9.879  0.00  0.00     0.179 C 
ENDBRANCH  11  14
ENDBRANCH   1  10
BRANCH   7  21
ATOM     21  N   UNK d   1       2.167  10.207 -14.006  0.00  0.00    -0.375 N 
ATOM     22  C   UNK d   1       3.540  10.369 -14.435  0.00  0.00     0.149 C 
ATOM     23  C   UNK d   1       4.124   9.027 -14.710  0.00  0.00     0.187 C 
ATOM     24  O   UNK d   1       3.916   8.100 -13.708  0.00  0.00    -0.388 OA
ATOM     25  C   UNK d   1       2.615   7.886 -13.379  0.00  0.00     0.187 C 
ATOM     26  C   UNK d   1       1.645   8.855 -14.007  0.00  0.00     0.149 C 
ENDBRANCH   7  21
TORSDOF 3
ENDMDL
