MODEL 1
REMARK VINA RESULT:    -8.302      0.000      0.000
REMARK INTER + INTRA:         -11.537
REMARK INTER:                 -10.729
REMARK INTRA:                  -0.808
REMARK UNBOUND:                -0.808
REMARK  6 active torsions:
REMARK  status: ('A' for Active; 'I' for Inactive)
REMARK    1  A    between atoms: N_5  and  C_7 
REMARK    2  A    between atoms: C_9  and  C_13 
REMARK    3  A    between atoms: C_10  and  O_12 
REMARK    4  A    between atoms: C_13  and  O_14 
REMARK    5  A    between atoms: C_18  and  N_19 
REMARK       I    between atoms: N_19  and  C_20 
REMARK    6  A    between atoms: C_20  and  C_22 
ROOT
ATOM      1  I   UNK d   1       2.234  10.017 -14.255  0.00  0.00    -0.042 I 
ATOM      2  C   UNK d   1       3.278   8.246 -13.787  0.00  0.00     0.040 A 
ATOM      3  C   UNK d   1       2.761   7.137 -13.186  0.00  0.00     0.074 A 
ATOM      4  C   UNK d   1       3.837   6.253 -13.099  0.00  0.00     0.148 A 
ATOM      5  N   UNK d   1       4.951   6.778 -13.612  0.00  0.00    -0.312 N 
ATOM      6  C   UNK d   1       4.618   7.997 -14.035  0.00  0.00     0.114 A 
ATOM      7  N   UNK d   1       3.613   5.053 -12.537  0.00  0.00    -0.223 NA
ATOM      8  C   UNK d   1       2.397   4.719 -12.078  0.00  0.00     0.237 A 
ATOM      9  N   UNK d   1       1.368   5.568 -12.164  0.00  0.00    -0.223 NA
ATOM     10  C   UNK d   1       1.508   6.811 -12.721  0.00  0.00     0.147 A 
ENDROOT
BRANCH   5  11
ATOM     11  C   UNK d   1       6.255   6.195 -13.710  0.00  0.00     0.232 C 
ATOM     12  O   UNK d   1       6.722   5.666 -12.513  0.00  0.00    -0.356 OA
ATOM     13  C   UNK d   1       8.025   5.299 -12.837  0.00  0.00     0.176 C 
ATOM     14  C   UNK d   1       8.584   6.391 -13.719  0.00  0.00     0.153 C 
ATOM     15  C   UNK d   1       7.338   7.238 -14.002  0.00  0.00     0.088 C 
BRANCH  13  16
ATOM     16  C   UNK d   1       8.893   5.282 -11.571  0.00  0.00     0.198 C 
BRANCH  16  17
ATOM     17  O   UNK d   1      10.121   5.892 -11.859  0.00  0.00    -0.398 OA
ATOM     18  H   UNK d   1      10.697   5.944 -11.031  0.00  0.00     0.209 HD
ENDBRANCH  16  17
ENDBRANCH  13  16
BRANCH  14  19
ATOM     19  O   UNK d   1       9.005   5.894 -14.954  0.00  0.00    -0.393 OA
ATOM     20  H   UNK d   1       8.755   4.918 -14.946  0.00  0.00     0.210 HD
ENDBRANCH  14  19
ENDBRANCH   5  11
BRANCH  10  21
ATOM     21  N   UNK d   1       0.377   7.674 -12.785  0.00  0.00    -0.306 N 
ATOM     22  C   UNK d   1      -0.635   7.399 -13.750  0.00  0.00     0.257 C 
ATOM     23  O   UNK d   1      -0.467   6.400 -14.493  0.00  0.00    -0.267 OA
ATOM     24  H   UNK d   1       0.216   8.492 -12.193  0.00  0.00     0.170 HD
BRANCH  22  25
ATOM     25  C   UNK d   1      -1.825   8.186 -13.923  0.00  0.00     0.032 A 
ATOM     26  C   UNK d   1      -1.876   9.494 -13.526  0.00  0.00     0.017 A 
ATOM     27  C   UNK d   1      -3.023  10.274 -13.691  0.00  0.00     0.001 A 
ATOM     28  C   UNK d   1      -4.131   9.721 -14.263  0.00  0.00     0.000 A 
ATOM     29  C   UNK d   1      -4.110   8.412 -14.670  0.00  0.00     0.001 A 
ATOM     30  C   UNK d   1      -2.949   7.650 -14.495  0.00  0.00     0.017 A 
ENDBRANCH  22  25
ENDBRANCH  10  21
TORSDOF 6
ENDMDL
