MODEL 1
REMARK VINA RESULT:    -9.894      0.000      0.000
REMARK INTER + INTRA:         -12.138
REMARK INTER:                 -11.630
REMARK INTRA:                  -0.508
REMARK UNBOUND:                -0.508
REMARK  3 active torsions:
REMARK  status: ('A' for Active; 'I' for Inactive)
REMARK    1  A    between atoms: C_7  and  C_8 
REMARK    2  A    between atoms: C_9  and  C_10 
REMARK    3  A    between atoms: C_16  and  C_19 
ROOT
ATOM      1  C   UNK d   1       1.262  11.265 -13.091  0.00  0.00     0.065 A 
ATOM      2  N   UNK d   1       2.418  10.758 -12.737  0.00  0.00    -0.359 N 
ATOM      3  C   UNK d   1       3.409  11.576 -12.271  0.00  0.00     0.093 A 
ATOM      4  C   UNK d   1       3.279  12.924 -12.140  0.00  0.00     0.049 A 
ATOM      5  C   UNK d   1       2.076  13.494 -12.499  0.00  0.00     0.068 A 
ATOM      6  N   UNK d   1       1.585  14.781 -12.506  0.00  0.00    -0.333 N 
ATOM      7  C   UNK d   1       0.342  14.774 -12.958  0.00  0.00     0.141 A 
ATOM      8  N   UNK d   1       0.052  13.474 -13.234  0.00  0.00    -0.226 NA
ATOM      9  C   UNK d   1       1.091  12.674 -12.964  0.00  0.00     0.113 A 
ATOM     10  C   UNK d   1       2.401  15.868 -12.043  0.00  0.00     0.158 C 
ATOM     11  C   UNK d   1       2.672   9.347 -12.748  0.00  0.00     0.156 C 
ENDROOT
BRANCH   1  12
ATOM     12  C   UNK d   1       0.149  10.558 -13.696  0.00  0.00     0.033 C 
ATOM     13  C   UNK d   1      -0.755   9.786 -13.206  0.00  0.00     0.015 C 
BRANCH  13  14
ATOM     14  C   UNK d   1      -1.870   9.089 -13.805  0.00  0.00    -0.016 A 
ATOM     15  C   UNK d   1      -1.907   7.788 -14.184  0.00  0.00     0.024 A 
ATOM     16 Br   UNK d   1      -0.341   6.707 -14.090  0.00  0.00    -0.050 Br
ATOM     17  C   UNK d   1      -3.081   7.188 -14.705  0.00  0.00     0.059 A 
ATOM     18  C   UNK d   1      -4.232   7.915 -14.847  0.00  0.00     0.106 A 
ATOM     19  C   UNK d   1      -4.224   9.241 -14.472  0.00  0.00     0.105 A 
ATOM     20  O   UNK d   1      -5.521   7.638 -15.312  0.00  0.00    -0.323 OA
ATOM     21  C   UNK d   1      -3.078   9.813 -13.967  0.00  0.00     0.052 A 
ATOM     22  O   UNK d   1      -5.511   9.747 -14.719  0.00  0.00    -0.323 OA
ATOM     23  C   UNK d   1      -6.373   8.629 -14.738  0.00  0.00     0.352 C 
ENDBRANCH  13  14
ENDBRANCH   1  12
BRANCH   7  24
ATOM     24  C   UNK d   1      -0.592  15.893 -13.127  0.00  0.00     0.010 A 
ATOM     25  C   UNK d   1      -1.175  16.255 -14.296  0.00  0.00     0.015 A 
ATOM     26  C   UNK d   1      -2.036  17.368 -14.342  0.00  0.00     0.001 A 
ATOM     27  C   UNK d   1      -2.292  18.096 -13.203  0.00  0.00     0.000 A 
ATOM     28  C   UNK d   1      -1.709  17.745 -11.993  0.00  0.00     0.001 A 
ATOM     29  C   UNK d   1      -0.886  16.667 -11.992  0.00  0.00     0.015 A 
ENDBRANCH   7  24
TORSDOF 3
ENDMDL
