MODEL 1
REMARK VINA RESULT:    -8.416      0.000      0.000
REMARK INTER + INTRA:          -8.180
REMARK INTER:                  -9.400
REMARK INTRA:                   1.220
REMARK UNBOUND:                 1.220
REMARK  2 active torsions:
REMARK  status: ('A' for Active; 'I' for Inactive)
REMARK    1  A    between atoms: C_10  and  C_21 
REMARK    2  A    between atoms: C_26  and  C_27 
ROOT
ATOM      1 Br   UNK d   1      -0.918  13.767 -13.102  0.00  0.00    -0.045 Br
ATOM      2  C   UNK d   1       0.479  12.486 -12.958  0.00  0.00     0.083 A 
ATOM      3  C   UNK d   1       0.299  11.128 -13.206  0.00  0.00     0.107 A 
ATOM      4  C   UNK d   1       1.350  10.234 -13.085  0.00  0.00     0.013 A 
ATOM      5  C   UNK d   1       2.602  10.683 -12.716  0.00  0.00     0.037 A 
ATOM      6  C   UNK d   1       2.787  12.015 -12.471  0.00  0.00     0.049 A 
ATOM      7  C   UNK d   1       1.741  12.895 -12.592  0.00  0.00     0.144 A 
ATOM      8  O   UNK d   1       2.009  14.250 -12.325  0.00  0.00    -0.189 OA
ATOM      9 Br   UNK d   1       4.552  12.574 -11.962  0.00  0.00    -0.048 Br
ATOM     10  C   UNK d   1       1.199   8.885 -13.324  0.00  0.00     0.003 A 
ATOM     11  C   UNK d   1      -0.054   8.444 -13.695  0.00  0.00     0.013 A 
ATOM     12  C   UNK d   1      -1.108   9.460 -13.796  0.00  0.00     0.108 A 
ATOM     13  C   UNK d   1      -2.371   8.998 -14.170  0.00  0.00     0.097 A 
ATOM     14  C   UNK d   1      -2.583   7.662 -14.422  0.00  0.00     0.209 A 
ATOM     15  O   UNK d   1      -3.737   7.293 -14.758  0.00  0.00    -0.285 OA
ATOM     16  C   UNK d   1      -1.562   6.723 -14.317  0.00  0.00     0.063 A 
ATOM     17  C   UNK d   1      -0.303   7.106 -13.956  0.00  0.00     0.038 A 
ATOM     18 Br   UNK d   1      -1.945   4.887 -14.687  0.00  0.00    -0.047 Br
ATOM     19 Br   UNK d   1      -3.800  10.274 -14.321  0.00  0.00    -0.044 Br
ATOM     20  O   UNK d   1      -0.898  10.733 -13.554  0.00  0.00    -0.306 OA
ENDROOT
BRANCH  10  21
ATOM     21  C   UNK d   1       2.310   7.941 -13.189  0.00  0.00     0.016 A 
ATOM     22  C   UNK d   1       2.287   6.962 -12.212  0.00  0.00     0.046 A 
ATOM     23  C   UNK d   1       3.323   6.065 -12.061  0.00  0.00     0.026 A 
ATOM     24 Cl   UNK d   1       0.891   6.865 -11.134  0.00  0.00    -0.083 Cl
ATOM     25  C   UNK d   1       4.405   6.156 -12.913  0.00  0.00     0.026 A 
ATOM     26  C   UNK d   1       4.467   7.104 -13.888  0.00  0.00     0.052 A 
ATOM     27  C   UNK d   1       3.423   7.992 -14.024  0.00  0.00     0.075 A 
ATOM     28 Cl   UNK d   1       5.881   7.147 -14.930  0.00  0.00    -0.083 Cl
BRANCH  27  29
ATOM     29  C   UNK d   1       3.484   9.004 -15.052  0.00  0.00     0.212 C 
ATOM     30  O   UNK d   1       4.312   9.955 -15.015  0.00  0.00    -0.644 OA
ATOM     31  O   UNK d   1       2.611   8.959 -16.137  0.00  0.00    -0.644 OA
ENDBRANCH  27  29
ENDBRANCH  10  21
TORSDOF 2
ENDMDL
