/Users/jonathanwahrer/Desktop/Msc/3_Semester/Drug_Design_Praktikum/waehrer_HTS_screening/HTS_experiment/out/docking_results/vina_output/6q9y/0969_docked.pdbqt
 OpenBabel03222219453D

 31 34  0  0  1  0  0  0  0  0999 V2000
   -0.9180   13.7670  -13.1020 Br  0  0  0  0  0  0  0  0  0  0  0  0
    0.4790   12.4860  -12.9580 C   0  0  0  0  0  0  0  0  0  0  0  0
    0.2990   11.1280  -13.2060 C   0  0  1  0  0  3  0  0  0  0  0  0
    1.3500   10.2340  -13.0850 C   0  0  0  0  0  0  0  0  0  0  0  0
    2.6020   10.6830  -12.7160 C   0  0  0  0  0  3  0  0  0  0  0  0
    2.7870   12.0150  -12.4710 C   0  0  0  0  0  0  0  0  0  0  0  0
    1.7410   12.8950  -12.5920 C   0  0  0  0  0  0  0  0  0  0  0  0
    2.0090   14.2500  -12.3250 O   0  0  0  0  0  1  0  0  0  0  0  0
    4.5520   12.5740  -11.9620 Br  0  0  0  0  0  0  0  0  0  0  0  0
    1.1990    8.8850  -13.3240 C   0  0  0  0  0  0  0  0  0  0  0  0
   -0.0540    8.4440  -13.6950 C   0  0  0  0  0  0  0  0  0  0  0  0
   -1.1080    9.4600  -13.7960 C   0  0  0  0  0  0  0  0  0  0  0  0
   -2.3710    8.9980  -14.1700 C   0  0  1  0  0  3  0  0  0  0  0  0
   -2.5830    7.6620  -14.4220 C   0  0  0  0  0  0  0  0  0  0  0  0
   -3.7370    7.2930  -14.7580 O   0  0  0  0  0  0  0  0  0  0  0  0
   -1.5620    6.7230  -14.3170 C   0  0  0  0  0  0  0  0  0  0  0  0
   -0.3030    7.1060  -13.9560 C   0  0  0  0  0  3  0  0  0  0  0  0
   -1.9450    4.8870  -14.6870 Br  0  0  0  0  0  0  0  0  0  0  0  0
   -3.8000   10.2740  -14.3210 Br  0  0  0  0  0  0  0  0  0  0  0  0
   -0.8980   10.7330  -13.5540 O   0  0  0  0  0  0  0  0  0  0  0  0
    2.3100    7.9410  -13.1890 C   0  0  0  0  0  0  0  0  0  0  0  0
    2.2870    6.9620  -12.2120 C   0  0  0  0  0  0  0  0  0  0  0  0
    3.3230    6.0650  -12.0610 C   0  0  0  0  0  3  0  0  0  0  0  0
    0.8910    6.8650  -11.1340 Cl  0  0  0  0  0  0  0  0  0  0  0  0
    4.4050    6.1560  -12.9130 C   0  0  0  0  0  3  0  0  0  0  0  0
    4.4670    7.1040  -13.8880 C   0  0  0  0  0  0  0  0  0  0  0  0
    3.4230    7.9920  -14.0240 C   0  0  0  0  0  0  0  0  0  0  0  0
    5.8810    7.1470  -14.9300 Cl  0  0  0  0  0  0  0  0  0  0  0  0
    3.4840    9.0040  -15.0520 C   0  0  0  0  0  0  0  0  0  0  0  0
    4.3120    9.9550  -15.0150 O   0  0  0  0  0  1  0  0  0  0  0  0
    2.6110    8.9590  -16.1370 O   0  0  0  0  0  0  0  0  0  0  0  0
  1  2  1  0  0  0  0
  2  7  2  0  0  0  0
  3 20  1  1  0  0  0
  3  4  1  0  0  0  0
  3  2  1  0  0  0  0
  4  5  1  0  0  0  0
  5  6  2  0  0  0  0
  6  9  1  0  0  0  0
  7  6  1  0  0  0  0
  7  8  1  0  0  0  0
 10 21  1  0  0  0  0
 10  4  2  0  0  0  0
 11 10  1  0  0  0  0
 12 11  2  0  0  0  0
 12 20  1  0  0  0  0
 13 19  1  1  0  0  0
 13 12  1  0  0  0  0
 14 16  1  0  0  0  0
 14 13  1  0  0  0  0
 15 14  2  0  0  0  0
 16 17  2  0  0  0  0
 17 11  1  0  0  0  0
 18 16  1  0  0  0  0
 21 22  1  0  0  0  0
 22 23  2  0  0  0  0
 22 24  1  0  0  0  0
 25 23  1  0  0  0  0
 26 25  2  0  0  0  0
 27 26  1  0  0  0  0
 27 21  2  0  0  0  0
 28 26  1  0  0  0  0
 29 30  1  0  0  0  0
 29 27  1  0  0  0  0
 31 29  2  0  0  0  0
M  END
>  <Pose>
1

>  <Score>
-8.416

$$$$
