MODEL 1
REMARK VINA RESULT:    -3.783      0.000      0.000
REMARK INTER + INTRA:          -3.783
REMARK INTER:                  -3.783
REMARK INTRA:                   0.000
REMARK UNBOUND:                 0.000
REMARK  0 active torsions:
REMARK  status: ('A' for Active; 'I' for Inactive)
ROOT
ATOM      1 Br   UNK d   1      -1.155  14.190 -12.615  0.00  0.00    -0.045 Br
ATOM      2  C   UNK d   1       0.269  12.929 -12.753  0.00  0.00     0.083 A 
ATOM      3  C   UNK d   1       0.037  11.601 -13.157  0.00  0.00     0.106 A 
ATOM      4  C   UNK d   1       1.027  10.669 -13.268  0.00  0.00     0.023 A 
ATOM      5  C   UNK d   1       2.329  11.072 -12.960  0.00  0.00     0.036 A 
ATOM      6  C   UNK d   1       2.553  12.358 -12.567  0.00  0.00     0.049 A 
ATOM      7  C   UNK d   1       1.556  13.305 -12.455  0.00  0.00     0.144 A 
ATOM      8  O   UNK d   1       1.862  14.614 -12.044  0.00  0.00    -0.189 OA
ATOM      9 Br   UNK d   1       4.328  12.916 -12.145  0.00  0.00    -0.048 Br
ATOM     10  C   UNK d   1       0.756   9.302 -13.690  0.00  0.00     0.159 A 
ATOM     11  O   UNK d   1       1.457   9.108 -14.917  0.00  0.00    -0.291 OA
ATOM     12  C   UNK d   1       2.388   8.109 -14.826  0.00  0.00     0.295 A 
ATOM     13  O   UNK d   1       3.142   7.729 -15.750  0.00  0.00    -0.259 OA
ATOM     14  C   UNK d   1       2.303   7.609 -13.467  0.00  0.00     0.049 A 
ATOM     15  C   UNK d   1       1.342   8.295 -12.760  0.00  0.00     0.003 A 
ATOM     16  C   UNK d   1       1.132   7.951 -11.465  0.00  0.00     0.012 A 
ATOM     17  C   UNK d   1       1.873   6.939 -10.892  0.00  0.00     0.001 A 
ATOM     18  C   UNK d   1       2.837   6.250 -11.597  0.00  0.00     0.001 A 
ATOM     19  C   UNK d   1       3.060   6.585 -12.906  0.00  0.00     0.018 A 
ATOM     20  C   UNK d   1      -0.652   9.042 -13.974  0.00  0.00     0.023 A 
ATOM     21  C   UNK d   1      -1.600  10.018 -13.845  0.00  0.00     0.106 A 
ATOM     22  C   UNK d   1      -2.955   9.749 -14.124  0.00  0.00     0.083 A 
ATOM     23  C   UNK d   1      -3.309   8.483 -14.530  0.00  0.00     0.144 A 
ATOM     24  C   UNK d   1      -2.353   7.487 -14.664  0.00  0.00     0.049 A 
ATOM     25  C   UNK d   1      -1.041   7.756 -14.391  0.00  0.00     0.036 A 
ATOM     26 Br   UNK d   1      -2.827   5.729 -15.225  0.00  0.00    -0.048 Br
ATOM     27  O   UNK d   1      -4.645   8.232 -14.801  0.00  0.00    -0.189 OA
ATOM     28 Br   UNK d   1      -4.252  11.141 -13.931  0.00  0.00    -0.045 Br
ATOM     29  O   UNK d   1      -1.300  11.312 -13.440  0.00  0.00    -0.306 OA
ENDROOT
TORSDOF 0
ENDMDL
