MODEL 1
REMARK VINA RESULT:     9.404      0.000      0.000
REMARK INTER + INTRA:           9.404
REMARK INTER:                   9.404
REMARK INTRA:                   0.000
REMARK UNBOUND:                 0.000
REMARK  0 active torsions:
REMARK  status: ('A' for Active; 'I' for Inactive)
ROOT
ATOM      1  I   UNK d   1       2.986   3.019 -12.548  0.00  0.00    -0.038 I 
ATOM      2  C   UNK d   1       3.628   4.975 -13.016  0.00  0.00     0.078 A 
ATOM      3  C   UNK d   1       2.642   5.923 -13.272  0.00  0.00     0.105 A 
ATOM      4  C   UNK d   1       3.024   7.189 -13.575  0.00  0.00     0.023 A 
ATOM      5  C   UNK d   1       4.386   7.495 -13.621  0.00  0.00     0.035 A 
ATOM      6  C   UNK d   1       5.370   6.564 -13.369  0.00  0.00     0.045 A 
ATOM      7  C   UNK d   1       4.973   5.278 -13.060  0.00  0.00     0.143 A 
ATOM      8  O   UNK d   1       5.946   4.324 -12.804  0.00  0.00    -0.189 OA
ATOM      9  I   UNK d   1       7.424   7.080 -13.451  0.00  0.00    -0.042 I 
ATOM     10  C   UNK d   1       2.079   8.253 -13.859  0.00  0.00     0.161 A 
ATOM     11  O   UNK d   1       2.278   8.792 -15.174  0.00  0.00    -0.291 OA
ATOM     12  C   UNK d   1       2.536  10.137 -15.148  0.00  0.00     0.297 A 
ATOM     13  O   UNK d   1       2.760  10.935 -16.104  0.00  0.00    -0.259 OA
ATOM     14  C   UNK d   1       2.512  10.530 -13.747  0.00  0.00     0.074 A 
ATOM     15  C   UNK d   1       2.244   9.429 -12.990  0.00  0.00     0.028 A 
ATOM     16  C   UNK d   1       2.164   9.532 -11.601  0.00  0.00     0.068 A 
ATOM     17  C   UNK d   1       2.352  10.740 -10.965  0.00  0.00     0.080 A 
ATOM     18  C   UNK d   1       2.625  11.863 -11.741  0.00  0.00     0.080 A 
ATOM     19  C   UNK d   1       2.704  11.766 -13.107  0.00  0.00     0.074 A 
ATOM     20 Cl   UNK d   1       3.043  13.165 -14.053  0.00  0.00    -0.081 Cl
ATOM     21 Cl   UNK d   1       2.872  13.419 -10.998  0.00  0.00    -0.081 Cl
ATOM     22 Cl   UNK d   1       2.244  10.832  -9.222  0.00  0.00    -0.081 Cl
ATOM     23 Cl   UNK d   1       1.821   8.093 -10.699  0.00  0.00    -0.082 Cl
ATOM     24  C   UNK d   1       0.669   7.785 -13.775  0.00  0.00     0.023 A 
ATOM     25  C   UNK d   1       0.323   6.514 -13.469  0.00  0.00     0.105 A 
ATOM     26  C   UNK d   1      -1.036   6.209 -13.424  0.00  0.00     0.078 A 
ATOM     27  C   UNK d   1      -2.019   7.140 -13.676  0.00  0.00     0.143 A 
ATOM     28  C   UNK d   1      -1.629   8.427 -13.984  0.00  0.00     0.045 A 
ATOM     29  C   UNK d   1      -0.300   8.762 -14.038  0.00  0.00     0.035 A 
ATOM     30  I   UNK d   1      -3.110   9.874 -14.374  0.00  0.00    -0.042 I 
ATOM     31  O   UNK d   1      -3.356   6.841 -13.631  0.00  0.00    -0.189 OA
ATOM     32  I   UNK d   1      -1.585   4.240 -12.951  0.00  0.00    -0.038 I 
ATOM     33  O   UNK d   1       1.284   5.553 -13.211  0.00  0.00    -0.307 OA
ENDROOT
TORSDOF 0
ENDMDL
