MODEL 1
REMARK VINA RESULT:     0.390      0.000      0.000
REMARK INTER + INTRA:           0.390
REMARK INTER:                   0.390
REMARK INTRA:                   0.000
REMARK UNBOUND:                 0.000
REMARK  0 active torsions:
REMARK  status: ('A' for Active; 'I' for Inactive)
ROOT
ATOM      1  I   UNK d   1       3.266   3.295 -12.265  0.00  0.00    -0.038 I 
ATOM      2  C   UNK d   1       3.906   5.179 -12.991  0.00  0.00     0.078 A 
ATOM      3  C   UNK d   1       2.893   6.106 -13.292  0.00  0.00     0.105 A 
ATOM      4  C   UNK d   1       3.277   7.322 -13.759  0.00  0.00     0.023 A 
ATOM      5  C   UNK d   1       4.648   7.595 -13.919  0.00  0.00     0.035 A 
ATOM      6  C   UNK d   1       5.634   6.691 -13.625  0.00  0.00     0.045 A 
ATOM      7  C   UNK d   1       5.244   5.458 -13.151  0.00  0.00     0.143 A 
ATOM      8  O   UNK d   1       6.216   4.518 -12.843  0.00  0.00    -0.189 OA
ATOM      9  I   UNK d   1       7.682   7.169 -13.889  0.00  0.00    -0.042 I 
ATOM     10  C   UNK d   1       2.295   8.357 -14.102  0.00  0.00     0.159 A 
ATOM     11  O   UNK d   1       2.487   8.851 -15.413  0.00  0.00    -0.291 OA
ATOM     12  C   UNK d   1       2.762  10.193 -15.432  0.00  0.00     0.295 A 
ATOM     13  O   UNK d   1       2.983  10.942 -16.421  0.00  0.00    -0.259 OA
ATOM     14  C   UNK d   1       2.758  10.650 -14.049  0.00  0.00     0.049 A 
ATOM     15  C   UNK d   1       2.486   9.579 -13.260  0.00  0.00     0.003 A 
ATOM     16  C   UNK d   1       2.429   9.773 -11.875  0.00  0.00     0.012 A 
ATOM     17  C   UNK d   1       2.645  11.022 -11.340  0.00  0.00     0.001 A 
ATOM     18  C   UNK d   1       2.923  12.110 -12.139  0.00  0.00     0.001 A 
ATOM     19  C   UNK d   1       2.982  11.933 -13.500  0.00  0.00     0.018 A 
ATOM     20  C   UNK d   1       0.901   7.932 -13.885  0.00  0.00     0.023 A 
ATOM     21  C   UNK d   1       0.582   6.704 -13.415  0.00  0.00     0.105 A 
ATOM     22  C   UNK d   1      -0.756   6.370 -13.236  0.00  0.00     0.078 A 
ATOM     23  C   UNK d   1      -1.745   7.268 -13.527  0.00  0.00     0.143 A 
ATOM     24  C   UNK d   1      -1.456   8.525 -14.005  0.00  0.00     0.045 A 
ATOM     25  C   UNK d   1      -0.134   8.830 -14.174  0.00  0.00     0.035 A 
ATOM     26  I   UNK d   1      -2.990   9.910 -14.453  0.00  0.00    -0.042 I 
ATOM     27  O   UNK d   1      -3.073   6.909 -13.337  0.00  0.00    -0.189 OA
ATOM     28  I   UNK d   1      -1.248   4.438 -12.497  0.00  0.00    -0.038 I 
ATOM     29  O   UNK d   1       1.557   5.743 -13.101  0.00  0.00    -0.307 OA
ENDROOT
TORSDOF 0
ENDMDL
