MODEL 1
REMARK VINA RESULT:    -9.503      0.000      0.000
REMARK INTER + INTRA:          -9.303
REMARK INTER:                 -10.614
REMARK INTRA:                   1.311
REMARK UNBOUND:                 1.311
REMARK  2 active torsions:
REMARK  status: ('A' for Active; 'I' for Inactive)
REMARK    1  A    between atoms: C_9  and  C_19 
REMARK    2  A    between atoms: C_20  and  C_25 
ROOT
ATOM      1  I   UNK d   1      -3.453  10.245 -14.028  0.00  0.00    -0.038 I 
ATOM      2  C   UNK d   1      -1.876   8.847 -14.040  0.00  0.00     0.077 A 
ATOM      3  C   UNK d   1      -0.573   9.195 -13.744  0.00  0.00     0.106 A 
ATOM      4  C   UNK d   1       0.461   8.284 -13.751  0.00  0.00     0.011 A 
ATOM      5  C   UNK d   1       0.156   6.974 -14.071  0.00  0.00     0.018 A 
ATOM      6  C   UNK d   1      -1.150   6.616 -14.370  0.00  0.00     0.042 A 
ATOM      7  C   UNK d   1      -2.186   7.541 -14.361  0.00  0.00     0.126 A 
ATOM      8  O   UNK d   1      -3.480   7.127 -14.669  0.00  0.00    -0.191 OA
ATOM      9  C   UNK d   1       1.769   8.612 -13.457  0.00  0.00     0.001 A 
ATOM     10  C   UNK d   1       2.002   9.948 -13.145  0.00  0.00     0.011 A 
ATOM     11  C   UNK d   1       0.880  10.883 -13.149  0.00  0.00     0.107 A 
ATOM     12  C   UNK d   1       1.173  12.192 -12.830  0.00  0.00     0.091 A 
ATOM     13  C   UNK d   1       2.446  12.622 -12.522  0.00  0.00     0.191 A 
ATOM     14  O   UNK d   1       2.696  13.830 -12.232  0.00  0.00    -0.287 OA
ATOM     15  C   UNK d   1       3.508  11.739 -12.519  0.00  0.00     0.057 A 
ATOM     16  C   UNK d   1       3.247  10.420 -12.833  0.00  0.00     0.019 A 
ATOM     17  I   UNK d   1      -0.377  13.611 -12.809  0.00  0.00    -0.037 I 
ATOM     18  O   UNK d   1      -0.319  10.444 -13.446  0.00  0.00    -0.306 OA
ENDROOT
BRANCH   9  19
ATOM     19  C   UNK d   1       2.867   7.651 -13.464  0.00  0.00    -0.007 A 
ATOM     20  C   UNK d   1       2.818   6.584 -12.571  0.00  0.00     0.051 A 
ATOM     21  C   UNK d   1       3.825   5.656 -12.541  0.00  0.00     0.019 A 
ATOM     22  C   UNK d   1       4.893   5.783 -13.401  0.00  0.00     0.001 A 
ATOM     23  C   UNK d   1       4.966   6.829 -14.294  0.00  0.00     0.001 A 
ATOM     24  C   UNK d   1       3.942   7.750 -14.308  0.00  0.00     0.013 A 
BRANCH  20  25
ATOM     25  C   UNK d   1       1.690   6.440 -11.655  0.00  0.00     0.210 C 
ATOM     26  O   UNK d   1       1.413   7.289 -10.780  0.00  0.00    -0.644 OA
ATOM     27  O   UNK d   1       0.865   5.326 -11.723  0.00  0.00    -0.644 OA
ENDBRANCH  20  25
ENDBRANCH   9  19
TORSDOF 2
ENDMDL
