MODEL 1
REMARK VINA RESULT:    -7.437      0.000      0.000
REMARK INTER + INTRA:         -11.537
REMARK INTER:                  -9.610
REMARK INTRA:                  -1.926
REMARK UNBOUND:                -1.926
REMARK  5 active torsions:
REMARK  status: ('A' for Active; 'I' for Inactive)
REMARK    1  A    between atoms: S_1  and  O_5 
REMARK    2  A    between atoms: O_5  and  C_6 
REMARK    3  A    between atoms: C_10  and  C_11 
REMARK    4  A    between atoms: C_15  and  O_16 
REMARK    5  A    between atoms: O_16  and  S_17 
ROOT
ATOM      1  C   UNK d   1       0.185   7.976 -13.763  0.00  0.00     0.133 A 
ATOM      2  C   UNK d   1      -0.894   8.870 -13.740  0.00  0.00     0.030 A 
ATOM      3  C   UNK d   1      -0.315  10.115 -13.625  0.00  0.00     0.063 A 
ATOM      4  N   UNK d   1       1.016   9.965 -13.584  0.00  0.00    -0.350 N 
ATOM      5  C   UNK d   1       1.375   8.647 -13.669  0.00  0.00     0.099 A 
ATOM      6  C   UNK d   1      -1.145  11.232 -13.575  0.00  0.00     0.040 A 
ATOM      7  C   UNK d   1      -2.501  11.067 -13.641  0.00  0.00     0.040 A 
ATOM      8  C   UNK d   1      -3.093   9.806 -13.757  0.00  0.00     0.013 A 
ATOM      9  C   UNK d   1      -2.257   8.686 -13.807  0.00  0.00     0.036 A 
ATOM     10 Br   UNK d   1      -4.983   9.643 -13.844  0.00  0.00    -0.051 Br
ATOM     11 Br   UNK d   1      -0.377  12.956 -13.417  0.00  0.00    -0.049 Br
ATOM     12  H   UNK d   1       1.719  10.753 -13.498  0.00  0.00     0.166 HD
ENDROOT
BRANCH   5  13
ATOM     13  C   UNK d   1       2.745   8.147 -13.694  0.00  0.00     0.099 A 
ATOM     14  N   UNK d   1       3.054   6.837 -13.495  0.00  0.00    -0.350 N 
ATOM     15  C   UNK d   1       4.382   6.648 -13.554  0.00  0.00     0.063 A 
ATOM     16  H   UNK d   1       2.379   6.060 -13.320  0.00  0.00     0.166 HD
ATOM     17  C   UNK d   1       4.994   7.857 -13.797  0.00  0.00     0.030 A 
ATOM     18  C   UNK d   1       5.209   5.541 -13.426  0.00  0.00     0.040 A 
ATOM     19  C   UNK d   1       3.938   8.772 -13.877  0.00  0.00     0.133 A 
ATOM     20  C   UNK d   1       6.364   7.979 -13.911  0.00  0.00     0.036 A 
ATOM     21  C   UNK d   1       7.181   6.867 -13.781  0.00  0.00     0.013 A 
ATOM     22  C   UNK d   1       6.580   5.642 -13.536  0.00  0.00     0.040 A 
ATOM     23 Br   UNK d   1       9.086   7.012 -13.934  0.00  0.00    -0.051 Br
ATOM     24 Br   UNK d   1       4.447   3.826 -13.088  0.00  0.00    -0.049 Br
BRANCH  19  25
ATOM     25  O   UNK d   1       4.144  10.120 -14.108  0.00  0.00    -0.211 OA
BRANCH  25  26
ATOM     26  S   UNK d   1       4.175  11.268 -12.848  0.00  0.00     0.257 S 
ATOM     27  O   UNK d   1       5.377  11.069 -11.971  0.00  0.00    -0.572 OA
ATOM     28  O   UNK d   1       2.959  11.166 -11.972  0.00  0.00    -0.572 OA
ATOM     29  O   UNK d   1       4.154  12.831 -13.509  0.00  0.00    -0.572 OA
ENDBRANCH  25  26
ENDBRANCH  19  25
ENDBRANCH   5  13
BRANCH   1  30
ATOM     30  O   UNK d   1       0.016   6.600 -13.868  0.00  0.00    -0.211 OA
BRANCH  30  31
ATOM     31  S   UNK d   1      -0.032   5.603 -12.477  0.00  0.00     0.257 S 
ATOM     32  O   UNK d   1      -0.107   6.524 -11.291  0.00  0.00    -0.572 OA
ATOM     33  O   UNK d   1      -1.254   4.718 -12.490  0.00  0.00    -0.572 OA
ATOM     34  O   UNK d   1       1.373   4.691 -12.335  0.00  0.00    -0.572 OA
ENDBRANCH  30  31
ENDBRANCH   1  30
TORSDOF 5
ENDMDL
