MODEL 1
REMARK VINA RESULT:    -6.597      0.000      0.000
REMARK INTER + INTRA:          -7.166
REMARK INTER:                  -7.561
REMARK INTRA:                   0.395
REMARK UNBOUND:                 0.395
REMARK  4 active torsions:
REMARK  status: ('A' for Active; 'I' for Inactive)
REMARK    1  A    between atoms: C_7  and  N_10 
REMARK    2  A    between atoms: C_8  and  O_9 
REMARK    3  A    between atoms: C_13  and  N_21 
REMARK    4  A    between atoms: C_15  and  O_20 
ROOT
ATOM      1  N   UNK d   1       1.432  10.090 -13.921  0.00  0.00    -0.277 N 
ATOM      2  C   UNK d   1       0.258   9.451 -13.867  0.00  0.00     0.186 A 
ATOM      3  N   UNK d   1      -0.990   9.872 -13.523  0.00  0.00    -0.042 NA
ATOM      4  C   UNK d   1      -2.056   9.077 -13.531  0.00  0.00     0.724 A 
ATOM      5  N   UNK d   1      -1.895   7.792 -13.894  0.00  0.00    -0.036 NA
ATOM      6  C   UNK d   1      -0.686   7.308 -14.247  0.00  0.00     0.214 A 
ATOM      7  C   UNK d   1       0.421   8.131 -14.240  0.00  0.00     0.159 A 
ATOM      8  N   UNK d   1       1.724   7.987 -14.522  0.00  0.00    -0.216 NA
ATOM      9  C   UNK d   1       2.335   9.179 -14.326  0.00  0.00     0.182 A 
ATOM     10 Br   UNK d   1       4.198   9.545 -14.580  0.00  0.00    -0.008 Br
ENDROOT
BRANCH   1  11
ATOM     11  C   UNK d   1       1.594  11.484 -13.588  0.00  0.00     0.263 C 
ATOM     12  O   UNK d   1       2.327  11.663 -12.415  0.00  0.00    -0.353 OA
ATOM     13  C   UNK d   1       2.257  13.025 -12.258  0.00  0.00     0.180 C 
ATOM     14  C   UNK d   1       0.744  13.268 -12.318  0.00  0.00     0.198 C 
ATOM     15  C   UNK d   1       2.756  13.543 -10.962  0.00  0.00     0.216 C 
ATOM     16  O   UNK d   1       0.582  14.509 -12.928  0.00  0.00    -0.279 OA
ATOM     17  C   UNK d   1       0.266  12.130 -13.197  0.00  0.00     0.199 C 
ATOM     18  P   UNK d   1       1.811  15.514 -12.302  0.00  0.00     0.408 P 
ATOM     19  O   UNK d   1       2.849  15.823 -13.358  0.00  0.00    -0.624 OA
ATOM     20  O   UNK d   1       2.465  14.910 -10.892  0.00  0.00    -0.287 OA
ATOM     21  O   UNK d   1       1.050  17.003 -11.941  0.00  0.00    -0.624 OA
BRANCH  17  22
ATOM     22  O   UNK d   1      -0.460  12.549 -14.283  0.00  0.00    -0.388 OA
ATOM     23  H   UNK d   1      -0.382  13.550 -14.382  0.00  0.00     0.210 HD
ENDBRANCH  17  22
ENDBRANCH   1  11
BRANCH   4  24
ATOM     24  N   UNK d   1      -3.343   9.566 -13.162  0.00  0.00    -0.231 N 
ATOM     25  H   UNK d   1      -4.150   8.929 -13.335  0.00  0.00     0.174 HD
ATOM     26  H   UNK d   1      -3.485  10.516 -12.738  0.00  0.00     0.174 HD
ENDBRANCH   4  24
BRANCH   6  27
ATOM     27  O   UNK d   1      -0.515   5.980 -14.624  0.00  0.00    -0.343 OA
ATOM     28  H   UNK d   1       0.423   5.729 -14.971  0.00  0.00     0.219 HD
ENDBRANCH   6  27
TORSDOF 4
ENDMDL
