/Users/jonathanwahrer/Desktop/Msc/3_Semester/Drug_Design_Praktikum/waehrer_HTS_screening/HTS_experiment/out/docking_results/vina_output/6q9y/0985_docked.pdbqt
 OpenBabel03222219463D

 28 31  0  0  1  0  0  0  0  0999 V2000
    1.4320   10.0900  -13.9210 N   0  0  0  0  0  0  0  0  0  0  0  0
    0.2580    9.4510  -13.8670 C   0  0  0  0  0  0  0  0  0  0  0  0
   -0.9900    9.8720  -13.5230 N   0  0  0  0  0  0  0  0  0  0  0  0
   -2.0560    9.0770  -13.5310 C   0  0  0  0  0  0  0  0  0  0  0  0
   -1.8950    7.7920  -13.8940 N   0  0  0  0  0  0  0  0  0  0  0  0
   -0.6860    7.3080  -14.2470 C   0  0  0  0  0  0  0  0  0  0  0  0
    0.4210    8.1310  -14.2400 C   0  0  0  0  0  0  0  0  0  0  0  0
    1.7240    7.9870  -14.5220 N   0  0  0  0  0  0  0  0  0  0  0  0
    2.3350    9.1790  -14.3260 C   0  0  0  0  0  0  0  0  0  0  0  0
    4.1980    9.5450  -14.5800 Br  0  0  0  0  0  0  0  0  0  0  0  0
    1.5940   11.4840  -13.5880 C   0  0  2  0  0  3  0  0  0  0  0  0
    2.3270   11.6630  -12.4150 O   0  0  0  0  0  0  0  0  0  0  0  0
    2.2570   13.0250  -12.2580 C   0  0  1  0  0  3  0  0  0  0  0  0
    0.7440   13.2680  -12.3180 C   0  0  1  0  0  3  0  0  0  0  0  0
    2.7560   13.5430  -10.9620 C   0  0  0  0  0  2  0  0  0  0  0  0
    0.5820   14.5090  -12.9280 O   0  0  0  0  0  0  0  0  0  0  0  0
    0.2660   12.1300  -13.1970 C   0  0  1  0  0  3  0  0  0  0  0  0
    1.8110   15.5140  -12.3020 P   0  0  2  0  0  0  0  0  0  0  0  0
    2.8490   15.8230  -13.3580 O   0  0  0  0  0  0  0  0  0  0  0  0
    2.4650   14.9100  -10.8920 O   0  0  0  0  0  0  0  0  0  0  0  0
    1.0500   17.0030  -11.9410 O   0  0  0  0  0  1  0  0  0  0  0  0
   -0.4600   12.5490  -14.2830 O   0  0  0  0  0  0  0  0  0  0  0  0
   -0.3820   13.5500  -14.3820 H   0  0  0  0  0  0  0  0  0  0  0  0
   -3.3430    9.5660  -13.1620 N   0  0  0  0  0  0  0  0  0  0  0  0
   -4.1500    8.9290  -13.3350 H   0  0  0  0  0  0  0  0  0  0  0  0
   -3.4850   10.5160  -12.7380 H   0  0  0  0  0  0  0  0  0  0  0  0
   -0.5150    5.9800  -14.6240 O   0  0  0  0  0  0  0  0  0  0  0  0
    0.4230    5.7290  -14.9710 H   0  0  0  0  0  0  0  0  0  0  0  0
  1  2  1  0  0  0  0
  2  3  1  0  0  0  0
  4  3  2  0  0  0  0
  4 24  1  0  0  0  0
  5  4  1  0  0  0  0
  6  7  1  0  0  0  0
  6  5  2  0  0  0  0
  7  2  2  0  0  0  0
  8  9  2  0  0  0  0
  8  7  1  0  0  0  0
  9  1  1  0  0  0  0
 10  9  1  0  0  0  0
 11  1  1  1  0  0  0
 11 17  1  0  0  0  0
 11 12  1  0  0  0  0
 12 13  1  0  0  0  0
 13 15  1  1  0  0  0
 14 16  1  6  0  0  0
 14 13  1  0  0  0  0
 15 20  1  0  0  0  0
 16 18  1  0  0  0  0
 17 22  1  6  0  0  0
 17 14  1  0  0  0  0
 18 19  2  6  0  0  0
 18 21  1  0  0  0  0
 18 20  1  0  0  0  0
 23 22  1  0  0  0  0
 24 26  1  0  0  0  0
 25 24  1  0  0  0  0
 27  6  1  0  0  0  0
 28 27  1  0  0  0  0
M  END
>  <Pose>
1

>  <Score>
-6.597

$$$$
