/Users/jonathanwahrer/Desktop/Msc/3_Semester/Drug_Design_Praktikum/waehrer_HTS_screening/HTS_experiment/out/docking_results/vina_output/6q9y/0991_docked.pdbqt
 OpenBabel03222219473D

 34 39  0  0  1  0  0  0  0  0999 V2000
    2.1380   11.3620  -13.1470 N   0  0  0  0  0  0  0  0  0  0  0  0
    1.5830   12.5790  -12.9170 C   0  0  0  0  0  0  0  0  0  0  0  0
    2.4990   13.4280  -12.3350 C   0  0  0  0  0  0  0  0  0  0  0  0
    3.6290   12.7000  -12.2150 N   0  0  0  0  0  0  0  0  0  0  0  0
    3.4030   11.4640  -12.7030 C   0  0  0  0  0  0  0  0  0  0  0  0
    4.6450   10.0120  -12.7900 Br  0  0  0  0  0  0  0  0  0  0  0  0
    2.1260   14.7200  -12.0210 C   0  0  0  0  0  0  0  0  0  0  0  0
    2.9490   15.4990  -11.4920 O   0  0  0  0  0  0  0  0  0  0  0  0
    0.8810   15.1900  -12.2650 N   0  0  0  0  0  0  0  0  0  0  0  0
    0.0030   14.3440  -12.8340 C   0  0  0  0  0  0  0  0  0  0  0  0
   -1.1390   15.0400  -12.9690 N   0  0  0  0  0  0  0  0  0  0  0  0
   -1.0160   16.2970  -12.5070 C   0  0  0  0  0  0  0  0  0  0  0  0
    0.2830   16.3950  -12.0540 C   0  0  0  0  0  3  0  0  0  0  0  0
    0.3530   13.0650  -13.1520 N   0  0  0  0  0  0  0  0  0  0  0  0
   -0.3330   12.4120  -13.5940 H   0  0  0  0  0  0  0  0  0  0  0  0
    1.5070   10.1890  -13.7470 C   0  0  2  0  0  3  0  0  0  0  0  0
    0.1420   10.3950  -13.9300 O   0  0  0  0  0  0  0  0  0  0  0  0
   -0.4740    9.1740  -13.9390 C   0  0  1  0  0  3  0  0  0  0  0  0
    0.3060    8.3560  -12.9070 C   0  0  1  0  0  3  0  0  0  0  0  0
   -1.9060    9.2050  -13.4600 C   0  0  0  0  0  2  0  0  0  0  0  0
    0.2740    7.0390  -13.3580 O   0  0  0  0  0  0  0  0  0  0  0  0
    1.6790    8.9560  -12.9290 C   0  0  1  0  0  3  0  0  0  0  0  0
   -1.3150    6.7440  -13.8790 P   0  0  1  0  0  0  0  0  0  0  0  0
   -1.8260    5.2280  -13.2030 S   0  0  0  0  0  1  0  0  0  0  0  0
   -2.3820    7.9220  -13.3060 O   0  0  0  0  0  0  0  0  0  0  0  0
   -1.4230    6.7330  -15.5650 O   0  0  0  0  0  0  0  0  0  0  0  0
    2.5910    8.0740  -13.5240 O   0  0  0  0  0  0  0  0  0  0  0  0
    2.7230    7.2650  -12.9900 H   0  0  0  0  0  0  0  0  0  0  0  0
   -2.0420   17.3480  -12.4850 C   0  0  0  0  0  0  0  0  0  0  0  0
   -2.2420   18.1000  -11.3490 C   0  0  0  0  0  3  0  0  0  0  0  0
   -3.2040   19.1000  -11.2980 C   0  0  0  0  0  3  0  0  0  0  0  0
   -3.9710   19.3390  -12.4150 C   0  0  0  0  0  3  0  0  0  0  0  0
   -3.8020   18.6040  -13.5780 C   0  0  0  0  0  3  0  0  0  0  0  0
   -2.8330   17.6240  -13.5720 C   0  0  0  0  0  3  0  0  0  0  0  0
  1  2  1  0  0  0  0
  1  5  1  0  0  0  0
  2  3  2  0  0  0  0
  3  4  1  0  0  0  0
  3  7  1  0  0  0  0
  5  4  2  0  0  0  0
  6  5  1  0  0  0  0
  7  8  2  0  0  0  0
  9 13  1  0  0  0  0
  9  7  1  0  0  0  0
 10  9  1  0  0  0  0
 11 10  2  0  0  0  0
 11 12  1  0  0  0  0
 12 29  1  0  0  0  0
 12 13  2  0  0  0  0
 14  2  1  0  0  0  0
 14 10  1  0  0  0  0
 15 14  1  0  0  0  0
 16  1  1  1  0  0  0
 16 22  1  0  0  0  0
 17 16  1  0  0  0  0
 18 17  1  0  0  0  0
 18 20  1  1  0  0  0
 18 19  1  0  0  0  0
 19 21  1  6  0  0  0
 20 25  1  0  0  0  0
 22 27  1  6  0  0  0
 22 19  1  0  0  0  0
 23 26  2  6  0  0  0
 23 21  1  0  0  0  0
 23 25  1  0  0  0  0
 23 24  1  0  0  0  0
 27 28  1  0  0  0  0
 29 30  1  0  0  0  0
 30 31  2  0  0  0  0
 32 31  1  0  0  0  0
 33 34  1  0  0  0  0
 33 32  2  0  0  0  0
 34 29  2  0  0  0  0
M  END
>  <Pose>
1

>  <Score>
-8.884

$$$$
