MODEL 1
REMARK VINA RESULT:    -8.884      0.000      0.000
REMARK INTER + INTRA:         -10.036
REMARK INTER:                 -10.183
REMARK INTRA:                   0.146
REMARK UNBOUND:                 0.146
REMARK  3 active torsions:
REMARK  status: ('A' for Active; 'I' for Inactive)
REMARK    1  A    between atoms: C_7  and  N_10 
REMARK    2  A    between atoms: C_8  and  O_9 
REMARK    3  A    between atoms: C_21  and  C_23 
ROOT
ATOM      1  N   UNK d   1       2.138  11.362 -13.147  0.00  0.00    -0.279 N 
ATOM      2  C   UNK d   1       1.583  12.579 -12.917  0.00  0.00     0.162 A 
ATOM      3  C   UNK d   1       2.499  13.428 -12.335  0.00  0.00     0.173 A 
ATOM      4  N   UNK d   1       3.629  12.700 -12.215  0.00  0.00    -0.214 NA
ATOM      5  C   UNK d   1       3.403  11.464 -12.703  0.00  0.00     0.182 A 
ATOM      6 Br   UNK d   1       4.645  10.012 -12.790  0.00  0.00    -0.008 Br
ATOM      7  C   UNK d   1       2.126  14.720 -12.021  0.00  0.00     0.298 A 
ATOM      8  O   UNK d   1       2.949  15.499 -11.492  0.00  0.00    -0.264 OA
ATOM      9  N   UNK d   1       0.881  15.190 -12.265  0.00  0.00    -0.115 N 
ATOM     10  C   UNK d   1       0.003  14.344 -12.834  0.00  0.00     0.716 A 
ATOM     11  N   UNK d   1      -1.139  15.040 -12.969  0.00  0.00    -0.062 NA
ATOM     12  C   UNK d   1      -1.016  16.297 -12.507  0.00  0.00     0.102 A 
ATOM     13  C   UNK d   1       0.283  16.395 -12.054  0.00  0.00     0.152 A 
ATOM     14  N   UNK d   1       0.353  13.065 -13.152  0.00  0.00    -0.171 N 
ATOM     15  H   UNK d   1      -0.333  12.412 -13.594  0.00  0.00     0.186 HD
ENDROOT
BRANCH   1  16
ATOM     16  C   UNK d   1       1.507  10.189 -13.747  0.00  0.00     0.263 C 
ATOM     17  O   UNK d   1       0.142  10.395 -13.930  0.00  0.00    -0.353 OA
ATOM     18  C   UNK d   1      -0.474   9.174 -13.939  0.00  0.00     0.180 C 
ATOM     19  C   UNK d   1       0.306   8.356 -12.907  0.00  0.00     0.197 C 
ATOM     20  C   UNK d   1      -1.906   9.205 -13.460  0.00  0.00     0.214 C 
ATOM     21  O   UNK d   1       0.274   7.039 -13.358  0.00  0.00    -0.292 OA
ATOM     22  C   UNK d   1       1.679   8.956 -12.929  0.00  0.00     0.199 C 
ATOM     23  P   UNK d   1      -1.315   6.744 -13.879  0.00  0.00     0.422 P 
ATOM     24  S   UNK d   1      -1.826   5.228 -13.203  0.00  0.00     0.009 SA
ATOM     25  O   UNK d   1      -2.382   7.922 -13.306  0.00  0.00    -0.300 OA
ATOM     26  O   UNK d   1      -1.423   6.733 -15.565  0.00  0.00    -0.240 OA
BRANCH  22  27
ATOM     27  O   UNK d   1       2.591   8.074 -13.524  0.00  0.00    -0.388 OA
ATOM     28  H   UNK d   1       2.723   7.265 -12.990  0.00  0.00     0.210 HD
ENDBRANCH  22  27
ENDBRANCH   1  16
BRANCH  12  29
ATOM     29  C   UNK d   1      -2.042  17.348 -12.485  0.00  0.00    -0.005 A 
ATOM     30  C   UNK d   1      -2.242  18.100 -11.349  0.00  0.00     0.014 A 
ATOM     31  C   UNK d   1      -3.204  19.100 -11.298  0.00  0.00     0.001 A 
ATOM     32  C   UNK d   1      -3.971  19.339 -12.415  0.00  0.00     0.000 A 
ATOM     33  C   UNK d   1      -3.802  18.604 -13.578  0.00  0.00     0.001 A 
ATOM     34  C   UNK d   1      -2.833  17.624 -13.572  0.00  0.00     0.014 A 
ENDBRANCH  12  29
TORSDOF 3
ENDMDL
