MODEL 1
REMARK VINA RESULT:    -6.172      0.000      0.000
REMARK INTER + INTRA:          -6.843
REMARK INTER:                  -6.894
REMARK INTRA:                   0.051
REMARK UNBOUND:                 0.051
REMARK  3 active torsions:
REMARK  status: ('A' for Active; 'I' for Inactive)
REMARK    1  A    between atoms: C_7  and  N_10 
REMARK    2  A    between atoms: C_8  and  O_9 
REMARK    3  A    between atoms: C_15  and  N_20 
ROOT
ATOM      1  P   UNK d   1       1.765   6.782 -12.643  0.00  0.00     0.422 P 
ATOM      2  S   UNK d   1       0.341   6.467 -11.684  0.00  0.00     0.009 SA
ATOM      3  O   UNK d   1       2.473   8.256 -12.154  0.00  0.00    -0.292 OA
ATOM      4  C   UNK d   1       1.652   9.260 -12.606  0.00  0.00     0.197 C 
ATOM      5  C   UNK d   1       1.614   9.209 -14.139  0.00  0.00     0.180 C 
ATOM      6  O   UNK d   1       1.057  10.457 -14.411  0.00  0.00    -0.353 OA
ATOM      7  C   UNK d   1       1.766  11.356 -13.651  0.00  0.00     0.263 C 
ATOM      8  C   UNK d   1       2.241  10.644 -12.409  0.00  0.00     0.199 C 
ATOM      9  C   UNK d   1       0.770   8.072 -14.624  0.00  0.00     0.214 C 
ATOM     10  O   UNK d   1       1.387   6.886 -14.267  0.00  0.00    -0.300 OA
ATOM     11  O   UNK d   1       2.864   5.558 -12.356  0.00  0.00    -0.240 OA
ENDROOT
BRANCH   7  12
ATOM     12  N   UNK d   1       0.967  12.489 -13.223  0.00  0.00    -0.278 N 
ATOM     13  C   UNK d   1       1.485  13.681 -12.834  0.00  0.00     0.168 A 
ATOM     14  N   UNK d   1       2.763  14.129 -12.736  0.00  0.00    -0.221 NA
ATOM     15  C   UNK d   1       0.445  14.524 -12.497  0.00  0.00     0.151 A 
ATOM     16  C   UNK d   1       3.032  15.381 -12.315  0.00  0.00     0.237 A 
ATOM     17  N   UNK d   1       2.014  16.212 -11.982  0.00  0.00    -0.222 NA
ATOM     18  C   UNK d   1       0.735  15.805 -12.066  0.00  0.00     0.155 A 
ATOM     19  N   UNK d   1      -0.700  13.842 -12.682  0.00  0.00    -0.216 NA
ATOM     20  C   UNK d   1      -0.367  12.608 -13.123  0.00  0.00     0.182 A 
ATOM     21 Br   UNK d   1      -1.565  11.175 -13.566  0.00  0.00    -0.008 Br
BRANCH  18  22
ATOM     22  N   UNK d   1      -0.328  16.695 -11.712  0.00  0.00    -0.382 N 
ATOM     23  H   UNK d   1      -0.081  17.618 -11.260  0.00  0.00     0.157 HD
ATOM     24  H   UNK d   1      -1.328  16.467 -11.882  0.00  0.00     0.157 HD
ENDBRANCH  18  22
ENDBRANCH   7  12
BRANCH   8  25
ATOM     25  O   UNK d   1       3.631  10.505 -12.523  0.00  0.00    -0.388 OA
ATOM     26  H   UNK d   1       3.910   9.593 -12.725  0.00  0.00     0.210 HD
ENDBRANCH   8  25
TORSDOF 3
ENDMDL
