/Users/jonathanwahrer/Desktop/Msc/3_Semester/Drug_Design_Praktikum/waehrer_HTS_screening/HTS_experiment/out/docking_results/vina_output/6q9y/0999_docked.pdbqt
 OpenBabel03222219473D

 35 39  0  0  1  0  0  0  0  0999 V2000
   -1.9360    7.5930  -14.3100 N   0  0  0  0  0  0  0  0  0  0  0  0
   -3.2430    7.7200  -14.8420 C   0  0  0  0  0  0  0  0  0  0  0  0
   -3.6090    6.9010  -15.7260 O   0  0  0  0  0  0  0  0  0  0  0  0
   -1.6530    8.2880  -13.5730 H   0  0  0  0  0  0  0  0  0  0  0  0
   -1.0850    6.5520  -14.7870 C   0  0  1  0  0  3  0  0  0  0  0  0
    0.3550    6.8210  -14.9130 C   0  0  1  0  0  0  0  0  0  0  0  0
    0.9630    8.3830  -15.5420 S   0  0  0  0  0  0  0  0  0  0  0  0
    0.3710    6.8740  -13.4860 N   0  0  0  0  0  0  0  0  0  0  0  0
    2.5060    8.4530  -14.5600 C   0  0  0  0  0  2  0  0  0  0  0  0
    2.0580    8.4760  -13.0910 C   0  0  0  0  0  0  0  0  0  0  0  0
    1.0900    7.7560  -12.6180 C   0  0  0  0  0  0  0  0  0  0  0  0
   -0.5530    5.8050  -13.5740 C   0  0  1  0  0  0  0  0  0  0  0  0
   -0.9140    4.7410  -13.0580 O   0  0  0  0  0  1  0  0  0  0  0  0
    2.8640    9.4080  -12.3450 C   0  0  0  0  0  2  0  0  0  0  0  0
    3.2750   10.6010  -12.8370 O   0  0  0  0  0  0  0  0  0  0  0  0
    2.6380   11.8150  -12.5520 C   0  0  0  0  0  0  0  0  0  0  0  0
    1.5300   12.0110  -13.0860 O   0  0  0  0  0  0  0  0  0  0  0  0
    3.3260   12.7640  -11.6460 C   0  0  0  0  0  1  0  0  0  0  0  0
    0.6490    7.7650  -11.1930 C   0  0  0  0  0  0  0  0  0  0  0  0
    1.3390    7.5460  -10.2200 O   0  0  0  0  0  1  0  0  0  0  0  0
   -0.6990    8.0510  -10.9080 O   0  0  0  0  0  0  0  0  0  0  0  0
   -4.1680    8.7670  -14.3960 C   0  0  0  0  0  0  0  0  0  0  0  0
   -5.4530    8.8480  -14.5410 O   0  0  0  0  0  0  0  0  0  0  0  0
   -5.9440    9.9230  -14.0150 C   0  0  0  0  0  0  0  0  0  0  0  0
   -4.8770   10.6380  -13.4600 C   0  0  0  0  0  3  0  0  0  0  0  0
   -3.7590    9.8900  -13.7120 C   0  0  0  0  0  3  0  0  0  0  0  0
   -7.3840   10.3720  -13.9760 C   0  0  0  0  0  2  0  0  0  0  0  0
   -7.9550   10.3280  -15.2580 O   0  0  0  0  0  0  0  0  0  0  0  0
   -8.8770   11.2020  -15.7590 C   0  0  0  0  0  0  0  0  0  0  0  0
   -9.5200   11.0540  -16.9850 C   0  0  0  0  0  3  0  0  0  0  0  0
  -10.4370   11.9980  -17.3920 C   0  0  0  0  0  3  0  0  0  0  0  0
  -10.7660   13.1050  -16.6460 C   0  0  0  0  0  0  0  0  0  0  0  0
  -10.1310   13.2600  -15.4260 C   0  0  0  0  0  3  0  0  0  0  0  0
  -12.0450   14.3790  -17.2630 Br  0  0  0  0  0  0  0  0  0  0  0  0
   -9.2060   12.3120  -15.0080 C   0  0  0  0  0  3  0  0  0  0  0  0
  1  4  1  0  0  0  0
  2 22  1  0  0  0  0
  2  1  1  0  0  0  0
  3  2  2  0  0  0  0
  5  1  1  1  0  0  0
  5 12  1  0  0  0  0
  6  7  1  6  0  0  0
  6  5  1  0  0  0  0
  6 12  1  0  0  0  0
  6  8  1  0  0  0  0
  7  9  1  0  0  0  0
  8 11  1  0  0  0  0
  9 10  1  0  0  0  0
 10 11  2  0  0  0  0
 10 14  1  0  0  0  0
 11 19  1  0  0  0  0
 12  8  1  0  0  0  0
 12 13  1  1  0  0  0
 15 16  1  0  0  0  0
 15 14  1  0  0  0  0
 16 18  1  0  0  0  0
 17 16  2  0  0  0  0
 19 21  2  0  0  0  0
 19 20  1  0  0  0  0
 22 26  2  0  0  0  0
 23 22  1  0  0  0  0
 23 24  1  0  0  0  0
 24 27  1  0  0  0  0
 24 25  2  0  0  0  0
 26 25  1  0  0  0  0
 28 27  1  0  0  0  0
 29 28  1  0  0  0  0
 29 35  1  0  0  0  0
 30 29  2  0  0  0  0
 31 30  1  0  0  0  0
 31 32  2  0  0  0  0
 32 33  1  0  0  0  0
 33 35  2  0  0  0  0
 34 32  1  0  0  0  0
M  END
>  <Pose>
1

>  <Score>
-6.357

$$$$
