MODEL 1
REMARK VINA RESULT:    -6.357      0.000      0.000
REMARK INTER + INTRA:         -10.789
REMARK INTER:                  -9.701
REMARK INTRA:                  -1.087
REMARK UNBOUND:                -1.087
REMARK  9 active torsions:
REMARK  status: ('A' for Active; 'I' for Inactive)
REMARK    1  A    between atoms: C_4  and  C_12 
REMARK    2  A    between atoms: C_5  and  C_7 
REMARK    3  A    between atoms: C_7  and  O_8 
REMARK    4  A    between atoms: O_8  and  C_9 
REMARK    5  A    between atoms: C_17  and  N_18 
REMARK       I    between atoms: N_18  and  C_19 
REMARK    6  A    between atoms: C_19  and  C_21 
REMARK    7  A    between atoms: C_23  and  C_26 
REMARK    8  A    between atoms: C_26  and  O_27 
REMARK    9  A    between atoms: O_27  and  C_28 
ROOT
ATOM      1  N   UNK d   1      -1.936   7.593 -14.310  0.00  0.00    -0.339 N 
ATOM      2  C   UNK d   1      -3.243   7.720 -14.842  0.00  0.00     0.276 C 
ATOM      3  O   UNK d   1      -3.609   6.901 -15.726  0.00  0.00    -0.265 OA
ATOM      4  H   UNK d   1      -1.653   8.288 -13.573  0.00  0.00     0.163 HD
ENDROOT
BRANCH   1   5
ATOM      5  C   UNK d   1      -1.085   6.552 -14.787  0.00  0.00     0.211 C 
ATOM      6  C   UNK d   1       0.355   6.821 -14.913  0.00  0.00     0.187 C 
ATOM      7  S   UNK d   1       0.963   8.383 -15.542  0.00  0.00    -0.136 SA
ATOM      8  N   UNK d   1       0.371   6.874 -13.486  0.00  0.00    -0.293 N 
ATOM      9  C   UNK d   1       2.506   8.453 -14.560  0.00  0.00     0.115 C 
ATOM     10  C   UNK d   1       2.058   8.476 -13.091  0.00  0.00    -0.013 C 
ATOM     11  C   UNK d   1       1.090   7.756 -12.618  0.00  0.00     0.121 C 
ATOM     12  C   UNK d   1      -0.553   5.805 -13.574  0.00  0.00     0.251 C 
ATOM     13  O   UNK d   1      -0.914   4.741 -13.058  0.00  0.00    -0.271 OA
BRANCH  10  14
ATOM     14  C   UNK d   1       2.864   9.408 -12.345  0.00  0.00     0.216 C 
BRANCH  14  15
ATOM     15  O   UNK d   1       3.275  10.601 -12.837  0.00  0.00    -0.317 OA
BRANCH  15  16
ATOM     16  C   UNK d   1       2.638  11.815 -12.552  0.00  0.00     0.255 C 
ATOM     17  O   UNK d   1       1.530  12.011 -13.086  0.00  0.00    -0.266 OA
ATOM     18  C   UNK d   1       3.326  12.764 -11.646  0.00  0.00     0.126 C 
ENDBRANCH  15  16
ENDBRANCH  14  15
ENDBRANCH  10  14
BRANCH  11  19
ATOM     19  C   UNK d   1       0.649   7.765 -11.193  0.00  0.00     0.227 C 
ATOM     20  O   UNK d   1       1.339   7.546 -10.220  0.00  0.00    -0.643 OA
ATOM     21  O   UNK d   1      -0.699   8.051 -10.908  0.00  0.00    -0.643 OA
ENDBRANCH  11  19
ENDBRANCH   1   5
BRANCH   2  22
ATOM     22  C   UNK d   1      -4.168   8.767 -14.396  0.00  0.00     0.143 A 
ATOM     23  O   UNK d   1      -5.453   8.848 -14.541  0.00  0.00    -0.307 OA
ATOM     24  C   UNK d   1      -5.944   9.923 -14.015  0.00  0.00     0.078 A 
ATOM     25  C   UNK d   1      -4.877  10.638 -13.460  0.00  0.00     0.038 A 
ATOM     26  C   UNK d   1      -3.759   9.890 -13.712  0.00  0.00     0.045 A 
BRANCH  24  27
ATOM     27  C   UNK d   1      -7.384  10.372 -13.976  0.00  0.00     0.240 C 
BRANCH  27  28
ATOM     28  O   UNK d   1      -7.955  10.328 -15.258  0.00  0.00    -0.345 OA
BRANCH  28  29
ATOM     29  C   UNK d   1      -8.877  11.202 -15.759  0.00  0.00     0.069 A 
ATOM     30  C   UNK d   1      -9.520  11.054 -16.985  0.00  0.00     0.038 A 
ATOM     31  C   UNK d   1     -10.437  11.998 -17.392  0.00  0.00     0.022 A 
ATOM     32  C   UNK d   1     -10.766  13.105 -16.646  0.00  0.00     0.011 A 
ATOM     33  C   UNK d   1     -10.131  13.260 -15.426  0.00  0.00     0.022 A 
ATOM     34 Br   UNK d   1     -12.045  14.379 -17.263  0.00  0.00    -0.051 Br
ATOM     35  C   UNK d   1      -9.206  12.312 -15.008  0.00  0.00     0.038 A 
ENDBRANCH  28  29
ENDBRANCH  27  28
ENDBRANCH  24  27
ENDBRANCH   2  22
TORSDOF 9
ENDMDL
