/Users/jonathanwahrer/Desktop/Msc/3_Semester/Drug_Design_Praktikum/waehrer_HTS_screening/HTS_experiment/out/docking_results/vina_output/6q9y/1001_docked.pdbqt
 OpenBabel03222219473D

 26 29  0  0  1  0  0  0  0  0999 V2000
    2.0200   14.8230  -11.9840 P   0  0  2  0  0  0  0  0  0  0  0  0
    1.6570   15.8660  -10.9240 O   0  0  0  0  0  1  0  0  0  0  0  0
    0.5970   14.0680  -12.4560 O   0  0  0  0  0  0  0  0  0  0  0  0
    0.7300   12.7040  -12.4900 C   0  0  2  0  0  3  0  0  0  0  0  0
    2.1730   12.4140  -12.9250 C   0  0  2  0  0  3  0  0  0  0  0  0
    2.1470   11.2050  -13.5530 O   0  0  0  0  0  0  0  0  0  0  0  0
    0.8990   10.9670  -14.0590 C   0  0  2  0  0  3  0  0  0  0  0  0
   -0.0320   12.0370  -13.6040 C   0  0  2  0  0  3  0  0  0  0  0  0
    3.0000   12.4720  -11.6810 C   0  0  0  0  0  2  0  0  0  0  0  0
    3.1360   13.7860  -11.3030 O   0  0  0  0  0  0  0  0  0  0  0  0
    2.6790   15.7060  -13.2920 O   0  0  0  0  0  0  0  0  0  0  0  0
    0.4880    9.6390  -13.6220 N   0  0  0  0  0  0  0  0  0  0  0  0
    1.3130    8.5930  -13.3810 C   0  0  0  0  0  0  0  0  0  0  0  0
    2.6500    8.4870  -13.4700 N   0  0  0  0  0  0  0  0  0  0  0  0
    0.5470    7.5160  -12.9880 C   0  0  0  0  0  0  0  0  0  0  0  0
    3.2400    7.3190  -13.1710 C   0  0  0  0  0  3  0  0  0  0  0  0
    2.4900    6.2690  -12.7880 N   0  0  0  0  0  0  0  0  0  0  0  0
    1.1540    6.3020  -12.6770 C   0  0  0  0  0  0  0  0  0  0  0  0
   -0.7270    7.8990  -12.9880 N   0  0  0  0  0  0  0  0  0  0  0  0
   -0.7520    9.1870  -13.3740 C   0  0  0  0  0  0  0  0  0  0  0  0
   -2.3130   10.3030  -13.5690 Br  0  0  0  0  0  0  0  0  0  0  0  0
    0.3520    5.2010  -12.2730 N   0  0  0  0  0  0  0  0  0  0  0  0
    0.6680    4.2270  -12.5590 H   0  0  0  0  0  0  0  0  0  0  0  0
   -0.5090    5.2800  -11.7240 H   0  0  0  0  0  0  0  0  0  0  0  0
   -0.3500   12.9540  -14.5850 O   0  0  0  0  0  0  0  0  0  0  0  0
    0.3260   13.6370  -14.7210 H   0  0  0  0  0  0  0  0  0  0  0  0
  1 11  2  6  0  0  0
  1 10  1  0  0  0  0
  1  2  1  0  0  0  0
  3  1  1  0  0  0  0
  4  3  1  6  0  0  0
  5  4  1  0  0  0  0
  5  9  1  1  0  0  0
  6  5  1  0  0  0  0
  7 12  1  1  0  0  0
  7  8  1  0  0  0  0
  7  6  1  0  0  0  0
  8 25  1  6  0  0  0
  8  4  1  0  0  0  0
  9 10  1  0  0  0  0
 12 13  1  0  0  0  0
 12 20  1  0  0  0  0
 13 15  1  0  0  0  0
 14 13  2  0  0  0  0
 14 16  1  0  0  0  0
 15 18  2  0  0  0  0
 16 17  2  0  0  0  0
 17 18  1  0  0  0  0
 18 22  1  0  0  0  0
 19 15  1  0  0  0  0
 20 19  2  0  0  0  0
 21 20  1  0  0  0  0
 22 24  1  0  0  0  0
 23 22  1  0  0  0  0
 26 25  1  0  0  0  0
M  END
>  <Pose>
1

>  <Score>
-7.015

$$$$
