MODEL 1
REMARK VINA RESULT:    -7.015      0.000      0.000
REMARK INTER + INTRA:          -6.994
REMARK INTER:                  -7.835
REMARK INTRA:                   0.841
REMARK UNBOUND:                 0.841
REMARK  3 active torsions:
REMARK  status: ('A' for Active; 'I' for Inactive)
REMARK    1  A    between atoms: C_7  and  N_10 
REMARK    2  A    between atoms: C_8  and  O_9 
REMARK    3  A    between atoms: C_15  and  N_20 
ROOT
ATOM      1  P   UNK d   1       2.020  14.823 -11.984  0.00  0.00     0.408 P 
ATOM      2  O   UNK d   1       1.657  15.866 -10.924  0.00  0.00    -0.624 OA
ATOM      3  O   UNK d   1       0.597  14.068 -12.456  0.00  0.00    -0.279 OA
ATOM      4  C   UNK d   1       0.730  12.704 -12.490  0.00  0.00     0.198 C 
ATOM      5  C   UNK d   1       2.173  12.414 -12.925  0.00  0.00     0.180 C 
ATOM      6  O   UNK d   1       2.147  11.205 -13.553  0.00  0.00    -0.353 OA
ATOM      7  C   UNK d   1       0.899  10.967 -14.059  0.00  0.00     0.263 C 
ATOM      8  C   UNK d   1      -0.032  12.037 -13.604  0.00  0.00     0.199 C 
ATOM      9  C   UNK d   1       3.000  12.472 -11.681  0.00  0.00     0.216 C 
ATOM     10  O   UNK d   1       3.136  13.786 -11.303  0.00  0.00    -0.287 OA
ATOM     11  O   UNK d   1       2.679  15.706 -13.292  0.00  0.00    -0.624 OA
ENDROOT
BRANCH   7  12
ATOM     12  N   UNK d   1       0.488   9.639 -13.622  0.00  0.00    -0.278 N 
ATOM     13  C   UNK d   1       1.313   8.593 -13.381  0.00  0.00     0.168 A 
ATOM     14  N   UNK d   1       2.650   8.487 -13.470  0.00  0.00    -0.221 NA
ATOM     15  C   UNK d   1       0.547   7.516 -12.988  0.00  0.00     0.151 A 
ATOM     16  C   UNK d   1       3.240   7.319 -13.171  0.00  0.00     0.237 A 
ATOM     17  N   UNK d   1       2.490   6.269 -12.788  0.00  0.00    -0.222 NA
ATOM     18  C   UNK d   1       1.154   6.302 -12.677  0.00  0.00     0.155 A 
ATOM     19  N   UNK d   1      -0.727   7.899 -12.988  0.00  0.00    -0.216 NA
ATOM     20  C   UNK d   1      -0.752   9.187 -13.374  0.00  0.00     0.182 A 
ATOM     21 Br   UNK d   1      -2.313  10.303 -13.569  0.00  0.00    -0.008 Br
BRANCH  18  22
ATOM     22  N   UNK d   1       0.352   5.201 -12.273  0.00  0.00    -0.382 N 
ATOM     23  H   UNK d   1       0.668   4.227 -12.559  0.00  0.00     0.157 HD
ATOM     24  H   UNK d   1      -0.509   5.280 -11.724  0.00  0.00     0.157 HD
ENDBRANCH  18  22
ENDBRANCH   7  12
BRANCH   8  25
ATOM     25  O   UNK d   1      -0.350  12.954 -14.585  0.00  0.00    -0.388 OA
ATOM     26  H   UNK d   1       0.326  13.637 -14.721  0.00  0.00     0.210 HD
ENDBRANCH   8  25
TORSDOF 3
ENDMDL
