/Users/jonathanwahrer/Desktop/Msc/3_Semester/Drug_Design_Praktikum/waehrer_HTS_screening/HTS_experiment/out/docking_results/vina_output/6q9y/1008_docked.pdbqt
 OpenBabel03222219473D

 29 32  0  0  1  0  0  0  0  0999 V2000
    1.1300    9.4010  -13.9680 C   0  0  0  0  0  0  0  0  0  0  0  0
    1.8530    9.3030  -14.9890 O   0  0  0  0  0  0  0  0  0  0  0  0
    0.7910    8.2350  -13.2200 N   0  0  0  0  0  0  0  0  0  0  0  0
    1.2720    6.9330  -13.6290 C   0  0  0  0  0  2  0  0  0  0  0  0
    1.6940    6.0720  -12.4800 C   0  0  2  0  0  3  0  0  0  0  0  0
    1.8530    6.9960  -11.2690 C   0  0  0  0  0  2  0  0  0  0  0  0
    0.4530    7.4530  -10.9220 C   0  0  0  0  0  2  0  0  0  0  0  0
   -0.0370    8.3280  -12.0470 C   0  0  0  0  0  2  0  0  0  0  0  0
    0.6510   10.7080  -13.5630 C   0  0  0  0  0  0  0  0  0  0  0  0
    1.5320   11.7080  -13.1620 C   0  0  0  0  0  3  0  0  0  0  0  0
    1.0920   12.9530  -12.7770 C   0  0  0  0  0  0  0  0  0  0  0  0
   -0.2620   13.2400  -12.7790 C   0  0  0  0  0  3  0  0  0  0  0  0
   -1.1480   12.2630  -13.1720 C   0  0  0  0  0  3  0  0  0  0  0  0
   -0.6940   11.0030  -13.5620 C   0  0  0  0  0  0  0  0  0  0  0  0
   -1.9560    9.6940  -14.0930 Br  0  0  0  0  0  0  0  0  0  0  0  0
    2.2440   14.1590  -12.2870 S   0  0  0  0  0  0  0  0  0  0  0  0
    1.8360   15.4930  -12.8770 O   0  0  0  0  0  0  0  0  0  0  0  0
    3.6240   13.8170  -12.7950 O   0  0  0  0  0  0  0  0  0  0  0  0
    2.2330   14.3370  -10.5810 N   0  0  0  0  0  0  0  0  0  0  0  0
    1.5790   15.0970  -10.2740 H   0  0  0  0  0  0  0  0  0  0  0  0
    3.2030   14.5330  -10.2300 H   0  0  0  0  0  0  0  0  0  0  0  0
    2.9610    5.3170  -12.7420 C   0  0  0  0  0  0  0  0  0  0  0  0
    4.1440    5.8430  -13.1540 N   0  0  0  0  0  0  0  0  0  0  0  0
    5.0590    4.8780  -13.2860 C   0  0  0  0  0  0  0  0  0  0  0  0
    4.7180    7.1330  -13.4960 C   0  0  0  0  0  2  0  0  0  0  0  0
    4.4080    3.7270  -12.9410 N   0  0  0  0  0  0  0  0  0  0  0  0
    6.3790    5.4060  -13.7380 C   0  0  0  0  0  2  0  0  0  0  0  0
    3.1580    3.9950  -12.6180 N   0  0  0  0  0  0  0  0  0  0  0  0
    6.2100    6.8790  -13.5290 C   0  0  0  0  0  2  0  0  0  0  0  0
  1  9  1  0  0  0  0
  1  3  1  0  0  0  0
  2  1  2  0  0  0  0
  3  8  1  0  0  0  0
  4  3  1  0  0  0  0
  4  5  1  0  0  0  0
  5 22  1  6  0  0  0
  5  6  1  0  0  0  0
  6  7  1  0  0  0  0
  8  7  1  0  0  0  0
  9 14  2  0  0  0  0
  9 10  1  0  0  0  0
 10 11  2  0  0  0  0
 11 16  1  0  0  0  0
 12 11  1  0  0  0  0
 13 12  2  0  0  0  0
 14 13  1  0  0  0  0
 15 14  1  0  0  0  0
 16 19  1  0  0  0  0
 17 16  2  0  0  0  0
 18 16  2  0  0  0  0
 19 20  1  0  0  0  0
 19 21  1  0  0  0  0
 22 28  2  0  0  0  0
 23 22  1  0  0  0  0
 24 23  1  0  0  0  0
 24 26  2  0  0  0  0
 25 23  1  0  0  0  0
 26 28  1  0  0  0  0
 27 29  1  0  0  0  0
 27 24  1  0  0  0  0
 29 25  1  0  0  0  0
M  END
>  <Pose>
1

>  <Score>
-8.088

$$$$
