MODEL 1
REMARK VINA RESULT:    -8.088      0.000      0.000
REMARK INTER + INTRA:          -9.373
REMARK INTER:                  -9.743
REMARK INTRA:                   0.370
REMARK UNBOUND:                 0.370
REMARK  4 active torsions:
REMARK  status: ('A' for Active; 'I' for Inactive)
REMARK    1  A    between atoms: S_1  and  N_4 
REMARK    2  A    between atoms: S_1  and  C_5 
REMARK    3  A    between atoms: C_7  and  C_12 
REMARK       I    between atoms: C_12  and  N_14 
REMARK    4  A    between atoms: C_16  and  C_20 
ROOT
ATOM      1  C   UNK d   1       1.130   9.401 -13.968  0.00  0.00     0.255 C 
ATOM      2  O   UNK d   1       1.853   9.303 -14.989  0.00  0.00    -0.267 OA
ATOM      3  N   UNK d   1       0.791   8.235 -13.220  0.00  0.00    -0.347 N 
ATOM      4  C   UNK d   1       1.272   6.933 -13.629  0.00  0.00     0.138 C 
ATOM      5  C   UNK d   1       1.694   6.072 -12.480  0.00  0.00     0.075 C 
ATOM      6  C   UNK d   1       1.853   6.996 -11.269  0.00  0.00     0.015 C 
ATOM      7  C   UNK d   1       0.453   7.453 -10.922  0.00  0.00     0.021 C 
ATOM      8  C   UNK d   1      -0.037   8.328 -12.047  0.00  0.00     0.126 C 
ENDROOT
BRANCH   1   9
ATOM      9  C   UNK d   1       0.651  10.708 -13.563  0.00  0.00     0.051 A 
ATOM     10  C   UNK d   1       1.532  11.708 -13.162  0.00  0.00     0.043 A 
ATOM     11  C   UNK d   1       1.092  12.953 -12.777  0.00  0.00     0.075 A 
ATOM     12  C   UNK d   1      -0.262  13.240 -12.779  0.00  0.00     0.026 A 
ATOM     13  C   UNK d   1      -1.148  12.263 -13.172  0.00  0.00     0.021 A 
ATOM     14  C   UNK d   1      -0.694  11.003 -13.562  0.00  0.00     0.026 A 
ATOM     15 Br   UNK d   1      -1.956   9.694 -14.093  0.00  0.00    -0.050 Br
BRANCH  11  16
ATOM     16  S   UNK d   1       2.244  14.159 -12.287  0.00  0.00     0.239 S 
ATOM     17  O   UNK d   1       1.836  15.493 -12.877  0.00  0.00    -0.206 OA
ATOM     18  O   UNK d   1       3.624  13.817 -12.795  0.00  0.00    -0.206 OA
BRANCH  16  19
ATOM     19  N   UNK d   1       2.233  14.337 -10.581  0.00  0.00    -0.225 NA
ATOM     20  H   UNK d   1       1.579  15.097 -10.274  0.00  0.00     0.136 HD
ATOM     21  H   UNK d   1       3.203  14.533 -10.230  0.00  0.00     0.136 HD
ENDBRANCH  16  19
ENDBRANCH  11  16
ENDBRANCH   1   9
BRANCH   5  22
ATOM     22  C   UNK d   1       2.961   5.317 -12.742  0.00  0.00     0.136 A 
ATOM     23  N   UNK d   1       4.144   5.843 -13.154  0.00  0.00    -0.320 N 
ATOM     24  C   UNK d   1       5.059   4.878 -13.286  0.00  0.00     0.130 A 
ATOM     25  C   UNK d   1       4.718   7.133 -13.496  0.00  0.00     0.132 C 
ATOM     26  N   UNK d   1       4.408   3.727 -12.941  0.00  0.00    -0.135 NA
ATOM     27  C   UNK d   1       6.379   5.406 -13.738  0.00  0.00     0.082 C 
ATOM     28  N   UNK d   1       3.158   3.995 -12.618  0.00  0.00    -0.134 NA
ATOM     29  C   UNK d   1       6.210   6.879 -13.529  0.00  0.00     0.028 C 
ENDBRANCH   5  22
TORSDOF 4
ENDMDL
