MODEL 1
REMARK VINA RESULT:    -7.669      0.000      0.000
REMARK INTER + INTRA:         -11.237
REMARK INTER:                 -10.807
REMARK INTRA:                  -0.430
REMARK UNBOUND:                -0.430
REMARK  7 active torsions:
REMARK  status: ('A' for Active; 'I' for Inactive)
REMARK    1  A    between atoms: S_1  and  N_4 
REMARK    2  A    between atoms: S_1  and  C_14 
REMARK    3  A    between atoms: N_4  and  C_5 
REMARK    4  A    between atoms: C_5  and  C_6 
REMARK    5  A    between atoms: C_6  and  C_7 
REMARK    6  A    between atoms: C_7  and  N_8 
REMARK       I    between atoms: N_23  and  C_24 
REMARK    7  A    between atoms: C_24  and  C_26 
ROOT
ATOM      1  C   UNK d   1       1.399   9.174 -12.952  0.00  0.00     0.094 A 
ATOM      2  C   UNK d   1       0.989  10.501 -12.789  0.00  0.00     0.056 A 
ATOM      3  C   UNK d   1       1.893  11.533 -12.920  0.00  0.00     0.045 A 
ATOM      4  C   UNK d   1       3.227  11.318 -13.214  0.00  0.00    -0.028 A 
ATOM      5  C   UNK d   1       3.637  10.024 -13.377  0.00  0.00     0.030 A 
ATOM      6  C   UNK d   1       2.726   8.971 -13.245  0.00  0.00     0.034 A 
ATOM      7 Br   UNK d   1       3.312   7.158 -13.464  0.00  0.00    -0.049 Br
ATOM      8  C   UNK d   1       3.935  12.627 -13.275  0.00  0.00     0.061 C 
ATOM      9  C   UNK d   1       2.970  13.540 -12.489  0.00  0.00     0.137 C 
ATOM     10  N   UNK d   1       1.677  12.951 -12.800  0.00  0.00    -0.317 N 
ATOM     11  C   UNK d   1       0.419  13.573 -12.975  0.00  0.00     0.228 C 
ATOM     12  O   UNK d   1      -0.620  12.937 -13.265  0.00  0.00    -0.273 OA
ENDROOT
BRANCH   1  13
ATOM     13  S   UNK d   1       0.234   7.888 -12.786  0.00  0.00     0.242 S 
ATOM     14  O   UNK d   1       0.773   6.820 -11.842  0.00  0.00    -0.206 OA
ATOM     15  O   UNK d   1      -1.043   8.365 -12.181  0.00  0.00    -0.206 OA
BRANCH  13  16
ATOM     16  N   UNK d   1      -0.015   7.095 -14.294  0.00  0.00    -0.215 NA
ATOM     17  H   UNK d   1      -0.677   7.668 -14.853  0.00  0.00     0.139 HD
BRANCH  16  18
ATOM     18  C   UNK d   1      -0.505   5.740 -14.140  0.00  0.00     0.106 C 
BRANCH  18  19
ATOM     19  C   UNK d   1      -2.018   5.844 -14.024  0.00  0.00     0.035 C 
BRANCH  19  20
ATOM     20  C   UNK d   1      -2.597   6.600 -15.191  0.00  0.00     0.118 C 
BRANCH  20  21
ATOM     21  N   UNK d   1      -3.604   7.473 -14.717  0.00  0.00    -0.408 N 
ATOM     22  C   UNK d   1      -3.294   8.858 -14.712  0.00  0.00     0.143 C 
ATOM     23  C   UNK d   1      -4.228   9.555 -13.737  0.00  0.00     0.187 C 
ATOM     24  O   UNK d   1      -5.521   9.086 -13.851  0.00  0.00    -0.388 OA
ATOM     25  C   UNK d   1      -5.768   8.422 -15.046  0.00  0.00     0.187 C 
ATOM     26  C   UNK d   1      -4.946   7.130 -15.014  0.00  0.00     0.143 C 
ENDBRANCH  20  21
ENDBRANCH  19  20
ENDBRANCH  18  19
ENDBRANCH  16  18
ENDBRANCH  13  16
ENDBRANCH   1  13
BRANCH  11  27
ATOM     27  C   UNK d   1       0.324  15.043 -12.810  0.00  0.00     0.078 A 
ATOM     28  C   UNK d   1      -1.042  15.591 -12.891  0.00  0.00     0.015 A 
ATOM     29  C   UNK d   1      -0.030  15.906 -13.965  0.00  0.00     0.015 A 
ENDBRANCH  11  27
TORSDOF 7
ENDMDL
