MODEL 1
REMARK VINA RESULT:    -8.970      0.000      0.000
REMARK INTER + INTRA:         -11.065
REMARK INTER:                 -11.592
REMARK INTRA:                   0.527
REMARK UNBOUND:                 0.527
REMARK  5 active torsions:
REMARK  status: ('A' for Active; 'I' for Inactive)
REMARK    1  A    between atoms: S_1  and  N_4 
REMARK    2  A    between atoms: S_1  and  C_20 
REMARK    3  A    between atoms: N_8  and  C_12 
REMARK    4  A    between atoms: C_12  and  C_13 
REMARK    5  A    between atoms: C_13  and  C_14 
REMARK       I    between atoms: N_29  and  C_30 
ROOT
ATOM      1  N   UNK d   1       2.304  10.180 -14.097  0.00  0.00    -0.289 N 
ATOM      2  C   UNK d   1       3.298  11.147 -13.976  0.00  0.00     0.239 C 
ATOM      3  C   UNK d   1       2.960  12.309 -13.124  0.00  0.00     0.245 C 
ATOM      4  O   UNK d   1       3.855  12.962 -12.536  0.00  0.00    -0.271 OA
ATOM      5  N   UNK d   1       1.578  12.633 -13.020  0.00  0.00    -0.285 N 
ATOM      6  C   UNK d   1       0.706  12.005 -13.946  0.00  0.00     0.245 C 
ATOM      7  O   UNK d   1      -0.371  12.593 -14.242  0.00  0.00    -0.271 OA
ATOM      8  C   UNK d   1       1.026  10.700 -14.562  0.00  0.00     0.239 C 
ENDROOT
BRANCH   1   9
ATOM      9  S   UNK d   1       2.146   8.940 -12.981  0.00  0.00     0.263 S 
ATOM     10  O   UNK d   1       1.890   9.577 -11.615  0.00  0.00    -0.200 OA
ATOM     11  O   UNK d   1       3.459   8.211 -12.808  0.00  0.00    -0.200 OA
BRANCH   9  12
ATOM     12  C   UNK d   1       0.850   7.804 -13.239  0.00  0.00     0.099 A 
ATOM     13  C   UNK d   1      -0.381   8.293 -13.695  0.00  0.00     0.057 A 
ATOM     14  C   UNK d   1      -1.498   7.510 -13.874  0.00  0.00     0.045 A 
ATOM     15  C   UNK d   1      -1.443   6.161 -13.600  0.00  0.00    -0.028 A 
ATOM     16  N   UNK d   1      -2.821   7.816 -14.320  0.00  0.00    -0.318 N 
ATOM     17  C   UNK d   1      -0.244   5.663 -13.154  0.00  0.00     0.030 A 
ATOM     18  C   UNK d   1      -2.753   5.520 -13.869  0.00  0.00     0.061 C 
ATOM     19  C   UNK d   1       0.894   6.466 -12.974  0.00  0.00     0.035 A 
ATOM     20 Br   UNK d   1       2.540   5.637 -12.443  0.00  0.00    -0.049 Br
ATOM     21  C   UNK d   1      -3.431   6.564 -14.757  0.00  0.00     0.137 C 
ATOM     22  C   UNK d   1      -3.462   9.067 -14.340  0.00  0.00     0.220 C 
ATOM     23  O   UNK d   1      -4.652   9.137 -14.805  0.00  0.00    -0.273 OA
ATOM     24  C   UNK d   1      -2.882  10.346 -13.862  0.00  0.00     0.117 C 
ENDBRANCH   9  12
ENDBRANCH   1   9
BRANCH   5  25
ATOM     25  C   UNK d   1       1.117  13.564 -12.012  0.00  0.00     0.139 C 
BRANCH  25  26
ATOM     26  C   UNK d   1       1.445  14.991 -12.286  0.00  0.00     0.059 C 
BRANCH  26  27
ATOM     27  C   UNK d   1       0.314  15.858 -12.607  0.00  0.00    -0.057 A 
ATOM     28  C   UNK d   1      -0.339  15.792 -13.807  0.00  0.00     0.007 A 
ATOM     29  C   UNK d   1      -1.388  16.635 -14.045  0.00  0.00     0.001 A 
ATOM     30  C   UNK d   1      -1.815  17.563 -13.102  0.00  0.00     0.000 A 
ATOM     31  C   UNK d   1      -1.147  17.610 -11.910  0.00  0.00     0.001 A 
ATOM     32  C   UNK d   1      -0.089  16.778 -11.637  0.00  0.00     0.007 A 
ENDBRANCH  26  27
ENDBRANCH  25  26
ENDBRANCH   5  25
TORSDOF 5
ENDMDL
