MODEL 1
REMARK VINA RESULT:    -7.470      0.000      0.000
REMARK INTER + INTRA:          -9.435
REMARK INTER:                  -9.654
REMARK INTRA:                   0.218
REMARK UNBOUND:                 0.218
REMARK  5 active torsions:
REMARK  status: ('A' for Active; 'I' for Inactive)
REMARK    1  A    between atoms: S_1  and  N_4 
REMARK    2  A    between atoms: S_1  and  C_20 
REMARK    3  A    between atoms: C_6  and  N_8 
REMARK    4  A    between atoms: C_11  and  C_13 
REMARK    5  A    between atoms: C_13  and  N_14 
ROOT
ATOM      1  N   UNK d   1       1.918  14.117 -12.914  0.00  0.00    -0.202 NA
ATOM      2  C   UNK d   1       3.191  13.502 -12.788  0.00  0.00     0.136 C 
ATOM      3  C   UNK d   1       2.582  12.284 -12.209  0.00  0.00     0.139 C 
ATOM      4  C   UNK d   1       1.273  12.904 -12.554  0.00  0.00     0.136 C 
ENDROOT
BRANCH   3   5
ATOM      5  N   UNK d   1       2.819  11.042 -12.919  0.00  0.00    -0.254 N 
ATOM      6  N   UNK d   1       3.389  10.866 -14.082  0.00  0.00    -0.066 NA
ATOM      7  N   UNK d   1       3.418   9.563 -14.394  0.00  0.00    -0.134 NA
ATOM      8  C   UNK d   1       2.846   8.869 -13.395  0.00  0.00     0.093 A 
ATOM      9  C   UNK d   1       2.470   9.827 -12.465  0.00  0.00     0.145 A 
BRANCH   8  10
ATOM     10  C   UNK d   1       2.652   7.384 -13.298  0.00  0.00     0.188 C 
BRANCH  10  11
ATOM     11  N   UNK d   1       1.237   7.110 -13.475  0.00  0.00    -0.346 N 
ATOM     12  C   UNK d   1       0.357   7.803 -14.367  0.00  0.00     0.126 C 
ATOM     13  C   UNK d   1      -0.973   7.116 -14.255  0.00  0.00     0.029 C 
ATOM     14  C   UNK d   1      -0.789   5.852 -13.479  0.00  0.00     0.104 C 
ATOM     15  C   UNK d   1       0.518   6.099 -12.775  0.00  0.00     0.220 C 
ATOM     16  O   UNK d   1       0.868   5.489 -11.749  0.00  0.00    -0.273 OA
ENDBRANCH  10  11
ENDBRANCH   8  10
ENDBRANCH   3   5
BRANCH   1  17
ATOM     17  S   UNK d   1       1.539  15.453 -11.954  0.00  0.00     0.250 S 
ATOM     18  O   UNK d   1       2.627  16.478 -12.094  0.00  0.00    -0.205 OA
ATOM     19  O   UNK d   1       1.473  15.099 -10.487  0.00  0.00    -0.205 OA
BRANCH  17  20
ATOM     20  C   UNK d   1       0.032  16.245 -12.408  0.00  0.00     0.116 A 
ATOM     21  S   UNK d   1      -0.797  17.490 -11.571  0.00  0.00    -0.070 SA
ATOM     22  C   UNK d   1      -2.122  17.697 -12.628  0.00  0.00     0.052 A 
ATOM     23  C   UNK d   1      -1.871  16.775 -13.612  0.00  0.00     0.028 A 
ATOM     24 Br   UNK d   1      -3.613  18.910 -12.501  0.00  0.00    -0.043 Br
ATOM     25  C   UNK d   1      -0.767  16.036 -13.493  0.00  0.00     0.034 A 
ENDBRANCH  17  20
ENDBRANCH   1  17
TORSDOF 5
ENDMDL
