/Users/jonathanwahrer/Desktop/Msc/3_Semester/Drug_Design_Praktikum/waehrer_HTS_screening/HTS_experiment/out/docking_results/vina_output/6q9y/1037_docked.pdbqt
 OpenBabel03222219493D

 31 34  0  0  0  0  0  0  0  0999 V2000
    0.4660    7.1180  -13.5290 N   0  0  0  0  0  0  0  0  0  0  0  0
   -0.8640    7.5740  -13.3110 C   0  0  0  0  0  3  0  0  0  0  0  0
   -1.0980    9.0050  -13.1630 C   0  0  0  0  0  3  0  0  0  0  0  0
   -0.0440    9.9200  -13.5560 N   0  0  0  0  0  0  0  0  0  0  0  0
    1.2790    9.4420  -13.8160 C   0  0  0  0  0  2  0  0  0  0  0  0
    1.2800    7.9940  -14.2910 C   0  0  0  0  0  2  0  0  0  0  0  0
   -0.3690   11.2700  -13.6950 C   0  0  0  0  0  0  0  0  0  0  0  0
   -1.6970   11.4570  -13.5360 O   0  0  0  0  0  0  0  0  0  0  0  0
    1.2300    6.3740  -12.2120 S   0  0  0  0  0  0  0  0  0  0  0  0
    0.3580    5.2620  -11.6970 O   0  0  0  0  0  0  0  0  0  0  0  0
    1.3840    7.3570  -11.0640 O   0  0  0  0  0  0  0  0  0  0  0  0
    2.7760    5.6440  -12.5930 C   0  0  0  0  0  0  0  0  0  0  0  0
    3.8800    6.4510  -12.8640 C   0  0  0  0  0  3  0  0  0  0  0  0
    5.1180    5.9370  -13.1830 C   0  0  0  0  0  0  0  0  0  0  0  0
    5.3210    4.5770  -13.2480 C   0  0  0  0  0  0  0  0  0  0  0  0
    6.2400    6.7880  -13.4710 N   0  0  0  0  0  0  0  0  0  0  0  0
    4.2340    3.7730  -12.9810 C   0  0  0  0  0  3  0  0  0  0  0  0
    6.5830    4.0420  -13.5750 O   0  0  0  0  0  0  0  0  0  0  0  0
    2.9820    4.2840  -12.6590 C   0  0  0  0  0  3  0  0  0  0  0  0
    7.7680    4.8140  -13.3130 C   0  0  0  0  0  2  0  0  0  0  0  0
    7.4770    6.1840  -13.8070 C   0  0  0  0  0  0  0  0  0  0  0  0
    8.2840    6.8300  -14.5130 O   0  0  0  0  0  0  0  0  0  0  0  0
    6.0790    7.8040  -13.4190 H   0  0  0  0  0  0  0  0  0  0  0  0
    0.3860   12.4600  -13.9610 C   0  0  0  0  0  2  0  0  0  0  0  0
    1.1630   13.1220  -12.9160 C   0  0  0  0  0  0  0  0  0  0  0  0
    0.8040   14.3550  -12.4300 C   0  0  0  0  0  0  0  0  0  0  0  0
    1.5510   14.9740  -11.4270 C   0  0  0  0  0  3  0  0  0  0  0  0
   -0.7330   15.2630  -13.1280 Br  0  0  0  0  0  0  0  0  0  0  0  0
    2.6500   14.3430  -10.9230 C   0  0  0  0  0  3  0  0  0  0  0  0
    3.0180   13.0880  -11.4110 C   0  0  0  0  0  3  0  0  0  0  0  0
    2.2890   12.4890  -12.3880 C   0  0  0  0  0  3  0  0  0  0  0  0
  1  2  1  0  0  0  0
  1  9  1  0  0  0  0
  2  3  2  0  0  0  0
  4  3  1  0  0  0  0
  5  4  1  0  0  0  0
  6  5  1  0  0  0  0
  6  1  1  0  0  0  0
  7  4  1  0  0  0  0
  7  8  2  0  0  0  0
  9 10  2  0  0  0  0
  9 11  2  0  0  0  0
 12  9  1  0  0  0  0
 13 12  2  0  0  0  0
 14 13  1  0  0  0  0
 15 14  2  0  0  0  0
 15 17  1  0  0  0  0
 16 23  1  0  0  0  0
 16 14  1  0  0  0  0
 17 19  2  0  0  0  0
 18 20  1  0  0  0  0
 18 15  1  0  0  0  0
 19 12  1  0  0  0  0
 21 16  1  0  0  0  0
 21 20  1  0  0  0  0
 22 21  2  0  0  0  0
 24  7  1  0  0  0  0
 24 25  1  0  0  0  0
 25 26  2  0  0  0  0
 25 31  1  0  0  0  0
 26 27  1  0  0  0  0
 27 29  2  0  0  0  0
 28 26  1  0  0  0  0
 30 29  1  0  0  0  0
 31 30  2  0  0  0  0
M  END
>  <Pose>
1

>  <Score>
-9.583

$$$$
