MODEL 1
REMARK VINA RESULT:    -6.426      0.000      0.000
REMARK INTER + INTRA:          -7.392
REMARK INTER:                  -7.929
REMARK INTRA:                   0.537
REMARK UNBOUND:                 0.537
REMARK  4 active torsions:
REMARK  status: ('A' for Active; 'I' for Inactive)
REMARK    1  A    between atoms: S_1  and  N_4 
REMARK    2  A    between atoms: S_1  and  C_19 
REMARK       I    between atoms: N_7  and  C_10 
REMARK    3  A    between atoms: C_12  and  N_13 
REMARK    4  A    between atoms: C_22  and  O_30 
ROOT
ATOM      1  S   UNK d   1       1.955   9.155 -14.323  0.00  0.00     0.247 S 
ATOM      2  O   UNK d   1       1.114   8.296 -15.186  0.00  0.00    -0.206 OA
ATOM      3  O   UNK d   1       3.125   9.582 -15.216  0.00  0.00    -0.206 OA
ENDROOT
BRANCH   1   4
ATOM      4  N   UNK d   1       2.696   8.313 -13.018  0.00  0.00    -0.203 NA
ATOM      5  C   UNK d   1       4.115   8.256 -13.090  0.00  0.00     0.127 C 
ATOM      6  C   UNK d   1       4.652   7.074 -13.887  0.00  0.00     0.140 C 
ATOM      7  N   UNK d   1       4.053   5.878 -13.398  0.00  0.00    -0.359 N 
ATOM      8  C   UNK d   1       2.561   5.903 -13.533  0.00  0.00     0.140 C 
ATOM      9  C   UNK d   1       4.597   4.740 -12.839  0.00  0.00     0.173 C 
ATOM     10  C   UNK d   1       2.084   7.061 -12.725  0.00  0.00     0.127 C 
ATOM     11  O   UNK d   1       3.719   3.819 -12.492  0.00  0.00    -0.175 OA
ATOM     12  C   UNK d   1       5.955   4.373 -12.564  0.00  0.00     0.237 C 
BRANCH  12  13
ATOM     13  N   UNK d   1       7.009   5.257 -12.907  0.00  0.00    -0.272 N 
ATOM     14  N   UNK d   1       7.198   6.506 -12.486  0.00  0.00    -0.183 NA
ATOM     15  C   UNK d   1       8.326   7.017 -12.994  0.00  0.00     0.159 A 
ATOM     16  C   UNK d   1       8.870   6.028 -13.776  0.00  0.00     0.047 A 
ATOM     17  C   UNK d   1       8.051   4.940 -13.720  0.00  0.00     0.133 A 
ATOM     18 Br   UNK d   1      10.506   6.152 -14.782  0.00  0.00    -0.048 Br
ENDBRANCH  12  13
ENDBRANCH   1   4
BRANCH   1  19
ATOM     19  C   UNK d   1       1.207  10.634 -13.809  0.00  0.00     0.118 A 
ATOM     20  C   UNK d   1      -0.183  10.756 -13.667  0.00  0.00     0.131 A 
ATOM     21  C   UNK d   1      -0.771  11.937 -13.260  0.00  0.00     0.140 A 
ATOM     22  O   UNK d   1      -1.166   9.797 -13.887  0.00  0.00    -0.321 OA
ATOM     23  C   UNK d   1      -0.009  13.051 -12.973  0.00  0.00     0.113 A 
ATOM     24  O   UNK d   1      -2.132  11.729 -13.221  0.00  0.00    -0.320 OA
ATOM     25  C   UNK d   1       1.347  12.940 -13.111  0.00  0.00     0.004 A 
ATOM     26  C   UNK d   1       1.926  11.744 -13.522  0.00  0.00    -0.020 A 
ATOM     27  C   UNK d   1       2.298  14.042 -12.839  0.00  0.00     0.158 C 
ATOM     28  C   UNK d   1       3.394  11.780 -13.634  0.00  0.00     0.060 C 
ATOM     29  C   UNK d   1       4.016  12.380 -12.392  0.00  0.00     0.121 C 
ATOM     30  N   UNK d   1       3.304  13.525 -11.967  0.00  0.00    -0.412 N 
ATOM     31  C   UNK d   1       3.028  13.631 -10.578  0.00  0.00     0.143 C 
ATOM     32  C   UNK d   1      -2.413  10.458 -13.735  0.00  0.00     0.352 C 
BRANCH  23  33
ATOM     33  O   UNK d   1      -0.603  14.261 -12.558  0.00  0.00    -0.352 OA
ATOM     34  C   UNK d   1      -0.704  15.335 -13.503  0.00  0.00     0.210 C 
ENDBRANCH  23  33
ENDBRANCH   1  19
TORSDOF 4
ENDMDL
