/Users/jonathanwahrer/Desktop/Msc/3_Semester/Drug_Design_Praktikum/waehrer_HTS_screening/HTS_experiment/out/docking_results/vina_output/6q9y/1040_docked.pdbqt
 OpenBabel03222219493D

 34 38  0  0  0  0  0  0  0  0999 V2000
    1.9550    9.1550  -14.3230 S   0  0  0  0  0  0  0  0  0  0  0  0
    1.1140    8.2960  -15.1860 O   0  0  0  0  0  0  0  0  0  0  0  0
    3.1250    9.5820  -15.2160 O   0  0  0  0  0  0  0  0  0  0  0  0
    2.6960    8.3130  -13.0180 N   0  0  0  0  0  0  0  0  0  0  0  0
    4.1150    8.2560  -13.0900 C   0  0  0  0  0  2  0  0  0  0  0  0
    4.6520    7.0740  -13.8870 C   0  0  0  0  0  2  0  0  0  0  0  0
    4.0530    5.8780  -13.3980 N   0  0  0  0  0  0  0  0  0  0  0  0
    2.5610    5.9030  -13.5330 C   0  0  0  0  0  2  0  0  0  0  0  0
    4.5970    4.7400  -12.8390 C   0  0  0  0  0  0  0  0  0  0  0  0
    2.0840    7.0610  -12.7250 C   0  0  0  0  0  2  0  0  0  0  0  0
    3.7190    3.8190  -12.4920 O   0  0  0  0  0  0  0  0  0  0  0  0
    5.9550    4.3730  -12.5640 C   0  0  0  0  0  2  0  0  0  0  0  0
    7.0090    5.2570  -12.9070 N   0  0  0  0  0  0  0  0  0  0  0  0
    7.1980    6.5060  -12.4860 N   0  0  0  0  0  0  0  0  0  0  0  0
    8.3260    7.0170  -12.9940 C   0  0  0  0  0  3  0  0  0  0  0  0
    8.8700    6.0280  -13.7760 C   0  0  0  0  0  0  0  0  0  0  0  0
    8.0510    4.9400  -13.7200 C   0  0  0  0  0  3  0  0  0  0  0  0
   10.5060    6.1520  -14.7820 Br  0  0  0  0  0  0  0  0  0  0  0  0
    1.2070   10.6340  -13.8090 C   0  0  0  0  0  0  0  0  0  0  0  0
   -0.1830   10.7560  -13.6670 C   0  0  0  0  0  0  0  0  0  0  0  0
   -0.7710   11.9370  -13.2600 C   0  0  0  0  0  0  0  0  0  0  0  0
   -1.1660    9.7970  -13.8870 O   0  0  0  0  0  0  0  0  0  0  0  0
   -0.0090   13.0510  -12.9730 C   0  0  0  0  0  0  0  0  0  0  0  0
   -2.1320   11.7290  -13.2210 O   0  0  0  0  0  0  0  0  0  0  0  0
    1.3470   12.9400  -13.1110 C   0  0  0  0  0  0  0  0  0  0  0  0
    1.9260   11.7440  -13.5220 C   0  0  0  0  0  0  0  0  0  0  0  0
    2.2980   14.0420  -12.8390 C   0  0  0  0  0  2  0  0  0  0  0  0
    3.3940   11.7800  -13.6340 C   0  0  0  0  0  2  0  0  0  0  0  0
    4.0160   12.3800  -12.3920 C   0  0  0  0  0  2  0  0  0  0  0  0
    3.3040   13.5250  -11.9670 N   0  0  0  0  0  0  0  0  0  0  0  0
    3.0280   13.6310  -10.5780 C   0  0  0  0  0  1  0  0  0  0  0  0
   -2.4130   10.4580  -13.7350 C   0  0  0  0  0  2  0  0  0  0  0  0
   -0.6030   14.2610  -12.5580 O   0  0  0  0  0  0  0  0  0  0  0  0
   -0.7040   15.3350  -13.5030 C   0  0  0  0  0  1  0  0  0  0  0  0
  1 19  1  0  0  0  0
  1  4  1  0  0  0  0
  2  1  2  0  0  0  0
  3  1  2  0  0  0  0
  4 10  1  0  0  0  0
  5  4  1  0  0  0  0
  6  7  1  0  0  0  0
  6  5  1  0  0  0  0
  7  9  1  0  0  0  0
  8  7  1  0  0  0  0
  8 10  1  0  0  0  0
  9 12  1  0  0  0  0
  9 11  2  0  0  0  0
 13 12  1  0  0  0  0
 13 14  1  0  0  0  0
 15 14  2  0  0  0  0
 16 17  2  0  0  0  0
 16 15  1  0  0  0  0
 17 13  1  0  0  0  0
 18 16  1  0  0  0  0
 19 20  2  0  0  0  0
 19 26  1  0  0  0  0
 20 21  1  0  0  0  0
 21 24  1  0  0  0  0
 21 23  2  0  0  0  0
 22 32  1  0  0  0  0
 22 20  1  0  0  0  0
 23 33  1  0  0  0  0
 25 23  1  0  0  0  0
 25 27  1  0  0  0  0
 26 25  2  0  0  0  0
 27 30  1  0  0  0  0
 28 26  1  0  0  0  0
 28 29  1  0  0  0  0
 29 30  1  0  0  0  0
 30 31  1  0  0  0  0
 32 24  1  0  0  0  0
 34 33  1  0  0  0  0
M  END
>  <Pose>
1

>  <Score>
-6.426

$$$$
