MODEL 1
REMARK VINA RESULT:    -7.976      0.000      0.000
REMARK INTER + INTRA:         -10.048
REMARK INTER:                  -9.841
REMARK INTRA:                  -0.207
REMARK UNBOUND:                -0.207
REMARK  4 active torsions:
REMARK  status: ('A' for Active; 'I' for Inactive)
REMARK    1  A    between atoms: S_1  and  N_4 
REMARK    2  A    between atoms: S_1  and  C_24 
REMARK       I    between atoms: N_7  and  C_10 
REMARK    3  A    between atoms: C_10  and  C_12 
REMARK    4  A    between atoms: C_12  and  N_13 
ROOT
ATOM      1  N   UNK d   1       4.944   7.245 -13.620  0.00  0.00    -0.304 N 
ATOM      2  C   UNK d   1       3.886   6.907 -12.792  0.00  0.00     0.155 C 
ATOM      3  C   UNK d   1       2.565   7.269 -13.526  0.00  0.00     0.146 C 
ATOM      4  N   UNK d   1       2.622   8.631 -13.978  0.00  0.00    -0.348 N 
ATOM      5  C   UNK d   1       3.700   8.974 -14.877  0.00  0.00     0.146 C 
ATOM      6  C   UNK d   1       4.636   7.785 -14.916  0.00  0.00     0.155 C 
ATOM      7  C   UNK d   1       1.698   9.622 -13.594  0.00  0.00     0.238 C 
ATOM      8  O   UNK d   1       0.767   9.318 -12.815  0.00  0.00    -0.272 OA
ENDROOT
BRANCH   7   9
ATOM      9  C   UNK d   1       1.811  10.994 -14.090  0.00  0.00     0.239 C 
BRANCH   9  10
ATOM     10  N   UNK d   1       2.194  11.901 -13.011  0.00  0.00    -0.259 N 
ATOM     11  C   UNK d   1       3.326  11.872 -12.167  0.00  0.00     0.326 C 
ATOM     12  O   UNK d   1       4.252  10.998 -12.214  0.00  0.00    -0.247 OA
ATOM     13  N   UNK d   1       3.228  12.981 -11.282  0.00  0.00    -0.324 N 
ATOM     14  C   UNK d   1       2.324  13.924 -11.888  0.00  0.00     0.116 C 
ATOM     15  H   UNK d   1       3.753  13.023 -10.373  0.00  0.00     0.165 HD
ATOM     16  C   UNK d   1       3.000  14.932 -12.760  0.00  0.00     0.041 C 
ATOM     17  C   UNK d   1       1.597  14.760 -10.860  0.00  0.00     0.041 C 
ATOM     18  C   UNK d   1       1.397  13.042 -12.635  0.00  0.00     0.256 C 
ATOM     19  C   UNK d   1       1.900  15.989 -12.920  0.00  0.00     0.003 C 
ATOM     20  C   UNK d   1       1.230  16.019 -11.574  0.00  0.00     0.003 C 
ATOM     21  O   UNK d   1       0.187  13.252 -12.878  0.00  0.00    -0.270 OA
ENDBRANCH   9  10
ENDBRANCH   7   9
BRANCH   1  22
ATOM     22  S   UNK d   1       6.510   6.770 -13.362  0.00  0.00     0.262 S 
ATOM     23  O   UNK d   1       7.352   7.223 -14.563  0.00  0.00    -0.200 OA
ATOM     24  O   UNK d   1       7.153   7.521 -12.192  0.00  0.00    -0.200 OA
BRANCH  22  25
ATOM     25  C   UNK d   1       6.837   5.074 -13.186  0.00  0.00     0.097 A 
ATOM     26  C   UNK d   1       8.030   4.511 -12.819  0.00  0.00     0.034 A 
ATOM     27  C   UNK d   1       8.204   3.123 -12.756  0.00  0.00     0.020 A 
ATOM     28 Br   UNK d   1       9.471   5.637 -12.315  0.00  0.00    -0.049 Br
ATOM     29  C   UNK d   1       7.196   2.262 -13.055  0.00  0.00     0.001 A 
ATOM     30  C   UNK d   1       5.989   2.794 -13.424  0.00  0.00     0.002 A 
ATOM     31  C   UNK d   1       5.814   4.156 -13.488  0.00  0.00     0.027 A 
ENDBRANCH  22  25
ENDBRANCH   1  22
TORSDOF 4
ENDMDL
