/Users/jonathanwahrer/Desktop/Msc/3_Semester/Drug_Design_Praktikum/waehrer_HTS_screening/HTS_experiment/out/docking_results/vina_output/6q9y/1042_docked.pdbqt
 OpenBabel03222219493D

 31 34  0  0  0  0  0  0  0  0999 V2000
    4.9440    7.2450  -13.6200 N   0  0  0  0  0  0  0  0  0  0  0  0
    3.8860    6.9070  -12.7920 C   0  0  0  0  0  2  0  0  0  0  0  0
    2.5650    7.2690  -13.5260 C   0  0  0  0  0  2  0  0  0  0  0  0
    2.6220    8.6310  -13.9780 N   0  0  0  0  0  0  0  0  0  0  0  0
    3.7000    8.9740  -14.8770 C   0  0  0  0  0  2  0  0  0  0  0  0
    4.6360    7.7850  -14.9160 C   0  0  0  0  0  2  0  0  0  0  0  0
    1.6980    9.6220  -13.5940 C   0  0  0  0  0  0  0  0  0  0  0  0
    0.7670    9.3180  -12.8150 O   0  0  0  0  0  0  0  0  0  0  0  0
    1.8110   10.9940  -14.0900 C   0  0  0  0  0  2  0  0  0  0  0  0
    2.1940   11.9010  -13.0110 N   0  0  0  0  0  0  0  0  0  0  0  0
    3.3260   11.8720  -12.1670 C   0  0  0  0  0  0  0  0  0  0  0  0
    4.2520   10.9980  -12.2140 O   0  0  0  0  0  0  0  0  0  0  0  0
    3.2280   12.9810  -11.2820 N   0  0  0  0  0  0  0  0  0  0  0  0
    2.3240   13.9240  -11.8880 C   0  0  0  0  0  0  0  0  0  0  0  0
    3.7530   13.0230  -10.3730 H   0  0  0  0  0  0  0  0  0  0  0  0
    3.0000   14.9320  -12.7600 C   0  0  0  0  0  2  0  0  0  0  0  0
    1.5970   14.7600  -10.8600 C   0  0  0  0  0  2  0  0  0  0  0  0
    1.3970   13.0420  -12.6350 C   0  0  0  0  0  0  0  0  0  0  0  0
    1.9000   15.9890  -12.9200 C   0  0  0  0  0  2  0  0  0  0  0  0
    1.2300   16.0190  -11.5740 C   0  0  0  0  0  2  0  0  0  0  0  0
    0.1870   13.2520  -12.8780 O   0  0  0  0  0  0  0  0  0  0  0  0
    6.5100    6.7700  -13.3620 S   0  0  0  0  0  0  0  0  0  0  0  0
    7.3520    7.2230  -14.5630 O   0  0  0  0  0  0  0  0  0  0  0  0
    7.1530    7.5210  -12.1920 O   0  0  0  0  0  0  0  0  0  0  0  0
    6.8370    5.0740  -13.1860 C   0  0  0  0  0  0  0  0  0  0  0  0
    8.0300    4.5110  -12.8190 C   0  0  0  0  0  0  0  0  0  0  0  0
    8.2040    3.1230  -12.7560 C   0  0  0  0  0  3  0  0  0  0  0  0
    9.4710    5.6370  -12.3150 Br  0  0  0  0  0  0  0  0  0  0  0  0
    7.1960    2.2620  -13.0550 C   0  0  0  0  0  3  0  0  0  0  0  0
    5.9890    2.7940  -13.4240 C   0  0  0  0  0  3  0  0  0  0  0  0
    5.8140    4.1560  -13.4880 C   0  0  0  0  0  3  0  0  0  0  0  0
  1 22  1  0  0  0  0
  1  2  1  0  0  0  0
  3  2  1  0  0  0  0
  4  7  1  0  0  0  0
  4  3  1  0  0  0  0
  5  4  1  0  0  0  0
  6  5  1  0  0  0  0
  6  1  1  0  0  0  0
  7  8  2  0  0  0  0
  9  7  1  0  0  0  0
  9 10  1  0  0  0  0
 10 18  1  0  0  0  0
 10 11  1  0  0  0  0
 11 13  1  0  0  0  0
 12 11  2  0  0  0  0
 13 15  1  0  0  0  0
 14 13  1  0  0  0  0
 14 17  1  0  0  0  0
 16 14  1  0  0  0  0
 18 14  1  0  0  0  0
 19 16  1  0  0  0  0
 19 20  1  0  0  0  0
 20 17  1  0  0  0  0
 21 18  2  0  0  0  0
 22 25  1  0  0  0  0
 22 24  2  0  0  0  0
 23 22  2  0  0  0  0
 25 26  1  0  0  0  0
 26 27  2  0  0  0  0
 26 28  1  0  0  0  0
 29 27  1  0  0  0  0
 30 29  2  0  0  0  0
 31 30  1  0  0  0  0
 31 25  2  0  0  0  0
M  END
>  <Pose>
1

>  <Score>
-7.976

$$$$
