MODEL 1
REMARK VINA RESULT:    -9.053      0.000      0.000
REMARK INTER + INTRA:          -9.784
REMARK INTER:                 -10.641
REMARK INTRA:                   0.857
REMARK UNBOUND:                 0.857
REMARK  3 active torsions:
REMARK  status: ('A' for Active; 'I' for Inactive)
REMARK    1  A    between atoms: S_1  and  N_4 
REMARK    2  A    between atoms: S_1  and  C_24 
REMARK       I    between atoms: N_7  and  C_10 
REMARK    3  A    between atoms: C_12  and  N_13 
ROOT
ATOM      1  N   UNK d   1       0.560  13.336 -12.421  0.00  0.00    -0.203 NA
ATOM      2  C   UNK d   1      -0.871  13.258 -12.625  0.00  0.00     0.127 C 
ATOM      3  C   UNK d   1      -1.209  12.350 -13.782  0.00  0.00     0.140 C 
ATOM      4  N   UNK d   1      -0.507  11.072 -13.542  0.00  0.00    -0.359 N 
ATOM      5  C   UNK d   1       0.908  11.174 -13.368  0.00  0.00     0.140 C 
ATOM      6  C   UNK d   1       1.272  12.674 -13.457  0.00  0.00     0.127 C 
ATOM      7  C   UNK d   1      -1.219   9.865 -13.491  0.00  0.00     0.172 C 
ATOM      8  O   UNK d   1      -2.520   9.991 -13.663  0.00  0.00    -0.175 OA
ATOM      9  C   UNK d   1      -0.814   8.498 -13.286  0.00  0.00     0.224 C 
ENDROOT
BRANCH   9  10
ATOM     10  N   UNK d   1       0.563   8.171 -13.091  0.00  0.00    -0.260 N 
ATOM     11  C   UNK d   1       1.191   7.676 -11.880  0.00  0.00     0.326 C 
ATOM     12  O   UNK d   1       0.543   7.454 -10.819  0.00  0.00    -0.247 OA
ATOM     13  N   UNK d   1       2.574   7.515 -12.145  0.00  0.00    -0.324 N 
ATOM     14  C   UNK d   1       2.879   8.287 -13.301  0.00  0.00     0.116 C 
ATOM     15  H   UNK d   1       3.200   6.912 -11.542  0.00  0.00     0.165 HD
ATOM     16  C   UNK d   1       3.382   9.674 -12.981  0.00  0.00     0.041 C 
ATOM     17  C   UNK d   1       4.037   7.716 -14.101  0.00  0.00     0.041 C 
ATOM     18  C   UNK d   1       1.628   8.289 -14.057  0.00  0.00     0.256 C 
ATOM     19  C   UNK d   1       3.922  10.116 -14.328  0.00  0.00     0.003 C 
ATOM     20  C   UNK d   1       4.347   8.856 -15.042  0.00  0.00     0.003 C 
ATOM     21  O   UNK d   1       1.467   8.375 -15.302  0.00  0.00    -0.270 OA
ENDBRANCH   9  10
BRANCH   1  22
ATOM     22  S   UNK d   1       1.105  14.917 -12.080  0.00  0.00     0.243 S 
ATOM     23  O   UNK d   1       2.272  15.194 -13.010  0.00  0.00    -0.206 OA
ATOM     24  O   UNK d   1       1.676  14.956 -10.685  0.00  0.00    -0.206 OA
BRANCH  22  25
ATOM     25  C   UNK d   1      -0.142  16.128 -12.258  0.00  0.00     0.074 A 
ATOM     26  C   UNK d   1      -0.371  17.094 -11.300  0.00  0.00     0.026 A 
ATOM     27  C   UNK d   1      -1.366  18.053 -11.451  0.00  0.00     0.020 A 
ATOM     28  C   UNK d   1      -2.159  18.070 -12.570  0.00  0.00     0.011 A 
ATOM     29  C   UNK d   1      -1.940  17.110 -13.535  0.00  0.00     0.020 A 
ATOM     30 Br   UNK d   1      -3.539  19.396 -12.787  0.00  0.00    -0.051 Br
ATOM     31  C   UNK d   1      -0.945  16.156 -13.378  0.00  0.00     0.026 A 
ENDBRANCH  22  25
ENDBRANCH   1  22
TORSDOF 3
ENDMDL
