MODEL 1
REMARK VINA RESULT:    -9.006      0.000      0.000
REMARK INTER + INTRA:         -10.715
REMARK INTER:                 -10.585
REMARK INTRA:                  -0.129
REMARK UNBOUND:                -0.129
REMARK  3 active torsions:
REMARK  status: ('A' for Active; 'I' for Inactive)
REMARK    1  A    between atoms: S_1  and  N_4 
REMARK    2  A    between atoms: S_1  and  C_19 
REMARK       I    between atoms: N_7  and  C_10 
REMARK    3  A    between atoms: C_10  and  C_12 
ROOT
ATOM      1  N   UNK d   1      -3.642   9.315 -13.787  0.00  0.00    -0.304 N 
ATOM      2  C   UNK d   1      -3.074  10.506 -14.244  0.00  0.00     0.155 C 
ATOM      3  C   UNK d   1      -1.657  10.764 -13.871  0.00  0.00     0.146 C 
ATOM      4  N   UNK d   1      -0.881   9.590 -13.623  0.00  0.00    -0.345 N 
ATOM      5  C   UNK d   1      -1.506   8.293 -13.759  0.00  0.00     0.146 C 
ATOM      6  C   UNK d   1      -2.856   8.411 -13.053  0.00  0.00     0.155 C 
ATOM      7  C   UNK d   1       0.483   9.647 -13.246  0.00  0.00     0.255 C 
ATOM      8  O   UNK d   1       1.076  10.765 -13.115  0.00  0.00    -0.267 OA
ENDROOT
BRANCH   1   9
ATOM      9  S   UNK d   1      -4.938   8.676 -14.665  0.00  0.00     0.261 S 
ATOM     10  O   UNK d   1      -4.609   8.288 -16.053  0.00  0.00    -0.200 OA
ATOM     11  O   UNK d   1      -5.400   7.413 -13.949  0.00  0.00    -0.200 OA
BRANCH   9  12
ATOM     12  C   UNK d   1      -6.312   9.776 -14.610  0.00  0.00     0.082 A 
ATOM     13  C   UNK d   1      -7.172   9.907 -15.681  0.00  0.00     0.057 A 
ATOM     14  C   UNK d   1      -8.257  10.759 -15.668  0.00  0.00     0.070 A 
ATOM     15  C   UNK d   1      -8.525  11.530 -14.556  0.00  0.00     0.096 A 
ATOM     16  N   UNK d   1      -9.146  10.898 -16.770  0.00  0.00    -0.323 N 
ATOM     17  C   UNK d   1      -7.663  11.401 -13.478  0.00  0.00     0.040 A 
ATOM     18  O   UNK d   1      -9.613  12.400 -14.514  0.00  0.00    -0.340 OA
ATOM     19  C   UNK d   1      -6.580  10.546 -13.497  0.00  0.00     0.028 A 
ATOM     20  C   UNK d   1     -10.379  12.770 -15.645  0.00  0.00     0.278 C 
ATOM     21  C   UNK d   1     -10.262  11.781 -16.746  0.00  0.00     0.246 C 
ATOM     22  O   UNK d   1     -11.170  11.777 -17.615  0.00  0.00    -0.271 OA
ATOM     23  H   UNK d   1      -8.957  10.323 -17.618  0.00  0.00     0.169 HD
ENDBRANCH   9  12
ENDBRANCH   1   9
BRANCH   7  24
ATOM     24  C   UNK d   1       1.289   8.461 -12.989  0.00  0.00     0.049 A 
ATOM     25  C   UNK d   1       2.326   8.077 -13.819  0.00  0.00     0.026 A 
ATOM     26  C   UNK d   1       3.094   6.960 -13.586  0.00  0.00     0.020 A 
ATOM     27 Br   UNK d   1       2.666   9.179 -15.341  0.00  0.00    -0.050 Br
ATOM     28  C   UNK d   1       2.806   6.194 -12.467  0.00  0.00     0.001 A 
ATOM     29  C   UNK d   1       1.787   6.528 -11.606  0.00  0.00     0.001 A 
ATOM     30  C   UNK d   1       1.047   7.656 -11.884  0.00  0.00     0.018 A 
ENDBRANCH   7  24
TORSDOF 3
ENDMDL
