MODEL 1
REMARK VINA RESULT:    -8.056      0.000      0.000
REMARK INTER + INTRA:          -9.497
REMARK INTER:                  -9.468
REMARK INTRA:                  -0.028
REMARK UNBOUND:                -0.028
REMARK  3 active torsions:
REMARK  status: ('A' for Active; 'I' for Inactive)
REMARK    1  A    between atoms: S_1  and  N_4 
REMARK    2  A    between atoms: S_1  and  C_22 
REMARK       I    between atoms: N_7  and  C_10 
REMARK    3  A    between atoms: C_10  and  C_12 
ROOT
ATOM      1  N   UNK d   1       2.698  11.522 -13.107  0.00  0.00    -0.203 NA
ATOM      2  C   UNK d   1       1.827  11.369 -14.213  0.00  0.00     0.127 C 
ATOM      3  C   UNK d   1       0.680  10.433 -14.036  0.00  0.00     0.141 C 
ATOM      4  N   UNK d   1       0.973   9.299 -13.202  0.00  0.00    -0.344 N 
ATOM      5  C   UNK d   1       2.319   9.211 -12.681  0.00  0.00     0.141 C 
ATOM      6  C   UNK d   1       2.582  10.567 -12.059  0.00  0.00     0.127 C 
ATOM      7  C   UNK d   1       0.046   8.292 -12.873  0.00  0.00     0.274 C 
ATOM      8  O   UNK d   1       0.394   7.341 -12.139  0.00  0.00    -0.266 OA
ENDROOT
BRANCH   7   9
ATOM      9  C   UNK d   1      -1.320   8.346 -13.383  0.00  0.00     0.148 A 
ATOM     10  N   UNK d   1      -2.198   9.317 -13.154  0.00  0.00    -0.161 NA
ATOM     11  N   UNK d   1      -3.353   9.053 -13.769  0.00  0.00    -0.225 N 
ATOM     12  C   UNK d   1      -3.252   7.877 -14.429  0.00  0.00     0.152 A 
ATOM     13  C   UNK d   1      -4.520   9.729 -13.829  0.00  0.00     0.141 A 
ATOM     14  C   UNK d   1      -1.951   7.426 -14.180  0.00  0.00     0.091 A 
ATOM     15  N   UNK d   1      -4.284   7.363 -15.143  0.00  0.00    -0.240 NA
ATOM     16  C   UNK d   1      -5.463   8.048 -15.202  0.00  0.00     0.139 A 
ATOM     17  C   UNK d   1      -5.597   9.250 -14.542  0.00  0.00     0.046 A 
ATOM     18 Br   UNK d   1      -7.259  10.214 -14.627  0.00  0.00    -0.048 Br
ENDBRANCH   7   9
BRANCH   1  19
ATOM     19  S   UNK d   1       2.684  13.099 -12.416  0.00  0.00     0.246 S 
ATOM     20  O   UNK d   1       3.730  13.953 -13.057  0.00  0.00    -0.206 OA
ATOM     21  O   UNK d   1       3.041  12.928 -10.946  0.00  0.00    -0.206 OA
BRANCH  19  22
ATOM     22  C   UNK d   1       1.129  13.875 -12.589  0.00  0.00     0.111 A 
ATOM     23  C   UNK d   1       0.881  15.214 -12.784  0.00  0.00     0.138 A 
ATOM     24  N   UNK d   1      -0.434  15.421 -12.868  0.00  0.00    -0.284 N 
ATOM     25  N   UNK d   1      -1.048  14.261 -12.736  0.00  0.00    -0.184 NA
ATOM     26  C   UNK d   1      -1.109  16.675 -13.070  0.00  0.00     0.179 C 
ATOM     27  C   UNK d   1      -0.131  13.277 -12.561  0.00  0.00     0.165 A 
ENDBRANCH  19  22
ENDBRANCH   1  19
TORSDOF 3
ENDMDL
