MODEL 1
REMARK VINA RESULT:    -8.925      0.000      0.000
REMARK INTER + INTRA:          -9.963
REMARK INTER:                 -10.490
REMARK INTRA:                   0.527
REMARK UNBOUND:                 0.527
REMARK  3 active torsions:
REMARK  status: ('A' for Active; 'I' for Inactive)
REMARK    1  A    between atoms: S_1  and  N_4 
REMARK    2  A    between atoms: S_1  and  C_24 
REMARK       I    between atoms: N_7  and  C_10 
REMARK    3  A    between atoms: C_10  and  C_12 
ROOT
ATOM      1  N   UNK d   1       0.544   7.055 -12.623  0.00  0.00    -0.304 N 
ATOM      2  C   UNK d   1       1.242   8.280 -12.722  0.00  0.00     0.155 C 
ATOM      3  C   UNK d   1       2.543   8.263 -13.414  0.00  0.00     0.146 C 
ATOM      4  N   UNK d   1       3.299   7.084 -13.112  0.00  0.00    -0.345 N 
ATOM      5  C   UNK d   1       2.776   6.134 -12.172  0.00  0.00     0.146 C 
ATOM      6  C   UNK d   1       1.305   5.900 -12.312  0.00  0.00     0.155 C 
ATOM      7  C   UNK d   1       4.545   6.850 -13.728  0.00  0.00     0.260 C 
ATOM      8  O   UNK d   1       4.984   7.689 -14.546  0.00  0.00    -0.267 OA
ENDROOT
BRANCH   7   9
ATOM      9  C   UNK d   1       5.367   5.675 -13.469  0.00  0.00     0.118 A 
ATOM     10  C   UNK d   1       4.923   4.425 -13.860  0.00  0.00     0.141 A 
ATOM     11  N   UNK d   1       5.680   3.341 -13.623  0.00  0.00    -0.242 NA
ATOM     12  C   UNK d   1       6.880   3.416 -13.008  0.00  0.00     0.136 A 
ATOM     13  N   UNK d   1       7.340   4.615 -12.614  0.00  0.00    -0.272 N 
ATOM     14  C   UNK d   1       7.642   2.276 -12.775  0.00  0.00     0.051 A 
ATOM     15  C   UNK d   1       8.550   4.695 -11.993  0.00  0.00     0.108 A 
ATOM     16  C   UNK d   1       6.595   5.730 -12.841  0.00  0.00     0.270 A 
ATOM     17  C   UNK d   1       9.322   3.577 -11.753  0.00  0.00    -0.046 A 
ATOM     18  C   UNK d   1       8.867   2.330 -12.149  0.00  0.00     0.012 A 
ATOM     19  C   UNK d   1      10.643   3.623 -11.079  0.00  0.00     0.049 C 
ATOM     20  O   UNK d   1       7.022   6.836 -12.478  0.00  0.00    -0.266 OA
ENDBRANCH   7   9
BRANCH   1  21
ATOM     21  S   UNK d   1      -0.751   6.836 -13.689  0.00  0.00     0.261 S 
ATOM     22  O   UNK d   1      -0.260   6.397 -15.024  0.00  0.00    -0.200 OA
ATOM     23  O   UNK d   1      -1.651   5.761 -13.133  0.00  0.00    -0.200 OA
BRANCH  21  24
ATOM     24  C   UNK d   1      -1.677   8.308 -13.818  0.00  0.00     0.081 A 
ATOM     25  C   UNK d   1      -1.098   9.521 -13.509  0.00  0.00     0.044 A 
ATOM     26  C   UNK d   1      -1.893  10.655 -13.634  0.00  0.00     0.012 A 
ATOM     27  C   UNK d   1      -3.199  10.590 -14.045  0.00  0.00     0.019 A 
ATOM     28 Br   UNK d   1      -1.153  12.358 -13.222  0.00  0.00    -0.051 Br
ATOM     29  C   UNK d   1      -3.771   9.365 -14.354  0.00  0.00     0.003 A 
ATOM     30  C   UNK d   1      -2.989   8.211 -14.235  0.00  0.00     0.025 A 
ENDBRANCH  21  24
ENDBRANCH   1  21
TORSDOF 3
ENDMDL
