MODEL 1
REMARK VINA RESULT:    -8.384      0.000      0.000
REMARK INTER + INTRA:         -11.282
REMARK INTER:                 -10.835
REMARK INTRA:                  -0.447
REMARK UNBOUND:                -0.447
REMARK  5 active torsions:
REMARK  status: ('A' for Active; 'I' for Inactive)
REMARK    1  A    between atoms: S_1  and  N_4 
REMARK    2  A    between atoms: S_1  and  C_23 
REMARK    3  A    between atoms: N_7  and  C_10 
REMARK    4  A    between atoms: C_10  and  N_11 
REMARK    5  A    between atoms: C_13  and  N_18 
ROOT
ATOM      1  N   UNK d   1       2.727  11.475 -13.093  0.00  0.00    -0.303 N 
ATOM      2  C   UNK d   1       3.706  10.508 -12.800  0.00  0.00     0.165 C 
ATOM      3  C   UNK d   1       3.453   9.182 -13.461  0.00  0.00     0.295 C 
ATOM      4  N   UNK d   1       2.108   8.974 -13.864  0.00  0.00     0.111 NA
ATOM      5  C   UNK d   1       1.666  10.002 -14.738  0.00  0.00     0.295 C 
ATOM      6  C   UNK d   1       2.038  11.377 -14.323  0.00  0.00     0.165 C 
ENDROOT
BRANCH   4   7
ATOM      7  C   UNK d   1       1.273   8.620 -12.778  0.00  0.00     0.426 C 
BRANCH   7   8
ATOM      8  N   UNK d   1       0.298   7.609 -13.013  0.00  0.00    -0.204 N 
ATOM      9  N   UNK d   1      -0.799   7.876 -13.691  0.00  0.00    -0.149 NA
ATOM     10  C   UNK d   1      -1.768   6.984 -13.951  0.00  0.00     0.155 A 
ATOM     11  C   UNK d   1      -1.583   5.711 -13.467  0.00  0.00     0.058 A 
ATOM     12  C   UNK d   1      -0.457   5.368 -12.749  0.00  0.00     0.080 A 
ATOM     13  C   UNK d   1       0.485   6.367 -12.538  0.00  0.00     0.265 A 
ATOM     14  O   UNK d   1       1.530   6.045 -11.872  0.00  0.00    -0.267 OA
BRANCH  10  15
ATOM     15  N   UNK d   1      -2.951   7.306 -14.692  0.00  0.00    -0.298 N 
ATOM     16  C   UNK d   1      -3.458   6.687 -15.763  0.00  0.00     0.215 A 
ATOM     17  N   UNK d   1      -4.582   7.327 -16.135  0.00  0.00    -0.254 NA
ATOM     18  C   UNK d   1      -4.801   8.360 -15.302  0.00  0.00     0.135 A 
ATOM     19  C   UNK d   1      -3.762   8.333 -14.396  0.00  0.00     0.119 A 
ENDBRANCH  10  15
ENDBRANCH   7   8
ENDBRANCH   4   7
BRANCH   1  20
ATOM     20  S   UNK d   1       2.842  12.976 -12.390  0.00  0.00     0.267 S 
ATOM     21  O   UNK d   1       3.075  12.909 -10.919  0.00  0.00    -0.200 OA
ATOM     22  O   UNK d   1       3.945  13.767 -13.016  0.00  0.00    -0.200 OA
BRANCH  20  23
ATOM     23  C   UNK d   1       1.319  13.854 -12.641  0.00  0.00     0.121 A 
ATOM     24  S   UNK d   1       1.051  15.534 -12.745  0.00  0.00    -0.069 SA
ATOM     25  C   UNK d   1      -0.635  15.527 -12.984  0.00  0.00     0.052 A 
ATOM     26  C   UNK d   1      -0.949  14.190 -12.975  0.00  0.00     0.028 A 
ATOM     27 Br   UNK d   1      -1.830  17.007 -13.213  0.00  0.00    -0.043 Br
ATOM     28  C   UNK d   1       0.067  13.331 -12.797  0.00  0.00     0.035 A 
ENDBRANCH  20  23
ENDBRANCH   1  20
TORSDOF 5
ENDMDL
