MODEL 1
REMARK VINA RESULT:    -9.973      0.000      0.000
REMARK INTER + INTRA:         -12.872
REMARK INTER:                 -12.305
REMARK INTRA:                  -0.567
REMARK UNBOUND:                -0.567
REMARK  4 active torsions:
REMARK  status: ('A' for Active; 'I' for Inactive)
REMARK    1  A    between atoms: S_1  and  N_4 
REMARK    2  A    between atoms: S_1  and  C_22 
REMARK    3  A    between atoms: N_7  and  C_10 
REMARK    4  A    between atoms: C_10  and  N_11 
ROOT
ATOM      1  N   UNK d   1       2.712  13.463 -12.515  0.00  0.00    -0.203 NA
ATOM      2  C   UNK d   1       2.697  13.717 -11.109  0.00  0.00     0.127 C 
ATOM      3  C   UNK d   1       1.585  14.756 -10.882  0.00  0.00     0.134 C 
ATOM      4  N   UNK d   1       1.442  15.608 -11.981  0.00  0.00    -0.393 N 
ATOM      5  C   UNK d   1       2.636  15.882 -12.734  0.00  0.00     0.134 C 
ATOM      6  C   UNK d   1       3.391  14.627 -13.111  0.00  0.00     0.127 C 
ENDROOT
BRANCH   4   7
ATOM      7  C   UNK d   1       0.243  15.665 -12.706  0.00  0.00     0.273 C 
BRANCH   7   8
ATOM      8  N   UNK d   1      -0.715  16.667 -12.364  0.00  0.00    -0.223 N 
ATOM      9  N   UNK d   1      -0.588  17.423 -11.171  0.00  0.00    -0.278 N 
ATOM     10  C   UNK d   1      -1.694  18.321 -11.164  0.00  0.00     0.122 A 
ATOM     11  H   UNK d   1       0.161  17.338 -10.444  0.00  0.00     0.189 HD
ATOM     12  C   UNK d   1      -1.909  19.196 -10.189  0.00  0.00     0.023 C 
ATOM     13  N   UNK d   1      -2.503  18.147 -12.317  0.00  0.00    -0.283 N 
ATOM     14  C   UNK d   1      -2.945  20.221  -9.930  0.00  0.00     0.031 C 
ATOM     15  C   UNK d   1      -4.249  19.850 -10.595  0.00  0.00     0.006 C 
ATOM     16  C   UNK d   1      -4.038  20.059 -12.084  0.00  0.00     0.021 C 
ATOM     17  C   UNK d   1      -3.700  18.778 -12.783  0.00  0.00     0.135 C 
ATOM     18  C   UNK d   1      -1.874  17.105 -13.057  0.00  0.00     0.346 A 
ATOM     19  O   UNK d   1      -2.313  16.671 -14.151  0.00  0.00    -0.245 OA
ENDBRANCH   7   8
ENDBRANCH   4   7
BRANCH   1  20
ATOM     20  S   UNK d   1       3.619  12.083 -12.964  0.00  0.00     0.243 S 
ATOM     21  O   UNK d   1       4.457  11.561 -11.826  0.00  0.00    -0.206 OA
ATOM     22  O   UNK d   1       4.588  12.516 -14.040  0.00  0.00    -0.206 OA
BRANCH  20  23
ATOM     23  C   UNK d   1       2.666  10.796 -13.596  0.00  0.00     0.076 A 
ATOM     24  C   UNK d   1       1.393  10.481 -13.224  0.00  0.00     0.043 A 
ATOM     25  C   UNK d   1       0.710   9.419 -13.798  0.00  0.00     0.012 A 
ATOM     26  C   UNK d   1       1.284   8.643 -14.761  0.00  0.00     0.019 A 
ATOM     27 Br   UNK d   1      -1.084   8.993 -13.258  0.00  0.00    -0.051 Br
ATOM     28  C   UNK d   1       2.578   8.939 -15.160  0.00  0.00     0.003 A 
ATOM     29  C   UNK d   1       3.243   9.992 -14.584  0.00  0.00     0.025 A 
ENDBRANCH  20  23
ENDBRANCH   1  20
TORSDOF 4
ENDMDL
