/Users/jonathanwahrer/Desktop/Msc/3_Semester/Drug_Design_Praktikum/waehrer_HTS_screening/HTS_experiment/out/docking_results/vina_output/6q9y/1081_docked.pdbqt
 OpenBabel03222219513D

 27 30  0  0  0  0  0  0  0  0999 V2000
    3.0090   10.6680  -14.1250 N   0  0  0  0  0  0  0  0  0  0  0  0
    1.7510   10.2450  -14.6080 C   0  0  0  0  0  2  0  0  0  0  0  0
    1.4490    8.7860  -14.5270 C   0  0  0  0  0  2  0  0  0  0  0  0
    2.5010    7.9880  -13.9500 N   0  0  0  0  0  0  0  0  0  0  0  0
    3.8620    8.3470  -14.1840 C   0  0  0  0  0  3  0  0  0  0  0  0
    4.1190    9.8090  -14.2990 C   0  0  0  0  0  3  0  0  0  0  0  0
    2.1110    6.8510  -13.1660 C   0  0  0  0  0  0  0  0  0  0  0  0
    0.8520    6.5180  -12.8340 N   0  0  0  0  0  0  0  0  0  0  0  0
    0.9630    5.4090  -12.0940 N   0  0  0  0  0  0  0  0  0  0  0  0
    2.2300    5.0780  -11.9770 N   0  0  0  0  0  0  0  0  0  0  0  0
    2.9740    5.9470  -12.6280 N   0  0  0  0  0  0  0  0  0  0  0  0
   -0.3380    7.1990  -13.2060 C   0  0  0  0  0  0  0  0  0  0  0  0
   -0.6960    8.3890  -12.6150 C   0  0  0  0  0  3  0  0  0  0  0  0
   -1.8700    9.0340  -13.0030 C   0  0  0  0  0  3  0  0  0  0  0  0
   -2.6900    8.5040  -13.9740 C   0  0  0  0  0  3  0  0  0  0  0  0
   -2.3260    7.2920  -14.5760 C   0  0  0  0  0  3  0  0  0  0  0  0
   -1.1470    6.6610  -14.1750 C   0  0  0  0  0  3  0  0  0  0  0  0
    3.0190   11.5880  -12.6950 S   0  0  0  0  0  0  0  0  0  0  0  0
    4.3350   12.1410  -12.3170 O   0  0  0  0  0  0  0  0  0  0  0  0
    2.5930   10.6730  -11.5530 O   0  0  0  0  0  0  0  0  0  0  0  0
    1.8290   12.8560  -12.7990 C   0  0  0  0  0  0  0  0  0  0  0  0
    0.5210   12.6260  -13.1440 C   0  0  0  0  0  3  0  0  0  0  0  0
   -0.4230   13.6510  -13.2200 C   0  0  0  0  0  3  0  0  0  0  0  0
   -0.0050   14.9540  -12.9330 C   0  0  0  0  0  0  0  0  0  0  0  0
    1.3060   15.1960  -12.5870 C   0  0  0  0  0  3  0  0  0  0  0  0
   -1.2460   16.4080  -13.0160 Br  0  0  0  0  0  0  0  0  0  0  0  0
    2.2000   14.1640  -12.5230 C   0  0  0  0  0  3  0  0  0  0  0  0
  1 18  1  0  0  0  0
  2  3  1  0  0  0  0
  2  1  1  0  0  0  0
  3  4  1  0  0  0  0
  4  7  1  0  0  0  0
  5  4  1  0  0  0  0
  6  5  2  0  0  0  0
  6  1  1  0  0  0  0
  7  8  1  0  0  0  0
  7 11  2  0  0  0  0
  8  9  1  0  0  0  0
  9 10  2  0  0  0  0
 11 10  1  0  0  0  0
 12  8  1  0  0  0  0
 12 13  1  0  0  0  0
 14 13  2  0  0  0  0
 15 14  1  0  0  0  0
 16 17  1  0  0  0  0
 16 15  2  0  0  0  0
 17 12  2  0  0  0  0
 18 19  2  0  0  0  0
 18 20  2  0  0  0  0
 21 18  1  0  0  0  0
 21 27  1  0  0  0  0
 22 21  2  0  0  0  0
 23 22  1  0  0  0  0
 23 24  2  0  0  0  0
 24 25  1  0  0  0  0
 25 27  2  0  0  0  0
 26 24  1  0  0  0  0
M  END
>  <Pose>
1

>  <Score>
-8.977

$$$$
