MODEL 1
REMARK VINA RESULT:    -8.977      0.000      0.000
REMARK INTER + INTRA:          -9.994
REMARK INTER:                 -11.076
REMARK INTRA:                   1.082
REMARK UNBOUND:                 1.082
REMARK  4 active torsions:
REMARK  status: ('A' for Active; 'I' for Inactive)
REMARK    1  A    between atoms: S_1  and  N_4 
REMARK    2  A    between atoms: S_1  and  C_21 
REMARK    3  A    between atoms: N_7  and  C_10 
REMARK    4  A    between atoms: N_11  and  C_15 
ROOT
ATOM      1  N   UNK d   1       3.009  10.668 -14.125  0.00  0.00    -0.304 N 
ATOM      2  C   UNK d   1       1.751  10.245 -14.608  0.00  0.00     0.155 C 
ATOM      3  C   UNK d   1       1.449   8.786 -14.527  0.00  0.00     0.162 C 
ATOM      4  N   UNK d   1       2.501   7.988 -13.950  0.00  0.00    -0.209 N 
ATOM      5  C   UNK d   1       3.862   8.347 -14.184  0.00  0.00     0.162 C 
ATOM      6  C   UNK d   1       4.119   9.809 -14.299  0.00  0.00     0.155 C 
ENDROOT
BRANCH   4   7
ATOM      7  C   UNK d   1       2.111   6.851 -13.166  0.00  0.00     0.747 A 
ATOM      8  N   UNK d   1       0.852   6.518 -12.834  0.00  0.00    -0.041 N 
ATOM      9  N   UNK d   1       0.963   5.409 -12.094  0.00  0.00    -0.025 NA
ATOM     10  N   UNK d   1       2.230   5.078 -11.977  0.00  0.00    -0.007 NA
ATOM     11  N   UNK d   1       2.974   5.947 -12.628  0.00  0.00     0.065 NA
BRANCH   8  12
ATOM     12  C   UNK d   1      -0.338   7.199 -13.206  0.00  0.00     0.078 A 
ATOM     13  C   UNK d   1      -0.696   8.389 -12.615  0.00  0.00     0.032 A 
ATOM     14  C   UNK d   1      -1.870   9.034 -13.003  0.00  0.00     0.002 A 
ATOM     15  C   UNK d   1      -2.690   8.504 -13.974  0.00  0.00     0.000 A 
ATOM     16  C   UNK d   1      -2.326   7.292 -14.576  0.00  0.00     0.002 A 
ATOM     17  C   UNK d   1      -1.147   6.661 -14.175  0.00  0.00     0.032 A 
ENDBRANCH   8  12
ENDBRANCH   4   7
BRANCH   1  18
ATOM     18  S   UNK d   1       3.019  11.588 -12.695  0.00  0.00     0.260 S 
ATOM     19  O   UNK d   1       4.335  12.141 -12.317  0.00  0.00    -0.200 OA
ATOM     20  O   UNK d   1       2.593  10.673 -11.553  0.00  0.00    -0.200 OA
BRANCH  18  21
ATOM     21  C   UNK d   1       1.829  12.856 -12.799  0.00  0.00     0.079 A 
ATOM     22  C   UNK d   1       0.521  12.626 -13.144  0.00  0.00     0.026 A 
ATOM     23  C   UNK d   1      -0.423  13.651 -13.220  0.00  0.00     0.020 A 
ATOM     24  C   UNK d   1      -0.005  14.954 -12.933  0.00  0.00     0.011 A 
ATOM     25  C   UNK d   1       1.306  15.196 -12.587  0.00  0.00     0.020 A 
ATOM     26 Br   UNK d   1      -1.246  16.408 -13.016  0.00  0.00    -0.051 Br
ATOM     27  C   UNK d   1       2.200  14.164 -12.523  0.00  0.00     0.026 A 
ENDBRANCH  18  21
ENDBRANCH   1  18
TORSDOF 4
ENDMDL
