MODEL 1
REMARK VINA RESULT:    -9.530      0.000      0.000
REMARK INTER + INTRA:         -11.724
REMARK INTER:                 -11.759
REMARK INTRA:                   0.035
REMARK UNBOUND:                 0.035
REMARK  4 active torsions:
REMARK  status: ('A' for Active; 'I' for Inactive)
REMARK    1  A    between atoms: S_1  and  N_4 
REMARK    2  A    between atoms: S_1  and  C_23 
REMARK    3  A    between atoms: N_7  and  C_10 
REMARK    4  A    between atoms: C_12  and  N_17 
ROOT
ATOM      1  N   UNK d   1      -3.444   8.709 -14.579  0.00  0.00    -0.203 NA
ATOM      2  C   UNK d   1      -2.571   7.592 -14.436  0.00  0.00     0.128 C 
ATOM      3  C   UNK d   1      -1.498   7.797 -13.389  0.00  0.00     0.157 C 
ATOM      4  N   UNK d   1      -1.262   9.207 -13.280  0.00  0.00    -0.212 N 
ATOM      5  C   UNK d   1      -2.335  10.050 -12.841  0.00  0.00     0.157 C 
ATOM      6  C   UNK d   1      -3.626   9.479 -13.372  0.00  0.00     0.128 C 
ENDROOT
BRANCH   4   7
ATOM      7  C   UNK d   1      -0.002   9.739 -13.599  0.00  0.00     0.726 A 
ATOM      8  N   UNK d   1       0.400  10.952 -13.185  0.00  0.00    -0.045 NA
ATOM      9  C   UNK d   1       1.569  11.506 -13.451  0.00  0.00     0.146 A 
ATOM     10  C   UNK d   1       2.462  10.780 -14.221  0.00  0.00     0.078 A 
ATOM     11  C   UNK d   1       2.096   9.531 -14.670  0.00  0.00     0.053 A 
ATOM     12  N   UNK d   1       0.884   9.042 -14.351  0.00  0.00    -0.068 NA
ATOM     13  C   UNK d   1       3.027   8.719 -15.500  0.00  0.00     0.071 C 
BRANCH   9  14
ATOM     14  N   UNK d   1       1.872  12.797 -12.954  0.00  0.00    -0.361 N 
ATOM     15  C   UNK d   1       0.865  13.768 -12.579  0.00  0.00     0.150 C 
ATOM     16  C   UNK d   1       1.538  14.721 -11.592  0.00  0.00     0.187 C 
ATOM     17  O   UNK d   1       2.309  13.937 -10.731  0.00  0.00    -0.388 OA
ATOM     18  C   UNK d   1       3.462  13.463 -11.312  0.00  0.00     0.187 C 
ATOM     19  C   UNK d   1       3.257  13.181 -12.805  0.00  0.00     0.150 C 
ENDBRANCH   9  14
ENDBRANCH   4   7
BRANCH   1  20
ATOM     20  S   UNK d   1      -5.001   8.118 -15.044  0.00  0.00     0.243 S 
ATOM     21  O   UNK d   1      -4.924   7.704 -16.504  0.00  0.00    -0.206 OA
ATOM     22  O   UNK d   1      -5.324   6.895 -14.233  0.00  0.00    -0.206 OA
BRANCH  20  23
ATOM     23  C   UNK d   1      -6.226   9.343 -14.878  0.00  0.00     0.074 A 
ATOM     24  C   UNK d   1      -7.207   9.440 -15.855  0.00  0.00     0.026 A 
ATOM     25  C   UNK d   1      -8.207  10.385 -15.789  0.00  0.00     0.020 A 
ATOM     26  C   UNK d   1      -8.245  11.264 -14.734  0.00  0.00     0.011 A 
ATOM     27  C   UNK d   1      -7.285  11.200 -13.742  0.00  0.00     0.020 A 
ATOM     28 Br   UNK d   1      -9.635  12.565 -14.660  0.00  0.00    -0.051 Br
ATOM     29  C   UNK d   1      -6.288  10.233 -13.837  0.00  0.00     0.026 A 
ENDBRANCH  20  23
ENDBRANCH   1  20
TORSDOF 4
ENDMDL
