/Users/jonathanwahrer/Desktop/Msc/3_Semester/Drug_Design_Praktikum/waehrer_HTS_screening/HTS_experiment/out/docking_results/vina_output/6q9y/1089_docked.pdbqt
 OpenBabel03222219513D

 25 28  0  0  0  0  0  0  0  0999 V2000
    2.2640    7.9340  -14.0640 N   0  0  0  0  0  0  0  0  0  0  0  0
    3.5520    8.2410  -13.5750 C   0  0  0  0  0  2  0  0  0  0  0  0
    3.8280    9.6990  -13.3060 C   0  0  0  0  0  2  0  0  0  0  0  0
    2.7430   10.5510  -13.6790 N   0  0  0  0  0  0  0  0  0  0  0  0
    1.8050   10.2300  -14.7410 C   0  0  0  0  0  2  0  0  0  0  0  0
    1.8630    8.7790  -15.1200 C   0  0  0  0  0  2  0  0  0  0  0  0
    2.5380   11.7800  -12.9960 C   0  0  0  0  0  0  0  0  0  0  0  0
    3.5850   12.3730  -12.3500 N   0  0  0  0  0  0  0  0  0  0  0  0
    3.4170   13.5310  -11.7100 C   0  0  0  0  0  3  0  0  0  0  0  0
    2.2410   14.1550  -11.6710 N   0  0  0  0  0  0  0  0  0  0  0  0
    1.2080   13.5930  -12.2940 C   0  0  0  0  0  0  0  0  0  0  0  0
   -0.0650   13.9790  -12.4190 N   0  0  0  0  0  0  0  0  0  0  0  0
    1.3090   12.3830  -12.9830 C   0  0  0  0  0  0  0  0  0  0  0  0
   -0.7290   13.0440  -13.1560 C   0  0  0  0  0  3  0  0  0  0  0  0
    0.1120   12.0690  -13.5010 N   0  0  0  0  0  0  0  0  0  0  0  0
   -0.1390   11.2340  -14.0620 H   0  0  0  0  0  0  0  0  0  0  0  0
    1.1060    7.3480  -13.0110 S   0  0  0  0  0  0  0  0  0  0  0  0
    0.9080    8.3640  -11.8920 O   0  0  0  0  0  0  0  0  0  0  0  0
    1.4900    6.0720  -12.3540 O   0  0  0  0  0  0  0  0  0  0  0  0
   -0.4970    7.1260  -13.7190 C   0  0  0  0  0  0  0  0  0  0  0  0
   -1.7780    8.2400  -13.8650 S   0  0  0  0  0  0  0  0  0  0  0  0
   -2.9240    7.2500  -14.6420 C   0  0  0  0  0  0  0  0  0  0  0  0
   -2.2620    6.0530  -14.7680 C   0  0  0  0  0  3  0  0  0  0  0  0
   -4.6980    7.6740  -15.2080 Br  0  0  0  0  0  0  0  0  0  0  0  0
   -1.0130    5.9970  -14.2910 C   0  0  0  0  0  3  0  0  0  0  0  0
  1  2  1  0  0  0  0
  1 17  1  0  0  0  0
  2  3  1  0  0  0  0
  4  3  1  0  0  0  0
  4  7  1  0  0  0  0
  5  4  1  0  0  0  0
  6  5  1  0  0  0  0
  6  1  1  0  0  0  0
  7 13  2  0  0  0  0
  7  8  1  0  0  0  0
  8  9  2  0  0  0  0
  9 10  1  0  0  0  0
 11 10  2  0  0  0  0
 12 11  1  0  0  0  0
 13 11  1  0  0  0  0
 14 12  2  0  0  0  0
 15 14  1  0  0  0  0
 15 13  1  0  0  0  0
 16 15  1  0  0  0  0
 17 19  2  0  0  0  0
 17 18  2  0  0  0  0
 20 17  1  0  0  0  0
 21 20  1  0  0  0  0
 22 21  1  0  0  0  0
 23 22  2  0  0  0  0
 23 25  1  0  0  0  0
 24 22  1  0  0  0  0
 25 20  2  0  0  0  0
M  END
>  <Pose>
1

>  <Score>
-8.118

$$$$
