MODEL 1
REMARK VINA RESULT:    -8.118      0.000      0.000
REMARK INTER + INTRA:          -9.689
REMARK INTER:                  -9.541
REMARK INTRA:                  -0.148
REMARK UNBOUND:                -0.148
REMARK  3 active torsions:
REMARK  status: ('A' for Active; 'I' for Inactive)
REMARK    1  A    between atoms: S_1  and  N_4 
REMARK    2  A    between atoms: S_1  and  C_19 
REMARK    3  A    between atoms: N_7  and  C_10 
ROOT
ATOM      1  N   UNK d   1       2.264   7.934 -14.064  0.00  0.00    -0.303 N 
ATOM      2  C   UNK d   1       3.552   8.241 -13.575  0.00  0.00     0.155 C 
ATOM      3  C   UNK d   1       3.828   9.699 -13.306  0.00  0.00     0.145 C 
ATOM      4  N   UNK d   1       2.743  10.551 -13.679  0.00  0.00    -0.361 N 
ATOM      5  C   UNK d   1       1.805  10.230 -14.741  0.00  0.00     0.145 C 
ATOM      6  C   UNK d   1       1.863   8.779 -15.120  0.00  0.00     0.155 C 
ENDROOT
BRANCH   4   7
ATOM      7  C   UNK d   1       2.538  11.780 -12.996  0.00  0.00     0.158 A 
ATOM      8  N   UNK d   1       3.585  12.373 -12.350  0.00  0.00    -0.222 NA
ATOM      9  C   UNK d   1       3.417  13.531 -11.710  0.00  0.00     0.237 A 
ATOM     10  N   UNK d   1       2.241  14.155 -11.671  0.00  0.00    -0.220 NA
ATOM     11  C   UNK d   1       1.208  13.593 -12.294  0.00  0.00     0.182 A 
ATOM     12  N   UNK d   1      -0.065  13.979 -12.419  0.00  0.00    -0.222 NA
ATOM     13  C   UNK d   1       1.309  12.383 -12.983  0.00  0.00     0.128 A 
ATOM     14  C   UNK d   1      -0.729  13.044 -13.156  0.00  0.00     0.210 A 
ATOM     15  N   UNK d   1       0.112  12.069 -13.501  0.00  0.00    -0.345 N 
ATOM     16  H   UNK d   1      -0.139  11.234 -14.062  0.00  0.00     0.167 HD
ENDBRANCH   4   7
BRANCH   1  17
ATOM     17  S   UNK d   1       1.106   7.348 -13.011  0.00  0.00     0.267 S 
ATOM     18  O   UNK d   1       0.908   8.364 -11.892  0.00  0.00    -0.200 OA
ATOM     19  O   UNK d   1       1.490   6.072 -12.354  0.00  0.00    -0.200 OA
BRANCH  17  20
ATOM     20  C   UNK d   1      -0.497   7.126 -13.719  0.00  0.00     0.121 A 
ATOM     21  S   UNK d   1      -1.778   8.240 -13.865  0.00  0.00    -0.069 SA
ATOM     22  C   UNK d   1      -2.924   7.250 -14.642  0.00  0.00     0.052 A 
ATOM     23  C   UNK d   1      -2.262   6.053 -14.768  0.00  0.00     0.028 A 
ATOM     24 Br   UNK d   1      -4.698   7.674 -15.208  0.00  0.00    -0.043 Br
ATOM     25  C   UNK d   1      -1.013   5.997 -14.291  0.00  0.00     0.035 A 
ENDBRANCH  17  20
ENDBRANCH   1  17
TORSDOF 3
ENDMDL
