MODEL 1
REMARK VINA RESULT:    -7.746      0.000      0.000
REMARK INTER + INTRA:          -9.855
REMARK INTER:                  -9.105
REMARK INTRA:                  -0.750
REMARK UNBOUND:                -0.750
REMARK  3 active torsions:
REMARK  status: ('A' for Active; 'I' for Inactive)
REMARK    1  A    between atoms: S_1  and  N_4 
REMARK    2  A    between atoms: S_1  and  C_20 
REMARK    3  A    between atoms: N_7  and  C_10 
ROOT
ATOM      1  N   UNK d   1       2.108  11.200 -12.932  0.00  0.00    -0.203 NA
ATOM      2  C   UNK d   1       2.018  10.994 -14.339  0.00  0.00     0.127 C 
ATOM      3  C   UNK d   1       1.963   9.529 -14.719  0.00  0.00     0.140 C 
ATOM      4  N   UNK d   1       1.230   8.846 -13.683  0.00  0.00    -0.363 N 
ATOM      5  C   UNK d   1       1.863   8.802 -12.390  0.00  0.00     0.140 C 
ATOM      6  C   UNK d   1       2.552  10.097 -12.149  0.00  0.00     0.127 C 
ENDROOT
BRANCH   4   7
ATOM      7  C   UNK d   1      -0.033   8.247 -13.890  0.00  0.00     0.148 A 
ATOM      8  C   UNK d   1      -0.168   6.949 -14.166  0.00  0.00     0.080 A 
ATOM      9  C   UNK d   1      -1.446   6.297 -14.384  0.00  0.00     0.043 A 
ATOM     10  C   UNK d   1      -1.519   5.004 -14.656  0.00  0.00     0.043 C 
ATOM     11  N   UNK d   1      -2.624   7.071 -14.302  0.00  0.00    -0.189 N 
ATOM     12  C   UNK d   1      -2.441   8.463 -14.002  0.00  0.00     0.730 A 
ATOM     13  H   UNK d   1      -3.576   6.705 -14.439  0.00  0.00     0.184 HD
ATOM     14  N   UNK d   1      -1.235   9.019 -13.809  0.00  0.00    -0.044 N 
ATOM     15  N   UNK d   1      -3.337   9.470 -13.854  0.00  0.00    -0.054 NA
ATOM     16  N   UNK d   1      -1.391  10.320 -13.550  0.00  0.00    -0.143 NA
ATOM     17  C   UNK d   1      -2.701  10.621 -13.574  0.00  0.00     0.275 A 
ENDBRANCH   4   7
BRANCH   1  18
ATOM     18  S   UNK d   1       2.959  12.631 -12.598  0.00  0.00     0.250 S 
ATOM     19  O   UNK d   1       4.103  12.867 -13.550  0.00  0.00    -0.205 OA
ATOM     20  O   UNK d   1       3.585  12.487 -11.218  0.00  0.00    -0.205 OA
BRANCH  18  21
ATOM     21  C   UNK d   1       1.906  14.042 -12.514  0.00  0.00     0.116 A 
ATOM     22  S   UNK d   1       0.327  14.166 -13.125  0.00  0.00    -0.070 SA
ATOM     23  C   UNK d   1      -0.020  15.771 -12.677  0.00  0.00     0.052 A 
ATOM     24  C   UNK d   1       1.128  16.177 -12.050  0.00  0.00     0.028 A 
ATOM     25 Br   UNK d   1      -1.624  16.807 -12.962  0.00  0.00    -0.043 Br
ATOM     26  C   UNK d   1       2.132  15.272 -11.966  0.00  0.00     0.034 A 
ENDBRANCH  18  21
ENDBRANCH   1  18
TORSDOF 3
ENDMDL
