MODEL 1
REMARK VINA RESULT:    -8.677      0.000      0.000
REMARK INTER + INTRA:         -10.672
REMARK INTER:                 -10.199
REMARK INTRA:                  -0.473
REMARK UNBOUND:                -0.473
REMARK  3 active torsions:
REMARK  status: ('A' for Active; 'I' for Inactive)
REMARK    1  A    between atoms: S_1  and  N_4 
REMARK    2  A    between atoms: S_1  and  C_20 
REMARK    3  A    between atoms: N_7  and  C_10 
ROOT
ATOM      1  N   UNK d   1       2.082   7.985 -13.025  0.00  0.00    -0.203 NA
ATOM      2  C   UNK d   1       1.899   8.499 -14.329  0.00  0.00     0.127 C 
ATOM      3  C   UNK d   1       1.312   9.863 -14.422  0.00  0.00     0.138 C 
ATOM      4  N   UNK d   1       1.884  10.765 -13.409  0.00  0.00    -0.377 N 
ATOM      5  C   UNK d   1       3.022  10.225 -12.696  0.00  0.00     0.138 C 
ATOM      6  C   UNK d   1       2.554   8.933 -12.053  0.00  0.00     0.127 C 
ENDROOT
BRANCH   1   7
ATOM      7  S   UNK d   1       0.832   6.988 -12.442  0.00  0.00     0.243 S 
ATOM      8  O   UNK d   1       0.553   7.403 -11.003  0.00  0.00    -0.206 OA
ATOM      9  O   UNK d   1       1.276   5.557 -12.382  0.00  0.00    -0.206 OA
BRANCH   7  10
ATOM     10  C   UNK d   1      -0.668   7.178 -13.309  0.00  0.00     0.074 A 
ATOM     11  C   UNK d   1      -1.441   8.325 -13.189  0.00  0.00     0.026 A 
ATOM     12  C   UNK d   1      -2.626   8.474 -13.875  0.00  0.00     0.020 A 
ATOM     13  C   UNK d   1      -3.049   7.447 -14.703  0.00  0.00     0.011 A 
ATOM     14  C   UNK d   1      -2.315   6.288 -14.857  0.00  0.00     0.020 A 
ATOM     15 Br   UNK d   1      -4.700   7.671 -15.650  0.00  0.00    -0.051 Br
ATOM     16  C   UNK d   1      -1.137   6.179 -14.154  0.00  0.00     0.026 A 
ENDBRANCH   7  10
ENDBRANCH   1   7
BRANCH   4  17
ATOM     17  C   UNK d   1       1.333  12.047 -13.185  0.00  0.00     0.053 A 
ATOM     18  C   UNK d   1       2.058  12.963 -12.433  0.00  0.00     0.085 A 
ATOM     19  C   UNK d   1       1.505  14.224 -12.219  0.00  0.00     0.176 A 
ATOM     20  N   UNK d   1       0.320  14.558 -12.713  0.00  0.00    -0.198 N 
ATOM     21  N   UNK d   1       2.004  15.268 -11.534  0.00  0.00    -0.128 NA
ATOM     22  C   UNK d   1       0.067  15.822 -12.339  0.00  0.00     0.148 A 
ATOM     23  N   UNK d   1      -0.371  13.708 -13.421  0.00  0.00    -0.174 NA
ATOM     24  N   UNK d   1       1.118  16.246 -11.611  0.00  0.00    -0.133 NA
ATOM     25  C   UNK d   1      -1.157  16.623 -12.667  0.00  0.00     0.095 C 
ATOM     26  C   UNK d   1       0.123  12.465 -13.659  0.00  0.00     0.168 A 
ENDBRANCH   4  17
TORSDOF 3
ENDMDL
