MODEL 1
REMARK VINA RESULT:    -8.577      0.000      0.000
REMARK INTER + INTRA:         -11.164
REMARK INTER:                 -11.084
REMARK INTRA:                  -0.080
REMARK UNBOUND:                -0.080
REMARK  5 active torsions:
REMARK  status: ('A' for Active; 'I' for Inactive)
REMARK    1  A    between atoms: S_1  and  N_4 
REMARK    2  A    between atoms: S_1  and  C_26 
REMARK    3  A    between atoms: C_10  and  C_11 
REMARK    4  A    between atoms: C_11  and  C_12 
REMARK       I    between atoms: C_12  and  N_14 
REMARK    5  A    between atoms: N_17  and  C_20 
ROOT
ATOM      1  N   UNK d   1       1.528   9.825 -14.371  0.00  0.00    -0.191 NA
ATOM      2  C   UNK d   1       2.224   9.197 -15.443  0.00  0.00     0.128 C 
ATOM      3  C   UNK d   1       3.679   9.588 -15.569  0.00  0.00     0.138 C 
ATOM      4  N   UNK d   1       4.336   9.571 -14.260  0.00  0.00    -0.358 N 
ATOM      5  C   UNK d   1       3.569  10.241 -13.233  0.00  0.00     0.237 C 
ATOM      6  O   UNK d   1       3.939  10.292 -12.057  0.00  0.00    -0.272 OA
ATOM      7  C   UNK d   1       2.305  10.845 -13.769  0.00  0.00     0.175 C 
ATOM      8  H   UNK d   1       5.238   9.142 -14.056  0.00  0.00     0.162 HD
ENDROOT
BRANCH   7   9
ATOM      9  C   UNK d   1       1.638  11.738 -12.800  0.00  0.00     0.133 C 
BRANCH   9  10
ATOM     10  C   UNK d   1       0.562  12.497 -13.482  0.00  0.00     0.221 C 
ATOM     11  O   UNK d   1       0.056  11.962 -14.504  0.00  0.00    -0.273 OA
ATOM     12  N   UNK d   1       0.118  13.769 -13.009  0.00  0.00    -0.349 N 
ATOM     13  C   UNK d   1       0.704  14.369 -11.842  0.00  0.00     0.145 C 
ATOM     14  C   UNK d   1      -0.932  14.449 -13.721  0.00  0.00     0.145 C 
ATOM     15  C   UNK d   1       0.698  15.866 -11.853  0.00  0.00     0.143 C 
ATOM     16  N   UNK d   1      -0.429  16.446 -12.562  0.00  0.00    -0.378 N 
ATOM     17  C   UNK d   1      -0.630  15.922 -13.904  0.00  0.00     0.143 C 
BRANCH  16  18
ATOM     18  C   UNK d   1      -1.280  17.441 -12.062  0.00  0.00     0.030 A 
ATOM     19  C   UNK d   1      -2.407  17.789 -12.774  0.00  0.00     0.029 A 
ATOM     20  C   UNK d   1      -3.239  18.783 -12.284  0.00  0.00     0.002 A 
ATOM     21  C   UNK d   1      -2.990  19.447 -11.108  0.00  0.00     0.000 A 
ATOM     22  C   UNK d   1      -1.864  19.096 -10.400  0.00  0.00     0.002 A 
ATOM     23  C   UNK d   1      -1.026  18.102 -10.885  0.00  0.00     0.029 A 
ENDBRANCH  16  18
ENDBRANCH   9  10
ENDBRANCH   7   9
BRANCH   1  24
ATOM     24  S   UNK d   1       0.895   8.649 -13.319  0.00  0.00     0.244 S 
ATOM     25  O   UNK d   1       0.963   9.019 -11.872  0.00  0.00    -0.206 OA
ATOM     26  O   UNK d   1       1.660   7.338 -13.456  0.00  0.00    -0.206 OA
BRANCH  24  27
ATOM     27  C   UNK d   1      -0.772   8.263 -13.707  0.00  0.00     0.074 A 
ATOM     28  C   UNK d   1      -1.164   7.004 -14.143  0.00  0.00     0.026 A 
ATOM     29  C   UNK d   1      -2.455   6.682 -14.454  0.00  0.00     0.020 A 
ATOM     30  C   UNK d   1      -3.445   7.623 -14.341  0.00  0.00     0.011 A 
ATOM     31  C   UNK d   1      -3.088   8.904 -13.903  0.00  0.00     0.020 A 
ATOM     32 Br   UNK d   1      -5.260   7.235 -14.757  0.00  0.00    -0.051 Br
ATOM     33  C   UNK d   1      -1.779   9.194 -13.600  0.00  0.00     0.026 A 
ENDBRANCH  24  27
ENDBRANCH   1  24
TORSDOF 5
ENDMDL
