MODEL 1
REMARK VINA RESULT:   -10.580      0.000      0.000
REMARK INTER + INTRA:         -15.300
REMARK INTER:                 -14.910
REMARK INTRA:                  -0.390
REMARK UNBOUND:                -0.390
REMARK  7 active torsions:
REMARK  status: ('A' for Active; 'I' for Inactive)
REMARK    1  A    between atoms: S_1  and  N_4 
REMARK    2  A    between atoms: S_1  and  C_10 
REMARK    3  A    between atoms: C_13  and  C_16 
REMARK    4  A    between atoms: C_16  and  O_17 
REMARK    5  A    between atoms: O_17  and  C_18 
REMARK    6  A    between atoms: C_18  and  C_20 
REMARK    7  A    between atoms: C_20  and  N_21 
ROOT
ATOM      1  C   UNK d   1       1.307  14.749 -12.251  0.00  0.00     0.217 C 
ENDROOT
BRANCH   1   2
ATOM      2  C   UNK d   1       1.711  13.378 -12.647  0.00  0.00    -0.034 A 
ATOM      3  C   UNK d   1       2.975  12.880 -12.544  0.00  0.00     0.011 A 
ATOM      4  C   UNK d   1       3.276  11.580 -12.941  0.00  0.00     0.025 A 
ATOM      5  C   UNK d   1       2.320  10.750 -13.451  0.00  0.00     0.074 A 
ATOM      6  C   UNK d   1       1.036  11.251 -13.556  0.00  0.00     0.025 A 
ATOM      7  C   UNK d   1       0.735  12.542 -13.162  0.00  0.00     0.011 A 
BRANCH   5   8
ATOM      8  S   UNK d   1       2.664   9.105 -13.963  0.00  0.00     0.243 S 
ATOM      9  O   UNK d   1       1.776   8.684 -15.084  0.00  0.00    -0.206 OA
ATOM     10  O   UNK d   1       4.083   9.114 -14.494  0.00  0.00    -0.206 OA
BRANCH   8  11
ATOM     11  N   UNK d   1       2.611   7.996 -12.665  0.00  0.00    -0.202 NA
ATOM     12  C   UNK d   1       2.734   6.624 -13.084  0.00  0.00     0.134 C 
ATOM     13  C   UNK d   1       2.195   5.767 -11.935  0.00  0.00     0.183 C 
ATOM     14  O   UNK d   1       0.820   5.835 -11.885  0.00  0.00    -0.389 OA
ATOM     15  C   UNK d   1       0.402   7.046 -12.466  0.00  0.00     0.183 C 
ATOM     16  C   UNK d   1       1.349   8.123 -11.959  0.00  0.00     0.134 C 
ENDBRANCH   8  11
ENDBRANCH   5   8
ENDBRANCH   1   2
BRANCH   1  17
ATOM     17  O   UNK d   1       0.607  15.416 -13.277  0.00  0.00    -0.316 OA
BRANCH  17  18
ATOM     18  C   UNK d   1      -0.748  15.640 -13.291  0.00  0.00     0.277 C 
ATOM     19  O   UNK d   1      -1.511  14.793 -12.785  0.00  0.00    -0.263 OA
BRANCH  18  20
ATOM     20  C   UNK d   1      -1.304  16.851 -13.888  0.00  0.00     0.246 C 
BRANCH  20  21
ATOM     21  N   UNK d   1      -1.946  17.718 -12.944  0.00  0.00    -0.271 N 
ATOM     22  C   UNK d   1      -3.266  18.243 -13.136  0.00  0.00     0.262 A 
ATOM     23  O   UNK d   1      -4.014  18.017 -14.129  0.00  0.00    -0.267 OA
ATOM     24  C   UNK d   1      -3.615  19.083 -11.996  0.00  0.00     0.049 A 
ATOM     25  C   UNK d   1      -2.562  19.092 -11.119  0.00  0.00     0.048 A 
ATOM     26  C   UNK d   1      -4.731  19.817 -11.667  0.00  0.00     0.037 A 
ATOM     27  C   UNK d   1      -2.631  19.818  -9.946  0.00  0.00     0.019 A 
ATOM     28  C   UNK d   1      -1.509  18.240 -11.701  0.00  0.00     0.262 A 
ATOM     29  C   UNK d   1      -3.760  20.550  -9.629  0.00  0.00     0.020 A 
ATOM     30  C   UNK d   1      -4.828  20.550 -10.502  0.00  0.00     0.011 A 
ATOM     31 Br   UNK d   1      -6.406  21.544 -10.109  0.00  0.00    -0.051 Br
ATOM     32  O   UNK d   1      -0.390  17.996 -11.198  0.00  0.00    -0.267 OA
ENDBRANCH  20  21
ENDBRANCH  18  20
ENDBRANCH  17  18
ENDBRANCH   1  17
TORSDOF 7
ENDMDL
