MODEL 1
REMARK VINA RESULT:    -9.766      0.000      0.000
REMARK INTER + INTRA:         -13.862
REMARK INTER:                 -13.192
REMARK INTRA:                  -0.670
REMARK UNBOUND:                -0.670
REMARK  6 active torsions:
REMARK  status: ('A' for Active; 'I' for Inactive)
REMARK    1  A    between atoms: S_1  and  N_4 
REMARK    2  A    between atoms: S_1  and  C_10 
REMARK    3  A    between atoms: N_13  and  C_15 
REMARK    4  A    between atoms: C_15  and  C_16 
REMARK    5  A    between atoms: C_19  and  C_21 
REMARK    6  A    between atoms: C_21  and  C_22 
ROOT
ATOM      1  C   UNK d   1       3.243  10.876 -13.664  0.00  0.00     0.188 A 
ATOM      2  N   UNK d   1       4.217  11.776 -13.878  0.00  0.00    -0.229 NA
ATOM      3  C   UNK d   1       3.930  12.906 -13.183  0.00  0.00     0.211 A 
ATOM      4  N   UNK d   1       2.774  12.737 -12.519  0.00  0.00    -0.341 N 
ATOM      5  C   UNK d   1       2.347  11.514 -12.800  0.00  0.00     0.138 A 
ENDROOT
BRANCH   4   6
ATOM      6  C   UNK d   1       2.154  13.732 -11.669  0.00  0.00     0.212 C 
BRANCH   6   7
ATOM      7  C   UNK d   1       0.936  14.302 -12.293  0.00  0.00     0.174 A 
ATOM      8  N   UNK d   1      -0.284  13.703 -12.315  0.00  0.00    -0.109 NA
ATOM      9  O   UNK d   1      -1.107  14.488 -12.941  0.00  0.00    -0.196 OA
ATOM     10  C   UNK d   1      -0.511  15.582 -13.343  0.00  0.00     0.177 A 
ATOM     11  N   UNK d   1       0.777  15.462 -12.933  0.00  0.00    -0.207 NA
BRANCH  10  12
ATOM     12  C   UNK d   1      -1.095  16.735 -14.094  0.00  0.00     0.127 C 
BRANCH  12  13
ATOM     13  C   UNK d   1      -1.846  17.556 -13.105  0.00  0.00    -0.050 A 
ATOM     14  C   UNK d   1      -3.050  18.122 -13.497  0.00  0.00     0.009 A 
ATOM     15  C   UNK d   1      -3.807  18.891 -12.654  0.00  0.00     0.019 A 
ATOM     16  C   UNK d   1      -3.349  19.101 -11.382  0.00  0.00     0.011 A 
ATOM     17  C   UNK d   1      -2.175  18.568 -10.949  0.00  0.00     0.019 A 
ATOM     18 Br   UNK d   1      -4.377  20.167 -10.179  0.00  0.00    -0.051 Br
ATOM     19  C   UNK d   1      -1.425  17.790 -11.827  0.00  0.00     0.009 A 
ENDBRANCH  12  13
ENDBRANCH  10  12
ENDBRANCH   6   7
ENDBRANCH   4   6
BRANCH   1  20
ATOM     20  S   UNK d   1       3.112   9.258 -14.314  0.00  0.00     0.280 S 
ATOM     21  O   UNK d   1       2.911   9.378 -15.819  0.00  0.00    -0.199 OA
ATOM     22  O   UNK d   1       4.437   8.540 -14.150  0.00  0.00    -0.199 OA
BRANCH  20  23
ATOM     23  N   UNK d   1       1.848   8.356 -13.683  0.00  0.00    -0.301 N 
ATOM     24  C   UNK d   1       2.111   7.495 -12.607  0.00  0.00     0.161 C 
ATOM     25  C   UNK d   1       1.054   7.615 -11.549  0.00  0.00     0.188 C 
ATOM     26  O   UNK d   1      -0.166   7.346 -12.144  0.00  0.00    -0.388 OA
ATOM     27  C   UNK d   1      -0.537   8.317 -13.065  0.00  0.00     0.188 C 
ATOM     28  C   UNK d   1       0.533   8.696 -14.015  0.00  0.00     0.161 C 
ENDBRANCH  20  23
ENDBRANCH   1  20
TORSDOF 6
ENDMDL
