MODEL 1
REMARK VINA RESULT:    -9.121      0.000      0.000
REMARK INTER + INTRA:         -12.084
REMARK INTER:                 -11.787
REMARK INTRA:                  -0.297
REMARK UNBOUND:                -0.297
REMARK  5 active torsions:
REMARK  status: ('A' for Active; 'I' for Inactive)
REMARK    1  A    between atoms: S_1  and  N_4 
REMARK    2  A    between atoms: S_1  and  C_10 
REMARK    3  A    between atoms: N_13  and  C_15 
REMARK    4  A    between atoms: C_15  and  C_16 
REMARK    5  A    between atoms: C_19  and  C_21 
ROOT
ATOM      1  C   UNK d   1       2.982  11.530 -13.249  0.00  0.00     0.188 A 
ATOM      2  N   UNK d   1       4.090  12.235 -13.537  0.00  0.00    -0.229 NA
ATOM      3  C   UNK d   1       3.979  13.454 -12.977  0.00  0.00     0.211 A 
ATOM      4  N   UNK d   1       2.812  13.564 -12.324  0.00  0.00    -0.341 N 
ATOM      5  C   UNK d   1       2.197  12.381 -12.490  0.00  0.00     0.138 A 
ENDROOT
BRANCH   4   6
ATOM      6  C   UNK d   1       2.330  14.719 -11.597  0.00  0.00     0.212 C 
BRANCH   6   7
ATOM      7  C   UNK d   1       1.058  15.247 -12.141  0.00  0.00     0.174 A 
ATOM      8  N   UNK d   1       0.375  14.699 -13.164  0.00  0.00    -0.109 NA
ATOM      9  O   UNK d   1      -0.688  15.412 -13.382  0.00  0.00    -0.191 OA
ATOM     10  C   UNK d   1      -0.754  16.417 -12.552  0.00  0.00     0.206 A 
ATOM     11  N   UNK d   1       0.336  16.317 -11.774  0.00  0.00    -0.203 NA
BRANCH  10  12
ATOM     12  C   UNK d   1      -1.820  17.419 -12.517  0.00  0.00     0.021 A 
ATOM     13  C   UNK d   1      -1.955  18.306 -11.469  0.00  0.00     0.035 A 
ATOM     14  C   UNK d   1      -2.975  19.254 -11.449  0.00  0.00     0.011 A 
ATOM     15  C   UNK d   1      -3.885  19.339 -12.480  0.00  0.00     0.019 A 
ATOM     16 Br   UNK d   1      -3.145  20.474  -9.986  0.00  0.00    -0.051 Br
ATOM     17  C   UNK d   1      -3.752  18.455 -13.529  0.00  0.00     0.002 A 
ATOM     18  C   UNK d   1      -2.728  17.504 -13.545  0.00  0.00     0.016 A 
ENDBRANCH  10  12
ENDBRANCH   6   7
ENDBRANCH   4   6
BRANCH   1  19
ATOM     19  S   UNK d   1       2.611   9.871 -13.735  0.00  0.00     0.280 S 
ATOM     20  O   UNK d   1       2.183   9.916 -15.178  0.00  0.00    -0.199 OA
ATOM     21  O   UNK d   1       3.827   9.007 -13.656  0.00  0.00    -0.199 OA
BRANCH  19  22
ATOM     22  N   UNK d   1       1.325   9.230 -12.808  0.00  0.00    -0.301 N 
ATOM     23  C   UNK d   1       1.641   8.042 -12.107  0.00  0.00     0.161 C 
ATOM     24  C   UNK d   1       0.555   7.024 -11.988  0.00  0.00     0.188 C 
ATOM     25  O   UNK d   1      -0.665   7.728 -11.862  0.00  0.00    -0.388 OA
ATOM     26  C   UNK d   1      -0.912   8.223 -13.146  0.00  0.00     0.188 C 
ATOM     27  C   UNK d   1       0.056   9.315 -13.433  0.00  0.00     0.161 C 
ENDBRANCH  19  22
ENDBRANCH   1  19
TORSDOF 5
ENDMDL
