/Users/jonathanwahrer/Desktop/Msc/3_Semester/Drug_Design_Praktikum/waehrer_HTS_screening/HTS_experiment/out/docking_results/vina_output/6q9y/1114_docked.pdbqt
 OpenBabel03222219533D

 27 30  0  0  0  0  0  0  0  0999 V2000
    2.9820   11.5300  -13.2490 C   0  0  0  0  0  0  0  0  0  0  0  0
    4.0900   12.2350  -13.5370 N   0  0  0  0  0  0  0  0  0  0  0  0
    3.9790   13.4540  -12.9770 C   0  0  0  0  0  3  0  0  0  0  0  0
    2.8120   13.5640  -12.3240 N   0  0  0  0  0  0  0  0  0  0  0  0
    2.1970   12.3810  -12.4900 C   0  0  0  0  0  3  0  0  0  0  0  0
    2.3300   14.7190  -11.5970 C   0  0  0  0  0  2  0  0  0  0  0  0
    1.0580   15.2470  -12.1410 C   0  0  0  0  0  0  0  0  0  0  0  0
    0.3750   14.6990  -13.1640 N   0  0  0  0  0  0  0  0  0  0  0  0
   -0.6880   15.4120  -13.3820 O   0  0  0  0  0  0  0  0  0  0  0  0
   -0.7540   16.4170  -12.5520 C   0  0  0  0  0  0  0  0  0  0  0  0
    0.3360   16.3170  -11.7740 N   0  0  0  0  0  0  0  0  0  0  0  0
   -1.8200   17.4190  -12.5170 C   0  0  0  0  0  0  0  0  0  0  0  0
   -1.9550   18.3060  -11.4690 C   0  0  0  0  0  3  0  0  0  0  0  0
   -2.9750   19.2540  -11.4490 C   0  0  0  0  0  0  0  0  0  0  0  0
   -3.8850   19.3390  -12.4800 C   0  0  0  0  0  3  0  0  0  0  0  0
   -3.1450   20.4740   -9.9860 Br  0  0  0  0  0  0  0  0  0  0  0  0
   -3.7520   18.4550  -13.5290 C   0  0  0  0  0  3  0  0  0  0  0  0
   -2.7280   17.5040  -13.5450 C   0  0  0  0  0  3  0  0  0  0  0  0
    2.6110    9.8710  -13.7350 S   0  0  0  0  0  0  0  0  0  0  0  0
    2.1830    9.9160  -15.1780 O   0  0  0  0  0  0  0  0  0  0  0  0
    3.8270    9.0070  -13.6560 O   0  0  0  0  0  0  0  0  0  0  0  0
    1.3250    9.2300  -12.8080 N   0  0  0  0  0  0  0  0  0  0  0  0
    1.6410    8.0420  -12.1070 C   0  0  0  0  0  2  0  0  0  0  0  0
    0.5550    7.0240  -11.9880 C   0  0  0  0  0  2  0  0  0  0  0  0
   -0.6650    7.7280  -11.8620 O   0  0  0  0  0  0  0  0  0  0  0  0
   -0.9120    8.2230  -13.1460 C   0  0  0  0  0  2  0  0  0  0  0  0
    0.0560    9.3150  -13.4330 C   0  0  0  0  0  2  0  0  0  0  0  0
  1  5  2  0  0  0  0
  2  1  1  0  0  0  0
  2  3  2  0  0  0  0
  3  4  1  0  0  0  0
  4  6  1  0  0  0  0
  5  4  1  0  0  0  0
  7 11  1  0  0  0  0
  7  6  1  0  0  0  0
  8  7  2  0  0  0  0
  9  8  1  0  0  0  0
  9 10  1  0  0  0  0
 10 12  1  0  0  0  0
 10 11  2  0  0  0  0
 12 13  1  0  0  0  0
 13 14  2  0  0  0  0
 14 16  1  0  0  0  0
 15 14  1  0  0  0  0
 17 15  2  0  0  0  0
 18 17  1  0  0  0  0
 18 12  2  0  0  0  0
 19 21  2  0  0  0  0
 19  1  1  0  0  0  0
 19 22  1  0  0  0  0
 20 19  2  0  0  0  0
 22 23  1  0  0  0  0
 23 24  1  0  0  0  0
 24 25  1  0  0  0  0
 26 25  1  0  0  0  0
 27 26  1  0  0  0  0
 27 22  1  0  0  0  0
M  END
>  <Pose>
1

>  <Score>
-9.121

$$$$
