MODEL 1
REMARK VINA RESULT:    -7.531      0.000      0.000
REMARK INTER + INTRA:         -11.905
REMARK INTER:                 -10.834
REMARK INTRA:                  -1.072
REMARK UNBOUND:                -1.072
REMARK  10 active torsions:
REMARK  status: ('A' for Active; 'I' for Inactive)
REMARK    1  A    between atoms: S_1  and  C_2 
REMARK    2  A    between atoms: S_1  and  C_10 
REMARK    3  A    between atoms: C_2  and  C_3 
REMARK    4  A    between atoms: N_11  and  C_21 
REMARK    5  A    between atoms: C_14  and  N_20 
REMARK    6  A    between atoms: C_16  and  O_19 
REMARK    7  A    between atoms: C_23  and  C_28 
REMARK    8  A    between atoms: C_24  and  O_27 
REMARK    9  A    between atoms: C_25  and  O_26 
REMARK   10  A    between atoms: C_28  and  O_29 
ROOT
ATOM      1  C   UNK d   1       3.627   8.011 -13.842  0.00  0.00     0.173 A 
ATOM      2  N   UNK d   1       2.976   6.949 -13.367  0.00  0.00    -0.277 N 
ATOM      3  C   UNK d   1       3.898   5.962 -13.213  0.00  0.00     0.186 A 
ATOM      4  N   UNK d   1       3.912   4.667 -12.861  0.00  0.00    -0.042 NA
ATOM      5  C   UNK d   1       4.984   3.868 -12.854  0.00  0.00     0.724 A 
ATOM      6  N   UNK d   1       6.201   4.417 -13.234  0.00  0.00    -0.036 NA
ATOM      7  C   UNK d   1       6.284   5.673 -13.596  0.00  0.00     0.214 A 
ATOM      8  C   UNK d   1       5.164   6.479 -13.604  0.00  0.00     0.159 A 
ATOM      9  N   UNK d   1       4.930   7.730 -13.980  0.00  0.00    -0.216 NA
ENDROOT
BRANCH   2  10
ATOM     10  C   UNK d   1       1.605   6.778 -13.011  0.00  0.00     0.263 C 
ATOM     11  O   UNK d   1       0.731   6.680 -14.116  0.00  0.00    -0.353 OA
ATOM     12  C   UNK d   1      -0.503   6.709 -13.427  0.00  0.00     0.179 C 
ATOM     13  C   UNK d   1      -0.321   8.085 -12.735  0.00  0.00     0.182 C 
ATOM     14  C   UNK d   1       1.027   7.784 -12.067  0.00  0.00     0.198 C 
BRANCH  12  15
ATOM     15  C   UNK d   1      -1.664   6.690 -14.346  0.00  0.00     0.198 C 
BRANCH  15  16
ATOM     16  O   UNK d   1      -2.368   7.899 -14.280  0.00  0.00    -0.398 OA
ATOM     17  H   UNK d   1      -2.392   8.277 -15.212  0.00  0.00     0.209 HD
ENDBRANCH  15  16
ENDBRANCH  12  15
BRANCH  13  18
ATOM     18  O   UNK d   1      -1.316   8.356 -11.836  0.00  0.00    -0.390 OA
ATOM     19  H   UNK d   1      -2.148   8.597 -12.311  0.00  0.00     0.210 HD
ENDBRANCH  13  18
BRANCH  14  20
ATOM     20  O   UNK d   1       0.732   7.199 -10.809  0.00  0.00    -0.388 OA
ATOM     21  H   UNK d   1       1.345   6.433 -10.751  0.00  0.00     0.210 HD
ENDBRANCH  14  20
ENDBRANCH   2  10
BRANCH   1  22
ATOM     22  S   UNK d   1       2.885   9.574 -14.331  0.00  0.00    -0.087 SA
BRANCH  22  23
ATOM     23  C   UNK d   1       2.985  10.793 -12.948  0.00  0.00     0.122 C 
BRANCH  23  24
ATOM     24  C   UNK d   1       1.861  11.752 -13.052  0.00  0.00    -0.031 A 
ATOM     25  C   UNK d   1       1.784  12.933 -12.355  0.00  0.00     0.018 A 
ATOM     26  C   UNK d   1       0.681  13.714 -12.374  0.00  0.00     0.019 A 
ATOM     27 Br   UNK d   1       3.386  13.477 -11.461  0.00  0.00    -0.051 Br
ATOM     28  C   UNK d   1      -0.443  13.365 -13.114  0.00  0.00     0.001 A 
ATOM     29  C   UNK d   1      -0.400  12.164 -13.836  0.00  0.00     0.001 A 
ATOM     30  C   UNK d   1       0.733  11.374 -13.804  0.00  0.00     0.009 A 
ENDBRANCH  23  24
ENDBRANCH  22  23
ENDBRANCH   1  22
BRANCH   5  31
ATOM     31  N   UNK d   1       4.969   2.471 -12.520  0.00  0.00    -0.231 N 
ATOM     32  H   UNK d   1       4.216   1.957 -12.067  0.00  0.00     0.174 HD
ATOM     33  H   UNK d   1       5.867   1.914 -12.738  0.00  0.00     0.174 HD
ENDBRANCH   5  31
BRANCH   7  34
ATOM     34  O   UNK d   1       7.462   6.268 -13.971  0.00  0.00    -0.343 OA
ATOM     35  H   UNK d   1       7.908   7.015 -13.451  0.00  0.00     0.219 HD
ENDBRANCH   7  34
TORSDOF 10
ENDMDL
