MODEL 1
REMARK VINA RESULT:     0.761      0.000      0.000
REMARK INTER + INTRA:           2.384
REMARK INTER:                   0.895
REMARK INTRA:                   1.490
REMARK UNBOUND:                 1.490
REMARK  3 active torsions:
REMARK  status: ('A' for Active; 'I' for Inactive)
REMARK    1  A    between atoms: C_6  and  C_17 
REMARK    2  A    between atoms: N_9  and  C_10 
REMARK    3  A    between atoms: C_23  and  O_30 
ROOT
ATOM      1  C   UNK d   1       3.090  11.139 -13.231  0.00  0.00     0.246 C 
ATOM      2  N   UNK d   1       4.420  11.709 -13.068  0.00  0.00    -0.065 N 
ATOM      3  C   UNK d   1       4.602  12.166 -11.701  0.00  0.00     0.240 C 
ATOM      4  C   UNK d   1       3.327  12.244 -10.902  0.00  0.00     0.067 C 
ATOM      5  C   UNK d   1       2.260  12.836 -11.785  0.00  0.00    -0.043 A 
ATOM      6  C   UNK d   1       2.155  12.238 -13.064  0.00  0.00     0.017 A 
ATOM      7  C   UNK d   1       1.234  12.716 -13.953  0.00  0.00     0.113 A 
ATOM      8  C   UNK d   1       0.431  13.781 -13.548  0.00  0.00     0.139 A 
ATOM      9  C   UNK d   1       0.550  14.344 -12.300  0.00  0.00     0.108 A 
ATOM     10  C   UNK d   1       1.478  13.873 -11.390  0.00  0.00     0.047 A 
ATOM     11  O   UNK d   1      -0.370  15.366 -12.194  0.00  0.00    -0.323 OA
ATOM     12  C   UNK d   1      -0.882  15.647 -13.474  0.00  0.00     0.352 C 
ATOM     13  O   UNK d   1      -0.560  14.461 -14.201  0.00  0.00    -0.320 OA
ATOM     14  C   UNK d   1       4.721  12.785 -13.947  0.00  0.00     0.270 C 
ATOM     15  H   UNK d   1       5.098  10.935 -13.231  0.00  0.00     0.280 HD
ENDROOT
BRANCH   1  16
ATOM     16  C   UNK d   1       3.006  10.185 -14.329  0.00  0.00     0.208 C 
ATOM     17  C   UNK d   1       3.612   8.881 -13.766  0.00  0.00     0.261 C 
ATOM     18  N   UNK d   1       2.869   8.319 -12.697  0.00  0.00    -0.187 NA
ATOM     19  O   UNK d   1       4.649   8.394 -14.223  0.00  0.00    -0.270 OA
ATOM     20  C   UNK d   1       1.596   8.393 -12.552  0.00  0.00     0.190 C 
ATOM     21  S   UNK d   1       0.743   7.650 -11.169  0.00  0.00    -0.010 SA
ATOM     22  N   UNK d   1       0.901   9.130 -13.585  0.00  0.00    -0.259 N 
ATOM     23  C   UNK d   1       1.628   9.708 -14.658  0.00  0.00     0.246 C 
ATOM     24  O   UNK d   1       1.080   9.770 -15.760  0.00  0.00    -0.272 OA
BRANCH  22  25
ATOM     25  C   UNK d   1      -0.488   9.276 -13.539  0.00  0.00     0.044 A 
ATOM     26  C   UNK d   1      -1.268   8.169 -13.898  0.00  0.00     0.031 A 
ATOM     27  C   UNK d   1      -2.644   8.237 -13.877  0.00  0.00     0.021 A 
ATOM     28  C   UNK d   1      -3.262   9.423 -13.495  0.00  0.00     0.011 A 
ATOM     29  C   UNK d   1      -2.474  10.525 -13.138  0.00  0.00     0.021 A 
ATOM     30 Br   UNK d   1      -5.144   9.558 -13.454  0.00  0.00    -0.051 Br
ATOM     31  C   UNK d   1      -1.102  10.439 -13.164  0.00  0.00     0.031 A 
ENDBRANCH  22  25
ENDBRANCH   1  16
BRANCH   7  32
ATOM     32  O   UNK d   1       1.094  12.173 -15.223  0.00  0.00    -0.352 OA
ATOM     33  C   UNK d   1       0.008  12.601 -16.037  0.00  0.00     0.210 C 
ENDBRANCH   7  32
TORSDOF 3
ENDMDL
