/Users/jonathanwahrer/Desktop/Msc/3_Semester/Drug_Design_Praktikum/waehrer_HTS_screening/HTS_experiment/out/docking_results/vina_output/6q9y/1143_docked.pdbqt
 OpenBabel03222219543D

 33 37  0  0  1  0  0  0  0  0999 V2000
    3.0900   11.1390  -13.2310 C   0  0  1  0  0  3  0  0  0  0  0  0
    4.4200   11.7090  -13.0680 N   0  0  0  0  0  4  0  0  0  0  0  0
    4.6020   12.1660  -11.7010 C   0  0  0  0  0  2  0  0  0  0  0  0
    3.3270   12.2440  -10.9020 C   0  0  0  0  0  2  0  0  0  0  0  0
    2.2600   12.8360  -11.7850 C   0  0  0  0  0  0  0  0  0  0  0  0
    2.1550   12.2380  -13.0640 C   0  0  0  0  0  0  0  0  0  0  0  0
    1.2340   12.7160  -13.9530 C   0  0  0  0  0  0  0  0  0  0  0  0
    0.4310   13.7810  -13.5480 C   0  0  0  0  0  0  0  0  0  0  0  0
    0.5500   14.3440  -12.3000 C   0  0  0  0  0  0  0  0  0  0  0  0
    1.4780   13.8730  -11.3900 C   0  0  0  0  0  3  0  0  0  0  0  0
   -0.3700   15.3660  -12.1940 O   0  0  0  0  0  0  0  0  0  0  0  0
   -0.8820   15.6470  -13.4740 C   0  0  0  0  0  2  0  0  0  0  0  0
   -0.5600   14.4610  -14.2010 O   0  0  0  0  0  0  0  0  0  0  0  0
    4.7210   12.7850  -13.9470 C   0  0  0  0  0  1  0  0  0  0  0  0
    5.0980   10.9350  -13.2310 H   0  0  0  0  0  0  0  0  0  0  0  0
    3.0060   10.1850  -14.3290 C   0  0  1  0  0  3  0  0  0  0  0  0
    3.6120    8.8810  -13.7660 C   0  0  0  0  0  0  0  0  0  0  0  0
    2.8690    8.3190  -12.6970 N   0  0  0  0  0  2  0  0  0  0  0  0
    4.6490    8.3940  -14.2230 O   0  0  0  0  0  0  0  0  0  0  0  0
    1.5960    8.3930  -12.5520 C   0  0  0  0  0  0  0  0  0  0  0  0
    0.7430    7.6500  -11.1690 S   0  0  0  0  0  0  0  0  0  0  0  0
    0.9010    9.1300  -13.5850 N   0  0  0  0  0  0  0  0  0  0  0  0
    1.6280    9.7080  -14.6580 C   0  0  0  0  0  0  0  0  0  0  0  0
    1.0800    9.7700  -15.7600 O   0  0  0  0  0  0  0  0  0  0  0  0
   -0.4880    9.2760  -13.5390 C   0  0  0  0  0  0  0  0  0  0  0  0
   -1.2680    8.1690  -13.8980 C   0  0  0  0  0  3  0  0  0  0  0  0
   -2.6440    8.2370  -13.8770 C   0  0  0  0  0  3  0  0  0  0  0  0
   -3.2620    9.4230  -13.4950 C   0  0  0  0  0  0  0  0  0  0  0  0
   -2.4740   10.5250  -13.1380 C   0  0  0  0  0  3  0  0  0  0  0  0
   -5.1440    9.5580  -13.4540 Br  0  0  0  0  0  0  0  0  0  0  0  0
   -1.1020   10.4390  -13.1640 C   0  0  0  0  0  3  0  0  0  0  0  0
    1.0940   12.1730  -15.2230 O   0  0  0  0  0  0  0  0  0  0  0  0
    0.0080   12.6010  -16.0370 C   0  0  0  0  0  1  0  0  0  0  0  0
  1  2  1  0  0  0  0
  1  6  1  6  0  0  0
  2  3  1  0  0  0  0
  3  4  1  0  0  0  0
  5 10  1  0  0  0  0
  5  4  1  0  0  0  0
  6  5  2  0  0  0  0
  7  8  2  0  0  0  0
  7  6  1  0  0  0  0
  8  9  1  0  0  0  0
  9 11  1  0  0  0  0
  9 10  2  0  0  0  0
 12 11  1  0  0  0  0
 13  8  1  0  0  0  0
 13 12  1  0  0  0  0
 14  2  1  0  0  0  0
 15  2  1  0  0  0  0
 16 23  1  1  0  0  0
 16 17  1  0  0  0  0
 16  1  1  0  0  0  0
 17 18  1  0  0  0  0
 18 20  1  0  0  0  0
 19 17  2  0  0  0  0
 20 21  2  0  0  0  0
 22 25  1  0  0  0  0
 22 20  1  0  0  0  0
 23 22  1  0  0  0  0
 24 23  2  0  0  0  0
 25 31  1  0  0  0  0
 26 27  1  0  0  0  0
 26 25  2  0  0  0  0
 27 28  2  0  0  0  0
 28 30  1  0  0  0  0
 28 29  1  0  0  0  0
 31 29  2  0  0  0  0
 32  7  1  0  0  0  0
 33 32  1  0  0  0  0
M  END
>  <Pose>
1

>  <Score>
0.761

$$$$
