MODEL 1
REMARK VINA RESULT:    -7.857      0.000      0.000
REMARK INTER + INTRA:          -7.388
REMARK INTER:                  -8.317
REMARK INTRA:                   0.929
REMARK UNBOUND:                 0.929
REMARK  1 active torsions:
REMARK  status: ('A' for Active; 'I' for Inactive)
REMARK    1  A    between atoms: N_11  and  C_14 
ROOT
ATOM      1  S   UNK d   1       4.853   5.402 -13.231  0.00  0.00     0.148 S 
ATOM      2  O   UNK d   1       4.944   4.094 -13.961  0.00  0.00    -0.228 OA
ATOM      3  O   UNK d   1       6.140   5.744 -12.535  0.00  0.00    -0.228 OA
ATOM      4  C   UNK d   1       4.384   6.724 -14.326  0.00  0.00     0.175 C 
ATOM      5  C   UNK d   1       3.708   7.764 -13.456  0.00  0.00     0.195 C 
ATOM      6  N   UNK d   1       2.430   7.243 -13.015  0.00  0.00    -0.318 N 
ATOM      7  C   UNK d   1       2.281   5.842 -12.681  0.00  0.00     0.143 C 
ATOM      8  C   UNK d   1       3.550   5.338 -11.992  0.00  0.00     0.160 C 
ATOM      9  C   UNK d   1       1.550   8.360 -13.025  0.00  0.00     0.328 C 
ATOM     10  O   UNK d   1       0.397   8.413 -12.477  0.00  0.00    -0.246 OA
ATOM     11  N   UNK d   1       2.126   9.447 -13.739  0.00  0.00    -0.259 N 
ATOM     12  C   UNK d   1       3.396   8.996 -14.187  0.00  0.00     0.252 C 
ATOM     13  O   UNK d   1       4.137   9.543 -15.055  0.00  0.00    -0.270 OA
ENDROOT
BRANCH  11  14
ATOM     14  C   UNK d   1       1.556  10.764 -13.980  0.00  0.00     0.135 C 
ATOM     15  C   UNK d   1       0.069  10.784 -13.672  0.00  0.00     0.058 C 
ATOM     16  C   UNK d   1      -0.420  12.182 -14.057  0.00  0.00     0.178 C 
ATOM     17  O   UNK d   1       0.195  13.077 -13.147  0.00  0.00    -0.349 OA
ATOM     18  C   UNK d   1       1.505  12.876 -12.729  0.00  0.00     0.094 A 
ATOM     19  C   UNK d   1       2.203  11.765 -13.111  0.00  0.00     0.000 A 
ATOM     20  C   UNK d   1       2.061  13.850 -11.914  0.00  0.00     0.044 A 
ATOM     21  C   UNK d   1       3.492  11.567 -12.700  0.00  0.00     0.012 A 
ATOM     22  C   UNK d   1       4.078  12.510 -11.891  0.00  0.00     0.002 A 
ATOM     23  C   UNK d   1       3.366  13.621 -11.516  0.00  0.00     0.022 A 
ATOM     24 Br   UNK d   1       1.085  15.394 -11.387  0.00  0.00    -0.048 Br
ENDBRANCH  11  14
TORSDOF 1
ENDMDL
