MODEL 1
REMARK VINA RESULT:    -7.719      0.000      0.000
REMARK INTER + INTRA:         -10.077
REMARK INTER:                  -9.073
REMARK INTRA:                  -1.004
REMARK UNBOUND:                -1.004
REMARK  3 active torsions:
REMARK  status: ('A' for Active; 'I' for Inactive)
REMARK    1  A    between atoms: C_2  and  C_7 
REMARK       I    between atoms: C_7  and  N_9 
REMARK    2  A    between atoms: N_9  and  C_10 
REMARK    3  A    between atoms: N_12  and  C_15 
ROOT
ATOM      1  C   UNK d   1       2.425   8.019 -13.824  0.00  0.00     0.104 C 
ATOM      2  C   UNK d   1       2.898   9.028 -12.808  0.00  0.00     0.149 C 
ATOM      3  N   UNK d   1       2.900  10.255 -13.591  0.00  0.00    -0.361 N 
ATOM      4  C   UNK d   1       3.548   9.911 -14.834  0.00  0.00     0.127 C 
ATOM      5  C   UNK d   1       3.202   8.449 -15.050  0.00  0.00     0.046 C 
ENDROOT
BRANCH   1   6
ATOM      6  N   UNK d   1       1.012   8.182 -14.131  0.00  0.00    -0.350 N 
ATOM      7  C   UNK d   1       0.086   7.127 -13.972  0.00  0.00     0.259 C 
ATOM      8  O   UNK d   1       0.410   5.987 -13.558  0.00  0.00    -0.267 OA
ATOM      9  H   UNK d   1       0.654   9.098 -14.482  0.00  0.00     0.163 HD
BRANCH   7  10
ATOM     10  C   UNK d   1      -1.348   7.312 -14.290  0.00  0.00     0.073 A 
ATOM     11  S   UNK d   1      -2.410   6.291 -15.150  0.00  0.00    -0.095 SA
ATOM     12  C   UNK d   1      -3.829   7.229 -15.059  0.00  0.00     0.069 A 
ATOM     13  C   UNK d   1      -3.427   8.330 -14.347  0.00  0.00     0.018 A 
ATOM     14  C   UNK d   1      -2.152   8.370 -13.954  0.00  0.00     0.044 A 
ATOM     15 Br   UNK d   1      -4.717   9.728 -13.969  0.00  0.00    -0.051 Br
ENDBRANCH   7  10
ENDBRANCH   1   6
BRANCH   3  16
ATOM     16  C   UNK d   1       2.356  11.514 -13.163  0.00  0.00     0.174 A 
ATOM     17  N   UNK d   1       3.145  12.472 -12.643  0.00  0.00    -0.238 NA
ATOM     18  C   UNK d   1       2.607  13.639 -12.250  0.00  0.00     0.136 A 
ATOM     19  C   UNK d   1       1.265  13.896 -12.361  0.00  0.00     0.119 A 
ATOM     20  N   UNK d   1       0.462  12.951 -12.879  0.00  0.00    -0.294 N 
ATOM     21  C   UNK d   1       1.012  11.784 -13.268  0.00  0.00     0.203 A 
ATOM     22  C   UNK d   1      -0.873  12.923 -13.106  0.00  0.00     0.240 A 
ATOM     23  N   UNK d   1      -0.019  11.054 -13.734  0.00  0.00    -0.126 NA
ATOM     24  N   UNK d   1      -1.155  11.724 -13.643  0.00  0.00    -0.143 NA
ENDBRANCH   3  16
TORSDOF 3
ENDMDL
