MODEL 1
REMARK VINA RESULT:    -8.339      0.000      0.000
REMARK INTER + INTRA:         -11.015
REMARK INTER:                 -10.776
REMARK INTRA:                  -0.239
REMARK UNBOUND:                -0.239
REMARK  5 active torsions:
REMARK  status: ('A' for Active; 'I' for Inactive)
REMARK    1  A    between atoms: C_4  and  C_6 
REMARK    2  A    between atoms: C_7  and  C_9 
REMARK    3  A    between atoms: C_11  and  C_14 
REMARK    4  A    between atoms: N_16  and  C_19 
REMARK    5  A    between atoms: C_19  and  C_20 
REMARK       I    between atoms: C_20  and  N_22 
ROOT
ATOM      1  C   UNK d   1       2.097  13.785 -11.995  0.00  0.00     0.178 A 
ATOM      2  N   UNK d   1       0.920  14.173 -12.520  0.00  0.00    -0.201 NA
ATOM      3  C   UNK d   1       0.734  15.489 -12.318  0.00  0.00     0.229 A 
ATOM      4  N   UNK d   1       1.828  15.897 -11.655  0.00  0.00    -0.102 NA
ATOM      5  O   UNK d   1       2.624  14.867 -11.474  0.00  0.00    -0.195 OA
ENDROOT
BRANCH   3   6
ATOM      6  C   UNK d   1      -0.401  16.321 -12.720  0.00  0.00     0.221 A 
ATOM      7  N   UNK d   1      -1.010  17.251 -11.966  0.00  0.00    -0.147 NA
ATOM      8  N   UNK d   1      -2.009  17.816 -12.652  0.00  0.00    -0.253 N 
ATOM      9  C   UNK d   1      -2.052  17.245 -13.877  0.00  0.00     0.231 A 
ATOM     10  N   UNK d   1      -1.055  16.329 -13.894  0.00  0.00    -0.218 NA
BRANCH   8  11
ATOM     11  C   UNK d   1      -2.897  18.863 -12.175  0.00  0.00     0.254 C 
BRANCH  11  12
ATOM     12  C   UNK d   1      -2.893  18.847 -10.697  0.00  0.00     0.235 C 
ATOM     13  O   UNK d   1      -3.862  18.328 -10.100  0.00  0.00    -0.272 OA
ATOM     14  N   UNK d   1      -1.808  19.410  -9.985  0.00  0.00    -0.369 N 
ATOM     15  H   UNK d   1      -1.383  18.927  -9.146  0.00  0.00     0.159 HD
ATOM     16  H   UNK d   1      -1.358  20.325 -10.232  0.00  0.00     0.159 HD
ENDBRANCH  11  12
ENDBRANCH   8  11
ENDBRANCH   3   6
BRANCH   1  17
ATOM     17  C   UNK d   1       2.692  12.402 -11.999  0.00  0.00     0.074 A 
ATOM     18  C   UNK d   1       2.838  11.808 -13.407  0.00  0.00     0.032 A 
ATOM     19  C   UNK d   1       4.017  12.185 -12.624  0.00  0.00     0.023 A 
BRANCH  18  20
ATOM     20  C   UNK d   1       2.472  10.336 -13.458  0.00  0.00    -0.045 A 
ATOM     21  C   UNK d   1       1.185   9.921 -13.410  0.00  0.00     0.034 A 
ATOM     22  C   UNK d   1       0.972   8.569 -13.469  0.00  0.00     0.051 A 
ATOM     23  S   UNK d   1       2.540   7.925 -13.588  0.00  0.00    -0.094 SA
ATOM     24 Br   UNK d   1      -0.728   7.654 -13.425  0.00  0.00    -0.043 Br
ATOM     25  C   UNK d   1       3.435   9.372 -13.562  0.00  0.00     0.058 A 
ENDBRANCH  18  20
ENDBRANCH   1  17
TORSDOF 5
ENDMDL
