/Users/jonathanwahrer/Desktop/Msc/3_Semester/Drug_Design_Praktikum/waehrer_HTS_screening/HTS_experiment/out/docking_results/vina_output/6q9y/1161_docked.pdbqt
 OpenBabel03222219553D

 29 32  0  0  1  0  0  0  0  0999 V2000
    0.2240   13.1580  -12.7790 N   0  0  0  0  0  0  0  0  0  0  0  0
    1.5360   13.0540  -12.4590 C   0  0  0  0  0  0  0  0  0  0  0  0
    2.0740   11.9630  -13.0700 C   0  0  0  0  0  0  0  0  0  0  0  0
    3.4090   11.6480  -12.8960 C   0  0  0  0  0  3  0  0  0  0  0  0
    4.1870   12.4530  -12.0960 C   0  0  0  0  0  3  0  0  0  0  0  0
    3.6700   13.5590  -11.4700 C   0  0  0  0  0  3  0  0  0  0  0  0
    2.3370   13.8440  -11.6650 C   0  0  0  0  0  3  0  0  0  0  0  0
    1.0880   11.3900  -13.7670 N   0  0  0  0  0  0  0  0  0  0  0  0
   -0.0450   12.1270  -13.5840 C   0  0  1  0  0  3  0  0  0  0  0  0
   -0.6500   14.2020  -12.3050 C   0  0  0  0  0  2  0  0  0  0  0  0
   -0.5660   15.4200  -13.1470 C   0  0  0  0  0  0  0  0  0  0  0  0
    0.2730   15.5080  -14.0770 O   0  0  0  0  0  0  0  0  0  0  0  0
   -1.4500   16.5710  -12.9350 C   0  0  0  0  0  0  0  0  0  0  0  0
   -1.5710   17.6330  -11.5970 S   0  0  0  0  0  0  0  0  0  0  0  0
   -2.8190   18.6460  -12.1490 C   0  0  0  0  0  0  0  0  0  0  0  0
   -3.1110   18.1230  -13.3780 C   0  0  0  0  0  3  0  0  0  0  0  0
   -3.5950   20.1400  -11.2520 Br  0  0  0  0  0  0  0  0  0  0  0  0
   -2.4120   17.0610  -13.7830 C   0  0  0  0  0  3  0  0  0  0  0  0
   -1.1420   11.7750  -14.1440 N   0  0  0  0  0  2  0  0  0  0  0  0
   -2.0980   11.8930  -13.8130 H   0  0  0  0  0  0  0  0  0  0  0  0
    1.2360   10.1930  -14.5840 C   0  0  0  0  0  2  0  0  0  0  0  0
    1.2850    8.9770  -13.6470 C   0  0  0  0  0  2  0  0  0  0  0  0
    0.0740    8.8320  -12.8920 N   0  0  0  0  0  4  0  0  0  0  0  0
   -1.0150    8.2290  -13.6340 C   0  0  0  0  0  2  0  0  0  0  0  0
   -0.6050    6.9390  -14.2860 C   0  0  0  0  0  2  0  0  0  0  0  0
    0.1140    6.0120  -13.3640 C   0  0  0  0  0  2  0  0  0  0  0  0
    0.8560    6.6520  -12.2460 C   0  0  0  0  0  2  0  0  0  0  0  0
    0.3350    7.9620  -11.7720 C   0  0  0  0  0  2  0  0  0  0  0  0
   -0.2760    9.7640  -12.5810 H   0  0  0  0  0  0  0  0  0  0  0  0
  1  2  1  0  0  0  0
  1 10  1  0  0  0  0
  2  7  1  0  0  0  0
  3  4  1  0  0  0  0
  3  2  2  0  0  0  0
  4  5  2  0  0  0  0
  5  6  1  0  0  0  0
  7  6  2  0  0  0  0
  8  9  1  0  0  0  0
  8  3  1  0  0  0  0
  9 19  1  1  0  0  0
  9  1  1  0  0  0  0
 11 13  1  0  0  0  0
 11 10  1  0  0  0  0
 12 11  2  0  0  0  0
 13 14  1  0  0  0  0
 15 14  1  0  0  0  0
 15 17  1  0  0  0  0
 16 15  2  0  0  0  0
 18 16  1  0  0  0  0
 18 13  2  0  0  0  0
 19 20  1  0  0  0  0
 21  8  1  0  0  0  0
 21 22  1  0  0  0  0
 22 23  1  0  0  0  0
 23 29  1  0  0  0  0
 23 28  1  0  0  0  0
 24 23  1  0  0  0  0
 25 24  1  0  0  0  0
 25 26  1  0  0  0  0
 26 27  1  0  0  0  0
 27 28  1  0  0  0  0
M  END
>  <Pose>
1

>  <Score>
-8.046

$$$$
