MODEL 1
REMARK VINA RESULT:    -8.046      0.000      0.000
REMARK INTER + INTRA:         -11.924
REMARK INTER:                 -11.104
REMARK INTRA:                  -0.820
REMARK UNBOUND:                -0.820
REMARK  7 active torsions:
REMARK  status: ('A' for Active; 'I' for Inactive)
REMARK    1  A    between atoms: C_5  and  C_6 
REMARK    2  A    between atoms: C_6  and  C_8 
REMARK    3  A    between atoms: C_8  and  N_9 
REMARK    4  A    between atoms: N_16  and  C_19 
REMARK    5  A    between atoms: C_17  and  N_18 
REMARK    6  A    between atoms: C_19  and  C_20 
REMARK    7  A    between atoms: C_20  and  N_21 
ROOT
ATOM      1  N   UNK d   1       0.224  13.158 -12.779  0.00  0.00    -0.172 N 
ATOM      2  C   UNK d   1       1.536  13.054 -12.459  0.00  0.00     0.079 A 
ATOM      3  C   UNK d   1       2.074  11.963 -13.070  0.00  0.00     0.079 A 
ATOM      4  C   UNK d   1       3.409  11.648 -12.896  0.00  0.00     0.032 A 
ATOM      5  C   UNK d   1       4.187  12.453 -12.096  0.00  0.00     0.002 A 
ATOM      6  C   UNK d   1       3.670  13.559 -11.470  0.00  0.00     0.002 A 
ATOM      7  C   UNK d   1       2.337  13.844 -11.665  0.00  0.00     0.032 A 
ATOM      8  N   UNK d   1       1.088  11.390 -13.767  0.00  0.00    -0.178 N 
ATOM      9  C   UNK d   1      -0.045  12.127 -13.584  0.00  0.00     0.703 A 
ENDROOT
BRANCH   1  10
ATOM     10  C   UNK d   1      -0.650  14.202 -12.305  0.00  0.00     0.232 C 
BRANCH  10  11
ATOM     11  C   UNK d   1      -0.566  15.420 -13.147  0.00  0.00     0.185 C 
ATOM     12  O   UNK d   1       0.273  15.508 -14.077  0.00  0.00    -0.290 OA
BRANCH  11  13
ATOM     13  C   UNK d   1      -1.450  16.571 -12.935  0.00  0.00     0.053 A 
ATOM     14  S   UNK d   1      -1.571  17.633 -11.597  0.00  0.00    -0.079 SA
ATOM     15  C   UNK d   1      -2.819  18.646 -12.149  0.00  0.00     0.052 A 
ATOM     16  C   UNK d   1      -3.111  18.123 -13.378  0.00  0.00     0.028 A 
ATOM     17 Br   UNK d   1      -3.595  20.140 -11.252  0.00  0.00    -0.043 Br
ATOM     18  C   UNK d   1      -2.412  17.061 -13.783  0.00  0.00     0.024 A 
ENDBRANCH  11  13
ENDBRANCH  10  11
ENDBRANCH   1  10
BRANCH   9  19
ATOM     19  N   UNK d   1      -1.142  11.775 -14.144  0.00  0.00    -0.117 NA
ATOM     20  H   UNK d   1      -2.098  11.893 -13.813  0.00  0.00     0.206 HD
ENDBRANCH   9  19
BRANCH   8  21
ATOM     21  C   UNK d   1       1.236  10.193 -14.584  0.00  0.00     0.175 C 
BRANCH  21  22
ATOM     22  C   UNK d   1       1.285   8.977 -13.647  0.00  0.00     0.255 C 
BRANCH  22  23
ATOM     23  N   UNK d   1       0.074   8.832 -12.892  0.00  0.00    -0.070 N 
ATOM     24  C   UNK d   1      -1.015   8.229 -13.634  0.00  0.00     0.235 C 
ATOM     25  C   UNK d   1      -0.605   6.939 -14.286  0.00  0.00     0.028 C 
ATOM     26  C   UNK d   1       0.114   6.012 -13.364  0.00  0.00     0.003 C 
ATOM     27  C   UNK d   1       0.856   6.652 -12.246  0.00  0.00     0.028 C 
ATOM     28  C   UNK d   1       0.335   7.962 -11.772  0.00  0.00     0.235 C 
ATOM     29  H   UNK d   1      -0.276   9.764 -12.581  0.00  0.00     0.279 HD
ENDBRANCH  22  23
ENDBRANCH  21  22
ENDBRANCH   8  21
TORSDOF 7
ENDMDL
