/Users/jonathanwahrer/Desktop/Msc/3_Semester/Drug_Design_Praktikum/waehrer_HTS_screening/HTS_experiment/out/docking_results/vina_output/6q9y/1177_docked.pdbqt
 OpenBabel03222219553D

 33 36  0  0  1  0  0  0  0  0999 V2000
    2.3990    6.4700  -12.7930 C   0  0  2  0  0  3  0  0  0  0  0  0
    3.1760    7.0970  -13.9140 C   0  0  2  0  0  3  0  0  0  0  0  0
    4.5340    6.7730  -13.6090 N   0  0  0  0  0  0  0  0  0  0  0  0
    4.4610    5.4550  -12.9980 C   0  0  0  0  0  0  0  0  0  0  0  0
    5.4420    4.6640  -12.9580 O   0  0  0  0  0  0  0  0  0  0  0  0
    3.1210    5.2440  -12.4800 C   0  0  0  0  0  0  0  0  0  0  0  0
    2.6720    4.2100  -11.8830 O   0  0  0  0  0  0  0  0  0  0  0  0
    5.7600    7.4700  -13.8650 C   0  0  0  0  0  2  0  0  0  0  0  0
    6.8860    7.2010  -12.9190 C   0  0  0  0  0  2  0  0  0  0  0  0
    8.1560    6.8020  -13.6850 C   0  0  0  0  0  2  0  0  0  0  0  0
    8.4140    5.4240  -13.4350 N   0  0  0  0  0  4  0  0  0  0  0  0
    9.3520    4.7870  -14.3020 C   0  0  0  0  0  2  0  0  0  0  0  0
   10.7880    5.1540  -14.0100 C   0  0  0  0  0  2  0  0  0  0  0  0
   10.7600    6.1020  -12.9630 O   0  0  0  0  0  0  0  0  0  0  0  0
   10.2940    5.3850  -11.8430 C   0  0  0  0  0  2  0  0  0  0  0  0
    8.8090    5.1770  -12.0600 C   0  0  0  0  0  2  0  0  0  0  0  0
    7.4900    4.9090  -13.5580 H   0  0  0  0  0  0  0  0  0  0  0  0
    2.8430    8.5050  -14.0870 C   0  0  0  0  0  0  0  0  0  0  0  0
    3.2310    9.3980  -13.0760 C   0  0  0  0  0  3  0  0  0  0  0  0
    2.9980   10.7480  -13.1350 C   0  0  0  0  0  0  0  0  0  0  0  0
    2.3550   11.2770  -14.2270 C   0  0  0  0  0  3  0  0  0  0  0  0
    3.5370   11.9410  -11.7440 Br  0  0  0  0  0  0  0  0  0  0  0  0
    1.9570   10.4260  -15.2470 C   0  0  0  0  0  3  0  0  0  0  0  0
    2.2090    9.0740  -15.1530 C   0  0  0  0  0  3  0  0  0  0  0  0
    1.2760    6.8880  -12.2400 C   0  0  1  0  0  3  0  0  0  0  0  0
    1.2810    7.2500  -10.8740 O   0  0  0  0  0  1  0  0  0  0  0  0
    0.0420    6.9800  -13.0170 C   0  0  0  0  0  0  0  0  0  0  0  0
   -0.7170    5.7160  -13.8850 S   0  0  0  0  0  0  0  0  0  0  0  0
   -2.0180    6.5970  -14.5490 C   0  0  0  0  0  0  0  0  0  0  0  0
   -1.8040    7.8100  -14.0740 N   0  0  0  0  0  0  0  0  0  0  0  0
   -3.1310    6.1170  -15.4510 C   0  0  0  0  0  1  0  0  0  0  0  0
   -0.7810    8.0380  -13.3040 C   0  0  0  0  0  0  0  0  0  0  0  0
   -0.5150    9.4480  -12.7950 C   0  0  0  0  0  1  0  0  0  0  0  0
  1  6  1  0  0  0  0
  1 25  1  6  0  0  0
  2 18  1  1  0  0  0
  2  3  1  0  0  0  0
  2  1  1  0  0  0  0
  3  4  1  0  0  0  0
  4  5  2  0  0  0  0
  4  6  1  0  0  0  0
  6  7  2  0  0  0  0
  8  3  1  0  0  0  0
  8  9  1  0  0  0  0
 10 11  1  0  0  0  0
 10  9  1  0  0  0  0
 11 16  1  0  0  0  0
 12 13  1  0  0  0  0
 12 11  1  0  0  0  0
 13 14  1  0  0  0  0
 14 15  1  0  0  0  0
 16 15  1  0  0  0  0
 17 11  1  0  0  0  0
 18 19  1  0  0  0  0
 20 19  2  0  0  0  0
 20 22  1  0  0  0  0
 21 20  1  0  0  0  0
 23 24  1  0  0  0  0
 23 21  2  0  0  0  0
 24 18  2  0  0  0  0
 25 26  1  6  0  0  0
 27 25  1  0  0  0  0
 28 27  1  0  0  0  0
 29 30  2  0  0  0  0
 29 28  1  0  0  0  0
 30 32  1  0  0  0  0
 31 29  1  0  0  0  0
 32 27  2  0  0  0  0
 32 33  1  0  0  0  0
M  END
>  <Pose>
1

>  <Score>
-7.771

$$$$
