MODEL 1
REMARK VINA RESULT:    -7.771      0.000      0.000
REMARK INTER + INTRA:         -12.323
REMARK INTER:                 -10.951
REMARK INTRA:                  -1.372
REMARK UNBOUND:                -1.372
REMARK  7 active torsions:
REMARK  status: ('A' for Active; 'I' for Inactive)
REMARK    1  A    between atoms: C_5  and  C_6 
REMARK    2  A    between atoms: C_6  and  C_7 
REMARK    3  A    between atoms: C_8  and  C_23 
REMARK    4  A    between atoms: N_9  and  C_14 
REMARK    5  A    between atoms: C_14  and  C_15 
REMARK    6  A    between atoms: C_15  and  C_16 
REMARK    7  A    between atoms: C_16  and  N_17 
ROOT
ATOM      1  C   UNK d   1       2.399   6.470 -12.793  0.00  0.00     0.063 C 
ATOM      2  C   UNK d   1       3.176   7.097 -13.914  0.00  0.00     0.161 C 
ATOM      3  N   UNK d   1       4.534   6.773 -13.609  0.00  0.00    -0.332 N 
ATOM      4  C   UNK d   1       4.461   5.455 -12.998  0.00  0.00     0.295 C 
ATOM      5  O   UNK d   1       5.442   4.664 -12.958  0.00  0.00    -0.264 OA
ATOM      6  C   UNK d   1       3.121   5.244 -12.480  0.00  0.00     0.250 C 
ATOM      7  O   UNK d   1       2.672   4.210 -11.883  0.00  0.00    -0.282 OA
ENDROOT
BRANCH   3   8
ATOM      8  C   UNK d   1       5.760   7.470 -13.865  0.00  0.00     0.129 C 
BRANCH   8   9
ATOM      9  C   UNK d   1       6.886   7.201 -12.919  0.00  0.00     0.048 C 
BRANCH   9  10
ATOM     10  C   UNK d   1       8.156   6.802 -13.685  0.00  0.00     0.236 C 
BRANCH  10  11
ATOM     11  N   UNK d   1       8.414   5.424 -13.435  0.00  0.00    -0.067 N 
ATOM     12  C   UNK d   1       9.352   4.787 -14.302  0.00  0.00     0.261 C 
ATOM     13  C   UNK d   1      10.788   5.154 -14.010  0.00  0.00     0.195 C 
ATOM     14  O   UNK d   1      10.760   6.102 -12.963  0.00  0.00    -0.388 OA
ATOM     15  C   UNK d   1      10.294   5.385 -11.843  0.00  0.00     0.195 C 
ATOM     16  C   UNK d   1       8.809   5.177 -12.060  0.00  0.00     0.261 C 
ATOM     17  H   UNK d   1       7.490   4.909 -13.558  0.00  0.00     0.280 HD
ENDBRANCH  10  11
ENDBRANCH   9  10
ENDBRANCH   8   9
ENDBRANCH   3   8
BRANCH   2  18
ATOM     18  C   UNK d   1       2.843   8.505 -14.087  0.00  0.00    -0.029 A 
ATOM     19  C   UNK d   1       3.231   9.398 -13.076  0.00  0.00     0.028 A 
ATOM     20  C   UNK d   1       2.998  10.748 -13.135  0.00  0.00     0.011 A 
ATOM     21  C   UNK d   1       2.355  11.277 -14.227  0.00  0.00     0.019 A 
ATOM     22 Br   UNK d   1       3.537  11.941 -11.744  0.00  0.00    -0.051 Br
ATOM     23  C   UNK d   1       1.957  10.426 -15.247  0.00  0.00     0.002 A 
ATOM     24  C   UNK d   1       2.209   9.074 -15.153  0.00  0.00     0.009 A 
ENDBRANCH   2  18
BRANCH   1  25
ATOM     25  C   UNK d   1       1.276   6.888 -12.240  0.00  0.00     0.139 C 
ATOM     26  O   UNK d   1       1.281   7.250 -10.874  0.00  0.00    -0.190 OA
BRANCH  25  27
ATOM     27  C   UNK d   1       0.042   6.980 -13.017  0.00  0.00     0.068 A 
ATOM     28  S   UNK d   1      -0.717   5.716 -13.885  0.00  0.00    -0.070 SA
ATOM     29  C   UNK d   1      -2.018   6.597 -14.549  0.00  0.00     0.072 A 
ATOM     30  N   UNK d   1      -1.804   7.810 -14.074  0.00  0.00    -0.250 NA
ATOM     31  C   UNK d   1      -3.131   6.117 -15.451  0.00  0.00     0.078 C 
ATOM     32  C   UNK d   1      -0.781   8.038 -13.304  0.00  0.00     0.051 A 
ATOM     33  C   UNK d   1      -0.515   9.448 -12.795  0.00  0.00     0.072 C 
ENDBRANCH  25  27
ENDBRANCH   1  25
TORSDOF 7
ENDMDL
