/Users/jonathanwahrer/Desktop/Msc/3_Semester/Drug_Design_Praktikum/waehrer_HTS_screening/HTS_experiment/out/docking_results/vina_output/6q9y/1178_docked.pdbqt
 OpenBabel03222219563D

 33 36  0  0  1  0  0  0  0  0999 V2000
   -0.6090    7.8620  -13.3370 C   0  0  1  0  0  3  0  0  0  0  0  0
   -1.0230    8.9450  -14.2830 C   0  0  1  0  0  3  0  0  0  0  0  0
   -2.4510    8.7770  -14.3460 N   0  0  0  0  0  0  0  0  0  0  0  0
   -2.6710    7.3640  -14.2490 C   0  0  0  0  0  0  0  0  0  0  0  0
   -3.6810    6.7510  -14.6430 O   0  0  0  0  0  0  0  0  0  0  0  0
   -1.5130    6.7530  -13.6120 C   0  0  0  0  0  0  0  0  0  0  0  0
   -1.2630    5.5500  -13.3290 O   0  0  0  0  0  0  0  0  0  0  0  0
   -3.4040    9.8350  -14.4980 C   0  0  0  0  0  2  0  0  0  0  0  0
   -4.7010    9.6220  -13.8360 C   0  0  0  0  0  3  0  0  0  0  0  0
   -5.8220   10.4290  -14.2430 C   0  0  0  0  0  3  0  0  0  0  0  0
   -7.1700   10.2790  -13.9630 N   0  0  0  0  0  4  0  0  0  0  0  0
   -7.9820   10.2690  -15.2360 C   0  0  0  0  0  2  0  0  0  0  0  0
   -8.1700   11.6730  -15.7070 C   0  0  0  0  0  2  0  0  0  0  0  0
   -9.0060   12.3060  -14.7940 O   0  0  0  0  0  0  0  0  0  0  0  0
   -8.2280   12.4660  -13.6250 C   0  0  0  0  0  2  0  0  0  0  0  0
   -7.8500   11.1290  -13.0490 C   0  0  0  0  0  2  0  0  0  0  0  0
   -7.3570    9.3040  -13.6240 H   0  0  0  0  0  0  0  0  0  0  0  0
   -0.5530   10.2580  -13.8190 C   0  0  0  0  0  0  0  0  0  0  0  0
    0.7230   10.7440  -13.9020 C   0  0  0  0  0  3  0  0  0  0  0  0
    1.1240   11.9810  -13.4510 C   0  0  0  0  0  3  0  0  0  0  0  0
    0.1890   12.8010  -12.8720 C   0  0  0  0  0  0  0  0  0  0  0  0
   -1.1080   12.3720  -12.7600 C   0  0  0  0  0  3  0  0  0  0  0  0
    0.7490   14.5240  -12.2470 Br  0  0  0  0  0  0  0  0  0  0  0  0
   -1.4740   11.1290  -13.2220 C   0  0  0  0  0  3  0  0  0  0  0  0
    0.3850    7.9350  -12.5010 C   0  0  1  0  0  3  0  0  0  0  0  0
    0.1440    8.3460  -11.1790 O   0  0  0  0  0  1  0  0  0  0  0  0
    1.7580    7.5900  -12.9290 C   0  0  0  0  0  0  0  0  0  0  0  0
    2.9230    8.5620  -13.7250 S   0  0  0  0  0  0  0  0  0  0  0  0
    4.2070    7.4430  -13.7730 C   0  0  0  0  0  0  0  0  0  0  0  0
    3.6860    6.3870  -13.1810 N   0  0  0  0  0  0  0  0  0  0  0  0
    5.5950    7.5820  -14.3370 C   0  0  0  0  0  1  0  0  0  0  0  0
    2.4630    6.4250  -12.7460 C   0  0  0  0  0  0  0  0  0  0  0  0
    1.8410    5.2370  -12.0160 C   0  0  0  0  0  1  0  0  0  0  0  0
  1 25  1  6  0  0  0
  2 18  1  1  0  0  0
  2  1  1  0  0  0  0
  3  2  1  0  0  0  0
  3  4  1  0  0  0  0
  4  6  1  0  0  0  0
  5  4  2  0  0  0  0
  6  1  1  0  0  0  0
  6  7  2  0  0  0  0
  8  3  1  0  0  0  0
  8  9  1  0  0  0  0
 10 11  1  0  0  0  0
 10  9  2  0  0  0  0
 11 17  1  0  0  0  0
 11 16  1  0  0  0  0
 12 11  1  0  0  0  0
 13 12  1  0  0  0  0
 13 14  1  0  0  0  0
 14 15  1  0  0  0  0
 15 16  1  0  0  0  0
 18 24  1  0  0  0  0
 19 18  2  0  0  0  0
 19 20  1  0  0  0  0
 20 21  2  0  0  0  0
 21 22  1  0  0  0  0
 21 23  1  0  0  0  0
 24 22  2  0  0  0  0
 25 26  1  1  0  0  0
 27 32  2  0  0  0  0
 27 25  1  0  0  0  0
 28 27  1  0  0  0  0
 29 28  1  0  0  0  0
 29 30  2  0  0  0  0
 30 32  1  0  0  0  0
 31 29  1  0  0  0  0
 32 33  1  0  0  0  0
M  END
>  <Pose>
1

>  <Score>
-7.779

$$$$
