MODEL 1
REMARK VINA RESULT:    -7.779      0.000      0.000
REMARK INTER + INTRA:         -10.364
REMARK INTER:                 -10.963
REMARK INTRA:                   0.599
REMARK UNBOUND:                 0.599
REMARK  7 active torsions:
REMARK  status: ('A' for Active; 'I' for Inactive)
REMARK    1  A    between atoms: C_5  and  C_6 
REMARK    2  A    between atoms: C_6  and  C_7 
REMARK    3  A    between atoms: C_8  and  C_23 
REMARK    4  A    between atoms: N_9  and  C_14 
REMARK    5  A    between atoms: C_14  and  C_15 
REMARK    6  A    between atoms: C_15  and  C_16 
REMARK    7  A    between atoms: C_16  and  N_17 
ROOT
ATOM      1  C   UNK d   1      -0.609   7.862 -13.337  0.00  0.00     0.063 C 
ATOM      2  C   UNK d   1      -1.023   8.945 -14.283  0.00  0.00     0.161 C 
ATOM      3  N   UNK d   1      -2.451   8.777 -14.346  0.00  0.00    -0.332 N 
ATOM      4  C   UNK d   1      -2.671   7.364 -14.249  0.00  0.00     0.295 C 
ATOM      5  O   UNK d   1      -3.681   6.751 -14.643  0.00  0.00    -0.264 OA
ATOM      6  C   UNK d   1      -1.513   6.753 -13.612  0.00  0.00     0.250 C 
ATOM      7  O   UNK d   1      -1.263   5.550 -13.329  0.00  0.00    -0.282 OA
ENDROOT
BRANCH   3   8
ATOM      8  C   UNK d   1      -3.404   9.835 -14.498  0.00  0.00     0.129 C 
BRANCH   8   9
ATOM      9  C   UNK d   1      -4.701   9.622 -13.836  0.00  0.00     0.048 C 
BRANCH   9  10
ATOM     10  C   UNK d   1      -5.822  10.429 -14.243  0.00  0.00     0.236 C 
BRANCH  10  11
ATOM     11  N   UNK d   1      -7.170  10.279 -13.963  0.00  0.00    -0.067 N 
ATOM     12  C   UNK d   1      -7.982  10.269 -15.236  0.00  0.00     0.261 C 
ATOM     13  C   UNK d   1      -8.170  11.673 -15.707  0.00  0.00     0.195 C 
ATOM     14  O   UNK d   1      -9.006  12.306 -14.794  0.00  0.00    -0.388 OA
ATOM     15  C   UNK d   1      -8.228  12.466 -13.625  0.00  0.00     0.195 C 
ATOM     16  C   UNK d   1      -7.850  11.129 -13.049  0.00  0.00     0.261 C 
ATOM     17  H   UNK d   1      -7.357   9.304 -13.624  0.00  0.00     0.280 HD
ENDBRANCH  10  11
ENDBRANCH   9  10
ENDBRANCH   8   9
ENDBRANCH   3   8
BRANCH   2  18
ATOM     18  C   UNK d   1      -0.553  10.258 -13.819  0.00  0.00    -0.030 A 
ATOM     19  C   UNK d   1       0.723  10.744 -13.902  0.00  0.00     0.011 A 
ATOM     20  C   UNK d   1       1.124  11.981 -13.451  0.00  0.00     0.019 A 
ATOM     21  C   UNK d   1       0.189  12.801 -12.872  0.00  0.00     0.011 A 
ATOM     22  C   UNK d   1      -1.108  12.372 -12.760  0.00  0.00     0.019 A 
ATOM     23 Br   UNK d   1       0.749  14.524 -12.247  0.00  0.00    -0.051 Br
ATOM     24  C   UNK d   1      -1.474  11.129 -13.222  0.00  0.00     0.011 A 
ENDBRANCH   2  18
BRANCH   1  25
ATOM     25  C   UNK d   1       0.385   7.935 -12.501  0.00  0.00     0.139 C 
ATOM     26  O   UNK d   1       0.144   8.346 -11.179  0.00  0.00    -0.190 OA
BRANCH  25  27
ATOM     27  C   UNK d   1       1.758   7.590 -12.929  0.00  0.00     0.068 A 
ATOM     28  S   UNK d   1       2.923   8.562 -13.725  0.00  0.00    -0.070 SA
ATOM     29  C   UNK d   1       4.207   7.443 -13.773  0.00  0.00     0.072 A 
ATOM     30  N   UNK d   1       3.686   6.387 -13.181  0.00  0.00    -0.250 NA
ATOM     31  C   UNK d   1       5.595   7.582 -14.337  0.00  0.00     0.078 C 
ATOM     32  C   UNK d   1       2.463   6.425 -12.746  0.00  0.00     0.051 A 
ATOM     33  C   UNK d   1       1.841   5.237 -12.016  0.00  0.00     0.072 C 
ENDBRANCH  25  27
ENDBRANCH   1  25
TORSDOF 7
ENDMDL
