MODEL 1
REMARK VINA RESULT:    -8.497      0.000      0.000
REMARK INTER + INTRA:         -11.684
REMARK INTER:                 -11.477
REMARK INTRA:                  -0.207
REMARK UNBOUND:                -0.207
REMARK  6 active torsions:
REMARK  status: ('A' for Active; 'I' for Inactive)
REMARK    1  A    between atoms: C_5  and  C_6 
REMARK    2  A    between atoms: C_6  and  C_7 
REMARK    3  A    between atoms: C_8  and  C_22 
REMARK    4  A    between atoms: N_9  and  C_14 
REMARK    5  A    between atoms: C_14  and  C_15 
REMARK    6  A    between atoms: C_15  and  N_16 
ROOT
ATOM      1  C   UNK d   1      -0.252   7.733 -13.368  0.00  0.00     0.063 C 
ATOM      2  C   UNK d   1      -0.967   8.889 -13.989  0.00  0.00     0.161 C 
ATOM      3  N   UNK d   1      -2.303   8.436 -13.936  0.00  0.00    -0.331 N 
ATOM      4  C   UNK d   1      -2.182   7.058 -14.467  0.00  0.00     0.295 C 
ATOM      5  O   UNK d   1      -3.055   6.412 -15.106  0.00  0.00    -0.264 OA
ATOM      6  C   UNK d   1      -0.846   6.609 -14.092  0.00  0.00     0.250 C 
ATOM      7  O   UNK d   1      -0.260   5.504 -14.312  0.00  0.00    -0.282 OA
ENDROOT
BRANCH   1   8
ATOM      8  C   UNK d   1       0.693   7.733 -12.451  0.00  0.00     0.139 C 
ATOM      9  O   UNK d   1       0.377   8.006 -11.132  0.00  0.00    -0.190 OA
BRANCH   8  10
ATOM     10  C   UNK d   1       2.060   7.432 -12.902  0.00  0.00     0.068 A 
ATOM     11  S   UNK d   1       3.188   8.466 -13.695  0.00  0.00    -0.070 SA
ATOM     12  C   UNK d   1       4.500   7.389 -13.803  0.00  0.00     0.072 A 
ATOM     13  N   UNK d   1       4.021   6.302 -13.233  0.00  0.00    -0.250 NA
ATOM     14  C   UNK d   1       5.864   7.614 -14.398  0.00  0.00     0.078 C 
ATOM     15  C   UNK d   1       2.809   6.287 -12.772  0.00  0.00     0.051 A 
ATOM     16  C   UNK d   1       2.252   5.057 -12.071  0.00  0.00     0.072 C 
ENDBRANCH   8  10
ENDBRANCH   1   8
BRANCH   2  17
ATOM     17  C   UNK d   1      -0.521  10.197 -13.656  0.00  0.00    -0.030 A 
ATOM     18  C   UNK d   1      -1.459  11.153 -13.257  0.00  0.00     0.011 A 
ATOM     19  C   UNK d   1      -1.116  12.440 -12.936  0.00  0.00     0.019 A 
ATOM     20  C   UNK d   1       0.215  12.794 -13.013  0.00  0.00     0.011 A 
ATOM     21  C   UNK d   1       1.157  11.865 -13.405  0.00  0.00     0.019 A 
ATOM     22 Br   UNK d   1       0.780  14.569 -12.582  0.00  0.00    -0.051 Br
ATOM     23  C   UNK d   1       0.788  10.578 -13.723  0.00  0.00     0.011 A 
ENDBRANCH   2  17
BRANCH   3  24
ATOM     24  C   UNK d   1      -3.616   8.893 -13.629  0.00  0.00     0.155 C 
BRANCH  24  25
ATOM     25  C   UNK d   1      -4.492   9.397 -14.693  0.00  0.00     0.255 C 
BRANCH  25  26
ATOM     26  N   UNK d   1      -5.628  10.180 -14.424  0.00  0.00    -0.066 N 
ATOM     27  C   UNK d   1      -6.818   9.792 -15.151  0.00  0.00     0.261 C 
ATOM     28  C   UNK d   1      -7.878  10.840 -14.825  0.00  0.00     0.195 C 
ATOM     29  O   UNK d   1      -7.518  11.580 -13.699  0.00  0.00    -0.388 OA
ATOM     30  C   UNK d   1      -7.240  10.629 -12.696  0.00  0.00     0.195 C 
ATOM     31  C   UNK d   1      -5.989   9.857 -13.004  0.00  0.00     0.261 C 
ATOM     32  H   UNK d   1      -5.418  11.184 -14.434  0.00  0.00     0.280 HD
ENDBRANCH  25  26
ENDBRANCH  24  25
ENDBRANCH   3  24
TORSDOF 6
ENDMDL
