MODEL 1
REMARK VINA RESULT:    -4.388      0.000      0.000
REMARK INTER + INTRA:          -4.554
REMARK INTER:                  -4.645
REMARK INTRA:                   0.091
REMARK UNBOUND:                 0.091
REMARK  1 active torsions:
REMARK  status: ('A' for Active; 'I' for Inactive)
REMARK    1  A    between atoms: C_14  and  C_16 
ROOT
ATOM      1  S   UNK d   1       9.580   5.467 -10.916  0.00  0.00    -0.074 SA
ATOM      2  C   UNK d   1       9.036   6.190 -12.376  0.00  0.00     0.088 A 
ATOM      3  C   UNK d   1       9.362   5.247 -13.313  0.00  0.00     0.073 A 
ATOM      4  C   UNK d   1       9.959   4.125 -12.881  0.00  0.00    -0.023 A 
ATOM      5  C   UNK d   1      10.194   4.011 -11.538  0.00  0.00     0.018 A 
ATOM      6  C   UNK d   1      10.861   2.748 -11.076  0.00  0.00     0.281 C 
ATOM      7  N   UNK d   1      10.073   1.620 -11.567  0.00  0.00    -0.070 N 
ATOM      8  C   UNK d   1       9.851   1.656 -12.980  0.00  0.00     0.239 C 
ATOM      9  C   UNK d   1      10.445   2.897 -13.637  0.00  0.00     0.068 C 
ATOM     10  C   UNK d   1       8.770   1.734 -10.913  0.00  0.00     0.270 C 
ATOM     11  C   UNK d   1       8.999   5.620 -14.708  0.00  0.00     0.256 C 
ATOM     12  O   UNK d   1       9.246   4.836 -15.672  0.00  0.00    -0.267 OA
ATOM     13  N   UNK d   1       8.371   6.871 -14.939  0.00  0.00    -0.332 N 
ATOM     14  C   UNK d   1       7.656   7.618 -13.947  0.00  0.00     0.219 C 
ATOM     15  N   UNK d   1       8.390   7.444 -12.704  0.00  0.00    -0.358 N 
ATOM     16  H   UNK d   1      10.480   0.725 -11.228  0.00  0.00     0.279 HD
ATOM     17  H   UNK d   1       8.446   7.265 -15.920  0.00  0.00     0.165 HD
ATOM     18  H   UNK d   1       8.482   8.206 -12.001  0.00  0.00     0.162 HD
ENDROOT
BRANCH  14  19
ATOM     19  C   UNK d   1       6.261   7.147 -13.767  0.00  0.00    -0.013 A 
ATOM     20  C   UNK d   1       5.181   7.991 -13.920  0.00  0.00     0.033 A 
ATOM     21  C   UNK d   1       3.880   7.571 -13.758  0.00  0.00     0.049 A 
ATOM     22  C   UNK d   1       3.620   6.257 -13.428  0.00  0.00     0.141 A 
ATOM     23 Br   UNK d   1       2.404   8.741 -13.972  0.00  0.00    -0.048 Br
ATOM     24  C   UNK d   1       4.681   5.397 -13.270  0.00  0.00     0.049 A 
ATOM     25  O   UNK d   1       2.311   5.827 -13.263  0.00  0.00    -0.189 OA
ATOM     26  C   UNK d   1       5.984   5.826 -13.435  0.00  0.00     0.033 A 
ATOM     27 Br   UNK d   1       4.273   3.576 -12.812  0.00  0.00    -0.048 Br
ENDBRANCH  14  19
TORSDOF 1
ENDMDL
