MODEL 1
REMARK VINA RESULT:    -5.602      0.000      0.000
REMARK INTER + INTRA:          -6.649
REMARK INTER:                  -6.584
REMARK INTRA:                  -0.065
REMARK UNBOUND:                -0.065
REMARK  3 active torsions:
REMARK  status: ('A' for Active; 'I' for Inactive)
REMARK    1  A    between atoms: C_14  and  C_16 
REMARK    2  A    between atoms: C_20  and  O_22 
REMARK    3  A    between atoms: O_22  and  C_23 
ROOT
ATOM      1  S   UNK d   1       4.400  11.569 -12.341  0.00  0.00    -0.074 SA
ATOM      2  C   UNK d   1       3.732  10.825 -13.724  0.00  0.00     0.088 A 
ATOM      3  C   UNK d   1       2.503  11.415 -13.827  0.00  0.00     0.073 A 
ATOM      4  C   UNK d   1       2.184  12.343 -12.889  0.00  0.00    -0.023 A 
ATOM      5  C   UNK d   1       3.124  12.602 -11.923  0.00  0.00     0.018 A 
ATOM      6  C   UNK d   1       2.892  13.598 -10.836  0.00  0.00     0.281 C 
ATOM      7  N   UNK d   1       2.068  14.693 -11.215  0.00  0.00    -0.070 N 
ATOM      8  C   UNK d   1       1.333  14.547 -12.426  0.00  0.00     0.239 C 
ATOM      9  C   UNK d   1       0.891  13.157 -12.759  0.00  0.00     0.068 C 
ATOM     10  C   UNK d   1       1.212  15.111 -10.112  0.00  0.00     0.270 C 
ATOM     11  C   UNK d   1       1.702  10.931 -14.993  0.00  0.00     0.256 C 
ATOM     12  O   UNK d   1       0.537  11.405 -15.196  0.00  0.00    -0.267 OA
ATOM     13  N   UNK d   1       2.241   9.951 -15.859  0.00  0.00    -0.332 N 
ATOM     14  C   UNK d   1       3.222   9.001 -15.381  0.00  0.00     0.219 C 
ATOM     15  N   UNK d   1       4.199   9.816 -14.659  0.00  0.00    -0.358 N 
ATOM     16  H   UNK d   1       2.722  15.523 -11.363  0.00  0.00     0.279 HD
ATOM     17  H   UNK d   1       1.932   9.909 -16.855  0.00  0.00     0.165 HD
ATOM     18  H   UNK d   1       5.224   9.730 -14.761  0.00  0.00     0.162 HD
ENDROOT
BRANCH  14  19
ATOM     19  C   UNK d   1       2.528   8.087 -14.436  0.00  0.00    -0.012 A 
ATOM     20  C   UNK d   1       1.160   8.143 -14.279  0.00  0.00     0.033 A 
ATOM     21  C   UNK d   1       0.498   7.305 -13.408  0.00  0.00     0.051 A 
ATOM     22  C   UNK d   1       1.223   6.379 -12.668  0.00  0.00     0.157 A 
ATOM     23 Br   UNK d   1      -1.393   7.370 -13.181  0.00  0.00    -0.048 Br
ATOM     24  C   UNK d   1       2.592   6.301 -12.805  0.00  0.00     0.107 A 
ATOM     25  O   UNK d   1       0.575   5.522 -11.781  0.00  0.00    -0.188 OA
ATOM     26  C   UNK d   1       3.216   7.142 -13.672  0.00  0.00     0.050 A 
BRANCH  24  27
ATOM     27  O   UNK d   1       3.266   5.363 -12.046  0.00  0.00    -0.348 OA
BRANCH  27  28
ATOM     28  C   UNK d   1       3.575   4.063 -12.436  0.00  0.00     0.171 C 
ATOM     29  C   UNK d   1       4.885   4.005 -13.191  0.00  0.00     0.034 C 
ENDBRANCH  27  28
ENDBRANCH  24  27
ENDBRANCH  14  19
TORSDOF 3
ENDMDL
