MODEL 1
REMARK VINA RESULT:    -7.954      0.000      0.000
REMARK INTER + INTRA:          -9.629
REMARK INTER:                  -9.349
REMARK INTRA:                  -0.280
REMARK UNBOUND:                -0.280
REMARK  3 active torsions:
REMARK  status: ('A' for Active; 'I' for Inactive)
REMARK    1  A    between atoms: N_6  and  C_18 
REMARK    2  A    between atoms: C_8  and  C_9 
REMARK    3  A    between atoms: C_12  and  N_15 
ROOT
ATOM      1  S   UNK d   1      -0.957   8.017 -12.654  0.00  0.00    -0.087 SA
ATOM      2  C   UNK d   1      -0.634   6.321 -13.205  0.00  0.00     0.069 C 
ATOM      3  C   UNK d   1       0.826   6.226 -12.853  0.00  0.00     0.146 C 
ATOM      4  N   UNK d   1       1.501   7.479 -13.004  0.00  0.00    -0.324 N 
ATOM      5  C   UNK d   1       0.718   8.569 -12.952  0.00  0.00     0.154 A 
ATOM      6  N   UNK d   1       1.470   9.662 -13.132  0.00  0.00    -0.300 N 
ATOM      7  C   UNK d   1       2.755   9.277 -13.300  0.00  0.00     0.130 A 
ATOM      8  C   UNK d   1       2.792   7.905 -13.220  0.00  0.00     0.062 A 
ATOM      9  C   UNK d   1      -0.758   6.197 -14.704  0.00  0.00     0.023 C 
ENDROOT
BRANCH   8  10
ATOM     10  C   UNK d   1       3.991   7.113 -13.360  0.00  0.00    -0.008 A 
ATOM     11  C   UNK d   1       5.145   7.750 -13.848  0.00  0.00     0.016 A 
ATOM     12  C   UNK d   1       6.328   7.068 -13.968  0.00  0.00     0.037 A 
ATOM     13  C   UNK d   1       6.465   5.745 -13.627  0.00  0.00     0.102 A 
ATOM     14  C   UNK d   1       5.351   5.099 -13.147  0.00  0.00     0.037 A 
ATOM     15  C   UNK d   1       4.142   5.794 -13.023  0.00  0.00     0.016 A 
BRANCH  13  16
ATOM     16  N   UNK d   1       7.721   5.112 -13.782  0.00  0.00    -0.116 N 
ATOM     17  O   UNK d   1       8.654   5.688 -14.351  0.00  0.00    -0.532 OA
ATOM     18  O   UNK d   1       7.897   3.853 -13.295  0.00  0.00    -0.532 OA
ENDBRANCH  13  16
ENDBRANCH   8  10
BRANCH   6  19
ATOM     19  C   UNK d   1       1.018  11.010 -13.146  0.00  0.00     0.041 A 
ATOM     20  C   UNK d   1       1.824  12.055 -12.758  0.00  0.00     0.031 A 
ATOM     21  C   UNK d   1       1.411  13.370 -12.763  0.00  0.00     0.021 A 
ATOM     22  C   UNK d   1       0.132  13.677 -13.171  0.00  0.00     0.011 A 
ATOM     23  C   UNK d   1      -0.709  12.652 -13.568  0.00  0.00     0.021 A 
ATOM     24 Br   UNK d   1      -0.478  15.491 -13.191  0.00  0.00    -0.051 Br
ATOM     25  C   UNK d   1      -0.270  11.344 -13.555  0.00  0.00     0.031 A 
ENDBRANCH   6  19
TORSDOF 3
ENDMDL
