/Users/jonathanwahrer/Desktop/Msc/3_Semester/Drug_Design_Praktikum/waehrer_HTS_screening/HTS_experiment/out/docking_results/vina_output/6q9y/1206_docked.pdbqt
 OpenBabel03222219563D

 25 28  0  0  1  0  0  0  0  0999 V2000
   -0.9570    8.0170  -12.6540 S   0  0  0  0  0  0  0  0  0  0  0  0
   -0.6340    6.3210  -13.2050 C   0  0  2  0  0  3  0  0  0  0  0  0
    0.8260    6.2260  -12.8530 C   0  0  0  0  0  2  0  0  0  0  0  0
    1.5010    7.4790  -13.0040 N   0  0  0  0  0  0  0  0  0  0  0  0
    0.7180    8.5690  -12.9520 C   0  0  2  0  0  3  0  0  0  0  0  0
    1.4700    9.6620  -13.1320 N   0  0  0  0  0  0  0  0  0  0  0  0
    2.7550    9.2770  -13.3000 C   0  0  0  0  0  3  0  0  0  0  0  0
    2.7920    7.9050  -13.2200 C   0  0  0  0  0  0  0  0  0  0  0  0
   -0.7580    6.1970  -14.7040 C   0  0  0  0  0  1  0  0  0  0  0  0
    3.9910    7.1130  -13.3600 C   0  0  0  0  0  0  0  0  0  0  0  0
    5.1450    7.7500  -13.8480 C   0  0  0  0  0  3  0  0  0  0  0  0
    6.3280    7.0680  -13.9680 C   0  0  0  0  0  3  0  0  0  0  0  0
    6.4650    5.7450  -13.6270 C   0  0  0  0  0  0  0  0  0  0  0  0
    5.3510    5.0990  -13.1470 C   0  0  0  0  0  3  0  0  0  0  0  0
    4.1420    5.7940  -13.0230 C   0  0  0  0  0  3  0  0  0  0  0  0
    7.7210    5.1120  -13.7820 N   0  0  0  0  0  0  0  0  0  0  0  0
    8.6540    5.6880  -14.3510 O   0  0  0  0  0  0  0  0  0  0  0  0
    7.8970    3.8530  -13.2950 O   0  0  0  0  0  0  0  0  0  0  0  0
    1.0180   11.0100  -13.1460 C   0  0  0  0  0  0  0  0  0  0  0  0
    1.8240   12.0550  -12.7580 C   0  0  0  0  0  3  0  0  0  0  0  0
    1.4110   13.3700  -12.7630 C   0  0  0  0  0  3  0  0  0  0  0  0
    0.1320   13.6770  -13.1710 C   0  0  0  0  0  0  0  0  0  0  0  0
   -0.7090   12.6520  -13.5680 C   0  0  0  0  0  3  0  0  0  0  0  0
   -0.4780   15.4910  -13.1910 Br  0  0  0  0  0  0  0  0  0  0  0  0
   -0.2700   11.3440  -13.5550 C   0  0  0  0  0  3  0  0  0  0  0  0
  2  9  1  6  0  0  0
  2  3  1  0  0  0  0
  2  1  1  0  0  0  0
  4  5  1  0  0  0  0
  4  3  1  0  0  0  0
  5  1  1  1  0  0  0
  6  5  1  0  0  0  0
  7  8  2  0  0  0  0
  7  6  1  0  0  0  0
  8  4  1  0  0  0  0
 10  8  1  0  0  0  0
 10 15  1  0  0  0  0
 11 10  2  0  0  0  0
 12 11  1  0  0  0  0
 12 13  2  0  0  0  0
 13 14  1  0  0  0  0
 14 15  2  0  0  0  0
 16 13  1  0  0  0  0
 16 18  2  0  0  0  0
 17 16  2  0  0  0  0
 19  6  1  0  0  0  0
 19 20  1  0  0  0  0
 21 20  2  0  0  0  0
 22 21  1  0  0  0  0
 23 25  1  0  0  0  0
 23 22  2  0  0  0  0
 24 22  1  0  0  0  0
 25 19  2  0  0  0  0
M  END
>  <Pose>
1

>  <Score>
-7.954

$$$$
