MODEL 1
REMARK VINA RESULT:    -8.244      0.000      0.000
REMARK INTER + INTRA:         -10.392
REMARK INTER:                  -9.690
REMARK INTRA:                  -0.703
REMARK UNBOUND:                -0.703
REMARK  3 active torsions:
REMARK  status: ('A' for Active; 'I' for Inactive)
REMARK    1  A    between atoms: N_7  and  C_18 
REMARK    2  A    between atoms: C_8  and  C_10 
REMARK    3  A    between atoms: C_13  and  O_16 
ROOT
ATOM      1  S   UNK d   1       2.893  13.849 -12.498  0.00  0.00    -0.093 SA
ATOM      2  C   UNK d   1       2.712  15.606 -12.913  0.00  0.00     0.084 C 
ATOM      3  C   UNK d   1       1.237  15.856 -13.173  0.00  0.00     0.031 C 
ATOM      4  C   UNK d   1       0.398  15.182 -12.107  0.00  0.00     0.131 C 
ATOM      5  N   UNK d   1       0.206  13.806 -12.535  0.00  0.00    -0.335 N 
ATOM      6  C   UNK d   1       1.304  13.078 -12.751  0.00  0.00     0.154 A 
ATOM      7  N   UNK d   1       0.925  11.813 -13.148  0.00  0.00    -0.290 N 
ATOM      8  C   UNK d   1      -0.396  11.753 -13.178  0.00  0.00     0.067 A 
ATOM      9  C   UNK d   1      -0.832  13.018 -12.789  0.00  0.00     0.124 A 
ENDROOT
BRANCH   8  10
ATOM     10  C   UNK d   1      -1.295  10.663 -13.524  0.00  0.00    -0.007 A 
ATOM     11  C   UNK d   1      -2.571  10.959 -14.023  0.00  0.00     0.016 A 
ATOM     12  C   UNK d   1      -3.459   9.977 -14.365  0.00  0.00     0.037 A 
ATOM     13  C   UNK d   1      -3.172   8.637 -14.248  0.00  0.00     0.068 A 
ATOM     14  C   UNK d   1      -1.926   8.337 -13.760  0.00  0.00     0.037 A 
ATOM     15  C   UNK d   1      -1.000   9.327 -13.403  0.00  0.00     0.016 A 
BRANCH  13  16
ATOM     16  O   UNK d   1      -4.099   7.668 -14.606  0.00  0.00    -0.356 OA
ATOM     17  C   UNK d   1      -5.373   8.045 -15.095  0.00  0.00     0.210 C 
ENDBRANCH  13  16
ENDBRANCH   8  10
BRANCH   7  18
ATOM     18  C   UNK d   1       1.881  10.801 -13.452  0.00  0.00     0.042 A 
ATOM     19  C   UNK d   1       2.185  10.485 -14.765  0.00  0.00     0.031 A 
ATOM     20  C   UNK d   1       3.128   9.531 -15.093  0.00  0.00     0.021 A 
ATOM     21  C   UNK d   1       3.779   8.881 -14.064  0.00  0.00     0.011 A 
ATOM     22  C   UNK d   1       3.469   9.202 -12.759  0.00  0.00     0.021 A 
ATOM     23 Br   UNK d   1       5.106   7.539 -14.422  0.00  0.00    -0.051 Br
ATOM     24  C   UNK d   1       2.533  10.150 -12.409  0.00  0.00     0.031 A 
ENDBRANCH   7  18
TORSDOF 3
ENDMDL
