MODEL 1
REMARK VINA RESULT:    -8.197      0.000      0.000
REMARK INTER + INTRA:          -9.216
REMARK INTER:                  -9.875
REMARK INTRA:                   0.658
REMARK UNBOUND:                 0.658
REMARK  4 active torsions:
REMARK  status: ('A' for Active; 'I' for Inactive)
REMARK    1  A    between atoms: N_7  and  C_19 
REMARK    2  A    between atoms: C_8  and  O_10 
REMARK    3  A    between atoms: C_8  and  C_11 
REMARK    4  A    between atoms: C_14  and  O_17 
ROOT
ATOM      1  S   UNK d   1       1.458   7.637 -11.551  0.00  0.00    -0.094 SA
ATOM      2  C   UNK d   1      -0.372   7.567 -11.671  0.00  0.00     0.084 C 
ATOM      3  C   UNK d   1      -0.647   7.415 -13.169  0.00  0.00     0.030 C 
ATOM      4  C   UNK d   1      -0.215   8.709 -13.852  0.00  0.00     0.126 C 
ATOM      5  N   UNK d   1       1.203   8.610 -14.095  0.00  0.00    -0.356 N 
ATOM      6  C   UNK d   1       2.010   8.160 -13.169  0.00  0.00     0.148 C 
ATOM      7  N   UNK d   1       3.351   8.168 -13.726  0.00  0.00    -0.289 N 
ATOM      8  C   UNK d   1       3.316   9.366 -14.537  0.00  0.00     0.185 C 
ATOM      9  C   UNK d   1       2.003   8.924 -15.284  0.00  0.00     0.192 C 
ENDROOT
BRANCH   8  10
ATOM     10  O   UNK d   1       4.352   9.533 -15.400  0.00  0.00    -0.365 OA
ATOM     11  H   UNK d   1       4.033  10.092 -16.174  0.00  0.00     0.213 HD
ENDBRANCH   8  10
BRANCH   8  12
ATOM     12  C   UNK d   1       2.991  10.523 -13.694  0.00  0.00    -0.001 A 
ATOM     13  C   UNK d   1       1.907  11.350 -13.932  0.00  0.00     0.015 A 
ATOM     14  C   UNK d   1       1.681  12.458 -13.100  0.00  0.00     0.037 A 
ATOM     15  C   UNK d   1       2.484  12.758 -12.066  0.00  0.00     0.068 A 
ATOM     16  C   UNK d   1       3.597  11.935 -11.793  0.00  0.00     0.037 A 
ATOM     17  C   UNK d   1       3.785  10.853 -12.636  0.00  0.00     0.015 A 
BRANCH  15  18
ATOM     18  O   UNK d   1       2.292  13.869 -11.204  0.00  0.00    -0.356 OA
ATOM     19  C   UNK d   1       1.974  15.138 -11.736  0.00  0.00     0.210 C 
ENDBRANCH  15  18
ENDBRANCH   8  12
BRANCH   7  20
ATOM     20  C   UNK d   1       4.350   7.189 -13.550  0.00  0.00     0.040 A 
ATOM     21  C   UNK d   1       5.698   7.587 -13.720  0.00  0.00     0.031 A 
ATOM     22  C   UNK d   1       6.743   6.685 -13.620  0.00  0.00     0.021 A 
ATOM     23  C   UNK d   1       6.512   5.363 -13.353  0.00  0.00     0.011 A 
ATOM     24  C   UNK d   1       5.209   4.944 -13.183  0.00  0.00     0.021 A 
ATOM     25 Br   UNK d   1       7.919   4.078 -13.226  0.00  0.00    -0.051 Br
ATOM     26  C   UNK d   1       4.151   5.869 -13.284  0.00  0.00     0.031 A 
ENDBRANCH   7  20
TORSDOF 4
ENDMDL
