/Users/jonathanwahrer/Desktop/Msc/3_Semester/Drug_Design_Praktikum/waehrer_HTS_screening/HTS_experiment/out/docking_results/vina_output/6q9y/1219_docked.pdbqt
 OpenBabel03222219573D

 27 30  0  0  1  0  0  0  0  0999 V2000
    1.7900    6.6590  -12.2210 S   0  0  0  0  0  0  0  0  0  0  0  0
    0.1570    6.1320  -12.8890 C   0  0  0  0  0  2  0  0  0  0  0  0
   -0.1530    6.9450  -14.1340 C   0  0  0  0  0  2  0  0  0  0  0  0
    0.1360    8.4070  -13.9140 C   0  0  0  0  0  2  0  0  0  0  0  0
    1.5320    8.6560  -14.0790 N   0  0  2  0  0  0  0  0  0  0  0  0
    2.3600    9.6660  -14.7120 C   0  0  1  0  0  0  0  0  0  0  0  0
    3.6210    8.9010  -15.0690 C   0  0  0  0  0  2  0  0  0  0  0  0
    3.6260    7.8480  -14.0330 N   0  0  0  0  0  0  0  0  0  0  0  0
    2.4710    7.7290  -13.5110 C   0  0  1  0  0  3  0  0  0  0  0  0
    1.7540   10.2250  -15.8200 O   0  0  0  0  0  0  0  0  0  0  0  0
    2.2140   10.9740  -16.2240 H   0  0  0  0  0  0  0  0  0  0  0  0
    2.7350   10.7410  -13.7620 C   0  0  0  0  0  0  0  0  0  0  0  0
    1.8020   11.6910  -13.3980 C   0  0  0  0  0  3  0  0  0  0  0  0
    2.1990   12.6840  -12.5020 C   0  0  0  0  0  0  0  0  0  0  0  0
    3.4650   12.7170  -12.0010 C   0  0  0  0  0  3  0  0  0  0  0  0
    4.4090   11.7710  -12.3560 C   0  0  0  0  0  3  0  0  0  0  0  0
    4.0040   10.7790  -13.2550 C   0  0  0  0  0  3  0  0  0  0  0  0
    1.2470   13.6640  -12.1220 N   0  0  0  0  0  0  0  0  0  0  0  0
    0.0800   13.6500  -12.5570 O   0  0  0  0  0  0  0  0  0  0  0  0
    1.5730   14.6700  -11.2570 O   0  0  0  0  0  0  0  0  0  0  0  0
    4.7690    7.0700  -13.6910 C   0  0  0  0  0  0  0  0  0  0  0  0
    4.7620    5.7850  -13.2340 C   0  0  0  0  0  3  0  0  0  0  0  0
    5.9190    5.0770  -12.9370 C   0  0  0  0  0  3  0  0  0  0  0  0
    7.1490    5.6800  -13.1020 C   0  0  0  0  0  0  0  0  0  0  0  0
    7.1950    6.9900  -13.5650 C   0  0  0  0  0  3  0  0  0  0  0  0
    8.7980    4.7910  -12.7140 Br  0  0  0  0  0  0  0  0  0  0  0  0
    6.0230    7.6780  -13.8560 C   0  0  0  0  0  3  0  0  0  0  0  0
  2  1  1  0  0  0  0
  3  4  1  0  0  0  0
  3  2  1  0  0  0  0
  5  4  1  6  0  0  0
  5  9  1  0  0  0  0
  6 10  1  6  0  0  0
  6  5  1  0  0  0  0
  6 12  1  0  0  0  0
  7  6  1  0  0  0  0
  7  8  1  0  0  0  0
  8 21  1  0  0  0  0
  8  9  1  0  0  0  0
  9  1  1  1  0  0  0
 11 10  1  0  0  0  0
 12 13  2  0  0  0  0
 12 17  1  0  0  0  0
 13 14  1  0  0  0  0
 14 18  1  0  0  0  0
 14 15  2  0  0  0  0
 16 15  1  0  0  0  0
 17 16  2  0  0  0  0
 18 20  2  0  0  0  0
 19 18  2  0  0  0  0
 21 22  1  0  0  0  0
 22 23  2  0  0  0  0
 24 23  1  0  0  0  0
 24 26  1  0  0  0  0
 25 24  2  0  0  0  0
 27 21  2  0  0  0  0
 27 25  1  0  0  0  0
M  END
>  <Pose>
1

>  <Score>
-8.728

$$$$
