MODEL 1
REMARK VINA RESULT:    -8.728      0.000      0.000
REMARK INTER + INTRA:         -10.653
REMARK INTER:                 -10.514
REMARK INTRA:                  -0.139
REMARK UNBOUND:                -0.139
REMARK  4 active torsions:
REMARK  status: ('A' for Active; 'I' for Inactive)
REMARK    1  A    between atoms: C_6  and  O_17 
REMARK    2  A    between atoms: C_6  and  C_18 
REMARK    3  A    between atoms: N_8  and  C_10 
REMARK    4  A    between atoms: C_20  and  N_24 
ROOT
ATOM      1  S   UNK d   1       1.790   6.659 -12.221  0.00  0.00    -0.094 SA
ATOM      2  C   UNK d   1       0.157   6.132 -12.889  0.00  0.00     0.084 C 
ATOM      3  C   UNK d   1      -0.153   6.945 -14.134  0.00  0.00     0.030 C 
ATOM      4  C   UNK d   1       0.136   8.407 -13.914  0.00  0.00     0.129 C 
ATOM      5  N   UNK d   1       1.532   8.656 -14.079  0.00  0.00    -0.324 N 
ATOM      6  C   UNK d   1       2.360   9.666 -14.712  0.00  0.00     0.181 C 
ATOM      7  C   UNK d   1       3.621   8.901 -15.069  0.00  0.00     0.198 C 
ATOM      8  N   UNK d   1       3.626   7.848 -14.033  0.00  0.00    -0.323 N 
ATOM      9  C   UNK d   1       2.471   7.729 -13.511  0.00  0.00     0.147 C 
ENDROOT
BRANCH   6  10
ATOM     10  O   UNK d   1       1.754  10.225 -15.820  0.00  0.00    -0.365 OA
ATOM     11  H   UNK d   1       2.214  10.974 -16.224  0.00  0.00     0.213 HD
ENDBRANCH   6  10
BRANCH   6  12
ATOM     12  C   UNK d   1       2.735  10.741 -13.762  0.00  0.00     0.001 A 
ATOM     13  C   UNK d   1       1.802  11.691 -13.398  0.00  0.00     0.048 A 
ATOM     14  C   UNK d   1       2.199  12.684 -12.502  0.00  0.00     0.103 A 
ATOM     15  C   UNK d   1       3.465  12.717 -12.001  0.00  0.00     0.036 A 
ATOM     16  C   UNK d   1       4.409  11.771 -12.356  0.00  0.00     0.003 A 
ATOM     17  C   UNK d   1       4.004  10.779 -13.255  0.00  0.00     0.012 A 
BRANCH  14  18
ATOM     18  N   UNK d   1       1.247  13.664 -12.122  0.00  0.00    -0.116 N 
ATOM     19  O   UNK d   1       0.080  13.650 -12.557  0.00  0.00    -0.532 OA
ATOM     20  O   UNK d   1       1.573  14.670 -11.257  0.00  0.00    -0.532 OA
ENDBRANCH  14  18
ENDBRANCH   6  12
BRANCH   8  21
ATOM     21  C   UNK d   1       4.769   7.070 -13.691  0.00  0.00     0.036 A 
ATOM     22  C   UNK d   1       4.762   5.785 -13.234  0.00  0.00     0.031 A 
ATOM     23  C   UNK d   1       5.919   5.077 -12.937  0.00  0.00     0.021 A 
ATOM     24  C   UNK d   1       7.149   5.680 -13.102  0.00  0.00     0.011 A 
ATOM     25  C   UNK d   1       7.195   6.990 -13.565  0.00  0.00     0.021 A 
ATOM     26 Br   UNK d   1       8.798   4.791 -12.714  0.00  0.00    -0.051 Br
ATOM     27  C   UNK d   1       6.023   7.678 -13.856  0.00  0.00     0.031 A 
ENDBRANCH   8  21
TORSDOF 4
ENDMDL
