MODEL 1
REMARK VINA RESULT:    -8.775      0.000      0.000
REMARK INTER + INTRA:         -10.334
REMARK INTER:                 -10.571
REMARK INTRA:                   0.237
REMARK UNBOUND:                 0.237
REMARK  4 active torsions:
REMARK  status: ('A' for Active; 'I' for Inactive)
REMARK    1  A    between atoms: C_6  and  O_17 
REMARK    2  A    between atoms: C_6  and  C_18 
REMARK    3  A    between atoms: N_8  and  C_10 
REMARK    4  A    between atoms: C_21  and  N_24 
ROOT
ATOM      1  S   UNK d   1       0.139   8.728 -12.884  0.00  0.00    -0.094 SA
ATOM      2  C   UNK d   1       0.008   7.339 -11.687  0.00  0.00     0.084 C 
ATOM      3  C   UNK d   1       1.107   6.367 -11.793  0.00  0.00     0.030 C 
ATOM      4  C   UNK d   1       2.026   6.430 -12.944  0.00  0.00     0.129 C 
ATOM      5  N   UNK d   1       2.591   7.672 -13.281  0.00  0.00    -0.324 N 
ATOM      6  C   UNK d   1       3.815   8.077 -13.902  0.00  0.00     0.181 C 
ATOM      7  C   UNK d   1       4.078   9.380 -13.180  0.00  0.00     0.198 C 
ATOM      8  N   UNK d   1       2.735   9.884 -12.985  0.00  0.00    -0.323 N 
ATOM      9  C   UNK d   1       1.923   8.936 -13.032  0.00  0.00     0.147 C 
ENDROOT
BRANCH   6  10
ATOM     10  O   UNK d   1       3.566   8.409 -15.236  0.00  0.00    -0.365 OA
ATOM     11  H   UNK d   1       3.255   7.618 -15.706  0.00  0.00     0.213 HD
ENDBRANCH   6  10
BRANCH   6  12
ATOM     12  C   UNK d   1       4.950   7.142 -13.777  0.00  0.00    -0.001 A 
ATOM     13  C   UNK d   1       6.219   7.642 -14.051  0.00  0.00     0.014 A 
ATOM     14  C   UNK d   1       7.341   6.849 -13.959  0.00  0.00     0.037 A 
ATOM     15  C   UNK d   1       7.263   5.518 -13.591  0.00  0.00     0.102 A 
ATOM     16  C   UNK d   1       6.005   5.016 -13.315  0.00  0.00     0.037 A 
ATOM     17  C   UNK d   1       4.867   5.825 -13.410  0.00  0.00     0.014 A 
BRANCH  15  18
ATOM     18  N   UNK d   1       8.431   4.724 -13.501  0.00  0.00    -0.116 N 
ATOM     19  O   UNK d   1       8.660   3.948 -12.566  0.00  0.00    -0.532 OA
ATOM     20  O   UNK d   1       9.366   4.804 -14.501  0.00  0.00    -0.532 OA
ENDBRANCH  15  18
ENDBRANCH   6  12
BRANCH   8  21
ATOM     21  C   UNK d   1       2.397  11.262 -12.786  0.00  0.00     0.036 A 
ATOM     22  C   UNK d   1       3.312  12.081 -12.140  0.00  0.00     0.031 A 
ATOM     23  C   UNK d   1       3.043  13.426 -11.894  0.00  0.00     0.021 A 
ATOM     24  C   UNK d   1       1.847  13.985 -12.286  0.00  0.00     0.011 A 
ATOM     25  C   UNK d   1       0.931  13.186 -12.927  0.00  0.00     0.021 A 
ATOM     26 Br   UNK d   1       1.475  15.838 -11.927  0.00  0.00    -0.051 Br
ATOM     27  C   UNK d   1       1.229  11.837 -13.160  0.00  0.00     0.031 A 
ENDBRANCH   8  21
TORSDOF 4
ENDMDL
