/Users/jonathanwahrer/Desktop/Msc/3_Semester/Drug_Design_Praktikum/waehrer_HTS_screening/HTS_experiment/out/docking_results/vina_output/6q9y/1222_docked.pdbqt
 OpenBabel03222219573D

 24 27  0  0  1  0  0  0  0  0999 V2000
    1.9530    6.6810  -12.0180 S   0  0  0  0  0  0  0  0  0  0  0  0
    0.4910    5.7860  -12.7100 C   0  0  0  0  0  2  0  0  0  0  0  0
   -0.0220    6.4940  -13.9370 C   0  0  0  0  0  2  0  0  0  0  0  0
    0.2420    7.9840  -13.9390 C   0  0  0  0  0  2  0  0  0  0  0  0
    1.5940    8.3330  -14.1400 N   0  0  1  0  0  0  0  0  0  0  0  0
    2.4210    9.3460  -14.8190 C   0  0  1  0  0  0  0  0  0  0  0  0
    3.5530    8.4380  -15.2380 C   0  0  0  0  0  2  0  0  0  0  0  0
    3.7300    7.6280  -14.0420 N   0  0  0  0  0  0  0  0  0  0  0  0
    2.6120    7.5170  -13.4980 C   0  0  1  0  0  3  0  0  0  0  0  0
    1.8150    9.8930  -15.9080 O   0  0  0  0  0  0  0  0  0  0  0  0
    1.9920    9.4490  -16.7740 H   0  0  0  0  0  0  0  0  0  0  0  0
    2.9300   10.3580  -13.8350 C   0  0  0  0  0  0  0  0  0  0  0  0
    2.4120   10.4920  -12.5610 C   0  0  0  0  0  3  0  0  0  0  0  0
    2.9460   11.4510  -11.7100 C   0  0  0  0  0  3  0  0  0  0  0  0
    3.9880   12.2900  -12.0830 C   0  0  0  0  0  3  0  0  0  0  0  0
    4.5060   12.1630  -13.3430 C   0  0  0  0  0  3  0  0  0  0  0  0
    3.9710   11.2030  -14.2010 C   0  0  0  0  0  3  0  0  0  0  0  0
    4.9900    7.1170  -13.5570 C   0  0  0  0  0  0  0  0  0  0  0  0
    6.1260    7.8470  -13.4010 C   0  0  0  0  0  3  0  0  0  0  0  0
    7.3320    7.3050  -12.9750 C   0  0  0  0  0  3  0  0  0  0  0  0
    7.4070    5.9670  -12.6920 C   0  0  0  0  0  0  0  0  0  0  0  0
    6.2550    5.2200  -12.8480 C   0  0  0  0  0  3  0  0  0  0  0  0
    9.0310    5.1290  -12.1010 Br  0  0  0  0  0  0  0  0  0  0  0  0
    5.0700    5.7560  -13.2680 C   0  0  0  0  0  3  0  0  0  0  0  0
  2  1  1  0  0  0  0
  3  2  1  0  0  0  0
  4  3  1  0  0  0  0
  5  4  1  1  0  0  0
  5  9  1  0  0  0  0
  6 10  1  6  0  0  0
  6  5  1  0  0  0  0
  6 12  1  0  0  0  0
  7  6  1  0  0  0  0
  7  8  1  0  0  0  0
  8 18  1  0  0  0  0
  8  9  1  0  0  0  0
  9  1  1  1  0  0  0
 11 10  1  0  0  0  0
 12 13  1  0  0  0  0
 13 14  2  0  0  0  0
 15 14  1  0  0  0  0
 16 15  2  0  0  0  0
 17 12  2  0  0  0  0
 17 16  1  0  0  0  0
 18 19  2  0  0  0  0
 18 24  1  0  0  0  0
 19 20  1  0  0  0  0
 20 21  2  0  0  0  0
 21 23  1  0  0  0  0
 22 21  1  0  0  0  0
 24 22  2  0  0  0  0
M  END
>  <Pose>
1

>  <Score>
-7.150

$$$$
