MODEL 1
REMARK VINA RESULT:    -7.150      0.000      0.000
REMARK INTER + INTRA:          -8.489
REMARK INTER:                  -8.195
REMARK INTRA:                  -0.295
REMARK UNBOUND:                -0.295
REMARK  3 active torsions:
REMARK  status: ('A' for Active; 'I' for Inactive)
REMARK    1  A    between atoms: C_6  and  O_17 
REMARK    2  A    between atoms: C_6  and  C_18 
REMARK    3  A    between atoms: N_8  and  C_10 
ROOT
ATOM      1  S   UNK d   1       1.953   6.681 -12.018  0.00  0.00    -0.094 SA
ATOM      2  C   UNK d   1       0.491   5.786 -12.710  0.00  0.00     0.084 C 
ATOM      3  C   UNK d   1      -0.022   6.494 -13.937  0.00  0.00     0.030 C 
ATOM      4  C   UNK d   1       0.242   7.984 -13.939  0.00  0.00     0.129 C 
ATOM      5  N   UNK d   1       1.594   8.333 -14.140  0.00  0.00    -0.324 N 
ATOM      6  C   UNK d   1       2.421   9.346 -14.819  0.00  0.00     0.181 C 
ATOM      7  C   UNK d   1       3.553   8.438 -15.238  0.00  0.00     0.198 C 
ATOM      8  N   UNK d   1       3.730   7.628 -14.042  0.00  0.00    -0.323 N 
ATOM      9  C   UNK d   1       2.612   7.517 -13.498  0.00  0.00     0.147 C 
ENDROOT
BRANCH   6  10
ATOM     10  O   UNK d   1       1.815   9.893 -15.908  0.00  0.00    -0.365 OA
ATOM     11  H   UNK d   1       1.992   9.449 -16.774  0.00  0.00     0.213 HD
ENDBRANCH   6  10
BRANCH   6  12
ATOM     12  C   UNK d   1       2.930  10.358 -13.835  0.00  0.00    -0.002 A 
ATOM     13  C   UNK d   1       2.412  10.492 -12.561  0.00  0.00     0.012 A 
ATOM     14  C   UNK d   1       2.946  11.451 -11.710  0.00  0.00     0.001 A 
ATOM     15  C   UNK d   1       3.988  12.290 -12.083  0.00  0.00     0.000 A 
ATOM     16  C   UNK d   1       4.506  12.163 -13.343  0.00  0.00     0.001 A 
ATOM     17  C   UNK d   1       3.971  11.203 -14.201  0.00  0.00     0.012 A 
ENDBRANCH   6  12
BRANCH   8  18
ATOM     18  C   UNK d   1       4.990   7.117 -13.557  0.00  0.00     0.036 A 
ATOM     19  C   UNK d   1       6.126   7.847 -13.401  0.00  0.00     0.031 A 
ATOM     20  C   UNK d   1       7.332   7.305 -12.975  0.00  0.00     0.021 A 
ATOM     21  C   UNK d   1       7.407   5.967 -12.692  0.00  0.00     0.011 A 
ATOM     22  C   UNK d   1       6.255   5.220 -12.848  0.00  0.00     0.021 A 
ATOM     23 Br   UNK d   1       9.031   5.129 -12.101  0.00  0.00    -0.051 Br
ATOM     24  C   UNK d   1       5.070   5.756 -13.268  0.00  0.00     0.031 A 
ENDBRANCH   8  18
TORSDOF 3
ENDMDL
