MODEL 1
REMARK VINA RESULT:    -6.992      0.000      0.000
REMARK INTER + INTRA:          -8.930
REMARK INTER:                  -8.423
REMARK INTRA:                  -0.508
REMARK UNBOUND:                -0.508
REMARK  4 active torsions:
REMARK  status: ('A' for Active; 'I' for Inactive)
REMARK    1  A    between atoms: C_6  and  O_18 
REMARK    2  A    between atoms: C_6  and  C_19 
REMARK    3  A    between atoms: N_8  and  C_10 
REMARK    4  A    between atoms: C_13  and  O_16 
ROOT
ATOM      1  S   UNK d   1       2.042   6.521 -11.970  0.00  0.00    -0.094 SA
ATOM      2  C   UNK d   1       0.383   5.882 -12.440  0.00  0.00     0.084 C 
ATOM      3  C   UNK d   1      -0.330   7.059 -13.090  0.00  0.00     0.030 C 
ATOM      4  C   UNK d   1       0.265   7.412 -14.416  0.00  0.00     0.129 C 
ATOM      5  N   UNK d   1       1.619   7.873 -14.365  0.00  0.00    -0.324 N 
ATOM      6  C   UNK d   1       2.395   8.924 -15.029  0.00  0.00     0.181 C 
ATOM      7  C   UNK d   1       3.671   8.094 -15.259  0.00  0.00     0.198 C 
ATOM      8  N   UNK d   1       3.796   7.402 -13.989  0.00  0.00    -0.323 N 
ATOM      9  C   UNK d   1       2.627   7.277 -13.504  0.00  0.00     0.147 C 
ENDROOT
BRANCH   6  10
ATOM     10  O   UNK d   1       1.799   9.262 -16.222  0.00  0.00    -0.365 OA
ATOM     11  H   UNK d   1       2.357   9.856 -16.777  0.00  0.00     0.213 HD
ENDBRANCH   6  10
BRANCH   6  12
ATOM     12  C   UNK d   1       2.692  10.063 -14.143  0.00  0.00    -0.002 A 
ATOM     13  C   UNK d   1       3.947  10.555 -13.862  0.00  0.00     0.013 A 
ATOM     14  C   UNK d   1       4.118  11.641 -13.019  0.00  0.00     0.020 A 
ATOM     15  C   UNK d   1       3.036  12.247 -12.449  0.00  0.00     0.011 A 
ATOM     16  C   UNK d   1       1.773  11.767 -12.719  0.00  0.00     0.020 A 
ATOM     17 Br   UNK d   1       3.206  13.755 -11.270  0.00  0.00    -0.051 Br
ATOM     18  C   UNK d   1       1.617  10.691 -13.555  0.00  0.00     0.013 A 
ENDBRANCH   6  12
BRANCH   8  19
ATOM     19  C   UNK d   1       5.069   6.973 -13.456  0.00  0.00     0.036 A 
ATOM     20  C   UNK d   1       5.275   5.631 -13.152  0.00  0.00     0.032 A 
ATOM     21  C   UNK d   1       6.477   5.191 -12.641  0.00  0.00     0.039 A 
ATOM     22  C   UNK d   1       7.535   6.041 -12.401  0.00  0.00     0.068 A 
ATOM     23  C   UNK d   1       7.340   7.369 -12.698  0.00  0.00     0.039 A 
ATOM     24  C   UNK d   1       6.114   7.813 -13.218  0.00  0.00     0.032 A 
BRANCH  22  25
ATOM     25  O   UNK d   1       8.734   5.561 -11.886  0.00  0.00    -0.356 OA
ATOM     26  C   UNK d   1       9.977   6.195 -11.992  0.00  0.00     0.210 C 
ENDBRANCH  22  25
ENDBRANCH   8  19
TORSDOF 4
ENDMDL
