/Users/jonathanwahrer/Desktop/Msc/3_Semester/Drug_Design_Praktikum/waehrer_HTS_screening/HTS_experiment/out/docking_results/vina_output/6q9y/1226_docked.pdbqt
 OpenBabel03222219573D

 24 27  0  0  1  0  0  0  0  0999 V2000
    4.4080    7.6060  -13.9540 S   0  0  0  0  0  0  0  0  0  0  0  0
    4.8740    5.8860  -13.6120 C   0  0  0  0  0  2  0  0  0  0  0  0
    4.0340    5.4480  -12.4080 C   0  0  0  0  0  2  0  0  0  0  0  0
    2.5600    5.4380  -12.8410 C   0  0  0  0  0  2  0  0  0  0  0  0
    2.0470    6.8070  -12.7100 N   0  0  1  0  0  0  0  0  0  0  0  0
    0.8440    7.3440  -12.2190 C   0  0  2  0  0  0  0  0  0  0  0  0
    1.1240    8.8340  -12.0490 C   0  0  0  0  0  2  0  0  0  0  0  0
    2.3830    9.0320  -12.7000 N   0  0  0  0  0  0  0  0  0  0  0  0
    2.8550    7.9160  -13.0810 C   0  0  1  0  0  3  0  0  0  0  0  0
    0.6130    6.8550  -10.9140 O   0  0  0  0  0  0  0  0  0  0  0  0
   -0.2390    7.2660  -10.6130 H   0  0  0  0  0  0  0  0  0  0  0  0
   -0.3810    7.1800  -12.9990 C   0  0  0  0  0  0  0  0  0  0  0  0
   -1.1380    8.3320  -13.2090 C   0  0  0  0  0  3  0  0  0  0  0  0
   -2.3050    8.3580  -13.9510 C   0  0  0  0  0  3  0  0  0  0  0  0
   -2.7720    7.2070  -14.5240 C   0  0  0  0  0  0  0  0  0  0  0  0
   -2.0350    6.0540  -14.3270 C   0  0  0  0  0  3  0  0  0  0  0  0
   -4.3850    7.1780  -15.5810 Br  0  0  0  0  0  0  0  0  0  0  0  0
   -0.8610    6.0420  -13.5790 C   0  0  0  0  0  3  0  0  0  0  0  0
    2.9870   10.3300  -12.8190 C   0  0  0  0  0  0  0  0  0  0  0  0
    3.6740   10.6370  -13.9490 C   0  0  0  0  0  3  0  0  0  0  0  0
    4.2230   11.9120  -14.0520 C   0  0  0  0  0  3  0  0  0  0  0  0
    4.0960   12.8620  -13.0640 C   0  0  0  0  0  3  0  0  0  0  0  0
    3.3910   12.5020  -11.9330 C   0  0  0  0  0  3  0  0  0  0  0  0
    2.8360   11.2530  -11.7980 C   0  0  0  0  0  3  0  0  0  0  0  0
  1  2  1  0  0  0  0
  2  3  1  0  0  0  0
  4  3  1  0  0  0  0
  5  4  1  1  0  0  0
  5  6  1  0  0  0  0
  6  7  1  0  0  0  0
  6 10  1  1  0  0  0
  8  7  1  0  0  0  0
  9  1  1  1  0  0  0
  9  5  1  0  0  0  0
  9  8  1  0  0  0  0
 10 11  1  0  0  0  0
 12  6  1  0  0  0  0
 13 12  1  0  0  0  0
 14 13  2  0  0  0  0
 15 16  2  0  0  0  0
 15 14  1  0  0  0  0
 16 18  1  0  0  0  0
 17 15  1  0  0  0  0
 18 12  2  0  0  0  0
 19  8  1  0  0  0  0
 19 24  1  0  0  0  0
 20 19  2  0  0  0  0
 21 20  1  0  0  0  0
 21 22  2  0  0  0  0
 22 23  1  0  0  0  0
 23 24  2  0  0  0  0
M  END
>  <Pose>
1

>  <Score>
-8.170

$$$$
