MODEL 1
REMARK VINA RESULT:    -8.170      0.000      0.000
REMARK INTER + INTRA:          -9.451
REMARK INTER:                  -9.364
REMARK INTRA:                  -0.088
REMARK UNBOUND:                -0.088
REMARK  3 active torsions:
REMARK  status: ('A' for Active; 'I' for Inactive)
REMARK    1  A    between atoms: C_6  and  O_16 
REMARK    2  A    between atoms: C_6  and  C_17 
REMARK    3  A    between atoms: N_8  and  C_10 
ROOT
ATOM      1  S   UNK d   1       4.408   7.606 -13.954  0.00  0.00    -0.094 SA
ATOM      2  C   UNK d   1       4.874   5.886 -13.612  0.00  0.00     0.084 C 
ATOM      3  C   UNK d   1       4.034   5.448 -12.408  0.00  0.00     0.030 C 
ATOM      4  C   UNK d   1       2.560   5.438 -12.841  0.00  0.00     0.129 C 
ATOM      5  N   UNK d   1       2.047   6.807 -12.710  0.00  0.00    -0.324 N 
ATOM      6  C   UNK d   1       0.844   7.344 -12.219  0.00  0.00     0.181 C 
ATOM      7  C   UNK d   1       1.124   8.834 -12.049  0.00  0.00     0.198 C 
ATOM      8  N   UNK d   1       2.383   9.032 -12.700  0.00  0.00    -0.323 N 
ATOM      9  C   UNK d   1       2.855   7.916 -13.081  0.00  0.00     0.147 C 
ENDROOT
BRANCH   6  10
ATOM     10  O   UNK d   1       0.613   6.855 -10.914  0.00  0.00    -0.365 OA
ATOM     11  H   UNK d   1      -0.239   7.266 -10.613  0.00  0.00     0.213 HD
ENDBRANCH   6  10
BRANCH   6  12
ATOM     12  C   UNK d   1      -0.381   7.180 -12.999  0.00  0.00    -0.002 A 
ATOM     13  C   UNK d   1      -1.138   8.332 -13.209  0.00  0.00     0.013 A 
ATOM     14  C   UNK d   1      -2.305   8.358 -13.951  0.00  0.00     0.020 A 
ATOM     15  C   UNK d   1      -2.772   7.207 -14.524  0.00  0.00     0.011 A 
ATOM     16  C   UNK d   1      -2.035   6.054 -14.327  0.00  0.00     0.020 A 
ATOM     17 Br   UNK d   1      -4.385   7.178 -15.581  0.00  0.00    -0.051 Br
ATOM     18  C   UNK d   1      -0.861   6.042 -13.579  0.00  0.00     0.013 A 
ENDBRANCH   6  12
BRANCH   8  19
ATOM     19  C   UNK d   1       2.987  10.330 -12.819  0.00  0.00     0.036 A 
ATOM     20  C   UNK d   1       3.674  10.637 -13.949  0.00  0.00     0.029 A 
ATOM     21  C   UNK d   1       4.223  11.912 -14.052  0.00  0.00     0.002 A 
ATOM     22  C   UNK d   1       4.096  12.862 -13.064  0.00  0.00     0.000 A 
ATOM     23  C   UNK d   1       3.391  12.502 -11.933  0.00  0.00     0.002 A 
ATOM     24  C   UNK d   1       2.836  11.253 -11.798  0.00  0.00     0.029 A 
ENDBRANCH   8  19
TORSDOF 3
ENDMDL
