MODEL 1
REMARK VINA RESULT:    -7.446      0.000      0.000
REMARK INTER + INTRA:         -12.172
REMARK INTER:                 -11.146
REMARK INTRA:                  -1.026
REMARK UNBOUND:                -1.026
REMARK  9 active torsions:
REMARK  status: ('A' for Active; 'I' for Inactive)
REMARK    1  A    between atoms: C_5  and  S_6 
REMARK    2  A    between atoms: S_6  and  C_7 
REMARK    3  A    between atoms: C_7  and  C_8 
REMARK    4  A    between atoms: N_9  and  C_28 
REMARK    5  A    between atoms: C_12  and  C_13 
REMARK       I    between atoms: C_13  and  N_15 
REMARK    6  A    between atoms: N_15  and  N_16 
REMARK    7  A    between atoms: C_17  and  C_18 
REMARK    8  A    between atoms: C_22  and  O_24 
REMARK    9  A    between atoms: C_32  and  N_33 
ROOT
ATOM      1  C   UNK d   1       1.687  11.569 -13.173  0.00  0.00     0.086 A 
ATOM      2  N   UNK d   1       1.670  12.794 -12.633  0.00  0.00    -0.192 N 
ATOM      3  N   UNK d   1       2.781  12.871 -11.880  0.00  0.00    -0.058 NA
ATOM      4  N   UNK d   1       3.457  11.780 -11.934  0.00  0.00    -0.124 NA
ATOM      5  C   UNK d   1       2.823  10.868 -12.756  0.00  0.00     0.175 A 
ENDROOT
BRANCH   5   6
ATOM      6  C   UNK d   1       3.333   9.551 -13.039  0.00  0.00     0.294 C 
ATOM      7  O   UNK d   1       2.733   8.562 -12.460  0.00  0.00    -0.264 OA
ATOM      8  N   UNK d   1       4.397   9.191 -13.860  0.00  0.00    -0.242 N 
ATOM      9  H   UNK d   1       5.023   9.801 -14.413  0.00  0.00     0.192 HD
BRANCH   8  10
ATOM     10  N   UNK d   1       4.745   7.803 -14.011  0.00  0.00    -0.183 NA
ATOM     11  C   UNK d   1       5.716   7.279 -13.374  0.00  0.00     0.150 C 
BRANCH  11  12
ATOM     12  C   UNK d   1       6.100   5.880 -13.498  0.00  0.00    -0.013 A 
ATOM     13  C   UNK d   1       5.162   4.876 -13.580  0.00  0.00     0.035 A 
ATOM     14  C   UNK d   1       5.510   3.547 -13.704  0.00  0.00     0.051 A 
ATOM     15  C   UNK d   1       6.826   3.166 -13.750  0.00  0.00     0.157 A 
ATOM     16 Br   UNK d   1       4.170   2.189 -13.815  0.00  0.00    -0.048 Br
ATOM     17  C   UNK d   1       7.810   4.164 -13.669  0.00  0.00     0.106 A 
ATOM     18  O   UNK d   1       7.153   1.825 -13.874  0.00  0.00    -0.188 OA
ATOM     19  C   UNK d   1       7.430   5.483 -13.545  0.00  0.00     0.052 A 
BRANCH  17  20
ATOM     20  O   UNK d   1       9.109   3.713 -13.721  0.00  0.00    -0.353 OA
ATOM     21  C   UNK d   1       9.974   3.826 -14.823  0.00  0.00     0.210 C 
ENDBRANCH  17  20
ENDBRANCH  11  12
ENDBRANCH   8  10
ENDBRANCH   5   6
BRANCH   1  22
ATOM     22  C   UNK d   1       0.702  10.995 -14.103  0.00  0.00     0.143 C 
BRANCH  22  23
ATOM     23  S   UNK d   1      -0.672  10.113 -13.391  0.00  0.00    -0.098 SA
BRANCH  23  24
ATOM     24  C   UNK d   1      -0.404   8.346 -13.331  0.00  0.00     0.125 C 
ATOM     25  S   UNK d   1      -0.259   7.450 -11.785  0.00  0.00    -0.102 SA
ATOM     26  C   UNK d   1       0.212   5.863 -12.539  0.00  0.00     0.103 C 
ATOM     27  C   UNK d   1      -0.079   6.168 -13.973  0.00  0.00     0.161 C 
ATOM     28  N   UNK d   1      -0.282   7.502 -14.228  0.00  0.00    -0.275 NA
ENDBRANCH  23  24
ENDBRANCH  22  23
ENDBRANCH   1  22
BRANCH   2  29
ATOM     29  C   UNK d   1       0.765  13.887 -12.766  0.00  0.00     0.237 A 
ATOM     30  N   UNK d   1      -0.537  13.859 -13.117  0.00  0.00    -0.081 NA
ATOM     31  O   UNK d   1      -1.063  15.026 -13.114  0.00  0.00    -0.103 OA
ATOM     32  N   UNK d   1      -0.150  15.877 -12.766  0.00  0.00    -0.075 NA
ATOM     33  C   UNK d   1       1.026  15.220 -12.531  0.00  0.00     0.300 A 
BRANCH  33  34
ATOM     34  N   UNK d   1       2.244  15.802 -12.113  0.00  0.00    -0.026 N 
ATOM     35  H   UNK d   1       2.096  16.842 -12.029  0.00  0.00     0.283 HD
ATOM     36  H   UNK d   1       3.052  15.604 -12.730  0.00  0.00     0.283 HD
ATOM     37  H   UNK d   1       2.467  15.460 -11.138  0.00  0.00     0.283 HD
ENDBRANCH  33  34
ENDBRANCH   2  29
TORSDOF 9
ENDMDL
