MODEL 1
REMARK VINA RESULT:    -4.164      0.000      0.000
REMARK INTER + INTRA:          -4.336
REMARK INTER:                  -4.894
REMARK INTRA:                   0.557
REMARK UNBOUND:                 0.557
REMARK  3 active torsions:
REMARK  status: ('A' for Active; 'I' for Inactive)
REMARK    1  A    between atoms: C_9  and  C_12 
REMARK    2  A    between atoms: C_12  and  C_13 
REMARK    3  A    between atoms: C_12  and  C_24 
ROOT
ATOM      1  C   UNK d   1      -0.005   9.817 -13.123  0.00  0.00     0.063 C 
ENDROOT
BRANCH   1   2
ATOM      2  C   UNK d   1       0.443  10.755 -14.189  0.00  0.00     0.182 C 
ATOM      3  C   UNK d   1      -0.088  12.103 -13.849  0.00  0.00     0.259 C 
ATOM      4  N   UNK d   1       0.620  12.855 -12.844  0.00  0.00    -0.188 NA
ATOM      5  O   UNK d   1      -1.112  12.536 -14.433  0.00  0.00    -0.270 OA
ATOM      6  C   UNK d   1       1.831  12.636 -12.553  0.00  0.00     0.174 C 
ATOM      7  S   UNK d   1       2.958  13.374 -11.389  0.00  0.00    -0.090 SA
ATOM      8  N   UNK d   1       2.577  11.646 -13.227  0.00  0.00    -0.295 N 
ATOM      9  C   UNK d   1       4.477  12.811 -12.295  0.00  0.00     0.103 C 
ATOM     10  C   UNK d   1       3.930  11.491 -12.774  0.00  0.00     0.144 C 
ATOM     11  C   UNK d   1       1.917  10.882 -14.269  0.00  0.00     0.239 C 
ATOM     12  O   UNK d   1       2.633  10.381 -15.169  0.00  0.00    -0.272 OA
ENDBRANCH   1   2
BRANCH   1  13
ATOM     13  C   UNK d   1       0.742   8.506 -13.109  0.00  0.00     0.182 C 
ATOM     14  C   UNK d   1       0.401   7.601 -14.218  0.00  0.00     0.239 C 
ATOM     15  O   UNK d   1       0.867   7.824 -15.390  0.00  0.00    -0.272 OA
ATOM     16  N   UNK d   1      -0.463   6.459 -13.990  0.00  0.00    -0.295 N 
ATOM     17  C   UNK d   1      -1.072   5.632 -14.994  0.00  0.00     0.144 C 
ATOM     18  C   UNK d   1      -0.736   6.078 -12.657  0.00  0.00     0.174 C 
ATOM     19  C   UNK d   1      -2.391   5.085 -14.508  0.00  0.00     0.103 C 
ATOM     20  S   UNK d   1      -1.843   4.676 -12.785  0.00  0.00    -0.090 SA
ATOM     21  N   UNK d   1      -0.253   6.692 -11.648  0.00  0.00    -0.188 NA
ATOM     22  C   UNK d   1       0.611   7.831 -11.794  0.00  0.00     0.259 C 
ATOM     23  O   UNK d   1       1.241   8.224 -10.780  0.00  0.00    -0.270 OA
ENDBRANCH   1  13
BRANCH   1  24
ATOM     24  C   UNK d   1      -1.468   9.626 -13.233  0.00  0.00    -0.050 A 
ATOM     25  C   UNK d   1      -2.018   8.931 -14.303  0.00  0.00     0.026 A 
ATOM     26  C   UNK d   1      -3.380   8.744 -14.413  0.00  0.00     0.011 A 
ATOM     27  C   UNK d   1      -4.232   9.246 -13.455  0.00  0.00     0.019 A 
ATOM     28 Br   UNK d   1      -4.144   7.790 -15.879  0.00  0.00    -0.051 Br
ATOM     29  C   UNK d   1      -3.691   9.927 -12.407  0.00  0.00     0.002 A 
ATOM     30  C   UNK d   1      -2.331  10.123 -12.283  0.00  0.00     0.007 A 
ENDBRANCH   1  24
TORSDOF 3
ENDMDL
