/Users/jonathanwahrer/Desktop/Msc/3_Semester/Drug_Design_Praktikum/waehrer_HTS_screening/HTS_experiment/out/docking_results/vina_output/6q9y/1237_docked.pdbqt
 OpenBabel03222219583D

 30 34  0  0  1  0  0  0  0  0999 V2000
    2.0370    9.0000  -12.6570 C   0  0  2  0  0  3  0  0  0  0  0  0
    2.3600    8.3410  -13.9320 C   0  0  1  0  0  3  0  0  0  0  0  0
    3.0360    9.0060  -15.0100 C   0  0  0  0  0  0  0  0  0  0  0  0
    4.4870    8.9130  -15.0400 N   0  0  0  0  0  0  0  0  0  0  0  0
    2.5670    9.6730  -15.9650 O   0  0  0  0  0  0  0  0  0  0  0  0
    5.0940    7.9140  -14.4830 C   0  0  0  0  0  0  0  0  0  0  0  0
    6.8550    7.5100  -14.3480 S   0  0  0  0  0  0  0  0  0  0  0  0
    4.4410    6.8800  -13.7800 N   0  0  0  0  0  0  0  0  0  0  0  0
    6.6330    6.3500  -12.9300 C   0  0  0  0  0  2  0  0  0  0  0  0
    5.2580    5.8550  -13.2510 C   0  0  0  0  0  2  0  0  0  0  0  0
    3.0010    6.9920  -13.7050 C   0  0  0  0  0  0  0  0  0  0  0  0
    2.3120    5.9860  -13.4560 O   0  0  0  0  0  0  0  0  0  0  0  0
    0.8450    8.6430  -11.8780 C   0  0  1  0  0  3  0  0  0  0  0  0
   -0.3600    8.7560  -12.8120 C   0  0  0  0  0  0  0  0  0  0  0  0
   -0.8410    9.8810  -13.0760 O   0  0  0  0  0  0  0  0  0  0  0  0
   -0.9420    7.5650  -13.3920 N   0  0  0  0  0  0  0  0  0  0  0  0
   -1.8210    7.4870  -14.5070 C   0  0  0  0  0  2  0  0  0  0  0  0
   -0.6250    6.3300  -12.7760 C   0  0  0  0  0  0  0  0  0  0  0  0
   -1.6590    6.1810  -15.2440 C   0  0  0  0  0  2  0  0  0  0  0  0
   -1.4660    5.0960  -13.7520 S   0  0  0  0  0  0  0  0  0  0  0  0
    0.1290    6.2130  -11.7550 N   0  0  0  0  0  0  0  0  0  0  0  0
    0.7190    7.4050  -11.1560 C   0  0  0  0  0  0  0  0  0  0  0  0
    1.0950    7.2680   -9.9770 O   0  0  0  0  0  0  0  0  0  0  0  0
    2.3120   10.4880  -12.6910 C   0  0  0  0  0  0  0  0  0  0  0  0
    3.5230   10.9930  -12.2830 C   0  0  0  0  0  3  0  0  0  0  0  0
    3.7330   12.3480  -12.3230 C   0  0  0  0  0  3  0  0  0  0  0  0
    2.7920   13.2300  -12.7510 C   0  0  0  0  0  0  0  0  0  0  0  0
    1.5710   12.7560  -13.1650 C   0  0  0  0  0  3  0  0  0  0  0  0
    3.0940   15.1240  -12.8040 Br  0  0  0  0  0  0  0  0  0  0  0  0
    1.3580   11.3780  -13.1240 C   0  0  0  0  0  3  0  0  0  0  0  0
  1 24  1  6  0  0  0
  2 11  1  0  0  0  0
  2  1  1  1  0  0  0
  3  2  1  0  0  0  0
  4  3  1  0  0  0  0
  4  6  2  0  0  0  0
  5  3  2  0  0  0  0
  6  7  1  0  0  0  0
  6  8  1  0  0  0  0
  7  9  1  0  0  0  0
  8 11  1  0  0  0  0
  8 10  1  0  0  0  0
 10  9  1  0  0  0  0
 11 12  2  0  0  0  0
 13  1  1  6  0  0  0
 13 22  1  0  0  0  0
 14 13  1  0  0  0  0
 15 14  2  0  0  0  0
 16 14  1  0  0  0  0
 16 18  1  0  0  0  0
 17 16  1  0  0  0  0
 18 21  2  0  0  0  0
 19 17  1  0  0  0  0
 19 20  1  0  0  0  0
 20 18  1  0  0  0  0
 21 22  1  0  0  0  0
 22 23  2  0  0  0  0
 24 25  1  0  0  0  0
 26 25  2  0  0  0  0
 27 26  1  0  0  0  0
 28 30  1  0  0  0  0
 28 27  2  0  0  0  0
 29 27  1  0  0  0  0
 30 24  2  0  0  0  0
M  END
>  <Pose>
1

>  <Score>
-7.073

$$$$
