MODEL 1
REMARK VINA RESULT:    -7.073      0.000      0.000
REMARK INTER + INTRA:          -7.495
REMARK INTER:                  -8.314
REMARK INTRA:                   0.819
REMARK UNBOUND:                 0.819
REMARK  3 active torsions:
REMARK  status: ('A' for Active; 'I' for Inactive)
REMARK    1  A    between atoms: C_9  and  C_12 
REMARK    2  A    between atoms: C_12  and  C_13 
REMARK    3  A    between atoms: C_12  and  C_24 
ROOT
ATOM      1  C   UNK d   1       2.037   9.000 -12.657  0.00  0.00     0.063 C 
ENDROOT
BRANCH   1   2
ATOM      2  C   UNK d   1       2.360   8.341 -13.932  0.00  0.00     0.182 C 
ATOM      3  C   UNK d   1       3.036   9.006 -15.010  0.00  0.00     0.259 C 
ATOM      4  N   UNK d   1       4.487   8.913 -15.040  0.00  0.00    -0.188 NA
ATOM      5  O   UNK d   1       2.567   9.673 -15.965  0.00  0.00    -0.270 OA
ATOM      6  C   UNK d   1       5.094   7.914 -14.483  0.00  0.00     0.174 C 
ATOM      7  S   UNK d   1       6.855   7.510 -14.348  0.00  0.00    -0.090 SA
ATOM      8  N   UNK d   1       4.441   6.880 -13.780  0.00  0.00    -0.295 N 
ATOM      9  C   UNK d   1       6.633   6.350 -12.930  0.00  0.00     0.103 C 
ATOM     10  C   UNK d   1       5.258   5.855 -13.251  0.00  0.00     0.144 C 
ATOM     11  C   UNK d   1       3.001   6.992 -13.705  0.00  0.00     0.239 C 
ATOM     12  O   UNK d   1       2.312   5.986 -13.456  0.00  0.00    -0.272 OA
ENDBRANCH   1   2
BRANCH   1  13
ATOM     13  C   UNK d   1       0.845   8.643 -11.878  0.00  0.00     0.182 C 
ATOM     14  C   UNK d   1      -0.360   8.756 -12.812  0.00  0.00     0.239 C 
ATOM     15  O   UNK d   1      -0.841   9.881 -13.076  0.00  0.00    -0.272 OA
ATOM     16  N   UNK d   1      -0.942   7.565 -13.392  0.00  0.00    -0.295 N 
ATOM     17  C   UNK d   1      -1.821   7.487 -14.507  0.00  0.00     0.144 C 
ATOM     18  C   UNK d   1      -0.625   6.330 -12.776  0.00  0.00     0.174 C 
ATOM     19  C   UNK d   1      -1.659   6.181 -15.244  0.00  0.00     0.103 C 
ATOM     20  S   UNK d   1      -1.466   5.096 -13.752  0.00  0.00    -0.090 SA
ATOM     21  N   UNK d   1       0.129   6.213 -11.755  0.00  0.00    -0.188 NA
ATOM     22  C   UNK d   1       0.719   7.405 -11.156  0.00  0.00     0.259 C 
ATOM     23  O   UNK d   1       1.095   7.268  -9.977  0.00  0.00    -0.270 OA
ENDBRANCH   1  13
BRANCH   1  24
ATOM     24  C   UNK d   1       2.312  10.488 -12.691  0.00  0.00    -0.051 A 
ATOM     25  C   UNK d   1       3.523  10.993 -12.283  0.00  0.00     0.009 A 
ATOM     26  C   UNK d   1       3.733  12.348 -12.323  0.00  0.00     0.019 A 
ATOM     27  C   UNK d   1       2.792  13.230 -12.751  0.00  0.00     0.011 A 
ATOM     28  C   UNK d   1       1.571  12.756 -13.165  0.00  0.00     0.019 A 
ATOM     29 Br   UNK d   1       3.094  15.124 -12.804  0.00  0.00    -0.051 Br
ATOM     30  C   UNK d   1       1.358  11.378 -13.124  0.00  0.00     0.009 A 
ENDBRANCH   1  24
TORSDOF 3
ENDMDL
