MODEL 1
REMARK VINA RESULT:    -6.990      0.000      0.000
REMARK INTER + INTRA:          -8.177
REMARK INTER:                  -7.807
REMARK INTRA:                  -0.369
REMARK UNBOUND:                -0.369
REMARK  2 active torsions:
REMARK  status: ('A' for Active; 'I' for Inactive)
REMARK    1  A    between atoms: C_4  and  C_7 
REMARK    2  A    between atoms: C_14  and  C_15 
ROOT
ATOM      1  S   UNK d   1      -1.237   5.382 -13.237  0.00  0.00    -0.025 SA
ATOM      2  C   UNK d   1       0.356   5.782 -12.736  0.00  0.00     0.219 A 
ATOM      3  N   UNK d   1       0.489   7.005 -13.247  0.00  0.00    -0.184 N 
ATOM      4  C   UNK d   1       1.758   7.386 -12.876  0.00  0.00     0.205 A 
ATOM      5  N   UNK d   1       2.329   6.407 -12.176  0.00  0.00    -0.125 NA
ATOM      6  N   UNK d   1       1.491   5.396 -12.068  0.00  0.00    -0.120 NA
ATOM      7  N   UNK d   1      -0.479   7.512 -13.898  0.00  0.00    -0.154 NA
ATOM      8  C   UNK d   1      -1.603   6.846 -14.073  0.00  0.00     0.153 A 
ENDROOT
BRANCH   8   9
ATOM      9  C   UNK d   1      -2.830   7.228 -14.779  0.00  0.00     0.133 A 
ATOM     10  N   UNK d   1      -3.482   6.507 -15.698  0.00  0.00    -0.171 NA
ATOM     11  N   UNK d   1      -4.560   7.191 -16.113  0.00  0.00    -0.287 N 
ATOM     12  C   UNK d   1      -4.606   8.367 -15.456  0.00  0.00     0.131 A 
ATOM     13  H   UNK d   1      -5.241   6.851 -16.830  0.00  0.00     0.188 HD
ATOM     14  C   UNK d   1      -3.499   8.389 -14.603  0.00  0.00     0.061 A 
ATOM     15 Br   UNK d   1      -3.090   9.823 -13.450  0.00  0.00    -0.047 Br
ENDBRANCH   8   9
BRANCH   4  16
ATOM     16  C   UNK d   1       2.407   8.674 -13.194  0.00  0.00     0.123 A 
ATOM     17  N   UNK d   1       2.338   9.716 -12.345  0.00  0.00    -0.254 NA
ATOM     18  C   UNK d   1       2.935  10.890 -12.648  0.00  0.00     0.136 A 
ATOM     19  C   UNK d   1       3.620  11.035 -13.823  0.00  0.00     0.135 A 
ATOM     20  N   UNK d   1       3.681   9.993 -14.654  0.00  0.00    -0.269 NA
ATOM     21  C   UNK d   1       3.093   8.809 -14.377  0.00  0.00     0.151 A 
ENDBRANCH   4  16
TORSDOF 2
ENDMDL
