/Users/jonathanwahrer/Desktop/Msc/3_Semester/Drug_Design_Praktikum/waehrer_HTS_screening/HTS_experiment/out/docking_results/vina_output/6q9y/1248_docked.pdbqt
 OpenBabel03222219583D

 21 24  0  0  0  0  0  0  0  0999 V2000
   -1.2370    5.3820  -13.2370 S   0  0  0  0  0  0  0  0  0  0  0  0
    0.3560    5.7820  -12.7360 C   0  0  0  0  0  0  0  0  0  0  0  0
    0.4890    7.0050  -13.2470 N   0  0  0  0  0  0  0  0  0  0  0  0
    1.7580    7.3860  -12.8760 C   0  0  0  0  0  0  0  0  0  0  0  0
    2.3290    6.4070  -12.1760 N   0  0  0  0  0  0  0  0  0  0  0  0
    1.4910    5.3960  -12.0680 N   0  0  0  0  0  0  0  0  0  0  0  0
   -0.4790    7.5120  -13.8980 N   0  0  0  0  0  0  0  0  0  0  0  0
   -1.6030    6.8460  -14.0730 C   0  0  0  0  0  0  0  0  0  0  0  0
   -2.8300    7.2280  -14.7790 C   0  0  0  0  0  0  0  0  0  0  0  0
   -3.4820    6.5070  -15.6980 N   0  0  0  0  0  0  0  0  0  0  0  0
   -4.5600    7.1910  -16.1130 N   0  0  0  0  0  0  0  0  0  0  0  0
   -4.6060    8.3670  -15.4560 C   0  0  0  0  0  3  0  0  0  0  0  0
   -5.2410    6.8510  -16.8300 H   0  0  0  0  0  0  0  0  0  0  0  0
   -3.4990    8.3890  -14.6030 C   0  0  0  0  0  0  0  0  0  0  0  0
   -3.0900    9.8230  -13.4500 Br  0  0  0  0  0  0  0  0  0  0  0  0
    2.4070    8.6740  -13.1940 C   0  0  0  0  0  0  0  0  0  0  0  0
    2.3380    9.7160  -12.3450 N   0  0  0  0  0  0  0  0  0  0  0  0
    2.9350   10.8900  -12.6480 C   0  0  0  0  0  3  0  0  0  0  0  0
    3.6200   11.0350  -13.8230 C   0  0  0  0  0  3  0  0  0  0  0  0
    3.6810    9.9930  -14.6540 N   0  0  0  0  0  0  0  0  0  0  0  0
    3.0930    8.8090  -14.3770 C   0  0  0  0  0  3  0  0  0  0  0  0
  1  2  1  0  0  0  0
  2  6  2  0  0  0  0
  3  4  1  0  0  0  0
  3  2  1  0  0  0  0
  4  5  2  0  0  0  0
  5  6  1  0  0  0  0
  7  3  1  0  0  0  0
  8  7  2  0  0  0  0
  8  1  1  0  0  0  0
  9 14  1  0  0  0  0
  9  8  1  0  0  0  0
 10  9  2  0  0  0  0
 11 10  1  0  0  0  0
 11 12  1  0  0  0  0
 12 14  2  0  0  0  0
 13 11  1  0  0  0  0
 14 15  1  0  0  0  0
 16  4  1  0  0  0  0
 16 17  1  0  0  0  0
 18 17  2  0  0  0  0
 19 18  1  0  0  0  0
 20 21  1  0  0  0  0
 20 19  2  0  0  0  0
 21 16  2  0  0  0  0
M  END
>  <Pose>
1

>  <Score>
-6.990

$$$$
