MODEL 1
REMARK VINA RESULT:    -6.734      0.000      0.000
REMARK INTER + INTRA:          -4.925
REMARK INTER:                  -7.915
REMARK INTRA:                   2.989
REMARK UNBOUND:                 2.989
REMARK  3 active torsions:
REMARK  status: ('A' for Active; 'I' for Inactive)
REMARK    1  A    between atoms: C_6  and  C_13 
REMARK    2  A    between atoms: C_13  and  C_14 
REMARK    3  A    between atoms: C_13  and  C_26 
ROOT
ATOM      1  C   UNK d   1       2.489   7.867 -13.057  0.00  0.00     0.063 C 
ENDROOT
BRANCH   1   2
ATOM      2  C   UNK d   1       1.953   8.479 -14.321  0.00  0.00     0.184 C 
ATOM      3  C   UNK d   1       3.138   8.927 -15.174  0.00  0.00     0.259 C 
ATOM      4  N   UNK d   1       3.947   9.995 -14.630  0.00  0.00    -0.186 NA
ATOM      5  O   UNK d   1       3.326   8.362 -16.250  0.00  0.00    -0.270 OA
ATOM      6  C   UNK d   1       3.407  10.873 -13.849  0.00  0.00     0.200 A 
ATOM      7  S   UNK d   1       4.105  12.291 -13.020  0.00  0.00    -0.032 SA
ATOM      8  N   UNK d   1       2.039  10.858 -13.498  0.00  0.00    -0.197 N 
ATOM      9  C   UNK d   1       2.579  12.807 -12.249  0.00  0.00     0.083 A 
ATOM     10  N   UNK d   1       1.617  11.863 -12.670  0.00  0.00    -0.283 N 
ATOM     11  C   UNK d   1       2.420  13.861 -11.453  0.00  0.00     0.052 C 
ATOM     12  H   UNK d   1       0.597  11.975 -12.332  0.00  0.00     0.188 HD
ATOM     13  C   UNK d   1       1.251   9.778 -14.075  0.00  0.00     0.259 C 
ATOM     14  O   UNK d   1       0.030   9.968 -14.347  0.00  0.00    -0.270 OA
ENDBRANCH   1   2
BRANCH   1  15
ATOM     15  C   UNK d   1       1.643   6.872 -12.369  0.00  0.00     0.184 C 
ATOM     16  C   UNK d   1       0.684   6.123 -13.167  0.00  0.00     0.259 C 
ATOM     17  O   UNK d   1       0.940   4.920 -13.512  0.00  0.00    -0.270 OA
ATOM     18  N   UNK d   1      -0.577   6.707 -13.587  0.00  0.00    -0.197 N 
ATOM     19  N   UNK d   1      -1.351   6.353 -14.645  0.00  0.00    -0.283 N 
ATOM     20  C   UNK d   1      -1.042   7.765 -12.780  0.00  0.00     0.200 A 
ATOM     21  C   UNK d   1      -2.554   7.078 -14.842  0.00  0.00     0.083 A 
ATOM     22  H   UNK d   1      -1.124   5.564 -15.344  0.00  0.00     0.188 HD
ATOM     23  C   UNK d   1      -3.474   6.939 -15.771  0.00  0.00     0.052 C 
ATOM     24  S   UNK d   1      -2.581   8.281 -13.516  0.00  0.00    -0.032 SA
ATOM     25  N   UNK d   1      -0.421   8.204 -11.743  0.00  0.00    -0.186 NA
ATOM     26  C   UNK d   1       0.828   7.625 -11.332  0.00  0.00     0.259 C 
ATOM     27  O   UNK d   1       1.290   7.696 -10.184  0.00  0.00    -0.270 OA
ENDBRANCH   1  15
BRANCH   1  28
ATOM     28  C   UNK d   1       3.862   7.322 -13.257  0.00  0.00    -0.051 A 
ATOM     29  C   UNK d   1       4.956   8.153 -13.328  0.00  0.00     0.009 A 
ATOM     30  C   UNK d   1       6.225   7.656 -13.512  0.00  0.00     0.019 A 
ATOM     31  C   UNK d   1       6.411   6.297 -13.630  0.00  0.00     0.011 A 
ATOM     32  C   UNK d   1       5.328   5.418 -13.564  0.00  0.00     0.019 A 
ATOM     33 Br   UNK d   1       8.163   5.574 -13.887  0.00  0.00    -0.051 Br
ATOM     34  C   UNK d   1       4.071   5.956 -13.378  0.00  0.00     0.009 A 
ENDBRANCH   1  28
TORSDOF 3
ENDMDL
