/Users/jonathanwahrer/Desktop/Msc/3_Semester/Drug_Design_Praktikum/waehrer_HTS_screening/HTS_experiment/out/docking_results/vina_output/6q9y/1255_docked.pdbqt
 OpenBabel03222219593D

 34 38  0  0  1  0  0  0  0  0999 V2000
    2.4890    7.8670  -13.0570 C   0  0  1  0  0  3  0  0  0  0  0  0
    1.9530    8.4790  -14.3210 C   0  0  2  0  0  3  0  0  0  0  0  0
    3.1380    8.9270  -15.1740 C   0  0  0  0  0  0  0  0  0  0  0  0
    3.9470    9.9950  -14.6300 N   0  0  0  0  0  0  0  0  0  0  0  0
    3.3260    8.3620  -16.2500 O   0  0  0  0  0  0  0  0  0  0  0  0
    3.4070   10.8730  -13.8490 C   0  0  0  0  0  0  0  0  0  0  0  0
    4.1050   12.2910  -13.0200 S   0  0  0  0  0  0  0  0  0  0  0  0
    2.0390   10.8580  -13.4980 N   0  0  0  0  0  0  0  0  0  0  0  0
    2.5790   12.8070  -12.2490 C   0  0  0  0  0  0  0  0  0  0  0  0
    1.6170   11.8630  -12.6700 N   0  0  0  0  0  0  0  0  0  0  0  0
    2.4200   13.8610  -11.4530 C   0  0  0  0  0  2  0  0  0  0  0  0
    0.5970   11.9750  -12.3320 H   0  0  0  0  0  0  0  0  0  0  0  0
    1.2510    9.7780  -14.0750 C   0  0  0  0  0  0  0  0  0  0  0  0
    0.0300    9.9680  -14.3470 O   0  0  0  0  0  0  0  0  0  0  0  0
    1.6430    6.8720  -12.3690 C   0  0  2  0  0  3  0  0  0  0  0  0
    0.6840    6.1230  -13.1670 C   0  0  0  0  0  0  0  0  0  0  0  0
    0.9400    4.9200  -13.5120 O   0  0  0  0  0  0  0  0  0  0  0  0
   -0.5770    6.7070  -13.5870 N   0  0  0  0  0  0  0  0  0  0  0  0
   -1.3510    6.3530  -14.6450 N   0  0  0  0  0  0  0  0  0  0  0  0
   -1.0420    7.7650  -12.7800 C   0  0  0  0  0  0  0  0  0  0  0  0
   -2.5540    7.0780  -14.8420 C   0  0  0  0  0  0  0  0  0  0  0  0
   -1.1240    5.5640  -15.3440 H   0  0  0  0  0  0  0  0  0  0  0  0
   -3.4740    6.9390  -15.7710 C   0  0  0  0  0  2  0  0  0  0  0  0
   -2.5810    8.2810  -13.5160 S   0  0  0  0  0  0  0  0  0  0  0  0
   -0.4210    8.2040  -11.7430 N   0  0  0  0  0  0  0  0  0  0  0  0
    0.8280    7.6250  -11.3320 C   0  0  0  0  0  0  0  0  0  0  0  0
    1.2900    7.6960  -10.1840 O   0  0  0  0  0  0  0  0  0  0  0  0
    3.8620    7.3220  -13.2570 C   0  0  0  0  0  0  0  0  0  0  0  0
    4.9560    8.1530  -13.3280 C   0  0  0  0  0  3  0  0  0  0  0  0
    6.2250    7.6560  -13.5120 C   0  0  0  0  0  3  0  0  0  0  0  0
    6.4110    6.2970  -13.6300 C   0  0  0  0  0  0  0  0  0  0  0  0
    5.3280    5.4180  -13.5640 C   0  0  0  0  0  3  0  0  0  0  0  0
    8.1630    5.5740  -13.8870 Br  0  0  0  0  0  0  0  0  0  0  0  0
    4.0710    5.9560  -13.3780 C   0  0  0  0  0  3  0  0  0  0  0  0
  1 28  1  6  0  0  0
  2 13  1  0  0  0  0
  2  1  1  1  0  0  0
  3  4  1  0  0  0  0
  3  2  1  0  0  0  0
  4  6  2  0  0  0  0
  5  3  2  0  0  0  0
  6  8  1  0  0  0  0
  6  7  1  0  0  0  0
  7  9  1  0  0  0  0
  8 10  1  0  0  0  0
  9 11  2  0  0  0  0
 10 12  1  0  0  0  0
 10  9  1  0  0  0  0
 13  8  1  0  0  0  0
 14 13  2  0  0  0  0
 15  1  1  6  0  0  0
 15 26  1  0  0  0  0
 16 15  1  0  0  0  0
 17 16  2  0  0  0  0
 18 16  1  0  0  0  0
 18 20  1  0  0  0  0
 19 18  1  0  0  0  0
 20 25  2  0  0  0  0
 21 19  1  0  0  0  0
 21 24  1  0  0  0  0
 22 19  1  0  0  0  0
 23 21  2  0  0  0  0
 24 20  1  0  0  0  0
 25 26  1  0  0  0  0
 26 27  2  0  0  0  0
 29 28  1  0  0  0  0
 30 29  2  0  0  0  0
 31 32  2  0  0  0  0
 31 30  1  0  0  0  0
 32 34  1  0  0  0  0
 33 31  1  0  0  0  0
 34 28  2  0  0  0  0
M  END
>  <Pose>
1

>  <Score>
-6.734

$$$$
