MODEL 1
REMARK VINA RESULT:    -8.892      0.000      0.000
REMARK INTER + INTRA:         -12.207
REMARK INTER:                 -11.492
REMARK INTRA:                  -0.715
REMARK UNBOUND:                -0.715
REMARK  5 active torsions:
REMARK  status: ('A' for Active; 'I' for Inactive)
REMARK    1  A    between atoms: C_7  and  C_17 
REMARK    2  A    between atoms: C_10  and  N_11 
REMARK       I    between atoms: C_17  and  N_19 
REMARK    3  A    between atoms: N_19  and  C_20 
REMARK    4  A    between atoms: C_20  and  C_21 
REMARK    5  A    between atoms: C_22  and  O_28 
ROOT
ATOM      1  S   UNK d   1       1.633  15.887 -12.013  0.00  0.00    -0.010 SA
ATOM      2  C   UNK d   1       2.000  14.246 -12.338  0.00  0.00     0.201 A 
ATOM      3  N   UNK d   1       3.116  13.467 -12.185  0.00  0.00    -0.183 NA
ATOM      4  C   UNK d   1       3.102  12.163 -12.506  0.00  0.00     0.271 A 
ATOM      5  O   UNK d   1       4.064  11.380 -12.399  0.00  0.00    -0.266 OA
ATOM      6  C   UNK d   1       1.902  11.693 -12.987  0.00  0.00     0.114 A 
ATOM      7  C   UNK d   1       0.787  12.462 -13.143  0.00  0.00     0.134 A 
ATOM      8  N   UNK d   1       0.833  13.792 -12.805  0.00  0.00    -0.201 N 
ATOM      9  N   UNK d   1      -0.141  14.615 -12.875  0.00  0.00    -0.139 NA
ATOM     10  C   UNK d   1      -0.021  15.860 -12.510  0.00  0.00     0.192 A 
ENDROOT
BRANCH   7  11
ATOM     11  C   UNK d   1      -0.420  11.816 -13.657  0.00  0.00     0.270 C 
ATOM     12  O   UNK d   1      -0.888  12.176 -14.799  0.00  0.00    -0.266 OA
ATOM     13  N   UNK d   1      -1.138  10.806 -12.985  0.00  0.00    -0.351 N 
ATOM     14  H   UNK d   1      -0.848  10.467 -12.048  0.00  0.00     0.163 HD
BRANCH  13  15
ATOM     15  C   UNK d   1      -2.323  10.226 -13.605  0.00  0.00     0.164 C 
BRANCH  15  16
ATOM     16  C   UNK d   1      -2.164   8.760 -13.772  0.00  0.00    -0.006 A 
ATOM     17  C   UNK d   1      -3.114   8.056 -14.496  0.00  0.00     0.076 A 
ATOM     18  C   UNK d   1      -2.997   6.694 -14.621  0.00  0.00     0.039 A 
ATOM     19  C   UNK d   1      -1.967   5.994 -14.051  0.00  0.00     0.022 A 
ATOM     20  C   UNK d   1      -1.016   6.688 -13.327  0.00  0.00     0.011 A 
ATOM     21  C   UNK d   1      -1.135   8.063 -13.204  0.00  0.00     0.030 A 
ATOM     22 Br   UNK d   1       0.454   5.790 -12.506  0.00  0.00    -0.051 Br
BRANCH  17  23
ATOM     23  O   UNK d   1      -4.145   8.770 -15.064  0.00  0.00    -0.355 OA
ATOM     24  C   UNK d   1      -5.434   8.161 -15.127  0.00  0.00     0.210 C 
ENDBRANCH  17  23
ENDBRANCH  15  16
ENDBRANCH  13  15
ENDBRANCH   7  11
BRANCH  10  25
ATOM     25  N   UNK d   1      -0.997  16.928 -12.494  0.00  0.00    -0.355 N 
ATOM     26  C   UNK d   1      -1.114  17.777 -11.371  0.00  0.00     0.151 C 
ATOM     27  C   UNK d   1      -2.260  18.743 -11.562  0.00  0.00     0.187 C 
ATOM     28  O   UNK d   1      -3.334  18.083 -12.166  0.00  0.00    -0.388 OA
ATOM     29  C   UNK d   1      -3.048  17.830 -13.513  0.00  0.00     0.187 C 
ATOM     30  C   UNK d   1      -1.793  17.029 -13.670  0.00  0.00     0.151 C 
ENDBRANCH  10  25
TORSDOF 5
ENDMDL
