MODEL 1
REMARK VINA RESULT:    -9.476      0.000      0.000
REMARK INTER + INTRA:         -11.566
REMARK INTER:                 -11.692
REMARK INTRA:                   0.126
REMARK UNBOUND:                 0.126
REMARK  4 active torsions:
REMARK  status: ('A' for Active; 'I' for Inactive)
REMARK    1  A    between atoms: N_3  and  C_15 
REMARK    2  A    between atoms: C_7  and  C_9 
REMARK    3  A    between atoms: C_15  and  C_16 
REMARK    4  A    between atoms: C_16  and  C_18 
ROOT
ATOM      1  S   UNK d   1      -3.832   6.500 -15.345  0.00  0.00    -0.063 SA
ATOM      2  C   UNK d   1      -3.905   8.158 -14.679  0.00  0.00     0.149 A 
ATOM      3  N   UNK d   1      -4.695   9.172 -14.542  0.00  0.00    -0.352 N 
ATOM      4  C   UNK d   1      -4.060  10.241 -13.866  0.00  0.00     0.145 A 
ATOM      5  C   UNK d   1      -2.684   9.739 -13.573  0.00  0.00     0.151 A 
ATOM      6  N   UNK d   1      -2.630   8.363 -14.122  0.00  0.00    -0.325 N 
ATOM      7  C   UNK d   1      -1.726   7.300 -14.229  0.00  0.00     0.053 A 
ATOM      8  C   UNK d   1      -2.143   6.213 -14.839  0.00  0.00     0.083 A 
ENDROOT
BRANCH   3   9
ATOM      9  C   UNK d   1      -6.080   9.139 -15.043  0.00  0.00     0.208 C 
BRANCH   9  10
ATOM     10  C   UNK d   1      -6.854  10.101 -14.232  0.00  0.00     0.177 C 
ATOM     11  O   UNK d   1      -6.640  10.241 -13.011  0.00  0.00    -0.291 OA
BRANCH  10  12
ATOM     12  C   UNK d   1      -7.891  10.912 -14.854  0.00  0.00     0.011 A 
ATOM     13  C   UNK d   1      -8.366  10.614 -16.133  0.00  0.00     0.016 A 
ATOM     14  C   UNK d   1      -9.344  11.372 -16.750  0.00  0.00     0.020 A 
ATOM     15  C   UNK d   1      -9.846  12.444 -16.061  0.00  0.00     0.011 A 
ATOM     16  C   UNK d   1      -9.409  12.780 -14.793  0.00  0.00     0.020 A 
ATOM     17 Br   UNK d   1     -11.203  13.488 -16.926  0.00  0.00    -0.051 Br
ATOM     18  C   UNK d   1      -8.420  11.999 -14.191  0.00  0.00     0.016 A 
ENDBRANCH  10  12
ENDBRANCH   9  10
ENDBRANCH   3   9
BRANCH   7  19
ATOM     19  C   UNK d   1      -0.328   7.317 -13.686  0.00  0.00    -0.009 A 
ATOM     20  C   UNK d   1       0.002   6.648 -12.529  0.00  0.00     0.014 A 
ATOM     21  C   UNK d   1       1.269   6.634 -11.985  0.00  0.00     0.001 A 
ATOM     22  C   UNK d   1       2.291   7.316 -12.603  0.00  0.00     0.000 A 
ATOM     23  C   UNK d   1       1.988   7.989 -13.754  0.00  0.00     0.001 A 
ATOM     24  C   UNK d   1       0.692   7.997 -14.301  0.00  0.00     0.014 A 
ENDBRANCH   7  19
TORSDOF 4
ENDMDL
