MODEL 1
REMARK VINA RESULT:    -9.224      0.000      0.000
REMARK INTER + INTRA:         -10.382
REMARK INTER:                 -10.302
REMARK INTRA:                  -0.079
REMARK UNBOUND:                -0.079
REMARK  2 active torsions:
REMARK  status: ('A' for Active; 'I' for Inactive)
REMARK    1  A    between atoms: C_3  and  C_8 
REMARK       I    between atoms: N_12  and  C_14 
REMARK    2  A    between atoms: C_14  and  C_16 
ROOT
ATOM      1  C   UNK d   1       1.189  10.299 -13.964  0.00  0.00     0.273 C 
ATOM      2  N   UNK d   1       0.399   9.717 -12.885  0.00  0.00     0.095 NA
ATOM      3  C   UNK d   1       0.593   8.388 -12.539  0.00  0.00     0.290 C 
ATOM      4  C   UNK d   1       1.930   7.735 -12.821  0.00  0.00     0.155 C 
ATOM      5  N   UNK d   1       2.617   8.302 -13.898  0.00  0.00    -0.355 N 
ATOM      6  C   UNK d   1       1.947   9.287 -14.692  0.00  0.00     0.165 C 
ATOM      7  C   UNK d   1       3.944   8.001 -14.300  0.00  0.00     0.189 C 
ATOM      8  O   UNK d   1       4.254   8.582 -15.436  0.00  0.00    -0.171 OA
ATOM      9  H   UNK d   1       0.374  10.359 -12.067  0.00  0.00     0.316 HD
ENDROOT
BRANCH   7  10
ATOM     10  C   UNK d   1       4.981   7.221 -13.729  0.00  0.00     0.038 A 
ATOM     11  C   UNK d   1       4.680   5.874 -13.413  0.00  0.00     0.135 A 
ATOM     12  N   UNK d   1       5.628   5.034 -12.999  0.00  0.00    -0.234 NA
ATOM     13  C   UNK d   1       6.899   5.419 -12.861  0.00  0.00     0.192 A 
ATOM     14  C   UNK d   1       7.251   6.709 -13.152  0.00  0.00     0.089 A 
ATOM     15  O   UNK d   1       7.880   4.523 -12.421  0.00  0.00    -0.323 OA
ATOM     16  C   UNK d   1       6.289   7.618 -13.587  0.00  0.00     0.051 A 
ATOM     17  N   UNK d   1       8.616   7.123 -13.042  0.00  0.00    -0.322 N 
ATOM     18  C   UNK d   1       9.588   6.163 -12.626  0.00  0.00     0.246 C 
ATOM     19  H   UNK d   1       8.910   8.087 -13.260  0.00  0.00     0.169 HD
ATOM     20  O   UNK d   1      10.806   6.234 -12.889  0.00  0.00    -0.271 OA
ATOM     21  C   UNK d   1       9.096   5.001 -11.823  0.00  0.00     0.280 C 
ENDBRANCH   7  10
BRANCH   1  22
ATOM     22  C   UNK d   1       2.041  11.339 -13.286  0.00  0.00    -0.002 A 
ATOM     23  C   UNK d   1       1.432  12.558 -12.948  0.00  0.00     0.042 A 
ATOM     24 Cl   UNK d   1      -0.238  12.809 -13.498  0.00  0.00    -0.084 Cl
ATOM     25  C   UNK d   1       2.069  13.544 -12.226  0.00  0.00     0.024 A 
ATOM     26  C   UNK d   1       3.379  13.334 -11.805  0.00  0.00     0.002 A 
ATOM     27  C   UNK d   1       3.976  12.131 -12.139  0.00  0.00     0.001 A 
ATOM     28  C   UNK d   1       3.324  11.150 -12.865  0.00  0.00     0.011 A 
ENDBRANCH   1  22
TORSDOF 2
ENDMDL
