/Users/jonathanwahrer/Desktop/Msc/3_Semester/Drug_Design_Praktikum/waehrer_HTS_screening/HTS_experiment/out/docking_results/vina_output/6q9y/1266_docked.pdbqt
 OpenBabel03222219593D

 28 31  0  0  1  0  0  0  0  0999 V2000
    1.1890   10.2990  -13.9640 C   0  0  2  0  0  3  0  0  0  0  0  0
    0.3990    9.7170  -12.8850 N   0  0  0  0  0  0  0  0  0  0  0  0
    0.5930    8.3880  -12.5390 C   0  0  0  0  0  2  0  0  0  0  0  0
    1.9300    7.7350  -12.8210 C   0  0  0  0  0  2  0  0  0  0  0  0
    2.6170    8.3020  -13.8980 N   0  0  0  0  0  0  0  0  0  0  0  0
    1.9470    9.2870  -14.6920 C   0  0  0  0  0  2  0  0  0  0  0  0
    3.9440    8.0010  -14.3000 C   0  0  0  0  0  0  0  0  0  0  0  0
    4.2540    8.5820  -15.4360 O   0  0  0  0  0  0  0  0  0  0  0  0
    0.3740   10.3590  -12.0670 H   0  0  0  0  0  0  0  0  0  0  0  0
    4.9810    7.2210  -13.7290 C   0  0  0  0  0  0  0  0  0  0  0  0
    4.6800    5.8740  -13.4130 C   0  0  0  0  0  3  0  0  0  0  0  0
    5.6280    5.0340  -12.9990 N   0  0  0  0  0  0  0  0  0  0  0  0
    6.8990    5.4190  -12.8610 C   0  0  0  0  0  0  0  0  0  0  0  0
    7.2510    6.7090  -13.1520 C   0  0  0  0  0  0  0  0  0  0  0  0
    7.8800    4.5230  -12.4210 O   0  0  0  0  0  0  0  0  0  0  0  0
    6.2890    7.6180  -13.5870 C   0  0  0  0  0  3  0  0  0  0  0  0
    8.6160    7.1230  -13.0420 N   0  0  0  0  0  0  0  0  0  0  0  0
    9.5880    6.1630  -12.6260 C   0  0  0  0  0  0  0  0  0  0  0  0
    8.9100    8.0870  -13.2600 H   0  0  0  0  0  0  0  0  0  0  0  0
   10.8060    6.2340  -12.8890 O   0  0  0  0  0  0  0  0  0  0  0  0
    9.0960    5.0010  -11.8230 C   0  0  0  0  0  2  0  0  0  0  0  0
    2.0410   11.3390  -13.2860 C   0  0  0  0  0  0  0  0  0  0  0  0
    1.4320   12.5580  -12.9480 C   0  0  0  0  0  0  0  0  0  0  0  0
   -0.2380   12.8090  -13.4980 Cl  0  0  0  0  0  0  0  0  0  0  0  0
    2.0690   13.5440  -12.2260 C   0  0  0  0  0  3  0  0  0  0  0  0
    3.3790   13.3340  -11.8050 C   0  0  0  0  0  3  0  0  0  0  0  0
    3.9760   12.1310  -12.1390 C   0  0  0  0  0  3  0  0  0  0  0  0
    3.3240   11.1500  -12.8650 C   0  0  0  0  0  3  0  0  0  0  0  0
  1 22  1  1  0  0  0
  1  2  1  0  0  0  0
  2  3  1  0  0  0  0
  2  9  1  0  0  0  0
  4  3  1  0  0  0  0
  5  4  1  0  0  0  0
  6  1  1  0  0  0  0
  6  5  1  0  0  0  0
  7  5  1  0  0  0  0
  7 10  1  0  0  0  0
  8  7  2  0  0  0  0
 10 16  1  0  0  0  0
 10 11  2  0  0  0  0
 11 12  1  0  0  0  0
 12 13  2  0  0  0  0
 13 15  1  0  0  0  0
 14 17  1  0  0  0  0
 14 13  1  0  0  0  0
 15 21  1  0  0  0  0
 16 14  2  0  0  0  0
 17 18  1  0  0  0  0
 18 21  1  0  0  0  0
 19 17  1  0  0  0  0
 20 18  2  0  0  0  0
 22 23  2  0  0  0  0
 22 28  1  0  0  0  0
 23 25  1  0  0  0  0
 24 23  1  0  0  0  0
 25 26  2  0  0  0  0
 27 26  1  0  0  0  0
 28 27  2  0  0  0  0
M  END
>  <Pose>
1

>  <Score>
-9.224

$$$$
