MODEL 1
REMARK VINA RESULT:    -9.595      0.000      0.000
REMARK INTER + INTRA:         -14.674
REMARK INTER:                 -13.801
REMARK INTRA:                  -0.873
REMARK UNBOUND:                -0.873
REMARK  8 active torsions:
REMARK  status: ('A' for Active; 'I' for Inactive)
REMARK    1  A    between atoms: C_4  and  C_8 
REMARK    2  A    between atoms: C_8  and  N_10 
REMARK    3  A    between atoms: N_10  and  N_11 
REMARK       I    between atoms: N_11  and  C_12 
REMARK    4  A    between atoms: C_12  and  C_14 
REMARK    5  A    between atoms: N_17  and  C_26 
REMARK    6  A    between atoms: C_18  and  C_19 
REMARK    7  A    between atoms: C_19  and  N_20 
REMARK    8  A    between atoms: C_30  and  N_31 
ROOT
ATOM      1  C   UNK d   1      -1.491  10.811 -13.808  0.00  0.00     0.176 A 
ATOM      2  N   UNK d   1      -1.396  12.118 -14.084  0.00  0.00    -0.124 NA
ATOM      3  N   UNK d   1      -0.147  12.453 -13.885  0.00  0.00    -0.058 NA
ATOM      4  N   UNK d   1       0.560  11.398 -13.489  0.00  0.00    -0.191 N 
ATOM      5  C   UNK d   1      -0.228  10.336 -13.421  0.00  0.00     0.104 A 
ENDROOT
BRANCH   1   6
ATOM      6  C   UNK d   1      -2.716  10.042 -13.916  0.00  0.00     0.292 C 
ATOM      7  N   UNK d   1      -3.879  10.544 -14.545  0.00  0.00    -0.264 N 
ATOM      8  H   UNK d   1      -3.920  11.511 -14.965  0.00  0.00     0.190 HD
ATOM      9  O   UNK d   1      -2.739   8.886 -13.433  0.00  0.00    -0.264 OA
BRANCH   7  10
ATOM     10  N   UNK d   1      -5.050   9.793 -14.650  0.00  0.00    -0.298 N 
ATOM     11  H   UNK d   1      -5.227   9.054 -15.351  0.00  0.00     0.187 HD
BRANCH  10  12
ATOM     12  C   UNK d   1      -6.111  10.055 -13.706  0.00  0.00     0.049 C 
ATOM     13  C   UNK d   1      -6.050   9.492 -12.525  0.00  0.00     0.045 C 
BRANCH  12  14
ATOM     14  C   UNK d   1      -7.202  10.917 -14.114  0.00  0.00    -0.008 A 
ATOM     15  C   UNK d   1      -7.884  10.666 -15.304  0.00  0.00     0.032 A 
ATOM     16  C   UNK d   1      -8.930  11.465 -15.695  0.00  0.00     0.011 A 
ATOM     17 Br   UNK d   1      -9.866  11.134 -17.317  0.00  0.00    -0.051 Br
ATOM     18  C   UNK d   1      -9.344  12.543 -14.931  0.00  0.00     0.019 A 
ATOM     19  C   UNK d   1      -8.686  12.798 -13.767  0.00  0.00     0.002 A 
ATOM     20  C   UNK d   1      -7.625  11.982 -13.374  0.00  0.00     0.014 A 
ENDBRANCH  12  14
ENDBRANCH  10  12
ENDBRANCH   7  10
ENDBRANCH   1   6
BRANCH   5  21
ATOM     21  C   UNK d   1      -0.004   8.967 -13.017  0.00  0.00     0.334 C 
BRANCH  21  22
ATOM     22  N   UNK d   1       0.733   8.134 -13.947  0.00  0.00     0.094 NA
ATOM     23  C   UNK d   1       1.849   7.473 -13.277  0.00  0.00     0.273 C 
ATOM     24  C   UNK d   1       1.426   6.836 -11.972  0.00  0.00     0.030 C 
ATOM     25  C   UNK d   1       0.300   5.848 -12.220  0.00  0.00     0.003 C 
ATOM     26  C   UNK d   1      -0.038   5.775 -13.682  0.00  0.00     0.030 C 
ATOM     27  C   UNK d   1      -0.128   7.052 -14.416  0.00  0.00     0.273 C 
ENDBRANCH  21  22
ENDBRANCH   5  21
BRANCH   4  28
ATOM     28  C   UNK d   1       1.938  11.453 -13.171  0.00  0.00     0.229 A 
ATOM     29  N   UNK d   1       2.421  12.102 -12.075  0.00  0.00    -0.081 NA
ATOM     30  O   UNK d   1       3.709  11.967 -12.077  0.00  0.00    -0.103 OA
ATOM     31  N   UNK d   1       4.110  11.285 -13.089  0.00  0.00    -0.083 NA
ATOM     32  C   UNK d   1       3.031  10.940 -13.805  0.00  0.00     0.201 A 
BRANCH  32  33
ATOM     33  N   UNK d   1       2.998  10.192 -14.991  0.00  0.00    -0.379 N 
ATOM     34  H   UNK d   1       2.263   9.503 -15.263  0.00  0.00     0.158 HD
ATOM     35  H   UNK d   1       3.771  10.316 -15.681  0.00  0.00     0.158 HD
ENDBRANCH  32  33
ENDBRANCH   4  28
TORSDOF 8
ENDMDL
