MODEL 1
REMARK VINA RESULT:    -9.084      0.000      0.000
REMARK INTER + INTRA:         -14.115
REMARK INTER:                 -12.801
REMARK INTRA:                  -1.314
REMARK UNBOUND:                -1.314
REMARK  7 active torsions:
REMARK  status: ('A' for Active; 'I' for Inactive)
REMARK    1  A    between atoms: C_4  and  C_8 
REMARK    2  A    between atoms: N_9  and  C_26 
REMARK    3  A    between atoms: C_15  and  C_17 
REMARK    4  A    between atoms: C_20  and  O_23 
REMARK    5  A    between atoms: C_26  and  C_27 
REMARK    6  A    between atoms: C_27  and  C_28 
REMARK    7  A    between atoms: C_28  and  N_29 
ROOT
ATOM      1  C   UNK d   1       2.476   8.191 -12.696  0.00  0.00     0.161 C 
ATOM      2  N   UNK d   1       3.023   9.270 -13.494  0.00  0.00    -0.332 N 
ATOM      3  C   UNK d   1       2.594   9.056 -14.827  0.00  0.00     0.295 C 
ATOM      4  O   UNK d   1       3.179   9.452 -15.840  0.00  0.00    -0.264 OA
ATOM      5  C   UNK d   1       1.342   8.284 -14.744  0.00  0.00     0.250 C 
ATOM      6  O   UNK d   1       0.622   7.885 -15.691  0.00  0.00    -0.282 OA
ATOM      7  C   UNK d   1       1.114   8.083 -13.318  0.00  0.00     0.062 C 
ATOM      8  C   UNK d   1      -0.067   7.891 -12.748  0.00  0.00     0.130 C 
ATOM      9  O   UNK d   1      -0.048   7.768 -11.338  0.00  0.00    -0.190 OA
ENDROOT
BRANCH   1  10
ATOM     10  C   UNK d   1       3.291   6.976 -12.847  0.00  0.00    -0.029 A 
ATOM     11  C   UNK d   1       4.636   7.076 -13.172  0.00  0.00     0.028 A 
ATOM     12  C   UNK d   1       5.442   5.939 -13.301  0.00  0.00     0.011 A 
ATOM     13 Br   UNK d   1       7.302   6.114 -13.751  0.00  0.00    -0.051 Br
ATOM     14  C   UNK d   1       4.909   4.691 -13.105  0.00  0.00     0.019 A 
ATOM     15  C   UNK d   1       3.578   4.577 -12.782  0.00  0.00     0.002 A 
ATOM     16  C   UNK d   1       2.794   5.716 -12.659  0.00  0.00     0.009 A 
ENDBRANCH   1  10
BRANCH   8  17
ATOM     17  C   UNK d   1      -1.325   7.805 -13.481  0.00  0.00     0.007 A 
ATOM     18  C   UNK d   1      -2.158   8.859 -13.712  0.00  0.00    -0.046 A 
ATOM     19  C   UNK d   1      -3.379   8.677 -14.386  0.00  0.00     0.044 A 
ATOM     20  C   UNK d   1      -1.770  10.227 -13.297  0.00  0.00     0.049 C 
ATOM     21  C   UNK d   1      -3.793   7.455 -14.843  0.00  0.00     0.068 A 
ATOM     22  C   UNK d   1      -2.951   6.388 -14.612  0.00  0.00     0.037 A 
ATOM     23  C   UNK d   1      -1.760   6.553 -13.956  0.00  0.00     0.017 A 
BRANCH  21  24
ATOM     24  O   UNK d   1      -5.002   7.269 -15.514  0.00  0.00    -0.356 OA
ATOM     25  C   UNK d   1      -6.026   8.226 -15.422  0.00  0.00     0.210 C 
ENDBRANCH  21  24
ENDBRANCH   8  17
BRANCH   2  26
ATOM     26  C   UNK d   1       3.853  10.334 -12.969  0.00  0.00     0.129 C 
BRANCH  26  27
ATOM     27  C   UNK d   1       3.317  11.704 -13.243  0.00  0.00     0.048 C 
BRANCH  27  28
ATOM     28  C   UNK d   1       1.899  11.930 -12.881  0.00  0.00     0.236 C 
BRANCH  28  29
ATOM     29  N   UNK d   1       1.526  13.283 -12.667  0.00  0.00    -0.067 N 
ATOM     30  C   UNK d   1       0.070  13.497 -12.639  0.00  0.00     0.261 C 
ATOM     31  C   UNK d   1      -0.125  14.977 -12.978  0.00  0.00     0.195 C 
ATOM     32  O   UNK d   1       1.063  15.684 -12.923  0.00  0.00    -0.388 OA
ATOM     33  C   UNK d   1       1.728  15.449 -11.719  0.00  0.00     0.195 C 
ATOM     34  C   UNK d   1       2.060  13.957 -11.540  0.00  0.00     0.261 C 
ATOM     35  H   UNK d   1       1.849  13.827 -13.524  0.00  0.00     0.280 HD
ENDBRANCH  28  29
ENDBRANCH  27  28
ENDBRANCH  26  27
ENDBRANCH   2  26
TORSDOF 7
ENDMDL
