/Users/jonathanwahrer/Desktop/Msc/3_Semester/Drug_Design_Praktikum/waehrer_HTS_screening/HTS_experiment/out/docking_results/vina_output/6q9y/1282_docked.pdbqt
 OpenBabel03222220003D

 30 33  0  0  1  0  0  0  0  0999 V2000
   -0.6120    7.0570  -13.2310 C   0  0  2  0  0  3  0  0  0  0  0  0
   -1.6490    6.8290  -14.3150 C   0  0  0  0  0  2  0  0  0  0  0  0
   -2.5240    7.9760  -14.1720 N   0  0  0  0  0  0  0  0  0  0  0  0
   -1.9680    8.9400  -13.2440 C   0  0  1  0  0  3  0  0  0  0  0  0
   -0.4830    8.5540  -13.2440 C   0  0  0  0  0  2  0  0  0  0  0  0
   -2.1790   10.2820  -13.7860 C   0  0  0  0  0  0  0  0  0  0  0  0
   -1.2420   11.0830  -13.9170 O   0  0  0  0  0  0  0  0  0  0  0  0
   -3.4980   10.6460  -14.1590 N   0  0  0  0  0  0  0  0  0  0  0  0
   -4.4340    9.6190  -14.5580 C   0  0  1  0  0  3  0  0  0  0  0  0
   -3.7890    8.3030  -14.7640 C   0  0  0  0  0  0  0  0  0  0  0  0
   -4.3570    7.4360  -15.4790 O   0  0  0  0  0  0  0  0  0  0  0  0
   -3.8280   11.6380  -14.1610 H   0  0  0  0  0  0  0  0  0  0  0  0
    0.6360    6.3820  -13.5390 N   0  0  0  0  0  0  0  0  0  0  0  0
    1.5170    6.1250  -12.4690 C   0  0  0  0  0  0  0  0  0  0  0  0
    1.1910    6.4900  -11.2800 O   0  0  0  0  0  0  0  0  0  0  0  0
    0.8930    6.0960  -14.4940 H   0  0  0  0  0  0  0  0  0  0  0  0
    2.7920    5.4550  -12.6590 C   0  0  0  0  0  0  0  0  0  0  0  0
    3.9380    6.1910  -12.9370 C   0  0  0  0  0  3  0  0  0  0  0  0
    5.1410    5.5660  -13.1120 C   0  0  0  0  0  0  0  0  0  0  0  0
    6.7120    6.5900  -13.4940 Br  0  0  0  0  0  0  0  0  0  0  0  0
    5.2610    4.2080  -13.0210 C   0  0  0  0  0  3  0  0  0  0  0  0
    4.1310    3.4790  -12.7460 C   0  0  0  0  0  3  0  0  0  0  0  0
    2.9060    4.1030  -12.5670 C   0  0  0  0  0  3  0  0  0  0  0  0
   -5.6270    9.5290  -13.6290 C   0  0  0  0  0  2  0  0  0  0  0  0
   -6.7450   10.3970  -14.0340 C   0  0  0  0  0  0  0  0  0  0  0  0
   -7.3780   10.1840  -15.2450 C   0  0  0  0  0  3  0  0  0  0  0  0
   -8.4240   10.9900  -15.6300 C   0  0  0  0  0  3  0  0  0  0  0  0
   -8.8880   12.0320  -14.8500 C   0  0  0  0  0  3  0  0  0  0  0  0
   -8.2590   12.2480  -13.6420 C   0  0  0  0  0  3  0  0  0  0  0  0
   -7.2080   11.4480  -13.2390 C   0  0  0  0  0  3  0  0  0  0  0  0
  1 13  1  6  0  0  0
  2  3  1  0  0  0  0
  2  1  1  0  0  0  0
  3  4  1  0  0  0  0
  4  5  1  6  0  0  0
  5  1  1  0  0  0  0
  6  4  1  0  0  0  0
  7  6  2  0  0  0  0
  8  6  1  0  0  0  0
  9  8  1  0  0  0  0
  9 24  1  1  0  0  0
 10  9  1  0  0  0  0
 10  3  1  0  0  0  0
 11 10  2  0  0  0  0
 12  8  1  0  0  0  0
 13 14  1  0  0  0  0
 14 15  2  0  0  0  0
 16 13  1  0  0  0  0
 17 23  1  0  0  0  0
 17 14  1  0  0  0  0
 18 17  2  0  0  0  0
 19 21  2  0  0  0  0
 19 18  1  0  0  0  0
 20 19  1  0  0  0  0
 21 22  1  0  0  0  0
 22 23  2  0  0  0  0
 25 24  1  0  0  0  0
 25 30  1  0  0  0  0
 26 25  2  0  0  0  0
 27 26  1  0  0  0  0
 27 28  2  0  0  0  0
 28 29  1  0  0  0  0
 29 30  2  0  0  0  0
M  END
>  <Pose>
1

>  <Score>
-10.446

$$$$
