MODEL 1
REMARK VINA RESULT:    -8.684      0.000      0.000
REMARK INTER + INTRA:         -13.195
REMARK INTER:                 -11.730
REMARK INTRA:                  -1.465
REMARK UNBOUND:                -1.465
REMARK  6 active torsions:
REMARK  status: ('A' for Active; 'I' for Inactive)
REMARK    1  A    between atoms: C_4  and  C_8 
REMARK    2  A    between atoms: N_9  and  C_28 
REMARK    3  A    between atoms: C_15  and  C_17 
REMARK    4  A    between atoms: C_28  and  C_29 
REMARK    5  A    between atoms: C_29  and  C_30 
REMARK    6  A    between atoms: C_30  and  N_31 
ROOT
ATOM      1  C   UNK d   1       2.633   8.149 -12.727  0.00  0.00     0.161 C 
ATOM      2  N   UNK d   1       3.119   9.241 -13.547  0.00  0.00    -0.332 N 
ATOM      3  C   UNK d   1       2.597   9.060 -14.882  0.00  0.00     0.295 C 
ATOM      4  O   UNK d   1       3.062   9.491 -15.943  0.00  0.00    -0.264 OA
ATOM      5  C   UNK d   1       1.396   8.251 -14.701  0.00  0.00     0.251 C 
ATOM      6  O   UNK d   1       0.593   7.824 -15.583  0.00  0.00    -0.282 OA
ATOM      7  C   UNK d   1       1.241   7.982 -13.281  0.00  0.00     0.064 C 
ATOM      8  C   UNK d   1       0.150   7.626 -12.623  0.00  0.00     0.149 C 
ATOM      9  O   UNK d   1       0.279   7.360 -11.230  0.00  0.00    -0.189 OA
ENDROOT
BRANCH   1  10
ATOM     10  C   UNK d   1       3.392   6.899 -12.857  0.00  0.00    -0.029 A 
ATOM     11  C   UNK d   1       4.751   6.992 -13.173  0.00  0.00     0.028 A 
ATOM     12  C   UNK d   1       5.510   5.871 -13.306  0.00  0.00     0.011 A 
ATOM     13 Br   UNK d   1       7.365   6.021 -13.738  0.00  0.00    -0.051 Br
ATOM     14  C   UNK d   1       4.964   4.622 -13.134  0.00  0.00     0.019 A 
ATOM     15  C   UNK d   1       3.631   4.497 -12.822  0.00  0.00     0.002 A 
ATOM     16  C   UNK d   1       2.855   5.641 -12.686  0.00  0.00     0.009 A 
ENDBRANCH   1  10
BRANCH   8  17
ATOM     17  C   UNK d   1      -1.131   7.518 -13.276  0.00  0.00     0.102 A 
ATOM     18  N   UNK d   1      -1.986   8.507 -13.613  0.00  0.00    -0.302 N 
ATOM     19  C   UNK d   1      -3.053   7.955 -14.241  0.00  0.00     0.140 A 
ATOM     20  C   UNK d   1      -1.991   9.840 -13.443  0.00  0.00     0.099 A 
ATOM     21  N   UNK d   1      -2.887   6.605 -14.310  0.00  0.00    -0.233 NA
ATOM     22  C   UNK d   1      -4.129   8.661 -14.713  0.00  0.00    -0.015 A 
ATOM     23  C   UNK d   1      -1.699   6.349 -13.711  0.00  0.00     0.063 A 
ATOM     24  C   UNK d   1      -1.119   4.985 -13.561  0.00  0.00     0.073 C 
ATOM     25  C   UNK d   1      -4.125  10.027 -14.535  0.00  0.00     0.012 A 
ATOM     26  C   UNK d   1      -5.277   8.001 -15.400  0.00  0.00     0.052 C 
ATOM     27  C   UNK d   1      -3.041  10.593 -13.894  0.00  0.00     0.018 A 
ENDBRANCH   8  17
BRANCH   2  28
ATOM     28  C   UNK d   1       3.983  10.330 -13.123  0.00  0.00     0.129 C 
BRANCH  28  29
ATOM     29  C   UNK d   1       3.329  11.314 -12.216  0.00  0.00     0.048 C 
BRANCH  29  30
ATOM     30  C   UNK d   1       2.157  12.049 -12.818  0.00  0.00     0.235 C 
BRANCH  30  31
ATOM     31  N   UNK d   1       2.241  13.453 -12.490  0.00  0.00    -0.079 N 
ATOM     32  C   UNK d   1       0.918  13.996 -12.241  0.00  0.00     0.269 C 
ATOM     33  C   UNK d   1       2.985  13.591 -11.254  0.00  0.00     0.269 C 
ATOM     34  H   UNK d   1       2.763  14.001 -13.208  0.00  0.00     0.278 HD
ENDBRANCH  30  31
ENDBRANCH  29  30
ENDBRANCH  28  29
ENDBRANCH   2  28
TORSDOF 6
ENDMDL
