/Users/jonathanwahrer/Desktop/Msc/3_Semester/Drug_Design_Praktikum/waehrer_HTS_screening/HTS_experiment/out/docking_results/vina_output/6q9y/1285_docked.pdbqt
 OpenBabel03222220013D

 34 37  0  0  1  0  0  0  0  0999 V2000
    2.6330    8.1490  -12.7270 C   0  0  1  0  0  3  0  0  0  0  0  0
    3.1190    9.2410  -13.5470 N   0  0  0  0  0  0  0  0  0  0  0  0
    2.5970    9.0600  -14.8820 C   0  0  0  0  0  0  0  0  0  0  0  0
    3.0620    9.4910  -15.9430 O   0  0  0  0  0  0  0  0  0  0  0  0
    1.3960    8.2510  -14.7010 C   0  0  0  0  0  0  0  0  0  0  0  0
    0.5930    7.8240  -15.5830 O   0  0  0  0  0  0  0  0  0  0  0  0
    1.2410    7.9820  -13.2810 C   0  0  0  0  0  0  0  0  0  0  0  0
    0.1500    7.6260  -12.6230 C   0  0  0  0  0  0  0  0  0  0  0  0
    0.2790    7.3600  -11.2300 O   0  0  0  0  0  1  0  0  0  0  0  0
    3.3920    6.8990  -12.8570 C   0  0  0  0  0  0  0  0  0  0  0  0
    4.7510    6.9920  -13.1730 C   0  0  0  0  0  3  0  0  0  0  0  0
    5.5100    5.8710  -13.3060 C   0  0  0  0  0  0  0  0  0  0  0  0
    7.3650    6.0210  -13.7380 Br  0  0  0  0  0  0  0  0  0  0  0  0
    4.9640    4.6220  -13.1340 C   0  0  0  0  0  3  0  0  0  0  0  0
    3.6310    4.4970  -12.8220 C   0  0  0  0  0  3  0  0  0  0  0  0
    2.8550    5.6410  -12.6860 C   0  0  0  0  0  3  0  0  0  0  0  0
   -1.1310    7.5180  -13.2760 C   0  0  0  0  0  0  0  0  0  0  0  0
   -1.9860    8.5070  -13.6130 N   0  0  0  0  0  0  0  0  0  0  0  0
   -3.0530    7.9550  -14.2410 C   0  0  0  0  0  0  0  0  0  0  0  0
   -1.9910    9.8400  -13.4430 C   0  0  0  0  0  3  0  0  0  0  0  0
   -2.8870    6.6050  -14.3100 N   0  0  0  0  0  0  0  0  0  0  0  0
   -4.1290    8.6610  -14.7130 C   0  0  0  0  0  0  0  0  0  0  0  0
   -1.6990    6.3490  -13.7110 C   0  0  0  0  0  0  0  0  0  0  0  0
   -1.1190    4.9850  -13.5610 C   0  0  0  0  0  1  0  0  0  0  0  0
   -4.1250   10.0270  -14.5350 C   0  0  0  0  0  3  0  0  0  0  0  0
   -5.2770    8.0010  -15.4000 C   0  0  0  0  0  1  0  0  0  0  0  0
   -3.0410   10.5930  -13.8940 C   0  0  0  0  0  3  0  0  0  0  0  0
    3.9830   10.3300  -13.1230 C   0  0  0  0  0  2  0  0  0  0  0  0
    3.3290   11.3140  -12.2160 C   0  0  0  0  0  2  0  0  0  0  0  0
    2.1570   12.0490  -12.8180 C   0  0  0  0  0  2  0  0  0  0  0  0
    2.2410   13.4530  -12.4900 N   0  0  0  0  0  4  0  0  0  0  0  0
    0.9180   13.9960  -12.2410 C   0  0  0  0  0  1  0  0  0  0  0  0
    2.9850   13.5910  -11.2540 C   0  0  0  0  0  1  0  0  0  0  0  0
    2.7630   14.0010  -13.2080 H   0  0  0  0  0  0  0  0  0  0  0  0
  1 10  1  6  0  0  0
  2 28  1  0  0  0  0
  2  1  1  0  0  0  0
  3  5  1  0  0  0  0
  3  2  1  0  0  0  0
  4  3  2  0  0  0  0
  5  7  1  0  0  0  0
  6  5  2  0  0  0  0
  7  1  1  0  0  0  0
  7  8  2  0  0  0  0
  8  9  1  0  0  0  0
 10 16  1  0  0  0  0
 11 10  2  0  0  0  0
 12 11  1  0  0  0  0
 12 14  2  0  0  0  0
 13 12  1  0  0  0  0
 14 15  1  0  0  0  0
 15 16  2  0  0  0  0
 17  8  1  0  0  0  0
 18 20  1  0  0  0  0
 18 17  1  0  0  0  0
 19 18  1  0  0  0  0
 21 19  2  0  0  0  0
 21 23  1  0  0  0  0
 22 25  2  0  0  0  0
 22 19  1  0  0  0  0
 23 24  1  0  0  0  0
 23 17  2  0  0  0  0
 25 27  1  0  0  0  0
 26 22  1  0  0  0  0
 27 20  2  0  0  0  0
 28 29  1  0  0  0  0
 30 31  1  0  0  0  0
 30 29  1  0  0  0  0
 31 32  1  0  0  0  0
 31 33  1  0  0  0  0
 34 31  1  0  0  0  0
M  END
>  <Pose>
1

>  <Score>
-8.684

$$$$
