/Users/jonathanwahrer/Desktop/Msc/3_Semester/Drug_Design_Praktikum/waehrer_HTS_screening/HTS_experiment/out/docking_results/vina_output/6q9y/1295_docked.pdbqt
 OpenBabel03222220013D

 26 29  0  0  1  0  0  0  0  0999 V2000
    1.8170    8.1490  -12.8610 C   0  0  0  0  0  0  0  0  0  0  0  0
    2.8090    7.0970  -12.9160 C   0  0  0  0  0  0  0  0  0  0  0  0
    4.0610    7.3290  -13.4130 C   0  0  1  0  0  3  0  0  0  0  0  0
    4.4670    8.6210  -13.8820 N   0  0  0  0  0  0  0  0  0  0  0  0
    3.4880    9.6480  -13.7970 C   0  0  0  0  0  0  0  0  0  0  0  0
    2.2890    9.4530  -13.3250 C   0  0  0  0  0  0  0  0  0  0  0  0
    1.5460   10.7510  -13.3520 C   0  0  0  0  0  0  0  0  0  0  0  0
    0.3490   10.8680  -12.9500 O   0  0  0  0  0  0  0  0  0  0  0  0
    2.4070   11.6640  -13.8660 O   0  0  0  0  0  0  0  0  0  0  0  0
    3.6250   11.1010  -14.2170 C   0  0  0  0  0  2  0  0  0  0  0  0
    4.9700    6.3020  -13.4580 N   0  0  0  0  0  0  0  0  0  0  0  0
    4.6410    5.0820  -13.0210 C   0  0  0  0  0  0  0  0  0  0  0  0
    5.4940    4.1510  -13.0720 O   0  0  0  0  0  0  0  0  0  0  0  0
    3.4080    4.8640  -12.5330 N   0  0  0  0  0  0  0  0  0  0  0  0
    2.4690    5.8040  -12.4550 C   0  0  0  0  0  0  0  0  0  0  0  0
    1.3150    5.6100  -12.0000 O   0  0  0  0  0  0  0  0  0  0  0  0
    3.0940    3.5130  -12.0670 C   0  0  0  0  0  1  0  0  0  0  0  0
    6.2850    6.6130  -13.9990 C   0  0  0  0  0  1  0  0  0  0  0  0
    5.4250    8.7540  -14.2540 H   0  0  0  0  0  0  0  0  0  0  0  0
    0.4960    7.8030  -13.3760 C   0  0  0  0  0  0  0  0  0  0  0  0
    0.3150    7.2420  -14.6050 C   0  0  0  0  0  3  0  0  0  0  0  0
   -0.9710    6.9250  -15.0750 C   0  0  0  0  0  3  0  0  0  0  0  0
   -2.0620    7.1810  -14.2860 C   0  0  0  0  0  0  0  0  0  0  0  0
   -3.8410    6.7640  -14.8860 Br  0  0  0  0  0  0  0  0  0  0  0  0
   -1.8940    7.7420  -13.0530 C   0  0  0  0  0  3  0  0  0  0  0  0
   -0.6030    8.0560  -12.5930 C   0  0  0  0  0  3  0  0  0  0  0  0
  2  1  2  0  0  0  0
  2 15  1  0  0  0  0
  3  2  1  1  0  0  0
  4  5  1  0  0  0  0
  4  3  1  0  0  0  0
  5  6  2  0  0  0  0
  6  1  1  0  0  0  0
  7  6  1  0  0  0  0
  7  8  2  0  0  0  0
  9  7  1  0  0  0  0
 10  9  1  0  0  0  0
 10  5  1  0  0  0  0
 11  3  1  0  0  0  0
 11 12  1  0  0  0  0
 12 14  1  0  0  0  0
 13 12  2  0  0  0  0
 14 15  1  0  0  0  0
 14 17  1  0  0  0  0
 15 16  2  0  0  0  0
 18 11  1  0  0  0  0
 19  4  1  0  0  0  0
 20  1  1  0  0  0  0
 20 26  1  0  0  0  0
 21 20  2  0  0  0  0
 22 21  1  0  0  0  0
 22 23  2  0  0  0  0
 23 25  1  0  0  0  0
 24 23  1  0  0  0  0
 25 26  2  0  0  0  0
M  END
>  <Pose>
1

>  <Score>
-6.999

$$$$
