MODEL 1
REMARK VINA RESULT:    -6.999      0.000      0.000
REMARK INTER + INTRA:          -7.333
REMARK INTER:                  -7.408
REMARK INTRA:                   0.075
REMARK UNBOUND:                 0.075
REMARK  1 active torsions:
REMARK  status: ('A' for Active; 'I' for Inactive)
REMARK    1  A    between atoms: C_5  and  C_8 
ROOT
ATOM      1  C   UNK d   1       1.817   8.149 -12.861  0.00  0.00     0.102 A 
ATOM      2  C   UNK d   1       2.809   7.097 -12.916  0.00  0.00     0.068 A 
ATOM      3  C   UNK d   1       4.061   7.329 -13.413  0.00  0.00     0.124 A 
ATOM      4  N   UNK d   1       4.467   8.621 -13.882  0.00  0.00    -0.343 N 
ATOM      5  C   UNK d   1       3.488   9.648 -13.797  0.00  0.00     0.048 A 
ATOM      6  C   UNK d   1       2.289   9.453 -13.325  0.00  0.00     0.055 A 
ATOM      7  C   UNK d   1       1.546  10.751 -13.352  0.00  0.00     0.292 A 
ATOM      8  O   UNK d   1       0.349  10.868 -12.950  0.00  0.00    -0.259 OA
ATOM      9  O   UNK d   1       2.407  11.664 -13.866  0.00  0.00    -0.312 OA
ATOM     10  C   UNK d   1       3.625  11.101 -14.217  0.00  0.00     0.237 A 
ATOM     11  N   UNK d   1       4.970   6.302 -13.458  0.00  0.00    -0.289 N 
ATOM     12  C   UNK d   1       4.641   5.082 -13.021  0.00  0.00     0.332 A 
ATOM     13  O   UNK d   1       5.494   4.151 -13.072  0.00  0.00    -0.246 OA
ATOM     14  N   UNK d   1       3.408   4.864 -12.533  0.00  0.00    -0.270 N 
ATOM     15  C   UNK d   1       2.469   5.804 -12.455  0.00  0.00     0.262 A 
ATOM     16  O   UNK d   1       1.315   5.610 -12.000  0.00  0.00    -0.267 OA
ATOM     17  C   UNK d   1       3.094   3.513 -12.067  0.00  0.00     0.164 C 
ATOM     18  C   UNK d   1       6.285   6.613 -13.999  0.00  0.00     0.163 C 
ATOM     19  H   UNK d   1       5.425   8.754 -14.254  0.00  0.00     0.167 HD
ENDROOT
BRANCH   1  20
ATOM     20  C   UNK d   1       0.496   7.803 -13.376  0.00  0.00    -0.045 A 
ATOM     21  C   UNK d   1       0.315   7.242 -14.605  0.00  0.00     0.009 A 
ATOM     22  C   UNK d   1      -0.971   6.925 -15.075  0.00  0.00     0.019 A 
ATOM     23  C   UNK d   1      -2.062   7.181 -14.286  0.00  0.00     0.011 A 
ATOM     24 Br   UNK d   1      -3.841   6.764 -14.886  0.00  0.00    -0.051 Br
ATOM     25  C   UNK d   1      -1.894   7.742 -13.053  0.00  0.00     0.019 A 
ATOM     26  C   UNK d   1      -0.603   8.056 -12.593  0.00  0.00     0.009 A 
ENDBRANCH   1  20
TORSDOF 1
ENDMDL
