MODEL 1
REMARK VINA RESULT:    -8.118      0.000      0.000
REMARK INTER + INTRA:         -12.628
REMARK INTER:                 -11.440
REMARK INTRA:                  -1.188
REMARK UNBOUND:                -1.188
REMARK  8 active torsions:
REMARK  status: ('A' for Active; 'I' for Inactive)
REMARK    1  A    between atoms: C_3  and  O_32 
REMARK    2  A    between atoms: C_6  and  C_8 
REMARK    3  A    between atoms: N_9  and  N_10 
REMARK       I    between atoms: N_10  and  C_11 
REMARK    4  A    between atoms: C_11  and  C_13 
REMARK    5  A    between atoms: N_14  and  C_25 
REMARK    6  A    between atoms: C_17  and  C_18 
REMARK    7  A    between atoms: C_18  and  N_19 
REMARK    8  A    between atoms: C_29  and  N_30 
ROOT
ATOM      1  C   UNK d   1       0.332   9.936 -13.252  0.00  0.00     0.160 A 
ATOM      2  N   UNK d   1       0.590  11.281 -13.321  0.00  0.00    -0.184 N 
ATOM      3  N   UNK d   1      -0.579  11.857 -13.510  0.00  0.00    -0.058 NA
ATOM      4  N   UNK d   1      -1.538  10.993 -13.562  0.00  0.00    -0.132 NA
ATOM      5  C   UNK d   1      -1.015   9.744 -13.404  0.00  0.00     0.121 A 
ENDROOT
BRANCH   1   6
ATOM      6  C   UNK d   1       1.416   8.984 -13.046  0.00  0.00     0.292 C 
ATOM      7  N   UNK d   1       2.375   8.573 -13.999  0.00  0.00    -0.242 N 
ATOM      8  H   UNK d   1       2.437   8.901 -14.988  0.00  0.00     0.192 HD
ATOM      9  O   UNK d   1       1.559   8.428 -11.891  0.00  0.00    -0.264 OA
BRANCH   7  10
ATOM     10  N   UNK d   1       3.349   7.618 -13.554  0.00  0.00    -0.183 NA
ATOM     11  C   UNK d   1       4.511   7.553 -14.079  0.00  0.00     0.150 C 
BRANCH  11  12
ATOM     12  C   UNK d   1       5.509   6.574 -13.622  0.00  0.00    -0.014 A 
ATOM     13  C   UNK d   1       6.762   6.961 -13.264  0.00  0.00     0.035 A 
ATOM     14  C   UNK d   1       7.700   6.040 -12.835  0.00  0.00     0.046 A 
ATOM     15  C   UNK d   1       7.397   4.704 -12.756  0.00  0.00     0.100 A 
ATOM     16 Br   UNK d   1       9.469   6.599 -12.330  0.00  0.00    -0.048 Br
ATOM     17  C   UNK d   1       6.126   4.307 -13.119  0.00  0.00     0.046 A 
ATOM     18 Br   UNK d   1       5.694   2.450 -13.014  0.00  0.00    -0.048 Br
ATOM     19  C   UNK d   1       5.197   5.234 -13.547  0.00  0.00     0.035 A 
BRANCH  15  20
ATOM     20  O   UNK d   1       8.364   3.809 -12.320  0.00  0.00    -0.358 OA
ATOM     21  H   UNK d   1       9.228   3.649 -12.807  0.00  0.00     0.217 HD
ENDBRANCH  15  20
ENDBRANCH  11  12
ENDBRANCH   7  10
ENDBRANCH   1   6
BRANCH   2  22
ATOM     22  C   UNK d   1       1.849  11.913 -13.213  0.00  0.00     0.230 A 
ATOM     23  N   UNK d   1       3.060  11.515 -13.675  0.00  0.00    -0.081 NA
ATOM     24  O   UNK d   1       3.940  12.394 -13.354  0.00  0.00    -0.103 OA
ATOM     25  N   UNK d   1       3.429  13.386 -12.698  0.00  0.00    -0.083 NA
ATOM     26  C   UNK d   1       2.099  13.119 -12.585  0.00  0.00     0.201 A 
BRANCH  26  27
ATOM     27  N   UNK d   1       1.168  13.963 -11.929  0.00  0.00    -0.379 N 
ATOM     28  H   UNK d   1       1.469  14.436 -11.057  0.00  0.00     0.158 HD
ATOM     29  H   UNK d   1       0.205  14.137 -12.269  0.00  0.00     0.158 HD
ENDBRANCH  26  27
ENDBRANCH   2  22
BRANCH   5  30
ATOM     30  C   UNK d   1      -1.718   8.461 -13.405  0.00  0.00     0.336 C 
BRANCH  30  31
ATOM     31  N   UNK d   1      -1.657   7.751 -14.673  0.00  0.00     0.098 N 
ATOM     32  C   UNK d   1      -0.678   6.674 -14.599  0.00  0.00     0.299 C 
ATOM     33  C   UNK d   1      -1.303   5.379 -14.164  0.00  0.00     0.198 C 
ATOM     34  O   UNK d   1      -2.486   5.530 -13.463  0.00  0.00    -0.388 OA
ATOM     35  C   UNK d   1      -3.482   6.204 -14.154  0.00  0.00     0.198 C 
ATOM     36  C   UNK d   1      -2.935   7.238 -15.101  0.00  0.00     0.299 C 
ENDBRANCH  30  31
ENDBRANCH   5  30
TORSDOF 8
ENDMDL
