/Users/jonathanwahrer/Desktop/Msc/3_Semester/Drug_Design_Praktikum/waehrer_HTS_screening/HTS_experiment/out/docking_results/vina_output/6q9y/1300_docked.pdbqt
 OpenBabel03222220023D

 22 25  0  0  1  0  0  0  0  0999 V2000
    0.7350    8.8280  -13.4960 N   0  0  0  0  0  0  0  0  0  0  0  0
    1.4630    8.8170  -12.2820 C   0  0  0  0  0  0  0  0  0  0  0  0
    1.0830    8.3430  -11.1910 O   0  0  0  0  0  0  0  0  0  0  0  0
    2.7810    9.4600  -12.4650 C   0  0  2  0  0  3  0  0  0  0  0  0
    2.6270   10.9010  -12.0300 C   0  0  2  0  0  3  0  0  0  0  0  0
    1.8900   11.4090  -13.1330 O   0  0  0  0  0  0  0  0  0  0  0  0
    2.8680   11.1160  -14.1200 C   0  0  2  0  0  3  0  0  0  0  0  0
    2.9440    9.6190  -13.9740 C   0  0  2  0  0  3  0  0  0  0  0  0
    1.7010    9.0390  -14.5290 C   0  0  0  0  0  0  0  0  0  0  0  0
    1.5080    8.7640  -15.7570 O   0  0  0  0  0  0  0  0  0  0  0  0
    4.0360   11.7990  -13.5240 C   0  0  0  0  0  2  0  0  0  0  0  0
    3.9020   11.6380  -12.2100 C   0  0  0  0  0  2  0  0  0  0  0  0
   -0.6540    8.6720  -13.7480 C   0  0  0  0  0  0  0  0  0  0  0  0
   -1.2130    7.4340  -13.9670 C   0  0  0  0  0  0  0  0  0  0  0  0
   -0.0280    5.9310  -13.9030 Br  0  0  0  0  0  0  0  0  0  0  0  0
   -2.5710    7.2540  -14.2220 C   0  0  0  0  0  3  0  0  0  0  0  0
   -3.4260    8.3370  -14.2660 C   0  0  0  0  0  0  0  0  0  0  0  0
   -2.8640    9.5830  -14.0450 C   0  0  0  0  0  3  0  0  0  0  0  0
   -1.5240    9.7620  -13.7930 C   0  0  0  0  0  3  0  0  0  0  0  0
   -4.8160    8.1840  -14.5270 N   0  0  0  0  0  0  0  0  0  0  0  0
   -5.6100    8.9450  -13.9470 O   0  0  0  0  0  0  0  0  0  0  0  0
   -5.3420    7.2520  -15.3780 O   0  0  0  0  0  0  0  0  0  0  0  0
  1  2  1  0  0  0  0
  2  3  2  0  0  0  0
  4  2  1  6  0  0  0
  4  5  1  0  0  0  0
  5 12  1  6  0  0  0
  6  5  1  0  0  0  0
  7  8  1  0  0  0  0
  7 11  1  1  0  0  0
  7  6  1  0  0  0  0
  8  9  1  6  0  0  0
  8  4  1  0  0  0  0
  9  1  1  0  0  0  0
 10  9  2  0  0  0  0
 11 12  1  0  0  0  0
 13  1  1  0  0  0  0
 14 15  1  0  0  0  0
 14 13  2  0  0  0  0
 16 14  1  0  0  0  0
 17 16  2  0  0  0  0
 17 18  1  0  0  0  0
 18 19  2  0  0  0  0
 19 13  1  0  0  0  0
 20 17  1  0  0  0  0
 20 21  2  0  0  0  0
 22 20  2  0  0  0  0
M  END
>  <Pose>
1

>  <Score>
-7.234

$$$$
