MODEL 1
REMARK VINA RESULT:    -7.234      0.000      0.000
REMARK INTER + INTRA:          -8.639
REMARK INTER:                  -8.080
REMARK INTRA:                  -0.559
REMARK UNBOUND:                -0.559
REMARK  2 active torsions:
REMARK  status: ('A' for Active; 'I' for Inactive)
REMARK    1  A    between atoms: C_3  and  N_11 
REMARK    2  A    between atoms: C_6  and  N_8 
ROOT
ATOM      1  N   UNK d   1       0.735   8.828 -13.496  0.00  0.00    -0.250 N 
ATOM      2  C   UNK d   1       1.463   8.817 -12.282  0.00  0.00     0.239 C 
ATOM      3  O   UNK d   1       1.083   8.343 -11.191  0.00  0.00    -0.272 OA
ATOM      4  C   UNK d   1       2.781   9.460 -12.465  0.00  0.00     0.127 C 
ATOM      5  C   UNK d   1       2.627  10.901 -12.030  0.00  0.00     0.159 C 
ATOM      6  O   UNK d   1       1.890  11.409 -13.133  0.00  0.00    -0.371 OA
ATOM      7  C   UNK d   1       2.868  11.116 -14.120  0.00  0.00     0.159 C 
ATOM      8  C   UNK d   1       2.944   9.619 -13.974  0.00  0.00     0.127 C 
ATOM      9  C   UNK d   1       1.701   9.039 -14.529  0.00  0.00     0.239 C 
ATOM     10  O   UNK d   1       1.508   8.764 -15.757  0.00  0.00    -0.272 OA
ATOM     11  C   UNK d   1       4.036  11.799 -13.524  0.00  0.00     0.004 C 
ATOM     12  C   UNK d   1       3.902  11.638 -12.210  0.00  0.00     0.004 C 
ENDROOT
BRANCH   1  13
ATOM     13  C   UNK d   1      -0.654   8.672 -13.748  0.00  0.00     0.062 A 
ATOM     14  C   UNK d   1      -1.213   7.434 -13.967  0.00  0.00     0.040 A 
ATOM     15 Br   UNK d   1      -0.028   5.931 -13.903  0.00  0.00    -0.049 Br
ATOM     16  C   UNK d   1      -2.571   7.254 -14.222  0.00  0.00     0.057 A 
ATOM     17  C   UNK d   1      -3.426   8.337 -14.266  0.00  0.00     0.104 A 
ATOM     18  C   UNK d   1      -2.864   9.583 -14.045  0.00  0.00     0.038 A 
ATOM     19  C   UNK d   1      -1.524   9.762 -13.793  0.00  0.00     0.034 A 
BRANCH  17  20
ATOM     20  N   UNK d   1      -4.816   8.184 -14.527  0.00  0.00    -0.116 N 
ATOM     21  O   UNK d   1      -5.610   8.945 -13.947  0.00  0.00    -0.532 OA
ATOM     22  O   UNK d   1      -5.342   7.252 -15.378  0.00  0.00    -0.532 OA
ENDBRANCH  17  20
ENDBRANCH   1  13
TORSDOF 2
ENDMDL
