MODEL 1
REMARK VINA RESULT:    -7.743      0.000      0.000
REMARK INTER + INTRA:          -9.560
REMARK INTER:                  -8.875
REMARK INTRA:                  -0.685
REMARK UNBOUND:                -0.685
REMARK  3 active torsions:
REMARK  status: ('A' for Active; 'I' for Inactive)
REMARK    1  A    between atoms: C_6  and  N_8 
REMARK    2  A    between atoms: C_12  and  C_21 
REMARK    3  A    between atoms: C_21  and  O_22 
ROOT
ATOM      1  N   UNK d   1       0.742  10.002 -13.936  0.00  0.00    -0.252 N 
ATOM      2  C   UNK d   1       1.712   9.433 -14.809  0.00  0.00     0.239 C 
ATOM      3  O   UNK d   1       2.326  10.002 -15.737  0.00  0.00    -0.272 OA
ATOM      4  C   UNK d   1       1.913   7.995 -14.456  0.00  0.00     0.136 C 
ATOM      5  C   UNK d   1       2.943   7.816 -13.392  0.00  0.00     0.114 C 
ATOM      6  O   UNK d   1       2.242   8.155 -12.208  0.00  0.00    -0.358 OA
ATOM      7  C   UNK d   1       1.198   7.209 -12.372  0.00  0.00     0.089 C 
ATOM      8  C   UNK d   1       0.641   7.640 -13.690  0.00  0.00     0.133 C 
ATOM      9  C   UNK d   1      -0.093   8.919 -13.549  0.00  0.00     0.239 C 
ATOM     10  O   UNK d   1      -1.271   9.026 -13.148  0.00  0.00    -0.272 OA
ATOM     11  C   UNK d   1       2.021   5.972 -12.525  0.00  0.00     0.010 C 
ATOM     12  C   UNK d   1       3.139   6.360 -13.163  0.00  0.00     0.013 C 
ATOM     13  C   UNK d   1       0.254   7.186 -11.247  0.00  0.00     0.051 C 
ENDROOT
BRANCH   1  14
ATOM     14  C   UNK d   1       0.678  11.371 -13.562  0.00  0.00     0.046 A 
ATOM     15  C   UNK d   1      -0.399  12.179 -13.865  0.00  0.00     0.031 A 
ATOM     16  C   UNK d   1      -0.460  13.527 -13.495  0.00  0.00     0.010 A 
ATOM     17  C   UNK d   1       0.573  14.112 -12.800  0.00  0.00    -0.044 A 
ATOM     18  C   UNK d   1       1.654  13.320 -12.491  0.00  0.00     0.019 A 
ATOM     19  C   UNK d   1       0.505  15.551 -12.409  0.00  0.00     0.049 C 
ATOM     20 Br   UNK d   1       3.104  14.093 -11.531  0.00  0.00    -0.051 Br
ATOM     21  C   UNK d   1       1.709  11.974 -12.863  0.00  0.00     0.050 A 
ENDBRANCH   1  14
BRANCH   5  22
ATOM     22  C   UNK d   1       4.191   8.581 -13.569  0.00  0.00     0.207 C 
BRANCH  22  23
ATOM     23  O   UNK d   1       4.854   8.234 -14.744  0.00  0.00    -0.398 OA
ATOM     24  H   UNK d   1       5.639   8.820 -14.936  0.00  0.00     0.209 HD
ENDBRANCH  22  23
ENDBRANCH   5  22
TORSDOF 3
ENDMDL
