/Users/jonathanwahrer/Desktop/Msc/3_Semester/Drug_Design_Praktikum/waehrer_HTS_screening/HTS_experiment/out/docking_results/vina_output/6q9y/1310_docked.pdbqt
 OpenBabel03222220023D

 32 35  0  0  1  0  0  0  0  0999 V2000
    2.7490    8.1580  -12.6470 C   0  0  1  0  0  3  0  0  0  0  0  0
    3.2660    9.2350  -13.4630 N   0  0  0  0  0  0  0  0  0  0  0  0
    2.7410    9.0520  -14.7660 C   0  0  0  0  0  0  0  0  0  0  0  0
    3.2350    9.4250  -15.8590 O   0  0  0  0  0  0  0  0  0  0  0  0
    1.4820    8.3260  -14.5950 C   0  0  0  0  0  0  0  0  0  0  0  0
    0.6690    7.9400  -15.4660 O   0  0  0  0  0  0  0  0  0  0  0  0
    1.3380    8.1220  -13.1450 C   0  0  0  0  0  0  0  0  0  0  0  0
    0.2030    7.9270  -12.5130 C   0  0  0  0  0  0  0  0  0  0  0  0
    0.2750    7.7050  -11.1320 O   0  0  0  0  0  1  0  0  0  0  0  0
    3.4610    6.8860  -12.8050 C   0  0  0  0  0  0  0  0  0  0  0  0
    4.7950    6.7570  -13.0980 C   0  0  0  0  0  3  0  0  0  0  0  0
    5.4240    5.5180  -13.2310 C   0  0  0  0  0  0  0  0  0  0  0  0
    7.3000    5.4220  -13.6460 Br  0  0  0  0  0  0  0  0  0  0  0  0
    4.6980    4.3590  -13.0660 C   0  0  0  0  0  3  0  0  0  0  0  0
    3.3560    4.4580  -12.7700 C   0  0  0  0  0  3  0  0  0  0  0  0
    2.7480    5.6860  -12.6430 C   0  0  0  0  0  3  0  0  0  0  0  0
   -1.1030    7.9440  -13.2010 C   0  0  0  0  0  0  0  0  0  0  0  0
   -1.7080    6.9810  -13.8290 O   0  0  0  0  0  0  0  0  0  0  0  0
   -2.8650    7.3700  -14.3160 C   0  0  0  0  0  0  0  0  0  0  0  0
   -3.0610    8.7030  -13.9920 C   0  0  0  0  0  0  0  0  0  0  0  0
   -3.8570    6.7370  -15.0420 C   0  0  0  0  0  3  0  0  0  0  0  0
   -1.9280    9.0500  -13.2820 C   0  0  0  0  0  3  0  0  0  0  0  0
   -4.2070    9.3560  -14.3890 C   0  0  0  0  0  3  0  0  0  0  0  0
   -5.1960    8.7270  -15.1110 C   0  0  0  0  0  3  0  0  0  0  0  0
   -5.0160    7.4020  -15.4410 C   0  0  0  0  0  3  0  0  0  0  0  0
    4.1380   10.3520  -13.1040 C   0  0  0  0  0  2  0  0  0  0  0  0
    3.4100   11.3190  -12.1890 C   0  0  0  0  0  2  0  0  0  0  0  0
    2.2590   12.0100  -12.8710 C   0  0  0  0  0  2  0  0  0  0  0  0
    2.2230   13.3830  -12.4810 N   0  0  0  0  0  4  0  0  0  0  0  0
    0.8800   13.9110  -12.3660 C   0  0  0  0  0  1  0  0  0  0  0  0
    2.9200   13.6960  -11.2710 C   0  0  0  0  0  1  0  0  0  0  0  0
    2.6870   13.9420  -13.2580 H   0  0  0  0  0  0  0  0  0  0  0  0
  1 10  1  6  0  0  0
  2 26  1  0  0  0  0
  2  1  1  0  0  0  0
  3  5  1  0  0  0  0
  3  2  1  0  0  0  0
  4  3  2  0  0  0  0
  5  7  1  0  0  0  0
  6  5  2  0  0  0  0
  7  1  1  0  0  0  0
  7  8  2  0  0  0  0
  8  9  1  0  0  0  0
 10 16  1  0  0  0  0
 11 10  2  0  0  0  0
 12 11  1  0  0  0  0
 12 14  2  0  0  0  0
 13 12  1  0  0  0  0
 14 15  1  0  0  0  0
 15 16  2  0  0  0  0
 17  8  1  0  0  0  0
 18 17  1  0  0  0  0
 19 20  1  0  0  0  0
 19 18  1  0  0  0  0
 20 22  1  0  0  0  0
 21 19  2  0  0  0  0
 22 17  2  0  0  0  0
 23 20  2  0  0  0  0
 24 23  1  0  0  0  0
 25 24  2  0  0  0  0
 25 21  1  0  0  0  0
 26 27  1  0  0  0  0
 28 29  1  0  0  0  0
 28 27  1  0  0  0  0
 29 30  1  0  0  0  0
 29 31  1  0  0  0  0
 32 29  1  0  0  0  0
M  END
>  <Pose>
1

>  <Score>
-8.278

$$$$
