MODEL 1
REMARK VINA RESULT:    -8.278      0.000      0.000
REMARK INTER + INTRA:         -12.327
REMARK INTER:                 -11.182
REMARK INTRA:                  -1.145
REMARK UNBOUND:                -1.145
REMARK  6 active torsions:
REMARK  status: ('A' for Active; 'I' for Inactive)
REMARK    1  A    between atoms: C_4  and  C_8 
REMARK    2  A    between atoms: N_9  and  C_26 
REMARK    3  A    between atoms: C_15  and  C_17 
REMARK    4  A    between atoms: C_26  and  C_27 
REMARK    5  A    between atoms: C_27  and  C_28 
REMARK    6  A    between atoms: C_28  and  N_29 
ROOT
ATOM      1  C   UNK d   1       2.749   8.158 -12.647  0.00  0.00     0.161 C 
ATOM      2  N   UNK d   1       3.266   9.235 -13.463  0.00  0.00    -0.332 N 
ATOM      3  C   UNK d   1       2.741   9.052 -14.766  0.00  0.00     0.295 C 
ATOM      4  O   UNK d   1       3.235   9.425 -15.859  0.00  0.00    -0.264 OA
ATOM      5  C   UNK d   1       1.482   8.326 -14.595  0.00  0.00     0.251 C 
ATOM      6  O   UNK d   1       0.669   7.940 -15.466  0.00  0.00    -0.282 OA
ATOM      7  C   UNK d   1       1.338   8.122 -13.145  0.00  0.00     0.064 C 
ATOM      8  C   UNK d   1       0.203   7.927 -12.513  0.00  0.00     0.153 C 
ATOM      9  O   UNK d   1       0.275   7.705 -11.132  0.00  0.00    -0.188 OA
ENDROOT
BRANCH   1  10
ATOM     10  C   UNK d   1       3.461   6.886 -12.805  0.00  0.00    -0.029 A 
ATOM     11  C   UNK d   1       4.795   6.757 -13.098  0.00  0.00     0.028 A 
ATOM     12  C   UNK d   1       5.424   5.518 -13.231  0.00  0.00     0.011 A 
ATOM     13 Br   UNK d   1       7.300   5.422 -13.646  0.00  0.00    -0.051 Br
ATOM     14  C   UNK d   1       4.698   4.359 -13.066  0.00  0.00     0.019 A 
ATOM     15  C   UNK d   1       3.356   4.458 -12.770  0.00  0.00     0.002 A 
ATOM     16  C   UNK d   1       2.748   5.686 -12.643  0.00  0.00     0.009 A 
ENDBRANCH   1  10
BRANCH   8  17
ATOM     17  C   UNK d   1      -1.103   7.944 -13.201  0.00  0.00     0.114 A 
ATOM     18  O   UNK d   1      -1.708   6.981 -13.829  0.00  0.00    -0.307 OA
ATOM     19  C   UNK d   1      -2.865   7.370 -14.316  0.00  0.00     0.086 A 
ATOM     20  C   UNK d   1      -3.061   8.703 -13.992  0.00  0.00     0.001 A 
ATOM     21  C   UNK d   1      -3.857   6.737 -15.042  0.00  0.00     0.038 A 
ATOM     22  C   UNK d   1      -1.928   9.050 -13.282  0.00  0.00     0.054 A 
ATOM     23  C   UNK d   1      -4.207   9.356 -14.389  0.00  0.00     0.014 A 
ATOM     24  C   UNK d   1      -5.196   8.727 -15.111  0.00  0.00     0.001 A 
ATOM     25  C   UNK d   1      -5.016   7.402 -15.441  0.00  0.00     0.003 A 
ENDBRANCH   8  17
BRANCH   2  26
ATOM     26  C   UNK d   1       4.138  10.352 -13.104  0.00  0.00     0.129 C 
BRANCH  26  27
ATOM     27  C   UNK d   1       3.410  11.319 -12.189  0.00  0.00     0.048 C 
BRANCH  27  28
ATOM     28  C   UNK d   1       2.259  12.010 -12.871  0.00  0.00     0.235 C 
BRANCH  28  29
ATOM     29  N   UNK d   1       2.223  13.383 -12.481  0.00  0.00    -0.079 N 
ATOM     30  C   UNK d   1       0.880  13.911 -12.366  0.00  0.00     0.269 C 
ATOM     31  C   UNK d   1       2.920  13.696 -11.271  0.00  0.00     0.269 C 
ATOM     32  H   UNK d   1       2.687  13.942 -13.258  0.00  0.00     0.278 HD
ENDBRANCH  28  29
ENDBRANCH  27  28
ENDBRANCH  26  27
ENDBRANCH   2  26
TORSDOF 6
ENDMDL
