MODEL 1
REMARK VINA RESULT:    -7.965      0.000      0.000
REMARK INTER + INTRA:         -12.359
REMARK INTER:                 -10.991
REMARK INTRA:                  -1.368
REMARK UNBOUND:                -1.368
REMARK  7 active torsions:
REMARK  status: ('A' for Active; 'I' for Inactive)
REMARK    1  A    between atoms: C_3  and  C_8 
REMARK    2  A    between atoms: C_8  and  N_9 
REMARK    3  A    between atoms: N_9  and  N_10 
REMARK       I    between atoms: N_10  and  C_11 
REMARK    4  A    between atoms: C_11  and  C_13 
REMARK    5  A    between atoms: N_16  and  C_24 
REMARK    6  A    between atoms: C_17  and  C_18 
REMARK    7  A    between atoms: C_28  and  N_29 
ROOT
ATOM      1  C   UNK d   1       2.177   5.359 -12.532  0.00  0.00     0.176 A 
ATOM      2  N   UNK d   1       2.723   4.187 -12.420  0.00  0.00    -0.124 NA
ATOM      3  N   UNK d   1       3.993   4.281 -12.618  0.00  0.00    -0.058 NA
ATOM      4  N   UNK d   1       4.386   5.585 -12.887  0.00  0.00    -0.191 N 
ATOM      5  C   UNK d   1       3.277   6.288 -12.837  0.00  0.00     0.093 A 
ENDROOT
BRANCH   1   6
ATOM      6  C   UNK d   1       0.833   5.754 -12.652  0.00  0.00     0.294 C 
ATOM      7  N   UNK d   1       0.119   5.814 -14.021  0.00  0.00    -0.242 N 
ATOM      8  H   UNK d   1       0.689   5.505 -14.804  0.00  0.00     0.192 HD
ATOM      9  O   UNK d   1       0.110   6.094 -11.723  0.00  0.00    -0.264 OA
BRANCH   7  10
ATOM     10  N   UNK d   1      -1.042   6.307 -13.744  0.00  0.00    -0.183 NA
BRANCH  10  11
ATOM     11  C   UNK d   1      -2.226   6.633 -13.939  0.00  0.00     0.151 C 
BRANCH  11  12
ATOM     12  C   UNK d   1      -2.371   8.162 -13.739  0.00  0.00     0.000 A 
ATOM     13  C   UNK d   1      -3.462   8.753 -14.330  0.00  0.00     0.022 A 
ATOM     14 Br   UNK d   1      -4.855   7.679 -15.015  0.00  0.00    -0.050 Br
ATOM     15  C   UNK d   1      -3.462  10.145 -14.458  0.00  0.00     0.020 A 
ATOM     16  C   UNK d   1      -2.392  10.905 -13.973  0.00  0.00     0.001 A 
ATOM     17  C   UNK d   1      -1.343  10.296 -13.372  0.00  0.00     0.001 A 
ATOM     18  C   UNK d   1      -1.343   8.870 -13.268  0.00  0.00     0.014 A 
ENDBRANCH  11  12
ENDBRANCH  10  11
ENDBRANCH   7  10
ENDBRANCH   1   6
BRANCH   5  19
ATOM     19  C   UNK d   1       2.908   7.701 -12.838  0.00  0.00     0.179 C 
ATOM     20  N   UNK d   1       2.729   8.566 -13.841  0.00  0.00    -0.407 N 
ATOM     21  C   UNK d   1       2.191   9.821 -13.333  0.00  0.00     0.117 C 
ATOM     22  C   UNK d   1       3.402   8.838 -14.999  0.00  0.00     0.117 C 
ATOM     23  C   UNK d   1       2.987  10.924 -13.964  0.00  0.00     0.021 C 
ATOM     24  C   UNK d   1       4.047  10.234 -14.817  0.00  0.00     0.021 C 
ENDBRANCH   5  19
BRANCH   4  25
ATOM     25  C   UNK d   1       5.734   5.796 -13.176  0.00  0.00     0.229 A 
ATOM     26  N   UNK d   1       6.202   7.040 -13.599  0.00  0.00    -0.081 NA
ATOM     27  O   UNK d   1       7.434   6.923 -13.899  0.00  0.00    -0.103 OA
ATOM     28  N   UNK d   1       7.855   5.735 -13.722  0.00  0.00    -0.083 NA
ATOM     29  C   UNK d   1       6.800   5.001 -13.267  0.00  0.00     0.201 A 
BRANCH  29  30
ATOM     30  N   UNK d   1       6.956   3.604 -12.990  0.00  0.00    -0.379 N 
ATOM     31  H   UNK d   1       7.521   3.349 -12.168  0.00  0.00     0.158 HD
ATOM     32  H   UNK d   1       6.575   2.901 -13.621  0.00  0.00     0.158 HD
ENDBRANCH  29  30
ENDBRANCH   4  25
TORSDOF 7
ENDMDL
