MODEL 1
REMARK VINA RESULT:    -8.319      0.000      0.000
REMARK INTER + INTRA:         -12.581
REMARK INTER:                 -11.481
REMARK INTRA:                  -1.100
REMARK UNBOUND:                -1.100
REMARK  7 active torsions:
REMARK  status: ('A' for Active; 'I' for Inactive)
REMARK    1  A    between atoms: C_4  and  C_8 
REMARK    2  A    between atoms: C_8  and  C_10 
REMARK    3  A    between atoms: C_10  and  N_11 
REMARK    4  A    between atoms: N_18  and  C_21 
REMARK    5  A    between atoms: C_19  and  N_20 
REMARK    6  A    between atoms: C_21  and  C_22 
REMARK    7  A    between atoms: C_22  and  N_23 
ROOT
ATOM      1  N   UNK d   1       1.914   7.230 -12.524  0.00  0.00    -0.175 N 
ATOM      2  C   UNK d   1       2.573   8.186 -13.257  0.00  0.00     0.079 A 
ATOM      3  C   UNK d   1       3.728   7.607 -13.697  0.00  0.00     0.079 A 
ATOM      4  C   UNK d   1       4.616   8.355 -14.476  0.00  0.00     0.032 A 
ATOM      5  C   UNK d   1       4.312   9.663 -14.786  0.00  0.00     0.002 A 
ATOM      6  C   UNK d   1       3.146  10.250 -14.344  0.00  0.00     0.002 A 
ATOM      7  C   UNK d   1       2.266   9.493 -13.567  0.00  0.00     0.032 A 
ATOM      8  N   UNK d   1       3.753   6.336 -13.240  0.00  0.00    -0.179 N 
ATOM      9  C   UNK d   1       2.654   6.089 -12.525  0.00  0.00     0.681 A 
ENDROOT
BRANCH   1  10
ATOM     10  C   UNK d   1       0.610   7.421 -11.927  0.00  0.00     0.216 C 
BRANCH  10  11
ATOM     11  C   UNK d   1      -0.509   7.129 -12.833  0.00  0.00     0.113 C 
ATOM     12  O   UNK d   1      -0.615   5.878 -13.221  0.00  0.00    -0.194 OA
BRANCH  11  13
ATOM     13  C   UNK d   1      -1.526   7.991 -13.377  0.00  0.00    -0.001 A 
ATOM     14  C   UNK d   1      -2.657   7.584 -14.023  0.00  0.00     0.033 A 
ATOM     15  C   UNK d   1      -3.587   8.463 -14.500  0.00  0.00     0.011 A 
ATOM     16 Br   UNK d   1      -5.180   7.836 -15.403  0.00  0.00    -0.051 Br
ATOM     17  C   UNK d   1      -3.394   9.815 -14.332  0.00  0.00     0.019 A 
ATOM     18  C   UNK d   1      -2.274  10.288 -13.689  0.00  0.00     0.002 A 
ATOM     19  C   UNK d   1      -1.366   9.377 -13.225  0.00  0.00     0.014 A 
ENDBRANCH  11  13
ENDBRANCH  10  11
ENDBRANCH   1  10
BRANCH   9  20
ATOM     20  N   UNK d   1       2.313   4.928 -12.011  0.00  0.00    -0.234 N 
ATOM     21  H   UNK d   1       1.359   4.578 -12.005  0.00  0.00     0.174 HD
ATOM     22  H   UNK d   1       3.045   4.357 -11.567  0.00  0.00     0.174 HD
ENDBRANCH   9  20
BRANCH   8  23
ATOM     23  C   UNK d   1       4.837   5.426 -13.569  0.00  0.00     0.178 C 
BRANCH  23  24
ATOM     24  C   UNK d   1       6.148   5.744 -12.978  0.00  0.00     0.293 C 
BRANCH  24  25
ATOM     25  N   UNK d   1       7.317   5.646 -13.777  0.00  0.00     0.094 N 
ATOM     26  C   UNK d   1       8.314   4.755 -13.131  0.00  0.00     0.298 C 
ATOM     27  C   UNK d   1       8.655   5.203 -11.747  0.00  0.00     0.198 C 
ATOM     28  O   UNK d   1       9.342   6.412 -11.868  0.00  0.00    -0.388 OA
ATOM     29  C   UNK d   1       8.597   7.358 -12.526  0.00  0.00     0.198 C 
ATOM     30  C   UNK d   1       8.045   6.923 -13.856  0.00  0.00     0.298 C 
ENDBRANCH  24  25
ENDBRANCH  23  24
ENDBRANCH   8  23
TORSDOF 7
ENDMDL
