/Users/jonathanwahrer/Desktop/Msc/3_Semester/Drug_Design_Praktikum/waehrer_HTS_screening/HTS_experiment/out/docking_results/vina_output/6q9y/1329_docked.pdbqt
 OpenBabel03222220033D

 28 31  0  0  0  0  0  0  0  0999 V2000
   -1.7660   11.9130  -13.5180 C   0  0  0  0  0  3  0  0  0  0  0  0
   -2.0220   10.6290  -13.7770 C   0  0  0  0  0  0  0  0  0  0  0  0
   -1.1150    9.5710  -13.7610 O   0  0  0  0  0  0  0  0  0  0  0  0
   -1.7400    8.3940  -14.0710 C   0  0  0  0  0  0  0  0  0  0  0  0
   -3.0930    8.6150  -14.3080 C   0  0  0  0  0  0  0  0  0  0  0  0
   -3.8880    7.5270  -14.6320 C   0  0  0  0  0  3  0  0  0  0  0  0
   -3.3400    6.2670  -14.7100 C   0  0  0  0  0  3  0  0  0  0  0  0
   -1.9760    6.0840  -14.4650 C   0  0  0  0  0  0  0  0  0  0  0  0
   -1.1670    7.1420  -14.1450 C   0  0  0  0  0  0  0  0  0  0  0  0
   -1.5210    4.7790  -14.5700 O   0  0  0  0  0  1  0  0  0  0  0  0
   -3.3200   10.0590  -14.1280 C   0  0  0  0  0  0  0  0  0  0  0  0
   -4.4300   10.6340  -14.2680 O   0  0  0  0  0  0  0  0  0  0  0  0
    0.2680    6.9090  -13.9770 C   0  0  0  0  0  2  0  0  0  0  0  0
    1.0870    8.0610  -13.8660 N   0  0  0  0  0  4  0  0  0  0  0  0
    1.6650    8.3360  -15.1710 C   0  0  0  0  0  2  0  0  0  0  0  0
    3.0770    8.8100  -15.1520 C   0  0  0  0  0  2  0  0  0  0  0  0
    3.9700    8.0350  -14.3650 N   0  0  0  0  0  0  0  0  0  0  0  0
    3.2770    7.1520  -13.4850 C   0  0  0  0  0  2  0  0  0  0  0  0
    4.8860    8.9060  -13.6590 C   0  0  0  0  0  1  0  0  0  0  0  0
    2.1130    7.8560  -12.8720 C   0  0  0  0  0  2  0  0  0  0  0  0
    0.5510    8.9170  -13.5300 H   0  0  0  0  0  0  0  0  0  0  0  0
   -0.4300   12.3540  -13.1700 C   0  0  0  0  0  0  0  0  0  0  0  0
   -0.2080   13.6150  -12.6610 C   0  0  0  0  0  3  0  0  0  0  0  0
    1.0820   14.0310  -12.3440 C   0  0  0  0  0  0  0  0  0  0  0  0
    1.3900   15.7830  -11.6470 Br  0  0  0  0  0  0  0  0  0  0  0  0
    2.1510   13.1710  -12.5420 C   0  0  0  0  0  3  0  0  0  0  0  0
    1.8890   11.9210  -13.0540 C   0  0  0  0  0  3  0  0  0  0  0  0
    0.6210   11.4930  -13.3710 C   0  0  0  0  0  3  0  0  0  0  0  0
  1 22  1  0  0  0  0
  2  3  1  0  0  0  0
  2  1  2  0  0  0  0
  4  3  1  0  0  0  0
  5 11  1  0  0  0  0
  5  4  2  0  0  0  0
  6  5  1  0  0  0  0
  7  6  2  0  0  0  0
  7  8  1  0  0  0  0
  8  9  2  0  0  0  0
  9  4  1  0  0  0  0
  9 13  1  0  0  0  0
 10  8  1  0  0  0  0
 11  2  1  0  0  0  0
 12 11  2  0  0  0  0
 13 14  1  0  0  0  0
 14 21  1  0  0  0  0
 14 20  1  0  0  0  0
 15 16  1  0  0  0  0
 15 14  1  0  0  0  0
 16 17  1  0  0  0  0
 17 19  1  0  0  0  0
 17 18  1  0  0  0  0
 18 20  1  0  0  0  0
 22 23  1  0  0  0  0
 23 24  2  0  0  0  0
 24 25  1  0  0  0  0
 26 24  1  0  0  0  0
 27 26  2  0  0  0  0
 28 22  2  0  0  0  0
 28 27  1  0  0  0  0
M  END
>  <Pose>
1

>  <Score>
-8.905

$$$$
