MODEL 1
REMARK VINA RESULT:    -8.905      0.000      0.000
REMARK INTER + INTRA:         -10.684
REMARK INTER:                 -10.466
REMARK INTRA:                  -0.218
REMARK UNBOUND:                -0.218
REMARK  3 active torsions:
REMARK  status: ('A' for Active; 'I' for Inactive)
REMARK    1  A    between atoms: C_4  and  C_8 
REMARK    2  A    between atoms: C_16  and  C_17 
REMARK    3  A    between atoms: C_17  and  N_18 
ROOT
ATOM      1  C   UNK d   1      -1.766  11.913 -13.518  0.00  0.00     0.053 C 
ATOM      2  C   UNK d   1      -2.022  10.629 -13.777  0.00  0.00     0.127 A 
ATOM      3  O   UNK d   1      -1.115   9.571 -13.761  0.00  0.00    -0.305 OA
ATOM      4  C   UNK d   1      -1.740   8.394 -14.071  0.00  0.00     0.101 A 
ATOM      5  C   UNK d   1      -3.093   8.615 -14.308  0.00  0.00     0.051 A 
ATOM      6  C   UNK d   1      -3.888   7.527 -14.632  0.00  0.00     0.021 A 
ATOM      7  C   UNK d   1      -3.340   6.267 -14.710  0.00  0.00     0.041 A 
ATOM      8  C   UNK d   1      -1.976   6.084 -14.465  0.00  0.00     0.118 A 
ATOM      9  C   UNK d   1      -1.167   7.142 -14.145  0.00  0.00     0.039 A 
ATOM     10  O   UNK d   1      -1.521   4.779 -14.570  0.00  0.00    -0.191 OA
ATOM     11  C   UNK d   1      -3.320  10.059 -14.128  0.00  0.00     0.218 A 
ATOM     12  O   UNK d   1      -4.430  10.634 -14.268  0.00  0.00    -0.284 OA
ENDROOT
BRANCH   9  13
ATOM     13  C   UNK d   1       0.268   6.909 -13.977  0.00  0.00     0.279 C 
BRANCH  13  14
ATOM     14  N   UNK d   1       1.087   8.061 -13.866  0.00  0.00    -0.064 N 
ATOM     15  C   UNK d   1       1.665   8.336 -15.171  0.00  0.00     0.265 C 
ATOM     16  C   UNK d   1       3.077   8.810 -15.152  0.00  0.00     0.299 C 
ATOM     17  N   UNK d   1       3.970   8.035 -14.365  0.00  0.00     0.087 N 
ATOM     18  C   UNK d   1       3.277   7.152 -13.485  0.00  0.00     0.299 C 
ATOM     19  C   UNK d   1       4.886   8.906 -13.659  0.00  0.00     0.310 C 
ATOM     20  C   UNK d   1       2.113   7.856 -12.872  0.00  0.00     0.265 C 
ATOM     21  H   UNK d   1       0.551   8.917 -13.530  0.00  0.00     0.280 HD
ENDBRANCH  13  14
ENDBRANCH   9  13
BRANCH   1  22
ATOM     22  C   UNK d   1      -0.430  12.354 -13.170  0.00  0.00    -0.032 A 
ATOM     23  C   UNK d   1      -0.208  13.615 -12.661  0.00  0.00     0.030 A 
ATOM     24  C   UNK d   1       1.082  14.031 -12.344  0.00  0.00     0.011 A 
ATOM     25 Br   UNK d   1       1.390  15.783 -11.647  0.00  0.00    -0.051 Br
ATOM     26  C   UNK d   1       2.151  13.171 -12.542  0.00  0.00     0.019 A 
ATOM     27  C   UNK d   1       1.889  11.921 -13.054  0.00  0.00     0.002 A 
ATOM     28  C   UNK d   1       0.621  11.493 -13.371  0.00  0.00     0.011 A 
ENDBRANCH   1  22
TORSDOF 3
ENDMDL
