MODEL 1
REMARK VINA RESULT:    -9.009      0.000      0.000
REMARK INTER + INTRA:         -11.572
REMARK INTER:                 -11.115
REMARK INTRA:                  -0.457
REMARK UNBOUND:                -0.457
REMARK  4 active torsions:
REMARK  status: ('A' for Active; 'I' for Inactive)
REMARK    1  A    between atoms: C_5  and  N_8 
REMARK       I    between atoms: N_8  and  C_9 
REMARK    2  A    between atoms: C_9  and  C_11 
REMARK    3  A    between atoms: C_11  and  N_12 
REMARK       I    between atoms: N_12  and  C_13 
REMARK    4  A    between atoms: C_13  and  C_15 
ROOT
ATOM      1  C   UNK d   1       0.149  10.185 -13.823  0.00  0.00     0.248 C 
ATOM      2  O   UNK d   1       0.244   8.874 -14.107  0.00  0.00    -0.341 OA
ATOM      3  C   UNK d   1       1.475   8.297 -14.113  0.00  0.00     0.296 C 
ATOM      4  O   UNK d   1       1.294   6.907 -14.077  0.00  0.00    -0.323 OA
ATOM      5  C   UNK d   1       1.237   6.531 -12.757  0.00  0.00     0.160 C 
ATOM      6  O   UNK d   1       1.588   7.612 -11.973  0.00  0.00    -0.343 OA
ATOM      7  C   UNK d   1       2.255   8.511 -12.837  0.00  0.00     0.212 C 
ATOM      8  C   UNK d   1       2.186   9.909 -12.356  0.00  0.00     0.191 C 
ATOM      9  O   UNK d   1       3.427  10.568 -12.508  0.00  0.00    -0.345 OA
ATOM     10  C   UNK d   1       3.168  11.829 -12.983  0.00  0.00     0.158 C 
ATOM     11  O   UNK d   1       2.027  11.685 -13.728  0.00  0.00    -0.345 OA
ATOM     12  C   UNK d   1       1.216  10.803 -12.999  0.00  0.00     0.195 C 
ATOM     13  C   UNK d   1       4.363  12.227 -13.858  0.00  0.00     0.078 C 
ATOM     14  C   UNK d   1       3.074  12.872 -11.900  0.00  0.00     0.078 C 
ATOM     15  C   UNK d   1       2.236   5.418 -12.438  0.00  0.00     0.078 C 
ATOM     16  C   UNK d   1      -0.132   6.002 -12.360  0.00  0.00     0.078 C 
ENDROOT
BRANCH   1  17
ATOM     17  C   UNK d   1      -1.194  10.454 -13.244  0.00  0.00     0.249 C 
ATOM     18  N   UNK d   1      -2.141   9.406 -13.135  0.00  0.00    -0.350 N 
ATOM     19  H   UNK d   1      -1.865   8.458 -13.470  0.00  0.00     0.163 HD
ATOM     20  O   UNK d   1      -1.534  11.598 -12.837  0.00  0.00    -0.271 OA
BRANCH  18  21
ATOM     21  C   UNK d   1      -3.455   9.577 -12.591  0.00  0.00     0.225 C 
BRANCH  21  22
ATOM     22  C   UNK d   1      -4.438   9.894 -13.660  0.00  0.00     0.239 C 
ATOM     23  N   UNK d   1      -5.804  10.101 -13.396  0.00  0.00    -0.326 N 
ATOM     24  H   UNK d   1      -6.085  10.012 -12.366  0.00  0.00     0.169 HD
ATOM     25  O   UNK d   1      -3.990   9.970 -14.821  0.00  0.00    -0.271 OA
BRANCH  23  26
ATOM     26  C   UNK d   1      -6.828  10.402 -14.288  0.00  0.00     0.034 A 
ATOM     27  C   UNK d   1      -7.600  11.537 -14.081  0.00  0.00     0.031 A 
ATOM     28  C   UNK d   1      -8.633  11.920 -14.904  0.00  0.00     0.021 A 
ATOM     29  C   UNK d   1      -8.945  11.153 -16.005  0.00  0.00     0.011 A 
ATOM     30 Br   UNK d   1     -10.388  11.709 -17.135  0.00  0.00    -0.051 Br
ATOM     31  C   UNK d   1      -8.216  10.033 -16.247  0.00  0.00     0.021 A 
ATOM     32  C   UNK d   1      -7.165   9.657 -15.396  0.00  0.00     0.031 A 
ENDBRANCH  23  26
ENDBRANCH  21  22
ENDBRANCH  18  21
ENDBRANCH   1  17
TORSDOF 4
ENDMDL
