/Users/jonathanwahrer/Desktop/Msc/3_Semester/Drug_Design_Praktikum/waehrer_HTS_screening/HTS_experiment/out/docking_results/vina_output/6q9y/1341_docked.pdbqt
 OpenBabel03222220043D

 28 31  0  0  0  0  0  0  0  0999 V2000
   -1.7980    9.4120  -13.8600 C   0  0  0  0  0  0  0  0  0  0  0  0
   -1.4550    8.1050  -13.9420 N   0  0  0  0  0  0  0  0  0  0  0  0
   -2.5580    7.3900  -14.2450 C   0  0  0  0  0  0  0  0  0  0  0  0
   -3.6270    8.2060  -14.3650 N   0  0  0  0  0  0  0  0  0  0  0  0
   -3.1490    9.4480  -14.1260 C   0  0  0  0  0  3  0  0  0  0  0  0
   -2.2110    5.9490  -14.3430 C   0  0  0  0  0  3  0  0  0  0  0  0
   -0.7720    5.8430  -13.9730 C   0  0  0  0  0  3  0  0  0  0  0  0
   -0.3040    7.2410  -13.8080 C   0  0  0  0  0  3  0  0  0  0  0  0
   -4.9970    7.8570  -14.6800 C   0  0  0  0  0  2  0  0  0  0  0  0
   -5.8770    9.0480  -14.5090 C   0  0  0  0  0  0  0  0  0  0  0  0
   -5.6650    9.7880  -13.5470 O   0  0  0  0  0  0  0  0  0  0  0  0
   -6.8890    9.2530  -15.4490 N   0  0  0  0  0  0  0  0  0  0  0  0
   -7.0290    8.5730  -16.2700 H   0  0  0  0  0  0  0  0  0  0  0  0
   -7.8010   10.3400  -15.4320 C   0  0  0  0  0  0  0  0  0  0  0  0
   -8.5960   10.5730  -16.5620 C   0  0  0  0  0  3  0  0  0  0  0  0
   -9.4660   11.6150  -16.5870 C   0  0  0  0  0  3  0  0  0  0  0  0
   -9.5940   12.4700  -15.5050 C   0  0  0  0  0  0  0  0  0  0  0  0
   -8.8150   12.2360  -14.4070 C   0  0  0  0  0  3  0  0  0  0  0  0
   -7.9080   11.1690  -14.3520 C   0  0  0  0  0  3  0  0  0  0  0  0
  -10.5530   13.6030  -15.5540 C   0  0  0  0  0  2  0  0  0  0  0  0
  -11.2590   13.5690  -16.9130 C   0  0  0  0  0  1  0  0  0  0  0  0
   -0.9720   10.5800  -13.5580 C   0  0  0  0  0  0  0  0  0  0  0  0
   -1.5480   11.7870  -13.2140 C   0  0  0  0  0  3  0  0  0  0  0  0
   -0.7890   12.9070  -12.9270 C   0  0  0  0  0  3  0  0  0  0  0  0
    0.5870   12.8680  -12.9700 C   0  0  0  0  0  0  0  0  0  0  0  0
    1.5580   14.2890  -12.6040 Cl  0  0  0  0  0  0  0  0  0  0  0  0
    1.1770   11.6700  -13.3130 C   0  0  0  0  0  3  0  0  0  0  0  0
    0.4060   10.5380  -13.6040 C   0  0  0  0  0  3  0  0  0  0  0  0
  1 22  1  0  0  0  0
  2  1  1  0  0  0  0
  2  8  1  0  0  0  0
  3  2  1  0  0  0  0
  4  3  1  0  0  0  0
  4  5  1  0  0  0  0
  5  1  2  0  0  0  0
  6  3  2  0  0  0  0
  6  7  1  0  0  0  0
  7  8  2  0  0  0  0
  9 10  1  0  0  0  0
  9  4  1  0  0  0  0
 10 11  2  0  0  0  0
 12 14  1  0  0  0  0
 12 10  1  0  0  0  0
 13 12  1  0  0  0  0
 14 19  1  0  0  0  0
 15 14  2  0  0  0  0
 16 15  1  0  0  0  0
 16 17  2  0  0  0  0
 17 18  1  0  0  0  0
 18 19  2  0  0  0  0
 20 17  1  0  0  0  0
 21 20  1  0  0  0  0
 22 23  1  0  0  0  0
 23 24  2  0  0  0  0
 25 24  1  0  0  0  0
 25 26  1  0  0  0  0
 27 25  2  0  0  0  0
 28 22  2  0  0  0  0
 28 27  1  0  0  0  0
M  END
>  <Pose>
1

>  <Score>
-11.363

$$$$
