MODEL 1
REMARK VINA RESULT:   -11.363      0.000      0.000
REMARK INTER + INTRA:         -13.860
REMARK INTER:                 -14.685
REMARK INTRA:                   0.825
REMARK UNBOUND:                 0.825
REMARK  5 active torsions:
REMARK  status: ('A' for Active; 'I' for Inactive)
REMARK    1  A    between atoms: C_5  and  C_8 
REMARK    2  A    between atoms: N_11  and  C_13 
REMARK    3  A    between atoms: C_13  and  C_14 
REMARK       I    between atoms: C_14  and  N_16 
REMARK    4  A    between atoms: N_16  and  C_17 
REMARK    5  A    between atoms: C_20  and  C_23 
ROOT
ATOM      1  C   UNK d   1      -1.798   9.412 -13.860  0.00  0.00     0.061 A 
ATOM      2  N   UNK d   1      -1.455   8.105 -13.942  0.00  0.00    -0.335 N 
ATOM      3  C   UNK d   1      -2.558   7.390 -14.245  0.00  0.00     0.086 A 
ATOM      4  N   UNK d   1      -3.627   8.206 -14.365  0.00  0.00    -0.336 N 
ATOM      5  C   UNK d   1      -3.149   9.448 -14.126  0.00  0.00     0.123 A 
ATOM      6  C   UNK d   1      -2.211   5.949 -14.343  0.00  0.00     0.078 A 
ATOM      7  C   UNK d   1      -0.772   5.843 -13.973  0.00  0.00     0.028 A 
ATOM      8  C   UNK d   1      -0.304   7.241 -13.808  0.00  0.00     0.131 A 
ENDROOT
BRANCH   4   9
ATOM      9  C   UNK d   1      -4.997   7.857 -14.680  0.00  0.00     0.232 C 
BRANCH   9  10
ATOM     10  C   UNK d   1      -5.877   9.048 -14.509  0.00  0.00     0.240 C 
ATOM     11  O   UNK d   1      -5.665   9.788 -13.547  0.00  0.00    -0.271 OA
ATOM     12  N   UNK d   1      -6.889   9.253 -15.449  0.00  0.00    -0.326 N 
ATOM     13  H   UNK d   1      -7.029   8.573 -16.270  0.00  0.00     0.169 HD
BRANCH  12  14
ATOM     14  C   UNK d   1      -7.801  10.340 -15.432  0.00  0.00     0.034 A 
ATOM     15  C   UNK d   1      -8.596  10.573 -16.562  0.00  0.00     0.030 A 
ATOM     16  C   UNK d   1      -9.466  11.615 -16.587  0.00  0.00     0.009 A 
ATOM     17  C   UNK d   1      -9.594  12.470 -15.505  0.00  0.00    -0.058 A 
ATOM     18  C   UNK d   1      -8.815  12.236 -14.407  0.00  0.00     0.009 A 
ATOM     19  C   UNK d   1      -7.908  11.169 -14.352  0.00  0.00     0.030 A 
BRANCH  17  20
ATOM     20  C   UNK d   1     -10.553  13.603 -15.554  0.00  0.00     0.034 C 
ATOM     21  C   UNK d   1     -11.259  13.569 -16.913  0.00  0.00     0.010 C 
ENDBRANCH  17  20
ENDBRANCH  12  14
ENDBRANCH   9  10
ENDBRANCH   4   9
BRANCH   1  22
ATOM     22  C   UNK d   1      -0.972  10.580 -13.558  0.00  0.00    -0.008 A 
ATOM     23  C   UNK d   1      -1.548  11.787 -13.214  0.00  0.00     0.015 A 
ATOM     24  C   UNK d   1      -0.789  12.907 -12.927  0.00  0.00     0.024 A 
ATOM     25  C   UNK d   1       0.587  12.868 -12.970  0.00  0.00     0.034 A 
ATOM     26 Cl   UNK d   1       1.558  14.289 -12.604  0.00  0.00    -0.084 Cl
ATOM     27  C   UNK d   1       1.177  11.670 -13.313  0.00  0.00     0.024 A 
ATOM     28  C   UNK d   1       0.406  10.538 -13.604  0.00  0.00     0.015 A 
ENDBRANCH   1  22
TORSDOF 5
ENDMDL
