MODEL 1
REMARK VINA RESULT:    -7.607      0.000      0.000
REMARK INTER + INTRA:         -13.356
REMARK INTER:                 -11.832
REMARK INTRA:                  -1.523
REMARK UNBOUND:                -1.523
REMARK  12 active torsions:
REMARK  status: ('A' for Active; 'I' for Inactive)
REMARK    1  A    between atoms: C_3  and  C_12 
REMARK    2  A    between atoms: C_5  and  O_10 
REMARK    3  A    between atoms: C_6  and  O_8 
REMARK    4  A    between atoms: N_13  and  N_14 
REMARK    5  A    between atoms: N_14  and  C_15 
REMARK    6  A    between atoms: N_16  and  C_26 
REMARK    7  A    between atoms: C_19  and  N_25 
REMARK    8  A    between atoms: C_21  and  O_24 
REMARK    9  A    between atoms: C_28  and  C_33 
REMARK   10  A    between atoms: C_29  and  O_32 
REMARK   11  A    between atoms: C_30  and  O_31 
REMARK   12  A    between atoms: C_33  and  O_34 
ROOT
ATOM      1  C   UNK d   1      -0.338  11.318 -13.779  0.00  0.00     0.727 A 
ATOM      2  N   UNK d   1       0.116  10.038 -13.773  0.00  0.00    -0.130 N 
ATOM      3  C   UNK d   1      -0.943   9.201 -13.918  0.00  0.00     0.201 A 
ATOM      4  N   UNK d   1      -1.079   7.871 -13.979  0.00  0.00    -0.042 NA
ATOM      5  C   UNK d   1      -2.278   7.279 -14.131  0.00  0.00     0.724 A 
ATOM      6  N   UNK d   1      -3.381   8.054 -14.225  0.00  0.00    -0.036 NA
ATOM      7  C   UNK d   1      -3.322   9.380 -14.172  0.00  0.00     0.215 A 
ATOM      8  C   UNK d   1      -2.089   9.981 -14.017  0.00  0.00     0.176 A 
ATOM      9  N   UNK d   1      -1.677  11.234 -13.928  0.00  0.00    -0.055 NA
ENDROOT
BRANCH   1  10
ATOM     10  N   UNK d   1       0.455  12.492 -13.652  0.00  0.00    -0.107 N 
ATOM     11  H   UNK d   1       1.429  12.485 -13.992  0.00  0.00     0.208 HD
BRANCH  10  12
ATOM     12  N   UNK d   1      -0.144  13.621 -13.060  0.00  0.00    -0.172 NA
ATOM     13  C   UNK d   1      -0.143  14.776 -13.586  0.00  0.00     0.152 C 
BRANCH  13  14
ATOM     14  C   UNK d   1      -0.754  15.962 -12.997  0.00  0.00     0.003 A 
ATOM     15  C   UNK d   1      -0.185  16.589 -11.910  0.00  0.00     0.025 A 
ATOM     16 Br   UNK d   1       1.421  15.876 -11.185  0.00  0.00    -0.050 Br
ATOM     17  C   UNK d   1      -0.764  17.726 -11.340  0.00  0.00     0.059 A 
ATOM     18  C   UNK d   1      -1.929  18.263 -11.847  0.00  0.00     0.102 A 
ATOM     19  C   UNK d   1      -2.499  17.635 -12.935  0.00  0.00     0.102 A 
ATOM     20  C   UNK d   1      -1.918  16.514 -13.489  0.00  0.00     0.054 A 
BRANCH  18  21
ATOM     21  O   UNK d   1      -2.521  19.397 -11.291  0.00  0.00    -0.353 OA
ATOM     22  C   UNK d   1      -2.320  19.799  -9.970  0.00  0.00     0.210 C 
ENDBRANCH  18  21
BRANCH  19  23
ATOM     23  O   UNK d   1      -3.673  18.186 -13.438  0.00  0.00    -0.353 OA
ATOM     24  C   UNK d   1      -4.485  17.581 -14.393  0.00  0.00     0.210 C 
ENDBRANCH  19  23
ENDBRANCH  13  14
ENDBRANCH  10  12
ENDBRANCH   1  10
BRANCH   2  25
ATOM     25  C   UNK d   1       1.484   9.643 -13.637  0.00  0.00     0.279 C 
ATOM     26  O   UNK d   1       2.128  10.204 -12.543  0.00  0.00    -0.353 OA
ATOM     27  C   UNK d   1       3.473  10.185 -12.773  0.00  0.00     0.179 C 
ATOM     28  C   UNK d   1       3.738   9.862 -14.204  0.00  0.00     0.182 C 
ATOM     29  C   UNK d   1       2.348  10.010 -14.825  0.00  0.00     0.199 C 
BRANCH  27  30
ATOM     30  C   UNK d   1       4.025  11.586 -12.503  0.00  0.00     0.198 C 
BRANCH  30  31
ATOM     31  O   UNK d   1       2.973  12.470 -12.237  0.00  0.00    -0.398 OA
ATOM     32  H   UNK d   1       2.894  13.159 -12.946  0.00  0.00     0.209 HD
ENDBRANCH  30  31
ENDBRANCH  27  30
BRANCH  28  33
ATOM     33  O   UNK d   1       4.063   8.497 -14.344  0.00  0.00    -0.390 OA
ATOM     34  H   UNK d   1       4.693   8.205 -13.651  0.00  0.00     0.210 HD
ENDBRANCH  28  33
BRANCH  29  35
ATOM     35  O   UNK d   1       2.185   9.115 -15.883  0.00  0.00    -0.388 OA
ATOM     36  H   UNK d   1       2.906   9.247 -16.551  0.00  0.00     0.210 HD
ENDBRANCH  29  35
ENDBRANCH   2  25
BRANCH   7  37
ATOM     37  O   UNK d   1      -4.445  10.208 -14.267  0.00  0.00    -0.343 OA
ATOM     38  H   UNK d   1      -5.206  10.001 -13.631  0.00  0.00     0.219 HD
ENDBRANCH   7  37
BRANCH   5  39
ATOM     39  N   UNK d   1      -2.405   5.851 -14.195  0.00  0.00    -0.231 N 
ATOM     40  H   UNK d   1      -1.714   5.191 -13.824  0.00  0.00     0.174 HD
ATOM     41  H   UNK d   1      -3.266   5.484 -14.653  0.00  0.00     0.174 HD
ENDBRANCH   5  39
TORSDOF 12
ENDMDL
