/Users/jonathanwahrer/Desktop/Msc/3_Semester/Drug_Design_Praktikum/waehrer_HTS_screening/HTS_experiment/out/docking_results/vina_output/6q9y/1343_docked.pdbqt
 OpenBabel03222220043D

 41 44  0  0  1  0  0  0  0  0999 V2000
   -0.3380   11.3180  -13.7790 C   0  0  0  0  0  0  0  0  0  0  0  0
    0.1160   10.0380  -13.7730 N   0  0  0  0  0  0  0  0  0  0  0  0
   -0.9430    9.2010  -13.9180 C   0  0  0  0  0  0  0  0  0  0  0  0
   -1.0790    7.8710  -13.9790 N   0  0  0  0  0  0  0  0  0  0  0  0
   -2.2780    7.2790  -14.1310 C   0  0  0  0  0  0  0  0  0  0  0  0
   -3.3810    8.0540  -14.2250 N   0  0  0  0  0  0  0  0  0  0  0  0
   -3.3220    9.3800  -14.1720 C   0  0  0  0  0  0  0  0  0  0  0  0
   -2.0890    9.9810  -14.0170 C   0  0  0  0  0  0  0  0  0  0  0  0
   -1.6770   11.2340  -13.9280 N   0  0  0  0  0  0  0  0  0  0  0  0
    0.4550   12.4920  -13.6520 N   0  0  0  0  0  0  0  0  0  0  0  0
    1.4290   12.4850  -13.9920 H   0  0  0  0  0  0  0  0  0  0  0  0
   -0.1440   13.6210  -13.0600 N   0  0  0  0  0  0  0  0  0  0  0  0
   -0.1430   14.7760  -13.5860 C   0  0  0  0  0  3  0  0  0  0  0  0
   -0.7540   15.9620  -12.9970 C   0  0  0  0  0  0  0  0  0  0  0  0
   -0.1850   16.5890  -11.9100 C   0  0  0  0  0  0  0  0  0  0  0  0
    1.4210   15.8760  -11.1850 Br  0  0  0  0  0  0  0  0  0  0  0  0
   -0.7640   17.7260  -11.3400 C   0  0  0  0  0  3  0  0  0  0  0  0
   -1.9290   18.2630  -11.8470 C   0  0  0  0  0  0  0  0  0  0  0  0
   -2.4990   17.6350  -12.9350 C   0  0  0  0  0  0  0  0  0  0  0  0
   -1.9180   16.5140  -13.4890 C   0  0  0  0  0  3  0  0  0  0  0  0
   -2.5210   19.3970  -11.2910 O   0  0  0  0  0  0  0  0  0  0  0  0
   -2.3200   19.7990   -9.9700 C   0  0  0  0  0  1  0  0  0  0  0  0
   -3.6730   18.1860  -13.4380 O   0  0  0  0  0  0  0  0  0  0  0  0
   -4.4850   17.5810  -14.3930 C   0  0  0  0  0  1  0  0  0  0  0  0
    1.4840    9.6430  -13.6370 C   0  0  2  0  0  3  0  0  0  0  0  0
    2.1280   10.2040  -12.5430 O   0  0  0  0  0  0  0  0  0  0  0  0
    3.4730   10.1850  -12.7730 C   0  0  1  0  0  3  0  0  0  0  0  0
    3.7380    9.8620  -14.2040 C   0  0  2  0  0  3  0  0  0  0  0  0
    2.3480   10.0100  -14.8250 C   0  0  1  0  0  3  0  0  0  0  0  0
    4.0250   11.5860  -12.5030 C   0  0  0  0  0  2  0  0  0  0  0  0
    2.9730   12.4700  -12.2370 O   0  0  0  0  0  0  0  0  0  0  0  0
    2.8940   13.1590  -12.9460 H   0  0  0  0  0  0  0  0  0  0  0  0
    4.0630    8.4970  -14.3440 O   0  0  0  0  0  0  0  0  0  0  0  0
    4.6930    8.2050  -13.6510 H   0  0  0  0  0  0  0  0  0  0  0  0
    2.1850    9.1150  -15.8830 O   0  0  0  0  0  0  0  0  0  0  0  0
    2.9060    9.2470  -16.5510 H   0  0  0  0  0  0  0  0  0  0  0  0
   -4.4450   10.2080  -14.2670 O   0  0  0  0  0  0  0  0  0  0  0  0
   -5.2060   10.0010  -13.6310 H   0  0  0  0  0  0  0  0  0  0  0  0
   -2.4050    5.8510  -14.1950 N   0  0  0  0  0  0  0  0  0  0  0  0
   -1.7140    5.1910  -13.8240 H   0  0  0  0  0  0  0  0  0  0  0  0
   -3.2660    5.4840  -14.6530 H   0  0  0  0  0  0  0  0  0  0  0  0
  1  2  1  0  0  0  0
  1 10  1  0  0  0  0
  3  2  1  0  0  0  0
  4  3  1  0  0  0  0
  5  4  2  0  0  0  0
  6  7  2  0  0  0  0
  6  5  1  0  0  0  0
  7  8  1  0  0  0  0
  8  9  1  0  0  0  0
  8  3  2  0  0  0  0
  9  1  2  0  0  0  0
 10 12  1  0  0  0  0
 11 10  1  0  0  0  0
 13 12  2  0  0  0  0
 13 14  1  0  0  0  0
 14 15  1  0  0  0  0
 15 17  2  0  0  0  0
 15 16  1  0  0  0  0
 18 17  1  0  0  0  0
 18 21  1  0  0  0  0
 19 18  2  0  0  0  0
 20 14  2  0  0  0  0
 20 19  1  0  0  0  0
 21 22  1  0  0  0  0
 23 19  1  0  0  0  0
 24 23  1  0  0  0  0
 25  2  1  6  0  0  0
 25 26  1  0  0  0  0
 27 26  1  0  0  0  0
 27 30  1  6  0  0  0
 28 33  1  1  0  0  0
 28 27  1  0  0  0  0
 29 35  1  6  0  0  0
 29 28  1  0  0  0  0
 29 25  1  0  0  0  0
 30 31  1  0  0  0  0
 32 31  1  0  0  0  0
 33 34  1  0  0  0  0
 36 35  1  0  0  0  0
 37  7  1  0  0  0  0
 37 38  1  0  0  0  0
 39  5  1  0  0  0  0
 39 40  1  0  0  0  0
 41 39  1  0  0  0  0
M  END
>  <Pose>
1

>  <Score>
-7.607

$$$$
