MODEL 1
REMARK VINA RESULT:    -9.772      0.000      0.000
REMARK INTER + INTRA:         -12.271
REMARK INTER:                 -12.057
REMARK INTRA:                  -0.214
REMARK UNBOUND:                -0.214
REMARK  4 active torsions:
REMARK  status: ('A' for Active; 'I' for Inactive)
REMARK    1  A    between atoms: C_3  and  C_8 
REMARK    2  A    between atoms: C_11  and  C_13 
REMARK    3  A    between atoms: C_13  and  N_14 
REMARK       I    between atoms: N_14  and  C_15 
REMARK    4  A    between atoms: C_15  and  C_17 
ROOT
ATOM      1  N   UNK d   1       0.746  13.236 -13.184  0.00  0.00    -0.353 N 
ATOM      2  C   UNK d   1       1.618  12.133 -13.173  0.00  0.00     0.229 C 
ATOM      3  O   UNK d   1       2.660  12.179 -12.483  0.00  0.00    -0.273 OA
ATOM      4  H   UNK d   1      -0.118  13.192 -13.759  0.00  0.00     0.162 HD
ENDROOT
BRANCH   1   5
ATOM      5  C   UNK d   1       1.029  14.430 -12.408  0.00  0.00     0.211 C 
BRANCH   5   6
ATOM      6  C   UNK d   1       0.037  15.515 -12.741  0.00  0.00     0.190 A 
ATOM      7  O   UNK d   1      -0.392  15.876 -13.924  0.00  0.00    -0.194 OA
ATOM      8  N   UNK d   1      -1.255  16.863 -13.805  0.00  0.00    -0.105 NA
ATOM      9  C   UNK d   1      -1.405  17.170 -12.506  0.00  0.00     0.191 A 
ATOM     10  N   UNK d   1      -0.591  16.319 -11.856  0.00  0.00    -0.202 NA
BRANCH   9  11
ATOM     11  C   UNK d   1      -2.261  18.200 -11.929  0.00  0.00     0.036 A 
ATOM     12  C   UNK d   1      -3.454  18.578 -12.508  0.00  0.00     0.048 A 
ATOM     13 Cl   UNK d   1      -3.932  17.776 -13.984  0.00  0.00    -0.083 Cl
ATOM     14  C   UNK d   1      -4.275  19.560 -11.962  0.00  0.00     0.025 A 
ATOM     15  C   UNK d   1      -3.909  20.195 -10.802  0.00  0.00     0.002 A 
ATOM     16  C   UNK d   1      -2.700  19.825 -10.199  0.00  0.00     0.001 A 
ATOM     17  C   UNK d   1      -1.915  18.850 -10.769  0.00  0.00     0.017 A 
ENDBRANCH   9  11
ENDBRANCH   5   6
ENDBRANCH   1   5
BRANCH   2  18
ATOM     18  C   UNK d   1       1.312  10.934 -13.968  0.00  0.00     0.151 C 
ATOM     19  C   UNK d   1       2.482   9.970 -14.021  0.00  0.00     0.022 C 
ATOM     20  C   UNK d   1       2.097   8.680 -14.666  0.00  0.00     0.003 C 
ATOM     21  C   UNK d   1       1.617   7.623 -13.726  0.00  0.00     0.022 C 
ATOM     22  C   UNK d   1       0.964   8.210 -12.479  0.00  0.00     0.154 C 
ATOM     23  N   UNK d   1      -0.086   9.099 -12.921  0.00  0.00    -0.234 N 
ATOM     24  N   UNK d   1      -1.358   8.861 -12.744  0.00  0.00    -0.044 NA
ATOM     25  C   UNK d   1       0.067  10.266 -13.560  0.00  0.00     0.161 A 
ATOM     26  N   UNK d   1      -2.046   9.851 -13.256  0.00  0.00    -0.023 NA
ATOM     27  N   UNK d   1      -1.185  10.716 -13.756  0.00  0.00    -0.113 NA
ENDBRANCH   2  18
TORSDOF 4
ENDMDL
