MODEL 1
REMARK VINA RESULT:    -5.470      0.000      0.000
REMARK INTER + INTRA:          -6.129
REMARK INTER:                  -5.949
REMARK INTRA:                  -0.180
REMARK UNBOUND:                -0.180
REMARK  2 active torsions:
REMARK  status: ('A' for Active; 'I' for Inactive)
REMARK    1  A    between atoms: C_3  and  C_8 
REMARK    2  A    between atoms: C_12  and  N_16 
ROOT
ATOM      1  C   UNK d   1       0.804   8.397 -14.332  0.00  0.00     0.084 A 
ATOM      2  C   UNK d   1       1.910   9.247 -14.369  0.00  0.00     0.166 A 
ATOM      3  C   UNK d   1       2.803   9.930 -13.392  0.00  0.00     0.295 C 
ATOM      4  N   UNK d   1       3.841   8.869 -13.427  0.00  0.00    -0.209 NA
ATOM      5  C   UNK d   1       3.235   7.724 -13.469  0.00  0.00     0.124 C 
ATOM      6  C   UNK d   1       1.830   7.986 -13.454  0.00  0.00     0.146 A 
ATOM      7  C   UNK d   1       1.429   8.197 -12.031  0.00  0.00     0.080 C 
ATOM      8  N   UNK d   1       1.092   8.347 -10.907  0.00  0.00    -0.196 NA
ATOM      9  O   UNK d   1       3.310  11.084 -14.000  0.00  0.00    -0.333 OA
ATOM     10  C   UNK d   1       3.101  12.129 -13.121  0.00  0.00     0.199 C 
ATOM     11  C   UNK d   1       3.037  11.417 -11.781  0.00  0.00     0.199 C 
ATOM     12  O   UNK d   1       2.341  10.248 -12.179  0.00  0.00    -0.333 OA
ATOM     13  C   UNK d   1       2.728   9.067 -15.621  0.00  0.00     0.080 C 
ATOM     14  N   UNK d   1       3.357   8.909 -16.609  0.00  0.00    -0.196 NA
ENDROOT
BRANCH   1  15
ATOM     15  C   UNK d   1      -0.478   8.974 -13.849  0.00  0.00    -0.032 A 
ATOM     16  C   UNK d   1      -1.589   8.201 -13.626  0.00  0.00     0.017 A 
ATOM     17 Br   UNK d   1      -1.571   6.313 -13.906  0.00  0.00    -0.051 Br
ATOM     18  C   UNK d   1      -2.750   8.818 -13.181  0.00  0.00     0.019 A 
ATOM     19  C   UNK d   1      -2.808  10.198 -12.956  0.00  0.00     0.001 A 
ATOM     20  C   UNK d   1      -1.683  10.954 -13.185  0.00  0.00     0.001 A 
ATOM     21  C   UNK d   1      -0.525  10.331 -13.630  0.00  0.00     0.009 A 
ENDBRANCH   1  15
BRANCH   5  22
ATOM     22  N   UNK d   1       3.879   6.431 -13.522  0.00  0.00    -0.386 N 
ATOM     23  H   UNK d   1       3.472   5.651 -14.071  0.00  0.00     0.157 HD
ATOM     24  H   UNK d   1       4.764   6.259 -13.009  0.00  0.00     0.157 HD
ENDBRANCH   5  22
TORSDOF 2
ENDMDL
