MODEL 1
REMARK VINA RESULT:    -4.733      0.000      0.000
REMARK INTER + INTRA:          -5.217
REMARK INTER:                  -6.394
REMARK INTRA:                   1.176
REMARK UNBOUND:                 1.176
REMARK  6 active torsions:
REMARK  status: ('A' for Active; 'I' for Inactive)
REMARK    1  A    between atoms: C_5  and  C_8 
REMARK    2  A    between atoms: C_8  and  C_10 
REMARK    3  A    between atoms: C_25  and  C_31 
REMARK    4  A    between atoms: C_26  and  C_27 
REMARK    5  A    between atoms: C_27  and  O_29 
REMARK    6  A    between atoms: C_31  and  O_33 
ROOT
ATOM      1  C   UNK d   1       1.844   9.191 -12.505  0.00  0.00     0.162 C 
ATOM      2  N   UNK d   1       1.445  10.537 -12.825  0.00  0.00    -0.339 N 
ATOM      3  C   UNK d   1       0.524  10.305 -13.961  0.00  0.00     0.203 A 
ATOM      4  N   UNK d   1      -0.072  11.549 -14.260  0.00  0.00    -0.347 N 
ATOM      5  C   UNK d   1       0.552  12.540 -13.438  0.00  0.00     0.143 A 
ATOM      6  C   UNK d   1       1.460  11.907 -12.587  0.00  0.00     0.146 A 
ATOM      7  C   UNK d   1       2.184  12.676 -11.700  0.00  0.00     0.281 A 
ATOM      8  O   UNK d   1       2.995  12.084 -10.943  0.00  0.00    -0.265 OA
ATOM      9  N   UNK d   1       2.003  14.002 -11.674  0.00  0.00    -0.269 N 
ATOM     10  C   UNK d   1       1.137  14.574 -12.492  0.00  0.00     0.332 A 
ATOM     11  O   UNK d   1       0.997  15.827 -12.435  0.00  0.00    -0.246 OA
ATOM     12  N   UNK d   1       0.389  13.865 -13.393  0.00  0.00    -0.287 N 
ATOM     13  C   UNK d   1      -0.520  14.612 -14.232  0.00  0.00     0.163 C 
ATOM     14  C   UNK d   1       2.794  14.782 -10.716  0.00  0.00     0.164 C 
ATOM     15  C   UNK d   1      -1.098  11.837 -15.229  0.00  0.00     0.153 C 
ATOM     16  C   UNK d   1      -0.283   9.145 -13.551  0.00  0.00     0.144 C 
ATOM     17  C   UNK d   1       0.444   8.585 -12.321  0.00  0.00     0.132 C 
ENDROOT
BRANCH   1  18
ATOM     18  C   UNK d   1       2.504   8.539 -13.613  0.00  0.00     0.118 C 
ATOM     19  O   UNK d   1       1.910   8.726 -14.758  0.00  0.00    -0.194 OA
BRANCH  18  20
ATOM     20  C   UNK d   1       3.697   7.724 -13.662  0.00  0.00    -0.002 A 
ATOM     21  C   UNK d   1       3.748   6.441 -13.170  0.00  0.00     0.015 A 
ATOM     22  C   UNK d   1       4.929   5.743 -13.225  0.00  0.00     0.020 A 
ATOM     23  C   UNK d   1       6.079   6.298 -13.767  0.00  0.00     0.011 A 
ATOM     24 Br   UNK d   1       7.705   5.305 -13.830  0.00  0.00    -0.051 Br
ATOM     25  C   UNK d   1       6.021   7.589 -14.260  0.00  0.00     0.020 A 
ATOM     26  C   UNK d   1       4.846   8.299 -14.210  0.00  0.00     0.015 A 
ENDBRANCH  18  20
ENDBRANCH   1  18
BRANCH  17  27
ATOM     27  C   UNK d   1       0.447   7.126 -12.307  0.00  0.00     0.266 C 
ATOM     28  O   UNK d   1       0.812   6.499 -11.258  0.00  0.00    -0.265 OA
BRANCH  27  29
ATOM     29  O   UNK d   1       0.066   6.387 -13.395  0.00  0.00    -0.326 OA
ATOM     30  C   UNK d   1      -1.131   5.606 -13.427  0.00  0.00     0.213 C 
ENDBRANCH  27  29
ENDBRANCH  17  27
BRANCH  16  31
ATOM     31  C   UNK d   1      -1.703   9.331 -13.284  0.00  0.00     0.267 C 
ATOM     32  O   UNK d   1      -2.071  10.077 -12.339  0.00  0.00    -0.265 OA
BRANCH  31  33
ATOM     33  O   UNK d   1      -2.673   8.712 -14.041  0.00  0.00    -0.326 OA
ATOM     34  C   UNK d   1      -3.902   9.345 -14.324  0.00  0.00     0.213 C 
ENDBRANCH  31  33
ENDBRANCH  16  31
TORSDOF 6
ENDMDL
