MODEL 1
REMARK VINA RESULT:    -6.841      0.000      0.000
REMARK INTER + INTRA:          -8.893
REMARK INTER:                  -8.040
REMARK INTRA:                  -0.853
REMARK UNBOUND:                -0.853
REMARK  3 active torsions:
REMARK  status: ('A' for Active; 'I' for Inactive)
REMARK    1  A    between atoms: C_4  and  C_8 
REMARK       I    between atoms: C_8  and  N_10 
REMARK    2  A    between atoms: N_10  and  C_11 
REMARK    3  A    between atoms: C_11  and  C_13 
REMARK       I    between atoms: C_13  and  N_15 
ROOT
ATOM      1  C   UNK d   1       6.994   6.416 -12.690  0.00  0.00     0.242 C 
ATOM      2  O   UNK d   1       6.632   6.677 -11.524  0.00  0.00    -0.271 OA
ATOM      3  N   UNK d   1       8.355   6.391 -13.014  0.00  0.00    -0.350 N 
ATOM      4  C   UNK d   1       9.505   6.289 -12.180  0.00  0.00     0.129 C 
ATOM      5  C   UNK d   1      10.538   5.551 -13.047  0.00  0.00     0.068 C 
ATOM      6  C   UNK d   1       9.883   4.611 -14.030  0.00  0.00     0.206 C 
ATOM      7  N   UNK d   1      10.861   3.936 -14.838  0.00  0.00     0.099 N 
ATOM      8  C   UNK d   1      10.137   3.120 -15.823  0.00  0.00     0.277 C 
ATOM      9  C   UNK d   1       9.389   1.997 -15.173  0.00  0.00     0.089 C 
ATOM     10  C   UNK d   1       8.888   2.347 -13.825  0.00  0.00     0.039 A 
ATOM     11  N   UNK d   1       8.179   1.626 -12.951  0.00  0.00    -0.352 N 
ATOM     12  C   UNK d   1       7.957   2.378 -11.855  0.00  0.00     0.207 A 
ATOM     13  N   UNK d   1       8.536   3.568 -12.065  0.00  0.00    -0.244 NA
ATOM     14  C   UNK d   1       9.130   3.610 -13.266  0.00  0.00     0.097 A 
ATOM     15  C   UNK d   1       8.992   5.348 -15.042  0.00  0.00     0.068 C 
ATOM     16  C   UNK d   1       8.747   6.663 -14.437  0.00  0.00     0.129 C 
ATOM     17  H   UNK d   1      11.395   4.642 -15.399  0.00  0.00     0.317 HD
ATOM     18  H   UNK d   1       7.820   0.648 -13.023  0.00  0.00     0.166 HD
ENDROOT
BRANCH   1  19
ATOM     19  C   UNK d   1       5.931   6.123 -13.699  0.00  0.00     0.173 C 
ATOM     20  C   UNK d   1       5.442   4.679 -13.413  0.00  0.00     0.042 C 
BRANCH  19  21
ATOM     21  N   UNK d   1       4.738   6.918 -13.537  0.00  0.00    -0.344 N 
ATOM     22  C   UNK d   1       4.618   8.167 -14.269  0.00  0.00     0.252 C 
ATOM     23  O   UNK d   1       5.492   8.542 -15.060  0.00  0.00    -0.268 OA
ATOM     24  H   UNK d   1       3.987   6.607 -12.923  0.00  0.00     0.163 HD
BRANCH  22  25
ATOM     25  C   UNK d   1       3.405   8.957 -13.998  0.00  0.00     0.033 A 
ATOM     26  C   UNK d   1       2.242   8.262 -13.626  0.00  0.00     0.036 A 
ATOM     27  C   UNK d   1       1.048   8.885 -13.364  0.00  0.00     0.011 A 
ATOM     28 Br   UNK d   1      -0.493   7.843 -12.849  0.00  0.00    -0.051 Br
ATOM     29  C   UNK d   1       0.985  10.254 -13.471  0.00  0.00     0.019 A 
ATOM     30  C   UNK d   1       2.121  10.956 -13.841  0.00  0.00     0.002 A 
ATOM     31  C   UNK d   1       3.326  10.312 -14.105  0.00  0.00     0.017 A 
ENDBRANCH  22  25
ENDBRANCH  19  21
ENDBRANCH   1  19
TORSDOF 3
ENDMDL
