MODEL 1
REMARK VINA RESULT:   -10.423      0.000      0.000
REMARK INTER + INTRA:         -14.788
REMARK INTER:                 -14.383
REMARK INTRA:                  -0.404
REMARK UNBOUND:                -0.404
REMARK  7 active torsions:
REMARK  status: ('A' for Active; 'I' for Inactive)
REMARK    1  A    between atoms: C_7  and  C_11 
REMARK    2  A    between atoms: C_11  and  O_12 
REMARK    3  A    between atoms: O_12  and  C_13 
REMARK    4  A    between atoms: C_13  and  C_15 
REMARK    5  A    between atoms: N_17  and  C_26 
REMARK    6  A    between atoms: C_26  and  C_27 
REMARK    7  A    between atoms: C_27  and  O_28 
ROOT
ATOM      1  C   UNK d   1      -3.516   9.096 -14.314  0.00  0.00     0.315 C 
ATOM      2  O   UNK d   1      -3.996   8.330 -15.139  0.00  0.00    -0.257 OA
ENDROOT
BRANCH   1   3
ATOM      3  O   UNK d   1      -4.525   9.873 -13.683  0.00  0.00    -0.310 OA
BRANCH   3   4
ATOM      4  C   UNK d   1      -5.779   9.279 -13.487  0.00  0.00     0.238 C 
BRANCH   4   5
ATOM      5  C   UNK d   1      -6.801  10.244 -13.942  0.00  0.00     0.066 A 
ATOM      6  N   UNK d   1      -7.438  10.044 -15.107  0.00  0.00    -0.233 NA
ATOM      7  C   UNK d   1      -8.375  10.888 -15.569  0.00  0.00     0.137 A 
ATOM      8  N   UNK d   1      -8.712  11.978 -14.871  0.00  0.00    -0.272 N 
ATOM      9  C   UNK d   1      -9.002  10.651 -16.763  0.00  0.00     0.052 A 
ATOM     10  C   UNK d   1      -9.658  12.833 -15.333  0.00  0.00     0.121 A 
ATOM     11  C   UNK d   1      -8.122  12.253 -13.690  0.00  0.00     0.255 A 
ATOM     12  C   UNK d   1     -10.302  12.610 -16.536  0.00  0.00     0.027 A 
ATOM     13 Br   UNK d   1     -11.640  13.837 -17.172  0.00  0.00    -0.050 Br
ATOM     14  C   UNK d   1      -9.969  11.496 -17.267  0.00  0.00     0.024 A 
ATOM     15  C   UNK d   1      -7.146  11.361 -13.223  0.00  0.00     0.104 A 
ATOM     16  O   UNK d   1      -8.414  13.267 -13.008  0.00  0.00    -0.268 OA
ENDBRANCH   4   5
ENDBRANCH   3   4
ENDBRANCH   1   3
BRANCH   1  17
ATOM     17  C   UNK d   1      -2.134   9.299 -13.925  0.00  0.00     0.163 A 
ATOM     18  N   UNK d   1      -1.617  10.561 -13.835  0.00  0.00    -0.163 NA
ATOM     19  N   UNK d   1      -0.362  10.773 -13.482  0.00  0.00    -0.231 N 
ATOM     20  C   UNK d   1       0.467   9.755 -13.196  0.00  0.00     0.274 A 
ATOM     21  O   UNK d   1       1.679   9.972 -12.858  0.00  0.00    -0.266 OA
ATOM     22  C   UNK d   1       0.026   8.454 -13.264  0.00  0.00     0.046 A 
ATOM     23  C   UNK d   1      -1.306   8.258 -13.639  0.00  0.00     0.016 A 
ATOM     24  C   UNK d   1       0.889   7.432 -12.969  0.00  0.00     0.018 A 
ATOM     25  C   UNK d   1      -1.704   6.945 -13.693  0.00  0.00     0.015 A 
ATOM     26  C   UNK d   1      -0.838   5.898 -13.395  0.00  0.00     0.001 A 
ATOM     27  C   UNK d   1       0.468   6.128 -13.030  0.00  0.00     0.001 A 
BRANCH  19  28
ATOM     28  C   UNK d   1       0.174  12.115 -13.390  0.00  0.00     0.180 C 
BRANCH  28  29
ATOM     29  C   UNK d   1      -0.829  13.100 -12.851  0.00  0.00     0.186 C 
BRANCH  29  30
ATOM     30  O   UNK d   1      -0.241  14.116 -12.121  0.00  0.00    -0.399 OA
ATOM     31  H   UNK d   1       0.723  14.111 -12.328  0.00  0.00     0.209 HD
ENDBRANCH  29  30
ENDBRANCH  28  29
ENDBRANCH  19  28
ENDBRANCH   1  17
TORSDOF 7
ENDMDL
