/Users/jonathanwahrer/Desktop/Msc/3_Semester/Drug_Design_Praktikum/waehrer_HTS_screening/HTS_experiment/out/docking_results/vina_output/6q9y/1381_docked.pdbqt
 OpenBabel03222220063D

 31 34  0  0  0  0  0  0  0  0999 V2000
   -3.5160    9.0960  -14.3140 C   0  0  0  0  0  0  0  0  0  0  0  0
   -3.9960    8.3300  -15.1390 O   0  0  0  0  0  0  0  0  0  0  0  0
   -4.5250    9.8730  -13.6830 O   0  0  0  0  0  0  0  0  0  0  0  0
   -5.7790    9.2790  -13.4870 C   0  0  0  0  0  2  0  0  0  0  0  0
   -6.8010   10.2440  -13.9420 C   0  0  0  0  0  0  0  0  0  0  0  0
   -7.4380   10.0440  -15.1070 N   0  0  0  0  0  0  0  0  0  0  0  0
   -8.3750   10.8880  -15.5690 C   0  0  0  0  0  0  0  0  0  0  0  0
   -8.7120   11.9780  -14.8710 N   0  0  0  0  0  0  0  0  0  0  0  0
   -9.0020   10.6510  -16.7630 C   0  0  0  0  0  3  0  0  0  0  0  0
   -9.6580   12.8330  -15.3330 C   0  0  0  0  0  3  0  0  0  0  0  0
   -8.1220   12.2530  -13.6900 C   0  0  0  0  0  0  0  0  0  0  0  0
  -10.3020   12.6100  -16.5360 C   0  0  0  0  0  0  0  0  0  0  0  0
  -11.6400   13.8370  -17.1720 Br  0  0  0  0  0  0  0  0  0  0  0  0
   -9.9690   11.4960  -17.2670 C   0  0  0  0  0  3  0  0  0  0  0  0
   -7.1460   11.3610  -13.2230 C   0  0  0  0  0  3  0  0  0  0  0  0
   -8.4140   13.2670  -13.0080 O   0  0  0  0  0  0  0  0  0  0  0  0
   -2.1340    9.2990  -13.9250 C   0  0  0  0  0  0  0  0  0  0  0  0
   -1.6170   10.5610  -13.8350 N   0  0  0  0  0  0  0  0  0  0  0  0
   -0.3620   10.7730  -13.4820 N   0  0  0  0  0  0  0  0  0  0  0  0
    0.4670    9.7550  -13.1960 C   0  0  0  0  0  0  0  0  0  0  0  0
    1.6790    9.9720  -12.8580 O   0  0  0  0  0  0  0  0  0  0  0  0
    0.0260    8.4540  -13.2640 C   0  0  0  0  0  0  0  0  0  0  0  0
   -1.3060    8.2580  -13.6390 C   0  0  0  0  0  0  0  0  0  0  0  0
    0.8890    7.4320  -12.9690 C   0  0  0  0  0  3  0  0  0  0  0  0
   -1.7040    6.9450  -13.6930 C   0  0  0  0  0  3  0  0  0  0  0  0
   -0.8380    5.8980  -13.3950 C   0  0  0  0  0  3  0  0  0  0  0  0
    0.4680    6.1280  -13.0300 C   0  0  0  0  0  3  0  0  0  0  0  0
    0.1740   12.1150  -13.3900 C   0  0  0  0  0  2  0  0  0  0  0  0
   -0.8290   13.1000  -12.8510 C   0  0  0  0  0  2  0  0  0  0  0  0
   -0.2410   14.1160  -12.1210 O   0  0  0  0  0  0  0  0  0  0  0  0
    0.7230   14.1110  -12.3280 H   0  0  0  0  0  0  0  0  0  0  0  0
  1 17  1  0  0  0  0
  1  3  1  0  0  0  0
  2  1  2  0  0  0  0
  3  4  1  0  0  0  0
  5  4  1  0  0  0  0
  5 15  2  0  0  0  0
  6  5  1  0  0  0  0
  7  6  2  0  0  0  0
  7  8  1  0  0  0  0
  8 11  1  0  0  0  0
  9  7  1  0  0  0  0
 10  8  1  0  0  0  0
 11 15  1  0  0  0  0
 11 16  2  0  0  0  0
 12 10  2  0  0  0  0
 13 12  1  0  0  0  0
 14  9  2  0  0  0  0
 14 12  1  0  0  0  0
 17 18  2  0  0  0  0
 17 23  1  0  0  0  0
 18 19  1  0  0  0  0
 19 28  1  0  0  0  0
 19 20  1  0  0  0  0
 20 21  2  0  0  0  0
 22 20  1  0  0  0  0
 22 24  1  0  0  0  0
 23 22  2  0  0  0  0
 25 23  1  0  0  0  0
 25 26  2  0  0  0  0
 26 27  1  0  0  0  0
 27 24  2  0  0  0  0
 28 29  1  0  0  0  0
 29 30  1  0  0  0  0
 31 30  1  0  0  0  0
M  END
>  <Pose>
1

>  <Score>
-10.423

$$$$
