MODEL 1
REMARK VINA RESULT:    -8.991      0.000      0.000
REMARK INTER + INTRA:         -11.157
REMARK INTER:                 -11.356
REMARK INTRA:                   0.198
REMARK UNBOUND:                 0.198
REMARK  5 active torsions:
REMARK  status: ('A' for Active; 'I' for Inactive)
REMARK    1  A    between atoms: C_6  and  C_12 
REMARK    2  A    between atoms: C_12  and  C_13 
REMARK    3  A    between atoms: C_13  and  C_14 
REMARK       I    between atoms: C_14  and  N_16 
REMARK    4  A    between atoms: C_18  and  N_24 
REMARK    5  A    between atoms: C_19  and  O_22 
ROOT
ATOM      1  C   UNK d   1      -0.290  14.325 -12.737  0.00  0.00     0.220 C 
ATOM      2  O   UNK d   1      -1.207  13.473 -12.706  0.00  0.00    -0.273 OA
ATOM      3  N   UNK d   1       1.022  13.921 -13.185  0.00  0.00    -0.350 N 
ATOM      4  C   UNK d   1       1.231  12.555 -13.580  0.00  0.00     0.154 C 
ATOM      5  C   UNK d   1       2.155  11.929 -12.556  0.00  0.00     0.146 C 
ATOM      6  C   UNK d   1       3.134  12.884 -11.975  0.00  0.00     0.078 C 
ATOM      7  C   UNK d   1       3.379  14.115 -12.767  0.00  0.00     0.059 C 
ATOM      8  C   UNK d   1       2.151  14.805 -13.264  0.00  0.00     0.129 C 
ATOM      9  C   UNK d   1       4.473  12.144 -11.852  0.00  0.00     0.048 C 
ENDROOT
BRANCH   1  10
ATOM     10  C   UNK d   1      -0.497  15.721 -12.335  0.00  0.00     0.110 C 
BRANCH  10  11
ATOM     11  C   UNK d   1      -1.197  16.613 -13.269  0.00  0.00     0.088 C 
BRANCH  11  12
ATOM     12  C   UNK d   1      -2.131  17.609 -12.686  0.00  0.00     0.107 A 
ATOM     13  N   UNK d   1      -1.909  18.281 -11.502  0.00  0.00    -0.233 NA
ATOM     14  C   UNK d   1      -2.968  19.059 -11.230  0.00  0.00     0.087 A 
ATOM     15  C   UNK d   1      -3.274  19.928 -10.195  0.00  0.00     0.057 A 
ATOM     16  C   UNK d   1      -3.894  18.902 -12.235  0.00  0.00     0.064 A 
ATOM     17  C   UNK d   1      -4.467  20.612 -10.175  0.00  0.00     0.036 A 
ATOM     18 Cl   UNK d   1      -4.811  21.711  -8.830  0.00  0.00    -0.084 Cl
ATOM     19  C   UNK d   1      -5.386  20.443 -11.193  0.00  0.00     0.026 A 
ATOM     20  C   UNK d   1      -5.092  19.584 -12.224  0.00  0.00     0.034 A 
ATOM     21  N   UNK d   1      -3.331  18.005 -13.095  0.00  0.00    -0.338 N 
ATOM     22  C   UNK d   1      -4.055  17.558 -14.272  0.00  0.00     0.158 C 
ENDBRANCH  11  12
ENDBRANCH  10  11
ENDBRANCH   1  10
BRANCH   5  23
ATOM     23  N   UNK d   1       2.765  10.770 -13.162  0.00  0.00    -0.300 N 
ATOM     24  C   UNK d   1       3.576  10.910 -14.228  0.00  0.00     0.102 A 
ATOM     25  C   UNK d   1       4.179   9.832 -14.838  0.00  0.00     0.092 A 
ATOM     26  C   UNK d   1       3.938   8.575 -14.333  0.00  0.00     0.250 A 
ATOM     27  O   UNK d   1       4.466   7.537 -14.852  0.00  0.00    -0.268 OA
ATOM     28  N   UNK d   1       3.125   8.466 -13.271  0.00  0.00    -0.275 N 
ATOM     29  C   UNK d   1       2.553   9.527 -12.698  0.00  0.00     0.329 A 
ATOM     30  H   UNK d   1       2.911   7.513 -12.849  0.00  0.00     0.173 HD
ATOM     31  O   UNK d   1       1.795   9.369 -11.698  0.00  0.00    -0.246 OA
ENDBRANCH   5  23
BRANCH   6  32
ATOM     32  O   UNK d   1       2.806  13.270 -10.666  0.00  0.00    -0.388 OA
ATOM     33  H   UNK d   1       3.666  13.464 -10.178  0.00  0.00     0.210 HD
ENDBRANCH   6  32
TORSDOF 5
ENDMDL
