MODEL 1
REMARK VINA RESULT:    -8.670      0.000      0.000
REMARK INTER + INTRA:         -10.016
REMARK INTER:                 -10.191
REMARK INTRA:                   0.175
REMARK UNBOUND:                 0.175
REMARK  3 active torsions:
REMARK  status: ('A' for Active; 'I' for Inactive)
REMARK    1  A    between atoms: C_4  and  C_8 
REMARK       I    between atoms: C_8  and  N_10 
REMARK    2  A    between atoms: N_10  and  C_11 
REMARK    3  A    between atoms: C_11  and  C_12 
REMARK       I    between atoms: C_12  and  N_14 
ROOT
ATOM      1  C   UNK d   1      -1.518   6.362 -13.990  0.00  0.00     0.237 C 
ATOM      2  O   UNK d   1      -1.151   5.172 -13.831  0.00  0.00    -0.272 OA
ATOM      3  N   UNK d   1      -0.812   7.390 -13.346  0.00  0.00    -0.351 N 
ATOM      4  C   UNK d   1      -1.173   8.780 -13.479  0.00  0.00     0.129 C 
ATOM      5  C   UNK d   1      -0.019   9.468 -14.175  0.00  0.00     0.068 C 
ATOM      6  C   UNK d   1       1.273   9.133 -13.470  0.00  0.00     0.206 C 
ATOM      7  N   UNK d   1       2.116   8.411 -14.400  0.00  0.00     0.099 N 
ATOM      8  C   UNK d   1       3.427   8.130 -13.926  0.00  0.00     0.277 C 
ATOM      9  C   UNK d   1       4.103   9.190 -13.136  0.00  0.00     0.089 C 
ATOM     10  C   UNK d   1       3.349  10.457 -13.029  0.00  0.00     0.039 A 
ATOM     11  N   UNK d   1       3.739  11.746 -12.787  0.00  0.00    -0.352 N 
ATOM     12  C   UNK d   1       2.627  12.490 -12.797  0.00  0.00     0.207 A 
ATOM     13  N   UNK d   1       1.568  11.700 -13.038  0.00  0.00    -0.244 NA
ATOM     14  C   UNK d   1       1.983  10.417 -13.189  0.00  0.00     0.097 A 
ATOM     15  C   UNK d   1       1.103   8.359 -12.202  0.00  0.00     0.068 C 
ATOM     16  C   UNK d   1       0.320   7.079 -12.511  0.00  0.00     0.129 C 
ATOM     17  H   UNK d   1       1.647   7.495 -14.626  0.00  0.00     0.317 HD
ATOM     18  H   UNK d   1       4.745  12.046 -12.627  0.00  0.00     0.166 HD
ENDROOT
BRANCH   1  19
ATOM     19  C   UNK d   1      -2.695   6.594 -14.868  0.00  0.00     0.225 C 
BRANCH  19  20
ATOM     20  N   UNK d   1      -3.603   7.566 -14.298  0.00  0.00    -0.348 N 
ATOM     21  C   UNK d   1      -4.710   8.069 -15.018  0.00  0.00     0.252 C 
ATOM     22  O   UNK d   1      -4.885   7.639 -16.187  0.00  0.00    -0.268 OA
ATOM     23  H   UNK d   1      -3.438   7.906 -13.330  0.00  0.00     0.163 HD
BRANCH  21  24
ATOM     24  C   UNK d   1      -5.638   9.047 -14.469  0.00  0.00     0.033 A 
ATOM     25  C   UNK d   1      -6.582   9.709 -15.231  0.00  0.00     0.036 A 
ATOM     26  C   UNK d   1      -7.451  10.634 -14.681  0.00  0.00     0.011 A 
ATOM     27 Br   UNK d   1      -8.714  11.494 -15.800  0.00  0.00    -0.051 Br
ATOM     28  C   UNK d   1      -7.393  10.926 -13.317  0.00  0.00     0.019 A 
ATOM     29  C   UNK d   1      -6.447  10.257 -12.573  0.00  0.00     0.002 A 
ATOM     30  C   UNK d   1      -5.580   9.337 -13.113  0.00  0.00     0.017 A 
ENDBRANCH  21  24
ENDBRANCH  19  20
ENDBRANCH   1  19
TORSDOF 3
ENDMDL
