MODEL 1
REMARK VINA RESULT:    -5.529      0.000      0.000
REMARK INTER + INTRA:          -6.092
REMARK INTER:                  -6.498
REMARK INTRA:                   0.407
REMARK UNBOUND:                 0.407
REMARK  3 active torsions:
REMARK  status: ('A' for Active; 'I' for Inactive)
REMARK    1  A    between atoms: C_11  and  N_14 
REMARK    2  A    between atoms: C_11  and  C_20 
REMARK    3  A    between atoms: C_20  and  N_21 
ROOT
ATOM      1 Br   UNK d   1      -6.396  20.678 -11.303  0.00  0.00    -0.051 Br
ATOM      2  C   UNK d   1      -6.386  21.866  -9.811  0.00  0.00     0.018 A 
ATOM      3  C   UNK d   1      -7.495  22.627  -9.494  0.00  0.00     0.037 A 
ATOM      4  C   UNK d   1      -7.537  23.500  -8.427  0.00  0.00     0.047 A 
ATOM      5  C   UNK d   1      -6.371  23.579  -7.659  0.00  0.00     0.083 A 
ATOM      6  C   UNK d   1      -5.269  22.823  -7.975  0.00  0.00     0.045 A 
ATOM      7  C   UNK d   1      -5.242  21.954  -9.046  0.00  0.00    -0.042 A 
ATOM      8  C   UNK d   1      -4.018  21.157  -9.342  0.00  0.00     0.049 C 
ATOM      9  O   UNK d   1      -6.451  24.465  -6.594  0.00  0.00    -0.347 OA
ATOM     10  C   UNK d   1      -7.505  25.390  -6.400  0.00  0.00     0.216 C 
ATOM     11  C   UNK d   1      -8.886  24.712  -6.688  0.00  0.00     0.142 C 
ATOM     12  C   UNK d   1      -8.700  24.314  -8.104  0.00  0.00     0.194 C 
ATOM     13  O   UNK d   1      -9.432  24.603  -9.067  0.00  0.00    -0.289 OA
ENDROOT
BRANCH  11  14
ATOM     14  N   UNK d   1      -9.954  25.504  -6.400  0.00  0.00    -0.390 N 
ATOM     15  C   UNK d   1     -11.033  25.717  -7.266  0.00  0.00     0.144 C 
ATOM     16  C   UNK d   1     -10.888  27.057  -7.956  0.00  0.00     0.187 C 
ATOM     17  O   UNK d   1     -11.025  28.024  -6.932  0.00  0.00    -0.388 OA
ATOM     18  C   UNK d   1      -9.825  27.929  -6.206  0.00  0.00     0.187 C 
ATOM     19  C   UNK d   1      -9.806  26.567  -5.508  0.00  0.00     0.144 C 
ENDBRANCH  11  14
BRANCH  11  20
ATOM     20  C   UNK d   1      -8.852  23.507  -5.817  0.00  0.00     0.314 C 
BRANCH  20  21
ATOM     21  N   UNK d   1      -9.842  23.378  -4.794  0.00  0.00     0.095 N 
ATOM     22  C   UNK d   1     -10.795  22.340  -4.901  0.00  0.00     0.298 C 
ATOM     23  C   UNK d   1     -10.166  20.989  -4.528  0.00  0.00     0.198 C 
ATOM     24  O   UNK d   1      -9.862  21.083  -3.166  0.00  0.00    -0.388 OA
ATOM     25  C   UNK d   1      -8.801  21.988  -3.050  0.00  0.00     0.198 C 
ATOM     26  C   UNK d   1      -9.173  23.371  -3.491  0.00  0.00     0.298 C 
ENDBRANCH  20  21
ENDBRANCH  11  20
TORSDOF 3
ENDMDL
