MODEL 1
REMARK VINA RESULT:   -10.961      0.000      0.000
REMARK INTER + INTRA:         -13.201
REMARK INTER:                 -12.884
REMARK INTRA:                  -0.317
REMARK UNBOUND:                -0.317
REMARK  3 active torsions:
REMARK  status: ('A' for Active; 'I' for Inactive)
REMARK    1  A    between atoms: N_9  and  C_11 
REMARK    2  A    between atoms: C_11  and  C_12 
REMARK    3  A    between atoms: C_12  and  C_14 
ROOT
ATOM      1  C   UNK d   1      -5.279   9.034 -14.678  0.00  0.00     0.211 C 
ENDROOT
BRANCH   1   2
ATOM      2  N   UNK d   1      -3.876   9.183 -14.328  0.00  0.00    -0.355 N 
ATOM      3  C   UNK d   1      -3.288  10.376 -14.140  0.00  0.00     0.127 A 
ATOM      4  C   UNK d   1      -1.941  10.471 -13.807  0.00  0.00     0.126 A 
ATOM      5  C   UNK d   1      -1.166   9.343 -13.659  0.00  0.00     0.104 A 
ATOM      6  N   UNK d   1      -1.093  11.504 -13.560  0.00  0.00    -0.128 NA
ATOM      7  C   UNK d   1      -1.753   8.138 -13.848  0.00  0.00     0.057 A 
ATOM      8  N   UNK d   1       0.098   9.682 -13.337  0.00  0.00    -0.252 N 
ATOM      9 Br   UNK d   1      -0.707   6.572 -13.653  0.00  0.00    -0.047 Br
ATOM     10  C   UNK d   1      -3.106   8.083 -14.181  0.00  0.00     0.112 A 
ATOM     11  N   UNK d   1       0.083  11.011 -13.290  0.00  0.00    -0.065 NA
ATOM     12  C   UNK d   1       1.247   8.897 -13.087  0.00  0.00     0.182 C 
ENDBRANCH   1   2
BRANCH   1  13
ATOM     13  C   UNK d   1      -6.195   9.776 -13.817  0.00  0.00     0.177 C 
ATOM     14  O   UNK d   1      -6.037   9.626 -12.567  0.00  0.00    -0.291 OA
BRANCH  13  15
ATOM     15  C   UNK d   1      -7.265  10.667 -14.255  0.00  0.00     0.012 A 
ATOM     16  C   UNK d   1      -7.910  10.399 -15.429  0.00  0.00     0.027 A 
ATOM     17  C   UNK d   1      -8.915  11.221 -15.869  0.00  0.00    -0.025 A 
ATOM     18  C   UNK d   1      -9.313  12.337 -15.156  0.00  0.00    -0.026 A 
ATOM     19  C   UNK d   1      -9.554  10.930 -17.060  0.00  0.00     0.012 A 
ATOM     20  C   UNK d   1      -8.635  12.582 -13.964  0.00  0.00     0.013 A 
ATOM     21  C   UNK d   1     -10.322  13.179 -15.577  0.00  0.00     0.012 A 
ATOM     22  C   UNK d   1      -7.632  11.764 -13.521  0.00  0.00     0.016 A 
ATOM     23  C   UNK d   1     -10.949  12.877 -16.766  0.00  0.00     0.001 A 
ATOM     24  C   UNK d   1     -10.560  11.766 -17.486  0.00  0.00     0.001 A 
ENDBRANCH  13  15
ENDBRANCH   1  13
TORSDOF 3
ENDMDL
