/Users/jonathanwahrer/Desktop/Msc/3_Semester/Drug_Design_Praktikum/waehrer_HTS_screening/HTS_experiment/out/docking_results/vina_output/6q9y/1413_docked.pdbqt
 OpenBabel03222220073D

 24 27  0  0  0  0  0  0  0  0999 V2000
   -5.2790    9.0340  -14.6780 C   0  0  0  0  0  2  0  0  0  0  0  0
   -3.8760    9.1830  -14.3280 N   0  0  0  0  0  0  0  0  0  0  0  0
   -3.2880   10.3760  -14.1400 C   0  0  0  0  0  2  0  0  0  0  0  0
   -1.9410   10.4710  -13.8070 C   0  0  0  0  0  0  0  0  0  0  0  0
   -1.1660    9.3430  -13.6590 C   0  0  0  0  0  0  0  0  0  0  0  0
   -1.0930   11.5040  -13.5600 N   0  0  0  0  0  0  0  0  0  0  0  0
   -1.7530    8.1380  -13.8480 C   0  0  0  0  0  0  0  0  0  0  0  0
    0.0980    9.6820  -13.3370 N   0  0  0  0  0  0  0  0  0  0  0  0
   -0.7070    6.5720  -13.6530 Br  0  0  0  0  0  0  0  0  0  0  0  0
   -3.1060    8.0830  -14.1810 C   0  0  0  0  0  3  0  0  0  0  0  0
    0.0830   11.0110  -13.2900 N   0  0  0  0  0  0  0  0  0  0  0  0
    1.2470    8.8970  -13.0870 C   0  0  0  0  0  1  0  0  0  0  0  0
   -6.1950    9.7760  -13.8170 C   0  0  0  0  0  0  0  0  0  0  0  0
   -6.0370    9.6260  -12.5670 O   0  0  0  0  0  0  0  0  0  0  0  0
   -7.2650   10.6670  -14.2550 C   0  0  0  0  0  0  0  0  0  0  0  0
   -7.9100   10.3990  -15.4290 C   0  0  0  0  0  3  0  0  0  0  0  0
   -8.9150   11.2210  -15.8690 C   0  0  0  0  0  0  0  0  0  0  0  0
   -9.3130   12.3370  -15.1560 C   0  0  0  0  0  0  0  0  0  0  0  0
   -9.5540   10.9300  -17.0600 C   0  0  0  0  0  3  0  0  0  0  0  0
   -8.6350   12.5820  -13.9640 C   0  0  0  0  0  3  0  0  0  0  0  0
  -10.3220   13.1790  -15.5770 C   0  0  0  0  0  3  0  0  0  0  0  0
   -7.6320   11.7640  -13.5210 C   0  0  0  0  0  3  0  0  0  0  0  0
  -10.9490   12.8770  -16.7660 C   0  0  0  0  0  3  0  0  0  0  0  0
  -10.5600   11.7660  -17.4860 C   0  0  0  0  0  3  0  0  0  0  0  0
  1  2  1  0  0  0  0
  1 13  1  0  0  0  0
  2 10  1  0  0  0  0
  2  3  1  0  0  0  0
  3  4  1  0  0  0  0
  4  5  2  0  0  0  0
  4  6  1  0  0  0  0
  5  8  1  0  0  0  0
  6 11  2  0  0  0  0
  7  5  1  0  0  0  0
  7  9  1  0  0  0  0
  8 11  1  0  0  0  0
  8 12  1  0  0  0  0
 10  7  2  0  0  0  0
 13 14  2  0  0  0  0
 15 13  1  0  0  0  0
 15 22  1  0  0  0  0
 16 15  2  0  0  0  0
 17 16  1  0  0  0  0
 17 18  1  0  0  0  0
 18 20  1  0  0  0  0
 19 17  2  0  0  0  0
 20 22  2  0  0  0  0
 21 18  2  0  0  0  0
 23 21  1  0  0  0  0
 24 19  1  0  0  0  0
 24 23  2  0  0  0  0
M  END
>  <Pose>
1

>  <Score>
-10.961

$$$$
