/Users/jonathanwahrer/Desktop/Msc/3_Semester/Drug_Design_Praktikum/waehrer_HTS_screening/HTS_experiment/out/docking_results/vina_output/6q9y/1415_docked.pdbqt
 OpenBabel03222220073D

 32 35  0  0  1  0  0  0  0  0999 V2000
    3.3590   13.9220  -11.1870 Br  0  0  0  0  0  0  0  0  0  0  0  0
    1.6850   13.7740  -12.1090 C   0  0  0  0  0  0  0  0  0  0  0  0
    1.2800   12.5560  -12.6000 C   0  0  0  0  0  0  0  0  0  0  0  0
    0.0610   12.4040  -13.2810 C   0  0  0  0  0  0  0  0  0  0  0  0
   -0.7050   13.5390  -13.4300 C   0  0  0  0  0  3  0  0  0  0  0  0
   -0.3220   14.7730  -12.9490 C   0  0  0  0  0  0  0  0  0  0  0  0
    0.8770   14.8960  -12.2840 C   0  0  0  0  0  0  0  0  0  0  0  0
    1.3770   16.1800  -11.7280 C   0  0  0  0  0  1  0  0  0  0  0  0
   -1.4040   16.3290  -13.1700 Br  0  0  0  0  0  0  0  0  0  0  0  0
   -0.3250   11.1020  -13.7850 C   0  0  0  0  0  0  0  0  0  0  0  0
   -1.4400   10.9370  -14.2930 O   0  0  0  0  0  0  0  0  0  0  0  0
    0.6210    9.9770  -13.6860 C   0  0  1  0  0  0  0  0  0  0  0  0
    1.4230   10.1770  -12.4190 C   0  0  0  0  0  2  0  0  0  0  0  0
    2.0810   11.4310  -12.4290 O   0  0  0  0  0  0  0  0  0  0  0  0
   -0.0380    8.6310  -13.7150 C   0  0  0  0  0  2  0  0  0  0  0  0
   -0.9460    8.3620  -12.6680 N   0  0  0  0  0  4  0  0  0  0  0  0
   -2.1780    7.8620  -13.2040 C   0  0  0  0  0  2  0  0  0  0  0  0
   -2.1140    6.4860  -13.7630 C   0  0  2  0  0  3  0  0  0  0  0  0
   -0.8730    5.7210  -13.5110 C   0  0  0  0  0  2  0  0  0  0  0  0
   -2.2920    6.5940  -15.2820 C   0  0  0  0  0  1  0  0  0  0  0  0
   -0.0590    6.1380  -12.3490 C   0  0  0  0  0  2  0  0  0  0  0  0
   -0.5050    7.4090  -11.6870 C   0  0  0  0  0  2  0  0  0  0  0  0
   -1.1710    9.2480  -12.1500 H   0  0  0  0  0  0  0  0  0  0  0  0
    1.5620   10.1190  -14.8640 C   0  0  0  0  0  2  0  0  0  0  0  0
    1.9950    8.8950  -15.4480 N   0  0  0  0  0  4  0  0  0  0  0  0
    2.0240    7.8360  -14.4420 C   0  0  0  0  0  2  0  0  0  0  0  0
    3.4090    7.5630  -13.9320 C   0  0  1  0  0  3  0  0  0  0  0  0
    4.1380    8.8710  -13.7220 C   0  0  0  0  0  2  0  0  0  0  0  0
    3.2570    6.9270  -12.5430 C   0  0  0  0  0  1  0  0  0  0  0  0
    4.3540    9.4940  -15.0660 C   0  0  0  0  0  2  0  0  0  0  0  0
    3.3220    8.9480  -16.0220 C   0  0  0  0  0  2  0  0  0  0  0  0
    1.3400    8.5880  -16.1730 H   0  0  0  0  0  0  0  0  0  0  0  0
  2  1  1  0  0  0  0
  3 14  1  0  0  0  0
  3  2  2  0  0  0  0
  4  3  1  0  0  0  0
  5  4  2  0  0  0  0
  5  6  1  0  0  0  0
  6  7  2  0  0  0  0
  7  2  1  0  0  0  0
  7  8  1  0  0  0  0
  9  6  1  0  0  0  0
 10 12  1  0  0  0  0
 10  4  1  0  0  0  0
 11 10  2  0  0  0  0
 12 24  1  6  0  0  0
 12 13  1  0  0  0  0
 14 13  1  0  0  0  0
 15 12  1  0  0  0  0
 15 16  1  0  0  0  0
 16 23  1  0  0  0  0
 16 22  1  0  0  0  0
 17 16  1  0  0  0  0
 18 20  1  6  0  0  0
 18 19  1  0  0  0  0
 18 17  1  0  0  0  0
 19 21  1  0  0  0  0
 21 22  1  0  0  0  0
 25 24  1  0  0  0  0
 25 26  1  0  0  0  0
 26 27  1  0  0  0  0
 27 28  1  0  0  0  0
 27 29  1  1  0  0  0
 30 28  1  0  0  0  0
 31 25  1  0  0  0  0
 31 30  1  0  0  0  0
 32 25  1  0  0  0  0
M  END
>  <Pose>
1

>  <Score>
-6.417

$$$$
