MODEL 1
REMARK VINA RESULT:    -6.417      0.000      0.000
REMARK INTER + INTRA:          -7.139
REMARK INTER:                  -7.918
REMARK INTRA:                   0.778
REMARK UNBOUND:                 0.778
REMARK  4 active torsions:
REMARK  status: ('A' for Active; 'I' for Inactive)
REMARK    1  A    between atoms: C_12  and  C_15 
REMARK    2  A    between atoms: C_12  and  C_23 
REMARK    3  A    between atoms: C_15  and  N_16 
REMARK    4  A    between atoms: C_23  and  N_24 
ROOT
ATOM      1 Br   UNK d   1       3.359  13.922 -11.187  0.00  0.00    -0.048 Br
ATOM      2  C   UNK d   1       1.685  13.774 -12.109  0.00  0.00     0.052 A 
ATOM      3  C   UNK d   1       1.280  12.556 -12.600  0.00  0.00     0.100 A 
ATOM      4  C   UNK d   1       0.061  12.404 -13.281  0.00  0.00     0.047 A 
ATOM      5  C   UNK d   1      -0.705  13.539 -13.430  0.00  0.00     0.038 A 
ATOM      6  C   UNK d   1      -0.322  14.773 -12.949  0.00  0.00     0.019 A 
ATOM      7  C   UNK d   1       0.877  14.896 -12.284  0.00  0.00    -0.024 A 
ATOM      8  C   UNK d   1       1.377  16.180 -11.728  0.00  0.00     0.051 C 
ATOM      9 Br   UNK d   1      -1.404  16.329 -13.170  0.00  0.00    -0.051 Br
ATOM     10  C   UNK d   1      -0.325  11.102 -13.785  0.00  0.00     0.176 C 
ATOM     11  O   UNK d   1      -1.440  10.937 -14.293  0.00  0.00    -0.291 OA
ATOM     12  C   UNK d   1       0.621   9.977 -13.686  0.00  0.00     0.095 C 
ATOM     13  C   UNK d   1       1.423  10.177 -12.419  0.00  0.00     0.197 C 
ATOM     14  O   UNK d   1       2.081  11.431 -12.429  0.00  0.00    -0.347 OA
ENDROOT
BRANCH  12  15
ATOM     15  C   UNK d   1      -0.038   8.631 -13.715  0.00  0.00     0.256 C 
BRANCH  15  16
ATOM     16  N   UNK d   1      -0.946   8.362 -12.668  0.00  0.00    -0.069 N 
ATOM     17  C   UNK d   1      -2.178   7.862 -13.204  0.00  0.00     0.239 C 
ATOM     18  C   UNK d   1      -2.114   6.486 -13.763  0.00  0.00     0.007 C 
ATOM     19  C   UNK d   1      -0.873   5.721 -13.511  0.00  0.00     0.007 C 
ATOM     20  C   UNK d   1      -2.292   6.594 -15.282  0.00  0.00     0.011 C 
ATOM     21  C   UNK d   1      -0.059   6.138 -12.349  0.00  0.00     0.028 C 
ATOM     22  C   UNK d   1      -0.505   7.409 -11.687  0.00  0.00     0.235 C 
ATOM     23  H   UNK d   1      -1.171   9.248 -12.150  0.00  0.00     0.279 HD
ENDBRANCH  15  16
ENDBRANCH  12  15
BRANCH  12  24
ATOM     24  C   UNK d   1       1.562  10.119 -14.864  0.00  0.00     0.256 C 
BRANCH  24  25
ATOM     25  N   UNK d   1       1.995   8.895 -15.448  0.00  0.00    -0.069 N 
ATOM     26  C   UNK d   1       2.024   7.836 -14.442  0.00  0.00     0.239 C 
ATOM     27  C   UNK d   1       3.409   7.563 -13.932  0.00  0.00     0.007 C 
ATOM     28  C   UNK d   1       4.138   8.871 -13.722  0.00  0.00     0.007 C 
ATOM     29  C   UNK d   1       3.257   6.927 -12.543  0.00  0.00     0.011 C 
ATOM     30  C   UNK d   1       4.354   9.494 -15.066  0.00  0.00     0.028 C 
ATOM     31  C   UNK d   1       3.322   8.948 -16.022  0.00  0.00     0.235 C 
ATOM     32  H   UNK d   1       1.340   8.588 -16.173  0.00  0.00     0.279 HD
ENDBRANCH  24  25
ENDBRANCH  12  24
TORSDOF 4
ENDMDL
