MODEL 1
REMARK VINA RESULT:    -6.855      0.000      0.000
REMARK INTER + INTRA:          -8.693
REMARK INTER:                  -9.260
REMARK INTRA:                   0.566
REMARK UNBOUND:                 0.566
REMARK  6 active torsions:
REMARK  status: ('A' for Active; 'I' for Inactive)
REMARK    1  A    between atoms: C_13  and  C_29 
REMARK    2  A    between atoms: C_15  and  C_16 
REMARK       I    between atoms: C_16  and  N_18 
REMARK    3  A    between atoms: N_18  and  C_19 
REMARK    4  A    between atoms: C_20  and  O_27 
REMARK    5  A    between atoms: C_23  and  O_25 
REMARK    6  A    between atoms: C_29  and  C_30 
REMARK       I    between atoms: C_30  and  N_32 
ROOT
ATOM      1 Cl   UNK d   1       0.924   7.168 -11.080  0.00  0.00    -0.084 Cl
ATOM      2  C   UNK d   1       2.143   6.128 -11.809  0.00  0.00     0.034 A 
ATOM      3  C   UNK d   1       3.394   6.587 -12.128  0.00  0.00     0.036 A 
ATOM      4  C   UNK d   1       4.310   5.732 -12.697  0.00  0.00     0.019 A 
ATOM      5  C   UNK d   1       3.931   4.435 -12.927  0.00  0.00     0.044 A 
ATOM      6  C   UNK d   1       2.654   3.969 -12.601  0.00  0.00     0.032 A 
ATOM      7  C   UNK d   1       1.755   4.826 -12.038  0.00  0.00     0.026 A 
ATOM      8  N   UNK d   1       4.976   3.661 -13.504  0.00  0.00    -0.324 N 
ATOM      9  C   UNK d   1       6.070   4.524 -13.641  0.00  0.00     0.267 A 
ATOM     10  O   UNK d   1       7.184   4.129 -14.120  0.00  0.00    -0.270 OA
ATOM     11  C   UNK d   1       5.710   5.867 -13.164  0.00  0.00     0.278 A 
ATOM     12  N   UNK d   1       6.608   6.210 -12.098  0.00  0.00     0.113 N 
ATOM     13  C   UNK d   1       7.461   7.271 -12.533  0.00  0.00     0.232 C 
ATOM     14  C   UNK d   1       7.301   7.393 -14.014  0.00  0.00     0.053 C 
ATOM     15  C   UNK d   1       5.915   6.853 -14.230  0.00  0.00     0.133 C 
ATOM     16  H   UNK d   1       4.941   2.642 -13.776  0.00  0.00     0.169 HD
ATOM     17  H   UNK d   1       6.089   6.414 -11.218  0.00  0.00     0.318 HD
ENDROOT
BRANCH  15  18
ATOM     18  C   UNK d   1       4.892   7.924 -14.346  0.00  0.00     0.229 C 
ATOM     19  O   UNK d   1       4.311   8.012 -15.454  0.00  0.00    -0.273 OA
ATOM     20  N   UNK d   1       4.565   8.803 -13.307  0.00  0.00    -0.324 N 
ATOM     21  H   UNK d   1       5.107   8.636 -12.404  0.00  0.00     0.169 HD
BRANCH  20  22
ATOM     22  C   UNK d   1       3.633   9.842 -13.298  0.00  0.00     0.071 A 
ATOM     23  C   UNK d   1       2.344   9.601 -13.752  0.00  0.00     0.095 A 
ATOM     24  C   UNK d   1       1.372  10.580 -13.770  0.00  0.00     0.042 A 
ATOM     25  C   UNK d   1       1.639  11.854 -13.335  0.00  0.00     0.039 A 
ATOM     26  C   UNK d   1       2.899  12.121 -12.883  0.00  0.00     0.070 A 
ATOM     27  C   UNK d   1       3.870  11.123 -12.869  0.00  0.00     0.069 A 
BRANCH  23  28
ATOM     28  O   UNK d   1       1.997   8.341 -14.208  0.00  0.00    -0.354 OA
ATOM     29  C   UNK d   1       0.700   7.962 -14.553  0.00  0.00     0.210 C 
ENDBRANCH  23  28
BRANCH  26  30
ATOM     30  O   UNK d   1       3.208  13.392 -12.434  0.00  0.00    -0.356 OA
ATOM     31  C   UNK d   1       2.505  14.025 -11.381  0.00  0.00     0.210 C 
ENDBRANCH  26  30
ENDBRANCH  20  22
ENDBRANCH  15  18
BRANCH  13  32
ATOM     32  C   UNK d   1       8.908   7.033 -12.133  0.00  0.00     0.138 C 
BRANCH  32  33
ATOM     33  C   UNK d   1       9.252   5.604 -12.135  0.00  0.00     0.217 C 
ATOM     34  O   UNK d   1       9.022   4.902 -11.138  0.00  0.00    -0.274 OA
ATOM     35  N   UNK d   1       9.845   5.030 -13.275  0.00  0.00    -0.370 N 
ATOM     36  H   UNK d   1       9.455   4.132 -13.634  0.00  0.00     0.159 HD
ATOM     37  H   UNK d   1      10.657   5.444 -13.794  0.00  0.00     0.159 HD
ENDBRANCH  32  33
ENDBRANCH  13  32
TORSDOF 6
ENDMDL
