/Users/jonathanwahrer/Desktop/Msc/3_Semester/Drug_Design_Praktikum/waehrer_HTS_screening/HTS_experiment/out/docking_results/vina_output/6q9y/1432_docked.pdbqt
 OpenBabel03222220073D

 21 24  0  0  0  0  0  0  0  0999 V2000
   -6.6350    9.5010  -14.8120 C   0  0  0  0  0  0  0  0  0  0  0  0
   -6.7970   10.5140  -13.9450 N   0  0  0  0  0  0  0  0  0  0  0  0
   -7.7660   11.3450  -14.3660 N   0  0  0  0  0  0  0  0  0  0  0  0
   -8.2320   10.8500  -15.5260 C   0  0  0  0  0  0  0  0  0  0  0  0
   -7.5380    9.7270  -15.7900 N   0  0  0  0  0  0  0  0  0  0  0  0
   -9.2480   11.5410  -16.1580 C   0  0  0  0  0  0  0  0  0  0  0  0
   -9.7820   12.7040  -15.6360 C   0  0  0  0  0  0  0  0  0  0  0  0
  -10.7540   13.1760  -16.4460 N   0  0  0  0  0  0  0  0  0  0  0  0
  -10.8280   12.3280  -17.4540 N   0  0  0  0  0  0  0  0  0  0  0  0
   -9.9400   11.3260  -17.3270 C   0  0  0  0  0  3  0  0  0  0  0  0
  -11.5460   14.3840  -16.2220 C   0  0  0  0  0  1  0  0  0  0  0  0
   -9.2690   13.1400  -14.4730 N   0  0  0  0  0  0  0  0  0  0  0  0
   -8.2810   12.4760  -13.8490 C   0  0  0  0  0  3  0  0  0  0  0  0
   -5.6790    8.3610  -14.7420 C   0  0  0  0  0  2  0  0  0  0  0  0
   -4.3400    8.8030  -14.3860 N   0  0  0  0  0  0  0  0  0  0  0  0
   -3.2580    8.0230  -14.1910 C   0  0  0  0  0  3  0  0  0  0  0  0
   -2.1800    8.8430  -13.8670 C   0  0  0  0  0  0  0  0  0  0  0  0
   -0.3860    8.3290  -13.4790 Br  0  0  0  0  0  0  0  0  0  0  0  0
   -2.6650   10.1330  -13.8790 C   0  0  0  0  0  0  0  0  0  0  0  0
   -3.9730   10.0710  -14.1970 N   0  0  0  0  0  0  0  0  0  0  0  0
   -1.8350   11.3250  -13.5850 C   0  0  0  0  0  1  0  0  0  0  0  0
  1 14  1  0  0  0  0
  1  2  2  0  0  0  0
  3  2  1  0  0  0  0
  3 13  1  0  0  0  0
  4  3  1  0  0  0  0
  5  4  2  0  0  0  0
  5  1  1  0  0  0  0
  6  7  2  0  0  0  0
  6  4  1  0  0  0  0
  7 12  1  0  0  0  0
  8 11  1  0  0  0  0
  8  7  1  0  0  0  0
  9 10  2  0  0  0  0
  9  8  1  0  0  0  0
 10  6  1  0  0  0  0
 12 13  2  0  0  0  0
 14 15  1  0  0  0  0
 15 20  1  0  0  0  0
 15 16  1  0  0  0  0
 16 17  2  0  0  0  0
 17 18  1  0  0  0  0
 19 17  1  0  0  0  0
 19 21  1  0  0  0  0
 20 19  2  0  0  0  0
M  END
>  <Pose>
1

>  <Score>
-8.316

$$$$
