MODEL 1
REMARK VINA RESULT:    -8.316      0.000      0.000
REMARK INTER + INTRA:          -9.138
REMARK INTER:                  -9.289
REMARK INTRA:                   0.151
REMARK UNBOUND:                 0.151
REMARK  2 active torsions:
REMARK  status: ('A' for Active; 'I' for Inactive)
REMARK    1  A    between atoms: N_4  and  C_8 
REMARK    2  A    between atoms: C_8  and  C_9 
ROOT
ATOM      1  C   UNK d   1      -6.635   9.501 -14.812  0.00  0.00     0.168 A 
ATOM      2  N   UNK d   1      -6.797  10.514 -13.945  0.00  0.00    -0.148 NA
ATOM      3  N   UNK d   1      -7.766  11.345 -14.366  0.00  0.00    -0.206 N 
ATOM      4  C   UNK d   1      -8.232  10.850 -15.526  0.00  0.00     0.169 A 
ATOM      5  N   UNK d   1      -7.538   9.727 -15.790  0.00  0.00    -0.209 NA
ATOM      6  C   UNK d   1      -9.248  11.541 -16.158  0.00  0.00     0.079 A 
ATOM      7  C   UNK d   1      -9.782  12.704 -15.636  0.00  0.00     0.162 A 
ATOM      8  N   UNK d   1     -10.754  13.176 -16.446  0.00  0.00    -0.256 N 
ATOM      9  N   UNK d   1     -10.828  12.328 -17.454  0.00  0.00    -0.182 NA
ATOM     10  C   UNK d   1      -9.940  11.326 -17.327  0.00  0.00     0.158 A 
ATOM     11  C   UNK d   1     -11.546  14.384 -16.222  0.00  0.00     0.182 C 
ATOM     12  N   UNK d   1      -9.269  13.140 -14.473  0.00  0.00    -0.222 NA
ATOM     13  C   UNK d   1      -8.281  12.476 -13.849  0.00  0.00     0.239 A 
ENDROOT
BRANCH   1  14
ATOM     14  C   UNK d   1      -5.679   8.361 -14.742  0.00  0.00     0.232 C 
BRANCH  14  15
ATOM     15  N   UNK d   1      -4.340   8.803 -14.386  0.00  0.00    -0.272 N 
ATOM     16  C   UNK d   1      -3.258   8.023 -14.191  0.00  0.00     0.134 A 
ATOM     17  C   UNK d   1      -2.180   8.843 -13.867  0.00  0.00     0.054 A 
ATOM     18 Br   UNK d   1      -0.386   8.329 -13.479  0.00  0.00    -0.047 Br
ATOM     19  C   UNK d   1      -2.665  10.133 -13.879  0.00  0.00     0.069 A 
ATOM     20  N   UNK d   1      -3.973  10.071 -14.197  0.00  0.00    -0.176 NA
ATOM     21  C   UNK d   1      -1.835  11.325 -13.585  0.00  0.00     0.074 C 
ENDBRANCH  14  15
ENDBRANCH   1  14
TORSDOF 2
ENDMDL
