MODEL 1
REMARK VINA RESULT:    -5.365      0.000      0.000
REMARK INTER + INTRA:          -7.145
REMARK INTER:                  -6.463
REMARK INTRA:                  -0.682
REMARK UNBOUND:                -0.682
REMARK  4 active torsions:
REMARK  status: ('A' for Active; 'I' for Inactive)
REMARK    1  A    between atoms: C_10  and  O_27 
REMARK    2  A    between atoms: C_11  and  N_14 
REMARK    3  A    between atoms: C_11  and  C_20 
REMARK    4  A    between atoms: C_20  and  N_21 
ROOT
ATOM      1 Br   UNK d   1       1.484   6.385 -11.678  0.00  0.00    -0.048 Br
ATOM      2  C   UNK d   1       2.628   7.169 -12.972  0.00  0.00     0.051 A 
ATOM      3  C   UNK d   1       3.903   6.634 -13.184  0.00  0.00     0.095 A 
ATOM      4  C   UNK d   1       4.753   7.167 -14.121  0.00  0.00     0.008 A 
ATOM      5  C   UNK d   1       4.306   8.249 -14.842  0.00  0.00     0.020 A 
ATOM      6  C   UNK d   1       3.042   8.803 -14.651  0.00  0.00    -0.054 A 
ATOM      7  C   UNK d   1       2.186   8.247 -13.695  0.00  0.00    -0.036 A 
ATOM      8  C   UNK d   1       0.830   8.826 -13.486  0.00  0.00     0.050 C 
ATOM      9  C   UNK d   1       2.613   9.987 -15.441  0.00  0.00     0.049 C 
ATOM     10  C   UNK d   1       6.110   6.639 -14.441  0.00  0.00     0.197 C 
ATOM     11  C   UNK d   1       6.605   5.585 -13.499  0.00  0.00     0.236 C 
ATOM     12  C   UNK d   1       5.826   5.686 -12.200  0.00  0.00     0.222 C 
ATOM     13  O   UNK d   1       4.408   5.550 -12.480  0.00  0.00    -0.346 OA
ENDROOT
BRANCH  11  14
ATOM     14  N   UNK d   1       7.985   5.911 -13.212  0.00  0.00     0.109 N 
ATOM     15  C   UNK d   1       8.917   5.270 -14.079  0.00  0.00     0.299 C 
ATOM     16  C   UNK d   1      10.340   5.248 -13.598  0.00  0.00     0.198 C 
ATOM     17  O   UNK d   1      10.499   5.081 -12.249  0.00  0.00    -0.388 OA
ATOM     18  C   UNK d   1       9.804   6.111 -11.603  0.00  0.00     0.198 C 
ATOM     19  C   UNK d   1       8.314   5.742 -11.828  0.00  0.00     0.299 C 
ENDBRANCH  11  14
BRANCH  11  20
ATOM     20  C   UNK d   1       6.419   4.181 -13.936  0.00  0.00     0.319 C 
BRANCH  20  21
ATOM     21  N   UNK d   1       6.227   3.114 -13.067  0.00  0.00     0.095 N 
ATOM     22  C   UNK d   1       5.437   2.040 -13.761  0.00  0.00     0.298 C 
ATOM     23  C   UNK d   1       6.094   1.622 -15.024  0.00  0.00     0.198 C 
ATOM     24  O   UNK d   1       7.460   1.703 -15.021  0.00  0.00    -0.388 OA
ATOM     25  C   UNK d   1       8.062   1.635 -13.799  0.00  0.00     0.198 C 
ATOM     26  C   UNK d   1       7.372   2.319 -12.663  0.00  0.00     0.298 C 
ENDBRANCH  20  21
ENDBRANCH  11  20
BRANCH  10  27
ATOM     27  O   UNK d   1       7.002   7.756 -14.438  0.00  0.00    -0.388 OA
ATOM     28  H   UNK d   1       7.180   7.980 -15.384  0.00  0.00     0.210 HD
ENDBRANCH  10  27
TORSDOF 4
ENDMDL
