/Users/jonathanwahrer/Desktop/Msc/3_Semester/Drug_Design_Praktikum/waehrer_HTS_screening/HTS_experiment/out/docking_results/vina_output/6q9y/1433_docked.pdbqt
 OpenBabel03222220073D

 28 31  0  0  1  0  0  0  0  0999 V2000
    1.4840    6.3850  -11.6780 Br  0  0  0  0  0  0  0  0  0  0  0  0
    2.6280    7.1690  -12.9720 C   0  0  0  0  0  0  0  0  0  0  0  0
    3.9030    6.6340  -13.1840 C   0  0  0  0  0  0  0  0  0  0  0  0
    4.7530    7.1670  -14.1210 C   0  0  0  0  0  0  0  0  0  0  0  0
    4.3060    8.2490  -14.8420 C   0  0  0  0  0  3  0  0  0  0  0  0
    3.0420    8.8030  -14.6510 C   0  0  0  0  0  0  0  0  0  0  0  0
    2.1860    8.2470  -13.6950 C   0  0  0  0  0  0  0  0  0  0  0  0
    0.8300    8.8260  -13.4860 C   0  0  0  0  0  1  0  0  0  0  0  0
    2.6130    9.9870  -15.4410 C   0  0  0  0  0  1  0  0  0  0  0  0
    6.1100    6.6390  -14.4410 C   0  0  2  0  0  3  0  0  0  0  0  0
    6.6050    5.5850  -13.4990 C   0  0  2  0  0  0  0  0  0  0  0  0
    5.8260    5.6860  -12.2000 C   0  0  0  0  0  2  0  0  0  0  0  0
    4.4080    5.5500  -12.4800 O   0  0  0  0  0  0  0  0  0  0  0  0
    7.9850    5.9110  -13.2120 N   0  0  0  0  0  0  0  0  0  0  0  0
    8.9170    5.2700  -14.0790 C   0  0  0  0  0  2  0  0  0  0  0  0
   10.3400    5.2480  -13.5980 C   0  0  0  0  0  2  0  0  0  0  0  0
   10.4990    5.0810  -12.2490 O   0  0  0  0  0  0  0  0  0  0  0  0
    9.8040    6.1110  -11.6030 C   0  0  0  0  0  2  0  0  0  0  0  0
    8.3140    5.7420  -11.8280 C   0  0  0  0  0  2  0  0  0  0  0  0
    6.4190    4.1810  -13.9360 C   0  0  0  0  0  2  0  0  0  0  0  0
    6.2270    3.1140  -13.0670 N   0  0  0  0  0  0  0  0  0  0  0  0
    5.4370    2.0400  -13.7610 C   0  0  0  0  0  2  0  0  0  0  0  0
    6.0940    1.6220  -15.0240 C   0  0  0  0  0  2  0  0  0  0  0  0
    7.4600    1.7030  -15.0210 O   0  0  0  0  0  0  0  0  0  0  0  0
    8.0620    1.6350  -13.7990 C   0  0  0  0  0  2  0  0  0  0  0  0
    7.3720    2.3190  -12.6630 C   0  0  0  0  0  2  0  0  0  0  0  0
    7.0020    7.7560  -14.4380 O   0  0  0  0  0  0  0  0  0  0  0  0
    7.1800    7.9800  -15.3840 H   0  0  0  0  0  0  0  0  0  0  0  0
  2  1  1  0  0  0  0
  3  2  1  0  0  0  0
  3 13  1  0  0  0  0
  4  3  2  0  0  0  0
  5  6  2  0  0  0  0
  5  4  1  0  0  0  0
  6  7  1  0  0  0  0
  7  8  1  0  0  0  0
  7  2  2  0  0  0  0
  9  6  1  0  0  0  0
 10 27  1  1  0  0  0
 10  4  1  0  0  0  0
 10 11  1  0  0  0  0
 11 20  1  6  0  0  0
 11 14  1  0  0  0  0
 11 12  1  0  0  0  0
 13 12  1  0  0  0  0
 14 19  1  0  0  0  0
 15 16  1  0  0  0  0
 15 14  1  0  0  0  0
 16 17  1  0  0  0  0
 17 18  1  0  0  0  0
 19 18  1  0  0  0  0
 20 21  1  0  0  0  0
 21 26  1  0  0  0  0
 22 21  1  0  0  0  0
 23 24  1  0  0  0  0
 23 22  1  0  0  0  0
 24 25  1  0  0  0  0
 25 26  1  0  0  0  0
 28 27  1  0  0  0  0
M  END
>  <Pose>
1

>  <Score>
-5.365

$$$$
