MODEL 1
REMARK VINA RESULT:    -7.958      0.000      0.000
REMARK INTER + INTRA:          -9.265
REMARK INTER:                  -8.889
REMARK INTRA:                  -0.377
REMARK UNBOUND:                -0.377
REMARK  2 active torsions:
REMARK  status: ('A' for Active; 'I' for Inactive)
REMARK    1  A    between atoms: N_5  and  C_8 
REMARK    2  A    between atoms: C_8  and  C_9 
REMARK       I    between atoms: C_9  and  N_11 
ROOT
ATOM      1  C   UNK d   1       3.133   6.486 -12.889  0.00  0.00     0.171 C 
ATOM      2  O   UNK d   1       3.196   5.746 -11.787  0.00  0.00    -0.175 OA
ATOM      3  N   UNK d   1       2.154   7.467 -12.865  0.00  0.00    -0.361 N 
ATOM      4  C   UNK d   1       1.832   8.409 -13.877  0.00  0.00     0.127 C 
ATOM      5  C   UNK d   1       0.491   8.046 -14.517  0.00  0.00     0.061 C 
ATOM      6  C   UNK d   1      -0.410   7.401 -13.478  0.00  0.00     0.118 C 
ATOM      7  N   UNK d   1      -1.758   7.830 -13.809  0.00  0.00    -0.324 N 
ATOM      8  C   UNK d   1      -2.279   6.852 -14.733  0.00  0.00     0.323 C 
ATOM      9  O   UNK d   1      -3.265   7.010 -15.497  0.00  0.00    -0.247 OA
ATOM     10  N   UNK d   1      -1.460   5.674 -14.613  0.00  0.00    -0.277 N 
ATOM     11  C   UNK d   1      -0.460   5.932 -13.635  0.00  0.00     0.254 C 
ATOM     12  O   UNK d   1       0.219   5.058 -13.048  0.00  0.00    -0.270 OA
ATOM     13  C   UNK d   1      -0.100   7.849 -12.085  0.00  0.00     0.061 C 
ATOM     14  C   UNK d   1       1.305   7.580 -11.654  0.00  0.00     0.127 C 
ATOM     15  H   UNK d   1      -2.261   8.671 -13.458  0.00  0.00     0.165 HD
ATOM     16  H   UNK d   1      -1.582   4.801 -15.145  0.00  0.00     0.173 HD
ENDROOT
BRANCH   1  17
ATOM     17  C   UNK d   1       4.120   6.076 -13.868  0.00  0.00     0.216 C 
BRANCH  17  18
ATOM     18  N   UNK d   1       5.213   5.257 -13.474  0.00  0.00    -0.341 N 
ATOM     19  C   UNK d   1       6.430   5.760 -13.112  0.00  0.00     0.046 A 
ATOM     20  C   UNK d   1       7.259   4.724 -12.767  0.00  0.00     0.010 A 
ATOM     21  C   UNK d   1       6.910   7.069 -13.051  0.00  0.00     0.030 A 
ATOM     22  C   UNK d   1       6.534   3.569 -12.921  0.00  0.00     0.045 A 
ATOM     23  C   UNK d   1       8.559   4.986 -12.362  0.00  0.00     0.015 A 
ATOM     24 Br   UNK d   1       7.250   1.833 -12.562  0.00  0.00    -0.048 Br
ATOM     25  C   UNK d   1       5.283   3.911 -13.353  0.00  0.00     0.027 A 
ATOM     26  C   UNK d   1       4.176   2.972 -13.644  0.00  0.00     0.070 C 
ATOM     27  C   UNK d   1       9.023   6.280 -12.305  0.00  0.00     0.001 A 
ATOM     28  C   UNK d   1       8.213   7.326 -12.646  0.00  0.00     0.002 A 
ENDBRANCH  17  18
ENDBRANCH   1  17
TORSDOF 2
ENDMDL
