/Users/jonathanwahrer/Desktop/Msc/3_Semester/Drug_Design_Praktikum/waehrer_HTS_screening/HTS_experiment/out/docking_results/vina_output/6q9y/1434_docked.pdbqt
 OpenBabel03222220083D

 28 31  0  0  1  0  0  0  0  0999 V2000
    3.1330    6.4860  -12.8890 C   0  0  0  0  0  0  0  0  0  0  0  0
    3.1960    5.7460  -11.7870 O   0  0  0  0  0  0  0  0  0  0  0  0
    2.1540    7.4670  -12.8650 N   0  0  0  0  0  0  0  0  0  0  0  0
    1.8320    8.4090  -13.8770 C   0  0  0  0  0  2  0  0  0  0  0  0
    0.4910    8.0460  -14.5170 C   0  0  0  0  0  2  0  0  0  0  0  0
   -0.4100    7.4010  -13.4780 C   0  0  1  0  0  0  0  0  0  0  0  0
   -1.7580    7.8300  -13.8090 N   0  0  0  0  0  0  0  0  0  0  0  0
   -2.2790    6.8520  -14.7330 C   0  0  0  0  0  0  0  0  0  0  0  0
   -3.2650    7.0100  -15.4970 O   0  0  0  0  0  0  0  0  0  0  0  0
   -1.4600    5.6740  -14.6130 N   0  0  0  0  0  0  0  0  0  0  0  0
   -0.4600    5.9320  -13.6350 C   0  0  0  0  0  0  0  0  0  0  0  0
    0.2190    5.0580  -13.0480 O   0  0  0  0  0  0  0  0  0  0  0  0
   -0.1000    7.8490  -12.0850 C   0  0  0  0  0  2  0  0  0  0  0  0
    1.3050    7.5800  -11.6540 C   0  0  0  0  0  2  0  0  0  0  0  0
   -2.2610    8.6710  -13.4580 H   0  0  0  0  0  0  0  0  0  0  0  0
   -1.5820    4.8010  -15.1450 H   0  0  0  0  0  0  0  0  0  0  0  0
    4.1200    6.0760  -13.8680 C   0  0  0  0  0  2  0  0  0  0  0  0
    5.2130    5.2570  -13.4740 N   0  0  0  0  0  0  0  0  0  0  0  0
    6.4300    5.7600  -13.1120 C   0  0  0  0  0  0  0  0  0  0  0  0
    7.2590    4.7240  -12.7670 C   0  0  0  0  0  0  0  0  0  0  0  0
    6.9100    7.0690  -13.0510 C   0  0  0  0  0  3  0  0  0  0  0  0
    6.5340    3.5690  -12.9210 C   0  0  0  0  0  0  0  0  0  0  0  0
    8.5590    4.9860  -12.3620 C   0  0  0  0  0  3  0  0  0  0  0  0
    7.2500    1.8330  -12.5620 Br  0  0  0  0  0  0  0  0  0  0  0  0
    5.2830    3.9110  -13.3530 C   0  0  0  0  0  0  0  0  0  0  0  0
    4.1760    2.9720  -13.6440 C   0  0  0  0  0  1  0  0  0  0  0  0
    9.0230    6.2800  -12.3050 C   0  0  0  0  0  3  0  0  0  0  0  0
    8.2130    7.3260  -12.6460 C   0  0  0  0  0  3  0  0  0  0  0  0
  1  3  1  0  0  0  0
  1  2  2  0  0  0  0
  3 14  1  0  0  0  0
  4  3  1  0  0  0  0
  5  4  1  0  0  0  0
  6  5  1  6  0  0  0
  6 13  1  0  0  0  0
  7  6  1  0  0  0  0
  7 15  1  0  0  0  0
  8 10  1  0  0  0  0
  8  7  1  0  0  0  0
  9  8  2  0  0  0  0
 10 11  1  0  0  0  0
 11  6  1  0  0  0  0
 11 12  2  0  0  0  0
 13 14  1  0  0  0  0
 16 10  1  0  0  0  0
 17 18  1  0  0  0  0
 17  1  1  0  0  0  0
 18 25  1  0  0  0  0
 18 19  1  0  0  0  0
 19 21  2  0  0  0  0
 19 20  1  0  0  0  0
 20 23  2  0  0  0  0
 21 28  1  0  0  0  0
 22 20  1  0  0  0  0
 22 24  1  0  0  0  0
 23 27  1  0  0  0  0
 25 22  2  0  0  0  0
 26 25  1  0  0  0  0
 28 27  2  0  0  0  0
M  END
>  <Pose>
1

>  <Score>
-7.958

$$$$
