MODEL 1
REMARK VINA RESULT:    -8.171      0.000      0.000
REMARK INTER + INTRA:         -11.423
REMARK INTER:                 -10.560
REMARK INTRA:                  -0.863
REMARK UNBOUND:                -0.863
REMARK  5 active torsions:
REMARK  status: ('A' for Active; 'I' for Inactive)
REMARK    1  A    between atoms: N_3  and  C_14 
REMARK    2  A    between atoms: C_14  and  C_15 
REMARK    3  A    between atoms: C_15  and  C_16 
REMARK    4  A    between atoms: C_16  and  C_17 
REMARK    5  A    between atoms: C_17  and  N_18 
ROOT
ATOM      1  C   UNK d   1       2.441   8.471 -14.610  0.00  0.00     0.022 C 
ENDROOT
BRANCH   1   2
ATOM      2  C   UNK d   1       3.062   8.181 -13.250  0.00  0.00     0.132 C 
BRANCH   2   3
ATOM      3  N   UNK d   1       3.111   6.763 -12.985  0.00  0.00    -0.318 N 
ATOM      4  C   UNK d   1       2.126   5.948 -12.534  0.00  0.00     0.180 A 
ATOM      5 Br   UNK d   1       0.363   6.563 -12.134  0.00  0.00    -0.008 Br
ATOM      6  N   UNK d   1       2.577   4.686 -12.417  0.00  0.00    -0.203 NA
ATOM      7  C   UNK d   1       3.877   4.656 -12.795  0.00  0.00     0.169 A 
ATOM      8  C   UNK d   1       4.183   5.956 -13.141  0.00  0.00     0.152 A 
ATOM      9  N   UNK d   1       4.779   3.651 -12.863  0.00  0.00    -0.286 N 
ATOM     10  C   UNK d   1       5.470   6.224 -13.576  0.00  0.00     0.280 A 
ATOM     11  N   UNK d   1       6.359   5.222 -13.640  0.00  0.00    -0.273 N 
ATOM     12  O   UNK d   1       5.733   7.407 -13.886  0.00  0.00    -0.265 OA
ATOM     13  C   UNK d   1       6.020   3.951 -13.288  0.00  0.00     0.330 A 
ATOM     14  H   UNK d   1       7.335   5.416 -13.966  0.00  0.00     0.173 HD
ATOM     15  O   UNK d   1       6.913   3.068 -13.378  0.00  0.00    -0.246 OA
ATOM     16  C   UNK d   1       4.440   2.290 -12.494  0.00  0.00     0.163 C 
ENDBRANCH   2   3
ENDBRANCH   1   2
BRANCH   1  17
ATOM     17  C   UNK d   1       1.519   9.660 -14.540  0.00  0.00     0.022 C 
BRANCH  17  18
ATOM     18  C   UNK d   1       0.963   9.945 -13.177  0.00  0.00     0.132 C 
BRANCH  18  19
ATOM     19  N   UNK d   1       0.472  11.281 -13.108  0.00  0.00    -0.318 N 
ATOM     20  C   UNK d   1       1.098  12.428 -12.851  0.00  0.00     0.152 A 
ATOM     21  C   UNK d   1       0.181  13.469 -12.940  0.00  0.00     0.169 A 
ATOM     22  C   UNK d   1       2.388  12.759 -12.529  0.00  0.00     0.280 A 
ATOM     23  N   UNK d   1      -0.980  12.901 -13.250  0.00  0.00    -0.203 NA
ATOM     24  N   UNK d   1       0.556  14.732 -12.719  0.00  0.00    -0.286 N 
ATOM     25  C   UNK d   1      -0.828  11.580 -13.356  0.00  0.00     0.180 A 
ATOM     26 Br   UNK d   1      -2.238  10.371 -13.786  0.00  0.00    -0.008 Br
ATOM     27  C   UNK d   1       1.831  15.032 -12.405  0.00  0.00     0.330 A 
ATOM     28  C   UNK d   1      -0.385  15.843 -12.806  0.00  0.00     0.163 C 
ATOM     29  O   UNK d   1       2.176  16.222 -12.200  0.00  0.00    -0.246 OA
ATOM     30  N   UNK d   1       2.723  14.040 -12.315  0.00  0.00    -0.273 N 
ATOM     31  H   UNK d   1       3.736  14.232 -12.070  0.00  0.00     0.173 HD
ATOM     32  O   UNK d   1       3.234  11.847 -12.438  0.00  0.00    -0.265 OA
ENDBRANCH  18  19
ENDBRANCH  17  18
ENDBRANCH   1  17
TORSDOF 5
ENDMDL
