MODEL 1
REMARK VINA RESULT:    -8.984      0.000      0.000
REMARK INTER + INTRA:         -11.803
REMARK INTER:                 -12.135
REMARK INTRA:                   0.332
REMARK UNBOUND:                 0.332
REMARK  6 active torsions:
REMARK  status: ('A' for Active; 'I' for Inactive)
REMARK    1  A    between atoms: N_3  and  C_14 
REMARK    2  A    between atoms: C_14  and  C_15 
REMARK    3  A    between atoms: C_15  and  O_16 
REMARK    4  A    between atoms: O_16  and  C_17 
REMARK    5  A    between atoms: C_17  and  C_18 
REMARK    6  A    between atoms: C_18  and  N_19 
ROOT
ATOM      1  O   UNK d   1      -1.167  14.023 -12.957  0.00  0.00    -0.388 OA
ENDROOT
BRANCH   1   2
ATOM      2  C   UNK d   1      -0.496  12.876 -12.692  0.00  0.00     0.188 C 
BRANCH   2   3
ATOM      3  C   UNK d   1      -0.024  11.973 -13.755  0.00  0.00     0.158 C 
BRANCH   3   4
ATOM      4  N   UNK d   1       0.762  10.844 -13.388  0.00  0.00    -0.316 N 
ATOM      5  C   UNK d   1       2.050  10.735 -13.069  0.00  0.00     0.180 A 
ATOM      6 Br   UNK d   1       3.371  12.118 -13.083  0.00  0.00    -0.008 Br
ATOM      7  N   UNK d   1       2.375   9.460 -12.752  0.00  0.00    -0.203 NA
ATOM      8  C   UNK d   1       1.262   8.751 -12.879  0.00  0.00     0.169 A 
ATOM      9  C   UNK d   1       0.243   9.590 -13.275  0.00  0.00     0.152 A 
ATOM     10  N   UNK d   1       0.994   7.427 -12.699  0.00  0.00    -0.286 N 
ATOM     11  C   UNK d   1      -1.038   9.126 -13.496  0.00  0.00     0.280 A 
ATOM     12  N   UNK d   1      -1.242   7.793 -13.299  0.00  0.00    -0.273 N 
ATOM     13  O   UNK d   1      -1.980   9.874 -13.861  0.00  0.00    -0.265 OA
ATOM     14  C   UNK d   1      -0.243   6.984 -12.913  0.00  0.00     0.330 A 
ATOM     15  H   UNK d   1      -2.206   7.431 -13.464  0.00  0.00     0.173 HD
ATOM     16  O   UNK d   1      -0.461   5.750 -12.737  0.00  0.00    -0.246 OA
ATOM     17  C   UNK d   1       2.037   6.512 -12.282  0.00  0.00     0.163 C 
ENDBRANCH   3   4
ENDBRANCH   2   3
ENDBRANCH   1   2
BRANCH   1  18
ATOM     18  C   UNK d   1      -0.358  14.949 -13.593  0.00  0.00     0.188 C 
BRANCH  18  19
ATOM     19  C   UNK d   1      -1.177  16.153 -13.953  0.00  0.00     0.158 C 
BRANCH  19  20
ATOM     20  N   UNK d   1      -1.337  17.045 -12.848  0.00  0.00    -0.316 N 
ATOM     21  C   UNK d   1      -2.391  17.843 -12.631  0.00  0.00     0.152 A 
ATOM     22  C   UNK d   1      -2.157  18.536 -11.484  0.00  0.00     0.169 A 
ATOM     23  C   UNK d   1      -3.566  18.043 -13.327  0.00  0.00     0.280 A 
ATOM     24  N   UNK d   1      -0.968  18.144 -11.032  0.00  0.00    -0.203 NA
ATOM     25  N   UNK d   1      -3.067  19.415 -11.031  0.00  0.00    -0.286 N 
ATOM     26  C   UNK d   1      -0.431  17.223 -11.849  0.00  0.00     0.180 A 
ATOM     27 Br   UNK d   1       1.231  16.313 -11.715  0.00  0.00    -0.008 Br
ATOM     28  C   UNK d   1      -4.193  19.593 -11.717  0.00  0.00     0.330 A 
ATOM     29  C   UNK d   1      -2.836  20.162  -9.812  0.00  0.00     0.163 C 
ATOM     30  O   UNK d   1      -5.038  20.419 -11.281  0.00  0.00    -0.246 OA
ATOM     31  N   UNK d   1      -4.441  18.926 -12.838  0.00  0.00    -0.273 N 
ATOM     32  H   UNK d   1      -5.329  19.080 -13.362  0.00  0.00     0.173 HD
ATOM     33  O   UNK d   1      -3.841  17.425 -14.405  0.00  0.00    -0.265 OA
ENDBRANCH  19  20
ENDBRANCH  18  19
ENDBRANCH   1  18
TORSDOF 6
ENDMDL
