/Users/jonathanwahrer/Desktop/Msc/3_Semester/Drug_Design_Praktikum/waehrer_HTS_screening/HTS_experiment/out/docking_results/vina_output/6q9y/1436_docked.pdbqt
 OpenBabel03222220083D

 33 36  0  0  0  0  0  0  0  0999 V2000
   -1.1670   14.0230  -12.9570 O   0  0  0  0  0  0  0  0  0  0  0  0
   -0.4960   12.8760  -12.6920 C   0  0  0  0  0  3  0  0  0  0  0  0
   -0.0240   11.9730  -13.7550 C   0  0  0  0  0  3  0  0  0  0  0  0
    0.7620   10.8440  -13.3880 N   0  0  0  0  0  0  0  0  0  0  0  0
    2.0500   10.7350  -13.0690 C   0  0  0  0  0  0  0  0  0  0  0  0
    3.3710   12.1180  -13.0830 Br  0  0  0  0  0  0  0  0  0  0  0  0
    2.3750    9.4600  -12.7520 N   0  0  0  0  0  0  0  0  0  0  0  0
    1.2620    8.7510  -12.8790 C   0  0  0  0  0  0  0  0  0  0  0  0
    0.2430    9.5900  -13.2750 C   0  0  0  0  0  0  0  0  0  0  0  0
    0.9940    7.4270  -12.6990 N   0  0  0  0  0  0  0  0  0  0  0  0
   -1.0380    9.1260  -13.4960 C   0  0  0  0  0  0  0  0  0  0  0  0
   -1.2420    7.7930  -13.2990 N   0  0  0  0  0  0  0  0  0  0  0  0
   -1.9800    9.8740  -13.8610 O   0  0  0  0  0  0  0  0  0  0  0  0
   -0.2430    6.9840  -12.9130 C   0  0  0  0  0  0  0  0  0  0  0  0
   -2.2060    7.4310  -13.4640 H   0  0  0  0  0  0  0  0  0  0  0  0
   -0.4610    5.7500  -12.7370 O   0  0  0  0  0  0  0  0  0  0  0  0
    2.0370    6.5120  -12.2820 C   0  0  0  0  0  1  0  0  0  0  0  0
   -0.3580   14.9490  -13.5930 C   0  0  0  0  0  2  0  0  0  0  0  0
   -1.1770   16.1530  -13.9530 C   0  0  0  0  0  2  0  0  0  0  0  0
   -1.3370   17.0450  -12.8480 N   0  0  0  0  0  0  0  0  0  0  0  0
   -2.3910   17.8430  -12.6310 C   0  0  0  0  0  0  0  0  0  0  0  0
   -2.1570   18.5360  -11.4840 C   0  0  0  0  0  0  0  0  0  0  0  0
   -3.5660   18.0430  -13.3270 C   0  0  0  0  0  0  0  0  0  0  0  0
   -0.9680   18.1440  -11.0320 N   0  0  0  0  0  0  0  0  0  0  0  0
   -3.0670   19.4150  -11.0310 N   0  0  0  0  0  0  0  0  0  0  0  0
   -0.4310   17.2230  -11.8490 C   0  0  0  0  0  0  0  0  0  0  0  0
    1.2310   16.3130  -11.7150 Br  0  0  0  0  0  0  0  0  0  0  0  0
   -4.1930   19.5930  -11.7170 C   0  0  0  0  0  0  0  0  0  0  0  0
   -2.8360   20.1620   -9.8120 C   0  0  0  0  0  1  0  0  0  0  0  0
   -5.0380   20.4190  -11.2810 O   0  0  0  0  0  0  0  0  0  0  0  0
   -4.4410   18.9260  -12.8380 N   0  0  0  0  0  0  0  0  0  0  0  0
   -5.3290   19.0800  -13.3620 H   0  0  0  0  0  0  0  0  0  0  0  0
   -3.8410   17.4250  -14.4050 O   0  0  0  0  0  0  0  0  0  0  0  0
  1  2  1  0  0  0  0
  3  4  1  0  0  0  0
  3  2  2  0  0  0  0
  4  9  1  0  0  0  0
  4  5  1  0  0  0  0
  5  7  2  0  0  0  0
  6  5  1  0  0  0  0
  8  7  1  0  0  0  0
  8 10  1  0  0  0  0
  9  8  2  0  0  0  0
 10 17  1  0  0  0  0
 11 12  1  0  0  0  0
 11  9  1  0  0  0  0
 12 14  1  0  0  0  0
 13 11  2  0  0  0  0
 14 16  2  0  0  0  0
 14 10  1  0  0  0  0
 15 12  1  0  0  0  0
 18  1  1  0  0  0  0
 19 18  1  0  0  0  0
 19 20  1  0  0  0  0
 20 21  1  0  0  0  0
 20 26  1  0  0  0  0
 21 22  2  0  0  0  0
 22 24  1  0  0  0  0
 22 25  1  0  0  0  0
 23 31  1  0  0  0  0
 23 21  1  0  0  0  0
 25 29  1  0  0  0  0
 26 27  1  0  0  0  0
 26 24  2  0  0  0  0
 28 30  2  0  0  0  0
 28 25  1  0  0  0  0
 31 28  1  0  0  0  0
 32 31  1  0  0  0  0
 33 23  2  0  0  0  0
M  END
>  <Pose>
1

>  <Score>
-8.984

$$$$
