/Users/jonathanwahrer/Desktop/Msc/3_Semester/Drug_Design_Praktikum/waehrer_HTS_screening/HTS_experiment/out/docking_results/vina_output/6q9y/1444_docked.pdbqt
 OpenBabel03222220093D

 33 36  0  0  0  0  0  0  0  0999 V2000
   -3.3400   10.2290  -13.6750 N   0  0  0  0  0  0  0  0  0  0  0  0
   -2.0060   10.4740  -13.5970 C   0  0  0  0  0  0  0  0  0  0  0  0
   -1.8420   11.6980  -12.9930 O   0  0  0  0  0  0  0  0  0  0  0  0
   -3.9470   11.0600  -13.2220 H   0  0  0  0  0  0  0  0  0  0  0  0
   -0.7090    9.9040  -13.9210 C   0  0  0  0  0  2  0  0  0  0  0  0
    0.0360    9.0270  -13.1240 N   0  0  0  0  0  0  0  0  0  0  0  0
   -0.5920    8.0040  -12.2460 C   0  0  0  0  0  2  0  0  0  0  0  0
    0.5260    7.5510  -11.3300 C   0  0  0  0  0  2  0  0  0  0  0  0
    1.5860    6.8770  -12.1610 C   0  0  0  0  0  2  0  0  0  0  0  0
    2.2700    7.9070  -13.0340 C   0  0  0  0  0  2  0  0  0  0  0  0
    1.4630    9.1620  -13.0670 C   0  0  0  0  0  0  0  0  0  0  0  0
    2.0610   10.3490  -12.9440 C   0  0  0  0  0  0  0  0  0  0  0  0
    3.4930   10.4640  -12.9010 N   0  0  0  0  0  0  0  0  0  0  0  0
    1.5690   11.6390  -12.7700 N   0  0  0  0  0  0  0  0  0  0  0  0
    3.8470   11.8110  -12.7030 N   0  0  0  0  0  0  0  0  0  0  0  0
    4.2430    9.7520  -12.9920 H   0  0  0  0  0  0  0  0  0  0  0  0
    2.6590   12.5660  -12.6190 C   0  0  0  0  0  0  0  0  0  0  0  0
    4.8110   12.2200  -12.6280 H   0  0  0  0  0  0  0  0  0  0  0  0
    2.5080   13.7970  -12.4490 O   0  0  0  0  0  0  0  0  0  0  0  0
    0.5720   11.9080  -12.7270 H   0  0  0  0  0  0  0  0  0  0  0  0
   -4.1920    9.2840  -14.2350 C   0  0  0  0  0  0  0  0  0  0  0  0
   -5.5570    9.3320  -14.2710 N   0  0  0  0  0  0  0  0  0  0  0  0
   -5.9980    8.2770  -14.9440 N   0  0  0  0  0  0  0  0  0  0  0  0
   -4.9980    7.5210  -15.3650 C   0  0  0  0  0  3  0  0  0  0  0  0
   -3.8240    8.1490  -14.9210 C   0  0  0  0  0  3  0  0  0  0  0  0
   -6.3510   10.3490  -13.6730 C   0  0  0  0  0  2  0  0  0  0  0  0
   -7.4450   10.8480  -14.5270 C   0  0  0  0  0  0  0  0  0  0  0  0
   -8.1880   11.9550  -14.2390 C   0  0  0  0  0  0  0  0  0  0  0  0
   -7.8600   12.8680  -12.7840 Cl  0  0  0  0  0  0  0  0  0  0  0  0
   -9.1980   12.3740  -15.0730 C   0  0  0  0  0  3  0  0  0  0  0  0
   -9.4940   11.6880  -16.2290 C   0  0  0  0  0  3  0  0  0  0  0  0
   -8.7490   10.5680  -16.5300 C   0  0  0  0  0  3  0  0  0  0  0  0
   -7.7460   10.1670  -15.6850 C   0  0  0  0  0  3  0  0  0  0  0  0
  1  2  1  0  0  0  0
  1  4  1  0  0  0  0
  2  3  2  0  0  0  0
  5  2  1  0  0  0  0
  5  6  1  0  0  0  0
  6 11  1  0  0  0  0
  6  7  1  0  0  0  0
  7  8  1  0  0  0  0
  9  8  1  0  0  0  0
 10  9  1  0  0  0  0
 11 10  1  0  0  0  0
 11 12  2  0  0  0  0
 12 13  1  0  0  0  0
 12 14  1  0  0  0  0
 13 15  1  0  0  0  0
 14 20  1  0  0  0  0
 14 17  1  0  0  0  0
 15 18  1  0  0  0  0
 15 17  1  0  0  0  0
 16 13  1  0  0  0  0
 17 19  2  0  0  0  0
 21  1  1  0  0  0  0
 22 21  1  0  0  0  0
 22 26  1  0  0  0  0
 23 22  1  0  0  0  0
 24 23  2  0  0  0  0
 24 25  1  0  0  0  0
 25 21  2  0  0  0  0
 27 28  1  0  0  0  0
 27 26  1  0  0  0  0
 28 29  1  0  0  0  0
 30 28  2  0  0  0  0
 31 30  1  0  0  0  0
 32 31  2  0  0  0  0
 32 33  1  0  0  0  0
 33 27  2  0  0  0  0
M  END
>  <Pose>
1

>  <Score>
-10.085

$$$$
