MODEL 1
REMARK VINA RESULT:   -10.085      0.000      0.000
REMARK INTER + INTRA:         -13.182
REMARK INTER:                 -13.033
REMARK INTRA:                  -0.150
REMARK UNBOUND:                -0.150
REMARK  5 active torsions:
REMARK  status: ('A' for Active; 'I' for Inactive)
REMARK    1  A    between atoms: C_3  and  C_8 
REMARK    2  A    between atoms: C_8  and  N_9 
REMARK    3  A    between atoms: C_13  and  N_14 
REMARK    4  A    between atoms: C_15  and  C_17 
REMARK    5  A    between atoms: C_17  and  N_18 
ROOT
ATOM      1  N   UNK d   1      -3.340  10.229 -13.675  0.00  0.00    -0.322 N 
ATOM      2  C   UNK d   1      -2.006  10.474 -13.597  0.00  0.00     0.174 C 
ATOM      3  O   UNK d   1      -1.842  11.698 -12.993  0.00  0.00    -0.175 OA
ATOM      4  H   UNK d   1      -3.947  11.060 -13.222  0.00  0.00     0.169 HD
ENDROOT
BRANCH   2   5
ATOM      5  C   UNK d   1      -0.709   9.904 -13.921  0.00  0.00     0.210 C 
BRANCH   5   6
ATOM      6  N   UNK d   1       0.036   9.027 -13.124  0.00  0.00    -0.373 N 
ATOM      7  C   UNK d   1      -0.592   8.004 -12.246  0.00  0.00     0.123 C 
ATOM      8  C   UNK d   1       0.526   7.551 -11.330  0.00  0.00     0.020 C 
ATOM      9  C   UNK d   1       1.586   6.877 -12.161  0.00  0.00     0.008 C 
ATOM     10  C   UNK d   1       2.270   7.907 -13.034  0.00  0.00     0.061 C 
ATOM     11  C   UNK d   1       1.463   9.162 -13.067  0.00  0.00     0.053 C 
ATOM     12  C   UNK d   1       2.061  10.349 -12.944  0.00  0.00     0.146 A 
ATOM     13  N   UNK d   1       3.493  10.464 -12.901  0.00  0.00    -0.280 N 
ATOM     14  N   UNK d   1       1.569  11.639 -12.770  0.00  0.00    -0.291 N 
ATOM     15  N   UNK d   1       3.847  11.811 -12.703  0.00  0.00    -0.250 N 
ATOM     16  H   UNK d   1       4.243   9.752 -12.992  0.00  0.00     0.188 HD
ATOM     17  C   UNK d   1       2.659  12.566 -12.619  0.00  0.00     0.340 A 
ATOM     18  H   UNK d   1       4.811  12.220 -12.628  0.00  0.00     0.192 HD
ATOM     19  O   UNK d   1       2.508  13.797 -12.449  0.00  0.00    -0.245 OA
ATOM     20  H   UNK d   1       0.572  11.908 -12.727  0.00  0.00     0.172 HD
ENDBRANCH   5   6
ENDBRANCH   2   5
BRANCH   1  21
ATOM     21  C   UNK d   1      -4.192   9.284 -14.235  0.00  0.00     0.127 A 
ATOM     22  N   UNK d   1      -5.557   9.332 -14.271  0.00  0.00    -0.250 N 
ATOM     23  N   UNK d   1      -5.998   8.277 -14.944  0.00  0.00    -0.183 NA
ATOM     24  C   UNK d   1      -4.998   7.521 -15.365  0.00  0.00     0.142 A 
ATOM     25  C   UNK d   1      -3.824   8.149 -14.921  0.00  0.00     0.071 A 
BRANCH  22  26
ATOM     26  C   UNK d   1      -6.351  10.349 -13.673  0.00  0.00     0.193 C 
BRANCH  26  27
ATOM     27  C   UNK d   1      -7.445  10.848 -14.527  0.00  0.00    -0.017 A 
ATOM     28  C   UNK d   1      -8.188  11.955 -14.239  0.00  0.00     0.042 A 
ATOM     29 Cl   UNK d   1      -7.860  12.868 -12.784  0.00  0.00    -0.084 Cl
ATOM     30  C   UNK d   1      -9.198  12.374 -15.073  0.00  0.00     0.024 A 
ATOM     31  C   UNK d   1      -9.494  11.688 -16.229  0.00  0.00     0.002 A 
ATOM     32  C   UNK d   1      -8.749  10.568 -16.530  0.00  0.00     0.001 A 
ATOM     33  C   UNK d   1      -7.746  10.167 -15.685  0.00  0.00     0.010 A 
ENDBRANCH  26  27
ENDBRANCH  22  26
ENDBRANCH   1  21
TORSDOF 5
ENDMDL
