/Users/jonathanwahrer/Desktop/Msc/3_Semester/Drug_Design_Praktikum/waehrer_HTS_screening/HTS_experiment/out/docking_results/vina_output/6q9y/1447_docked.pdbqt
 OpenBabel03222220093D

 38 41  0  0  0  0  0  0  0  0999 V2000
    6.2260    6.8110  -13.4600 C   0  0  0  0  0  0  0  0  0  0  0  0
    7.3320    7.5500  -13.1220 N   0  0  0  0  0  0  0  0  0  0  0  0
    8.3660    6.7610  -13.0220 N   0  0  0  0  0  0  0  0  0  0  0  0
    8.0410    5.5050  -13.2750 N   0  0  0  0  0  0  0  0  0  0  0  0
    6.7250    5.5070  -13.5470 C   0  0  0  0  0  0  0  0  0  0  0  0
    4.8910    7.3440  -13.6550 C   0  0  0  0  0  0  0  0  0  0  0  0
    3.6800    6.8650  -13.1740 N   0  0  0  0  0  0  0  0  0  0  0  0
    3.5230    6.0170  -12.5790 H   0  0  0  0  0  0  0  0  0  0  0  0
    4.8430    8.4090  -14.3780 O   0  0  0  0  0  0  0  0  0  0  0  0
    2.4980    7.6020  -13.5260 N   0  0  0  0  0  0  0  0  0  0  0  0
    1.3550    7.1890  -13.1090 C   0  0  0  0  0  3  0  0  0  0  0  0
    0.0990    7.8600  -13.4060 C   0  0  0  0  0  0  0  0  0  0  0  0
   -0.9980    7.1570  -13.8280 C   0  0  0  0  0  3  0  0  0  0  0  0
   -2.2080    7.7810  -14.1170 C   0  0  0  0  0  0  0  0  0  0  0  0
   -2.3220    9.1610  -13.9770 C   0  0  0  0  0  0  0  0  0  0  0  0
   -3.7020    6.7690  -14.6990 Br  0  0  0  0  0  0  0  0  0  0  0  0
   -1.2330    9.8690  -13.5570 C   0  0  0  0  0  0  0  0  0  0  0  0
   -1.3460   11.7490  -13.3520 Br  0  0  0  0  0  0  0  0  0  0  0  0
   -0.0280    9.2240  -13.2720 C   0  0  0  0  0  0  0  0  0  0  0  0
   -3.5360    9.7640  -14.2700 O   0  0  0  0  0  0  0  0  0  0  0  0
   -4.3040    9.2300  -14.6450 H   0  0  0  0  0  0  0  0  0  0  0  0
    1.0890    9.9250  -12.8450 O   0  0  0  0  0  0  0  0  0  0  0  0
    1.6630    9.5610  -12.0950 H   0  0  0  0  0  0  0  0  0  0  0  0
    5.9020    4.3530  -13.9230 C   0  0  0  0  0  2  0  0  0  0  0  0
    5.5160    3.4960  -12.8000 N   0  0  0  0  0  0  0  0  0  0  0  0
    6.2610    2.2260  -12.9030 C   0  0  0  0  0  2  0  0  0  0  0  0
    6.1880    1.7090  -14.2980 C   0  0  0  0  0  2  0  0  0  0  0  0
    4.8740    1.6190  -14.6880 O   0  0  0  0  0  0  0  0  0  0  0  0
    3.9690    1.8150  -13.6790 C   0  0  0  0  0  2  0  0  0  0  0  0
    4.0870    3.1380  -12.9670 C   0  0  0  0  0  2  0  0  0  0  0  0
    8.9660    4.4310  -13.2740 C   0  0  0  0  0  0  0  0  0  0  0  0
    9.4570    3.7210  -14.3120 N   0  0  0  0  0  0  0  0  0  0  0  0
   10.2970    2.8210  -13.8750 O   0  0  0  0  0  0  0  0  0  0  0  0
   10.4000    2.8890  -12.5720 N   0  0  0  0  0  0  0  0  0  0  0  0
    9.5870    3.8780  -12.1650 C   0  0  0  0  0  0  0  0  0  0  0  0
    9.4190    4.2640  -10.8180 N   0  0  0  0  0  0  0  0  0  0  0  0
    9.8290    3.6720  -10.0730 H   0  0  0  0  0  0  0  0  0  0  0  0
    8.9010    5.1180  -10.5420 H   0  0  0  0  0  0  0  0  0  0  0  0
  1  2  1  0  0  0  0
  2  3  2  0  0  0  0
  4 31  1  0  0  0  0
  4  3  1  0  0  0  0
  5  1  2  0  0  0  0
  5  4  1  0  0  0  0
  6  1  1  0  0  0  0
  6  7  1  0  0  0  0
  7  8  1  0  0  0  0
  9  6  2  0  0  0  0
 10  7  1  0  0  0  0
 10 11  2  0  0  0  0
 12 19  1  0  0  0  0
 12 11  1  0  0  0  0
 13 12  2  0  0  0  0
 14 15  2  0  0  0  0
 14 13  1  0  0  0  0
 15 17  1  0  0  0  0
 16 14  1  0  0  0  0
 17 18  1  0  0  0  0
 17 19  2  0  0  0  0
 19 22  1  0  0  0  0
 20 15  1  0  0  0  0
 21 20  1  0  0  0  0
 22 23  1  0  0  0  0
 24  5  1  0  0  0  0
 24 25  1  0  0  0  0
 26 25  1  0  0  0  0
 27 26  1  0  0  0  0
 28 27  1  0  0  0  0
 28 29  1  0  0  0  0
 29 30  1  0  0  0  0
 30 25  1  0  0  0  0
 31 35  1  0  0  0  0
 32 33  1  0  0  0  0
 32 31  2  0  0  0  0
 33 34  1  0  0  0  0
 34 35  2  0  0  0  0
 35 36  1  0  0  0  0
 36 38  1  0  0  0  0
 36 37  1  0  0  0  0
M  END
>  <Pose>
1

>  <Score>
-7.370

$$$$
