MODEL 1
REMARK VINA RESULT:    -9.711      0.000      0.000
REMARK INTER + INTRA:         -13.892
REMARK INTER:                 -13.118
REMARK INTRA:                  -0.774
REMARK UNBOUND:                -0.774
REMARK  6 active torsions:
REMARK  status: ('A' for Active; 'I' for Inactive)
REMARK    1  A    between atoms: C_6  and  C_8 
REMARK       I    between atoms: C_8  and  N_10 
REMARK    2  A    between atoms: N_10  and  C_11 
REMARK    3  A    between atoms: C_11  and  C_12 
REMARK    4  A    between atoms: C_12  and  N_13 
REMARK    5  A    between atoms: C_16  and  C_18 
REMARK    6  A    between atoms: C_20  and  C_23 
ROOT
ATOM      1  N   UNK d   1       0.748  15.595 -12.140  0.00  0.00    -0.281 N 
ATOM      2  N   UNK d   1       0.336  15.258 -13.350  0.00  0.00     0.005 NA
ATOM      3  N   UNK d   1      -0.738  15.959 -13.687  0.00  0.00    -0.154 NA
ATOM      4  C   UNK d   1      -1.059  16.789 -12.682  0.00  0.00     0.146 A 
ATOM      5  C   UNK d   1      -0.116  16.552 -11.709  0.00  0.00     0.145 A 
ENDROOT
BRANCH   1   6
ATOM      6  C   UNK d   1       1.893  15.065 -11.390  0.00  0.00     0.165 C 
BRANCH   6   7
ATOM      7  C   UNK d   1       2.706  14.262 -12.381  0.00  0.00     0.144 C 
BRANCH   7   8
ATOM      8  N   UNK d   1       2.108  12.954 -12.599  0.00  0.00    -0.355 N 
ATOM      9  C   UNK d   1       2.946  11.905 -13.060  0.00  0.00     0.253 C 
ATOM     10  O   UNK d   1       4.184  12.130 -13.269  0.00  0.00    -0.268 OA
ATOM     11  H   UNK d   1       1.097  12.786 -12.424  0.00  0.00     0.162 HD
BRANCH   9  12
ATOM     12  C   UNK d   1       2.453  10.559 -13.311  0.00  0.00     0.050 A 
ATOM     13  C   UNK d   1       3.325   9.568 -13.663  0.00  0.00     0.133 A 
ATOM     14  N   UNK d   1       2.969   8.295 -13.915  0.00  0.00    -0.271 NA
ATOM     15  C   UNK d   1       1.662   7.958 -13.819  0.00  0.00     0.135 A 
ATOM     16  C   UNK d   1       0.730   8.909 -13.468  0.00  0.00     0.029 A 
ATOM     17 Br   UNK d   1      -1.103   8.389 -13.343  0.00  0.00    -0.050 Br
ATOM     18  C   UNK d   1       1.117  10.225 -13.210  0.00  0.00     0.039 A 
ENDBRANCH   9  12
ENDBRANCH   7   8
ENDBRANCH   6   7
ENDBRANCH   1   6
BRANCH   4  19
ATOM     19  C   UNK d   1      -2.161  17.732 -12.628  0.00  0.00     0.228 A 
ATOM     20  N   UNK d   1      -2.591  18.419 -11.554  0.00  0.00    -0.198 NA
ATOM     21  C   UNK d   1      -3.634  19.189 -11.907  0.00  0.00     0.191 A 
ATOM     22  N   UNK d   1      -3.830  18.958 -13.215  0.00  0.00    -0.105 NA
ATOM     23  O   UNK d   1      -2.945  18.094 -13.609  0.00  0.00    -0.189 OA
BRANCH  21  24
ATOM     24  C   UNK d   1      -4.406  20.101 -11.037  0.00  0.00     0.032 A 
ATOM     25  C   UNK d   1      -5.719  20.384 -11.336  0.00  0.00     0.131 A 
ATOM     26  N   UNK d   1      -6.432  21.213 -10.550  0.00  0.00    -0.272 NA
ATOM     27  C   UNK d   1      -5.921  21.802  -9.449  0.00  0.00     0.116 A 
ATOM     28  C   UNK d   1      -4.603  21.511  -9.157  0.00  0.00     0.020 A 
ATOM     29  C   UNK d   1      -3.841  20.673  -9.930  0.00  0.00     0.018 A 
ENDBRANCH  21  24
ENDBRANCH   4  19
TORSDOF 6
ENDMDL
