/Users/jonathanwahrer/Desktop/Msc/3_Semester/Drug_Design_Praktikum/waehrer_HTS_screening/HTS_experiment/out/docking_results/vina_output/6q9y/1471_docked.pdbqt
 OpenBabel03222220103D

 31 34  0  0  0  0  0  0  0  0999 V2000
    2.1820    8.3060  -14.0490 C   0  0  0  0  0  0  0  0  0  0  0  0
    0.8140    8.2960  -14.0350 C   0  0  0  0  0  2  0  0  0  0  0  0
    0.0570    7.2700  -13.5380 N   0  0  0  0  0  0  0  0  0  0  0  0
    0.7040    6.2210  -13.0390 C   0  0  0  0  0  3  0  0  0  0  0  0
    2.0710    6.1400  -13.0090 C   0  0  0  0  0  0  0  0  0  0  0  0
    2.8590    7.2370  -13.5390 C   0  0  0  0  0  0  0  0  0  0  0  0
    4.1470    6.8830  -13.3770 N   0  0  0  0  0  2  0  0  0  0  0  0
    4.2200    5.6930  -12.8060 N   0  0  0  0  0  0  0  0  0  0  0  0
    2.9950    5.2090  -12.5670 C   0  0  0  0  0  0  0  0  0  0  0  0
    2.6530    4.1080  -12.0360 O   0  0  0  0  0  0  0  0  0  0  0  0
    5.0910    5.1490  -12.5490 H   0  0  0  0  0  0  0  0  0  0  0  0
    2.9100    9.4390  -14.5970 C   0  0  0  0  0  0  0  0  0  0  0  0
    3.5700   10.3790  -13.7750 N   0  0  0  0  0  0  0  0  0  0  0  0
    4.2980   11.5090  -14.2860 C   0  0  0  0  0  2  0  0  0  0  0  0
    3.5210   10.2070  -12.3460 C   0  0  0  0  0  2  0  0  0  0  0  0
    3.9520   12.7110  -13.4440 C   0  0  0  0  0  2  0  0  0  0  0  0
    2.7800   12.5180  -12.6310 N   0  0  0  0  0  0  0  0  0  0  0  0
    2.5880   11.3070  -11.8190 C   0  0  0  0  0  2  0  0  0  0  0  0
    2.9240    9.5460  -15.8590 O   0  0  0  0  0  0  0  0  0  0  0  0
    1.7580   13.4840  -12.5740 C   0  0  0  0  0  0  0  0  0  0  0  0
    0.5080   13.2560  -13.1070 C   0  0  0  0  0  0  0  0  0  0  0  0
    0.1680   11.7090  -13.8890 Cl  0  0  0  0  0  0  0  0  0  0  0  0
   -0.4850   14.2110  -13.0460 C   0  0  0  0  0  3  0  0  0  0  0  0
   -0.2250   15.4150  -12.4390 C   0  0  0  0  0  3  0  0  0  0  0  0
    1.0310   15.6860  -11.8850 C   0  0  0  0  0  3  0  0  0  0  0  0
    1.9940   14.6910  -11.9750 C   0  0  0  0  0  3  0  0  0  0  0  0
   -1.3940    7.3470  -13.6080 C   0  0  0  0  0  2  0  0  0  0  0  0
   -2.0660    6.2430  -14.2950 C   0  0  0  0  0  2  0  0  0  0  0  0
   -2.9770    6.4070  -15.4290 C   0  0  0  0  0  2  0  0  0  0  0  0
   -3.8430    7.4310  -15.5080 O   0  0  0  0  0  0  0  0  0  0  0  0
   -5.1000    7.3750  -15.0620 C   0  0  0  0  0  1  0  0  0  0  0  0
  1  2  1  0  0  0  0
  1  6  2  0  0  0  0
  2  3  1  0  0  0  0
  3  4  1  0  0  0  0
  4  5  2  0  0  0  0
  5  9  1  0  0  0  0
  6  7  1  0  0  0  0
  6  5  1  0  0  0  0
  7  8  1  0  0  0  0
  8  9  1  0  0  0  0
  8 11  1  0  0  0  0
  9 10  2  0  0  0  0
 12  1  1  0  0  0  0
 12 13  1  0  0  0  0
 13 15  1  0  0  0  0
 14 13  1  0  0  0  0
 14 16  1  0  0  0  0
 15 18  1  0  0  0  0
 16 17  1  0  0  0  0
 17 20  1  0  0  0  0
 17 18  1  0  0  0  0
 19 12  2  0  0  0  0
 20 26  1  0  0  0  0
 21 23  1  0  0  0  0
 21 20  2  0  0  0  0
 22 21  1  0  0  0  0
 23 24  2  0  0  0  0
 24 25  1  0  0  0  0
 26 25  2  0  0  0  0
 27  3  1  0  0  0  0
 28 27  1  0  0  0  0
 29 28  1  0  0  0  0
 30 29  1  0  0  0  0
 30 31  1  0  0  0  0
M  END
>  <Pose>
1

>  <Score>
-7.711

$$$$
