MODEL 1
REMARK VINA RESULT:    -7.711      0.000      0.000
REMARK INTER + INTRA:         -11.177
REMARK INTER:                 -10.416
REMARK INTRA:                  -0.762
REMARK UNBOUND:                -0.762
REMARK  6 active torsions:
REMARK  status: ('A' for Active; 'I' for Inactive)
REMARK    1  A    between atoms: C_3  and  N_8 
REMARK       I    between atoms: N_11  and  C_14 
REMARK    2  A    between atoms: C_14  and  C_16 
REMARK    3  A    between atoms: N_18  and  C_26 
REMARK    4  A    between atoms: C_26  and  C_27 
REMARK    5  A    between atoms: C_27  and  C_28 
REMARK    6  A    between atoms: C_28  and  O_29 
ROOT
ATOM      1  C   UNK d   1       2.182   8.306 -14.049  0.00  0.00     0.079 A 
ATOM      2  C   UNK d   1       0.814   8.296 -14.035  0.00  0.00     0.110 A 
ATOM      3  N   UNK d   1       0.057   7.270 -13.538  0.00  0.00    -0.364 N 
ATOM      4  C   UNK d   1       0.704   6.221 -13.039  0.00  0.00     0.110 A 
ATOM      5  C   UNK d   1       2.071   6.140 -13.009  0.00  0.00     0.080 A 
ATOM      6  C   UNK d   1       2.859   7.237 -13.539  0.00  0.00     0.111 A 
ATOM      7  N   UNK d   1       4.147   6.883 -13.377  0.00  0.00    -0.170 NA
ATOM      8  N   UNK d   1       4.220   5.693 -12.806  0.00  0.00    -0.242 N 
ATOM      9  C   UNK d   1       2.995   5.209 -12.567  0.00  0.00     0.275 A 
ATOM     10  O   UNK d   1       2.653   4.108 -12.036  0.00  0.00    -0.266 OA
ATOM     11  H   UNK d   1       5.091   5.149 -12.549  0.00  0.00     0.192 HD
ENDROOT
BRANCH   1  12
ATOM     12  C   UNK d   1       2.910   9.439 -14.597  0.00  0.00     0.257 C 
ATOM     13  N   UNK d   1       3.570  10.379 -13.775  0.00  0.00    -0.345 N 
ATOM     14  C   UNK d   1       4.298  11.509 -14.286  0.00  0.00     0.146 C 
ATOM     15  C   UNK d   1       3.521  10.207 -12.346  0.00  0.00     0.146 C 
ATOM     16  C   UNK d   1       3.952  12.711 -13.444  0.00  0.00     0.143 C 
ATOM     17  N   UNK d   1       2.780  12.518 -12.631  0.00  0.00    -0.376 N 
ATOM     18  C   UNK d   1       2.588  11.307 -11.819  0.00  0.00     0.143 C 
ATOM     19  O   UNK d   1       2.924   9.546 -15.859  0.00  0.00    -0.267 OA
BRANCH  17  20
ATOM     20  C   UNK d   1       1.758  13.484 -12.574  0.00  0.00     0.052 A 
ATOM     21  C   UNK d   1       0.508  13.256 -13.107  0.00  0.00     0.060 A 
ATOM     22 Cl   UNK d   1       0.168  11.709 -13.889  0.00  0.00    -0.082 Cl
ATOM     23  C   UNK d   1      -0.485  14.211 -13.046  0.00  0.00     0.026 A 
ATOM     24  C   UNK d   1      -0.225  15.415 -12.439  0.00  0.00     0.002 A 
ATOM     25  C   UNK d   1       1.031  15.686 -11.885  0.00  0.00     0.002 A 
ATOM     26  C   UNK d   1       1.994  14.691 -11.975  0.00  0.00     0.031 A 
ENDBRANCH  17  20
ENDBRANCH   1  12
BRANCH   3  27
ATOM     27  C   UNK d   1      -1.394   7.347 -13.608  0.00  0.00     0.130 C 
BRANCH  27  28
ATOM     28  C   UNK d   1      -2.066   6.243 -14.295  0.00  0.00     0.046 C 
BRANCH  28  29
ATOM     29  C   UNK d   1      -2.977   6.407 -15.429  0.00  0.00     0.168 C 
BRANCH  29  30
ATOM     30  O   UNK d   1      -3.843   7.431 -15.508  0.00  0.00    -0.396 OA
ATOM     31  C   UNK d   1      -5.100   7.375 -15.062  0.00  0.00     0.201 C 
ENDBRANCH  29  30
ENDBRANCH  28  29
ENDBRANCH  27  28
ENDBRANCH   3  27
TORSDOF 6
ENDMDL
