/Users/jonathanwahrer/Desktop/Msc/3_Semester/Drug_Design_Praktikum/waehrer_HTS_screening/HTS_experiment/out/docking_results/vina_output/6q9y/1477_docked.pdbqt
 OpenBabel03222220103D

 35 39  0  0  1  0  0  0  0  0999 V2000
    3.7720    7.2750  -12.8320 C   0  0  2  0  0  3  0  0  0  0  0  0
    4.7760    6.3580  -13.1500 N   0  0  0  0  0  0  0  0  0  0  0  0
    4.1390    5.0500  -13.2660 C   0  0  0  0  0  0  0  0  0  0  0  0
    4.6540    3.9780  -13.6720 O   0  0  0  0  0  0  0  0  0  0  0  0
    2.7550    5.1390  -12.8280 C   0  0  0  0  0  0  0  0  0  0  0  0
    1.9050    4.1880  -12.8030 O   0  0  0  0  0  0  0  0  0  0  0  0
    2.5450    6.5080  -12.4390 C   0  0  2  0  0  3  0  0  0  0  0  0
    1.4500    6.9870  -11.8860 C   0  0  2  0  0  3  0  0  0  0  0  0
    1.4640    7.0440  -10.4730 O   0  0  0  0  0  1  0  0  0  0  0  0
    0.2620    7.4410  -12.5850 C   0  0  0  0  0  0  0  0  0  0  0  0
   -0.1770    8.6600  -12.9370 N   0  0  0  0  0  0  0  0  0  0  0  0
   -1.3740    8.6230  -13.5420 C   0  0  0  0  0  0  0  0  0  0  0  0
    0.4440    9.8590  -12.7650 C   0  0  0  0  0  3  0  0  0  0  0  0
   -1.7260    7.3190  -13.5840 N   0  0  0  0  0  0  0  0  0  0  0  0
   -2.0060    9.7620  -14.0030 C   0  0  0  0  0  3  0  0  0  0  0  0
   -0.7680    6.5790  -13.0190 C   0  0  0  0  0  0  0  0  0  0  0  0
   -0.7580    5.1180  -12.8620 C   0  0  0  0  0  1  0  0  0  0  0  0
   -1.3910   10.9740  -13.8340 C   0  0  0  0  0  3  0  0  0  0  0  0
   -0.1580   11.0120  -13.2110 C   0  0  0  0  0  3  0  0  0  0  0  0
    3.4540    8.4250  -13.6550 C   0  0  0  0  0  0  0  0  0  0  0  0
    3.7390    9.7210  -13.2050 C   0  0  0  0  0  3  0  0  0  0  0  0
    3.4900   10.8170  -14.0010 C   0  0  0  0  0  0  0  0  0  0  0  0
    3.8810   12.5690  -13.3870 Br  0  0  0  0  0  0  0  0  0  0  0  0
    2.9520   10.6740  -15.2640 C   0  0  0  0  0  3  0  0  0  0  0  0
    2.6570    9.4100  -15.7430 C   0  0  0  0  0  3  0  0  0  0  0  0
    2.9200    8.3530  -14.9230 C   0  0  0  0  0  3  0  0  0  0  0  0
    6.1760    6.5520  -13.2510 C   0  0  0  0  0  2  0  0  0  0  0  0
    7.0870    6.1140  -12.1960 C   0  0  0  0  0  2  0  0  0  0  0  0
    7.9710    5.0050  -12.4030 N   0  0  0  0  0  4  0  0  0  0  0  0
    8.3490    5.0290  -13.8160 C   0  0  0  0  0  2  0  0  0  0  0  0
    9.5650    5.8590  -14.0770 C   0  0  0  0  0  2  0  0  0  0  0  0
    9.8910    6.6400  -12.9580 O   0  0  0  0  0  0  0  0  0  0  0  0
   10.2500    5.7430  -11.9770 C   0  0  0  0  0  2  0  0  0  0  0  0
    9.0740    4.9720  -11.5030 C   0  0  0  0  0  2  0  0  0  0  0  0
    7.4610    4.0760  -12.3180 H   0  0  0  0  0  0  0  0  0  0  0  0
  1 20  1  6  0  0  0
  1  7  1  0  0  0  0
  2  1  1  0  0  0  0
  3  2  1  0  0  0  0
  3  5  1  0  0  0  0
  4  3  2  0  0  0  0
  5  6  2  0  0  0  0
  5  7  1  0  0  0  0
  7  8  1  6  0  0  0
  8  9  1  1  0  0  0
 10  8  1  0  0  0  0
 11 13  1  0  0  0  0
 11 10  1  0  0  0  0
 12 11  1  0  0  0  0
 14 12  2  0  0  0  0
 14 16  1  0  0  0  0
 15 18  2  0  0  0  0
 15 12  1  0  0  0  0
 16 17  1  0  0  0  0
 16 10  2  0  0  0  0
 18 19  1  0  0  0  0
 19 13  2  0  0  0  0
 20 21  1  0  0  0  0
 22 23  1  0  0  0  0
 22 21  2  0  0  0  0
 24 22  1  0  0  0  0
 25 24  2  0  0  0  0
 25 26  1  0  0  0  0
 26 20  2  0  0  0  0
 27  2  1  0  0  0  0
 27 28  1  0  0  0  0
 29 35  1  0  0  0  0
 29 28  1  0  0  0  0
 29 34  1  0  0  0  0
 30 29  1  0  0  0  0
 31 30  1  0  0  0  0
 31 32  1  0  0  0  0
 32 33  1  0  0  0  0
 33 34  1  0  0  0  0
M  END
>  <Pose>
1

>  <Score>
-6.526

$$$$
