MODEL 1
REMARK VINA RESULT:    -9.186      0.000      0.000
REMARK INTER + INTRA:         -11.684
REMARK INTER:                 -11.066
REMARK INTRA:                  -0.618
REMARK UNBOUND:                -0.618
REMARK  4 active torsions:
REMARK  status: ('A' for Active; 'I' for Inactive)
REMARK    1  A    between atoms: C_4  and  N_8 
REMARK    2  A    between atoms: C_10  and  O_18 
REMARK    3  A    between atoms: C_10  and  C_19 
REMARK    4  A    between atoms: C_21  and  N_25 
ROOT
ATOM      1  N   UNK d   1       3.971   7.440 -14.531  0.00  0.00     0.009 N 
ATOM      2  C   UNK d   1       4.088   8.843 -14.840  0.00  0.00     0.316 C 
ATOM      3  C   UNK d   1       2.859   9.576 -14.501  0.00  0.00     0.189 C 
ATOM      4  N   UNK d   1       1.981   8.550 -14.013  0.00  0.00    -0.324 N 
ATOM      5  C   UNK d   1       0.544   8.470 -13.905  0.00  0.00     0.128 C 
ATOM      6  C   UNK d   1       0.021   8.287 -12.517  0.00  0.00     0.020 C 
ATOM      7  C   UNK d   1       1.050   7.977 -11.487  0.00  0.00     0.005 C 
ATOM      8  C   UNK d   1       1.478   6.503 -11.669  0.00  0.00     0.031 C 
ATOM      9  C   UNK d   1       2.635   6.578 -12.650  0.00  0.00     0.030 C 
ATOM     10  C   UNK d   1       2.829   7.434 -13.627  0.00  0.00     0.208 C 
ATOM     11  H   UNK d   1       3.739   6.809 -15.290  0.00  0.00     0.295 HD
ENDROOT
BRANCH   3  12
ATOM     12  O   UNK d   1       2.263  10.077 -15.692  0.00  0.00    -0.365 OA
ATOM     13  H   UNK d   1       2.990  10.024 -16.397  0.00  0.00     0.213 HD
ENDBRANCH   3  12
BRANCH   3  14
ATOM     14  C   UNK d   1       2.985  10.720 -13.631  0.00  0.00     0.001 A 
ATOM     15  C   UNK d   1       1.965  11.651 -13.434  0.00  0.00     0.048 A 
ATOM     16  C   UNK d   1       2.083  12.736 -12.577  0.00  0.00     0.103 A 
ATOM     17  C   UNK d   1       3.278  12.906 -11.877  0.00  0.00     0.036 A 
ATOM     18  C   UNK d   1       4.302  12.019 -12.042  0.00  0.00     0.003 A 
ATOM     19  C   UNK d   1       4.143  10.933 -12.918  0.00  0.00     0.012 A 
BRANCH  16  20
ATOM     20  N   UNK d   1       1.007  13.640 -12.426  0.00  0.00    -0.116 N 
ATOM     21  O   UNK d   1       1.181  14.720 -11.779  0.00  0.00    -0.532 OA
ATOM     22  O   UNK d   1      -0.220  13.424 -12.931  0.00  0.00    -0.532 OA
ENDBRANCH  16  20
ENDBRANCH   3  14
BRANCH   1  23
ATOM     23  C   UNK d   1       5.040   6.891 -13.773  0.00  0.00     0.143 A 
ATOM     24  C   UNK d   1       6.098   7.643 -13.325  0.00  0.00     0.061 A 
ATOM     25  C   UNK d   1       7.195   7.080 -12.678  0.00  0.00     0.036 A 
ATOM     26 Cl   UNK d   1       8.506   8.094 -12.095  0.00  0.00    -0.084 Cl
ATOM     27  C   UNK d   1       7.247   5.717 -12.467  0.00  0.00     0.024 A 
ATOM     28  C   UNK d   1       6.213   4.931 -12.902  0.00  0.00     0.004 A 
ATOM     29  C   UNK d   1       5.127   5.513 -13.546  0.00  0.00     0.038 A 
ENDBRANCH   1  23
TORSDOF 4
ENDMDL
