/Users/jonathanwahrer/Desktop/Msc/3_Semester/Drug_Design_Praktikum/waehrer_HTS_screening/HTS_experiment/out/docking_results/vina_output/6q9y/1487_docked.pdbqt
 OpenBabel03222220113D

 29 32  0  0  1  0  0  0  0  0999 V2000
    3.9710    7.4400  -14.5310 N   0  0  0  0  0  4  0  0  0  0  0  0
    4.0880    8.8430  -14.8400 C   0  0  0  0  0  2  0  0  0  0  0  0
    2.8590    9.5760  -14.5010 C   0  0  2  0  0  0  0  0  0  0  0  0
    1.9810    8.5500  -14.0130 N   0  0  0  0  0  0  0  0  0  0  0  0
    0.5440    8.4700  -13.9050 C   0  0  0  0  0  3  0  0  0  0  0  0
    0.0210    8.2870  -12.5170 C   0  0  0  0  0  3  0  0  0  0  0  0
    1.0500    7.9770  -11.4870 C   0  0  0  0  0  2  0  0  0  0  0  0
    1.4780    6.5030  -11.6690 C   0  0  0  0  0  2  0  0  0  0  0  0
    2.6350    6.5780  -12.6500 C   0  0  0  0  0  3  0  0  0  0  0  0
    2.8290    7.4340  -13.6270 C   0  0  0  0  0  0  0  0  0  0  0  0
    3.7390    6.8090  -15.2900 H   0  0  0  0  0  0  0  0  0  0  0  0
    2.2630   10.0770  -15.6920 O   0  0  0  0  0  0  0  0  0  0  0  0
    2.9900   10.0240  -16.3970 H   0  0  0  0  0  0  0  0  0  0  0  0
    2.9850   10.7200  -13.6310 C   0  0  0  0  0  0  0  0  0  0  0  0
    1.9650   11.6510  -13.4340 C   0  0  0  0  0  3  0  0  0  0  0  0
    2.0830   12.7360  -12.5770 C   0  0  0  0  0  0  0  0  0  0  0  0
    3.2780   12.9060  -11.8770 C   0  0  0  0  0  3  0  0  0  0  0  0
    4.3020   12.0190  -12.0420 C   0  0  0  0  0  3  0  0  0  0  0  0
    4.1430   10.9330  -12.9180 C   0  0  0  0  0  3  0  0  0  0  0  0
    1.0070   13.6400  -12.4260 N   0  0  0  0  0  0  0  0  0  0  0  0
    1.1810   14.7200  -11.7790 O   0  0  0  0  0  0  0  0  0  0  0  0
   -0.2200   13.4240  -12.9310 O   0  0  0  0  0  0  0  0  0  0  0  0
    5.0400    6.8910  -13.7730 C   0  0  0  0  0  0  0  0  0  0  0  0
    6.0980    7.6430  -13.3250 C   0  0  0  0  0  3  0  0  0  0  0  0
    7.1950    7.0800  -12.6780 C   0  0  0  0  0  0  0  0  0  0  0  0
    8.5060    8.0940  -12.0950 Cl  0  0  0  0  0  0  0  0  0  0  0  0
    7.2470    5.7170  -12.4670 C   0  0  0  0  0  3  0  0  0  0  0  0
    6.2130    4.9310  -12.9020 C   0  0  0  0  0  3  0  0  0  0  0  0
    5.1270    5.5130  -13.5460 C   0  0  0  0  0  3  0  0  0  0  0  0
  1 23  1  0  0  0  0
  1 10  1  0  0  0  0
  2  1  1  0  0  0  0
  2  3  1  0  0  0  0
  3 12  1  6  0  0  0
  3  4  1  0  0  0  0
  3 14  1  0  0  0  0
  4  5  1  0  0  0  0
  4 10  1  0  0  0  0
  5  6  2  0  0  0  0
  6  7  1  0  0  0  0
  8  7  1  0  0  0  0
  9  8  1  0  0  0  0
 10  9  2  0  0  0  0
 11  1  1  0  0  0  0
 13 12  1  0  0  0  0
 14 15  2  0  0  0  0
 14 19  1  0  0  0  0
 15 16  1  0  0  0  0
 16 20  1  0  0  0  0
 16 17  2  0  0  0  0
 18 17  1  0  0  0  0
 19 18  2  0  0  0  0
 20 21  2  0  0  0  0
 22 20  2  0  0  0  0
 23 29  2  0  0  0  0
 23 24  1  0  0  0  0
 24 25  2  0  0  0  0
 25 27  1  0  0  0  0
 25 26  1  0  0  0  0
 28 27  2  0  0  0  0
 29 28  1  0  0  0  0
M  END
>  <Pose>
1

>  <Score>
-9.186

$$$$
