MODEL 1
REMARK VINA RESULT:    -9.483      0.000      0.000
REMARK INTER + INTRA:         -11.721
REMARK INTER:                 -11.701
REMARK INTRA:                  -0.020
REMARK UNBOUND:                -0.020
REMARK  4 active torsions:
REMARK  status: ('A' for Active; 'I' for Inactive)
REMARK    1  A    between atoms: C_7  and  N_8 
REMARK    2  A    between atoms: C_14  and  C_16 
REMARK    3  A    between atoms: N_23  and  C_31 
REMARK    4  A    between atoms: C_25  and  C_28 
ROOT
ATOM      1  F   UNK d   1       1.858   3.925 -12.135  0.00  0.00    -0.204 F 
ATOM      2  C   UNK d   1       3.068   4.418 -12.454  0.00  0.00     0.151 A 
ATOM      3  C   UNK d   1       4.001   3.448 -12.809  0.00  0.00     0.062 A 
ATOM      4  C   UNK d   1       5.281   3.809 -13.168  0.00  0.00     0.045 A 
ATOM      5  C   UNK d   1       5.601   5.145 -13.165  0.00  0.00     0.051 A 
ATOM      6  C   UNK d   1       4.654   6.099 -12.808  0.00  0.00     0.071 A 
ATOM      7  C   UNK d   1       3.379   5.754 -12.448  0.00  0.00     0.175 A 
ATOM      8  N   UNK d   1       6.859   5.475 -13.521  0.00  0.00    -0.350 N 
ATOM      9  C   UNK d   1       7.779   4.556 -13.868  0.00  0.00     0.114 A 
ATOM     10  C   UNK d   1       7.490   3.210 -13.880  0.00  0.00     0.107 A 
ATOM     11  C   UNK d   1       6.218   2.829 -13.524  0.00  0.00     0.202 A 
ATOM     12  O   UNK d   1       5.888   1.619 -13.516  0.00  0.00    -0.286 OA
ENDROOT
BRANCH   7  13
ATOM     13  N   UNK d   1       2.460   6.739 -12.087  0.00  0.00    -0.035 N 
ATOM     14  C   UNK d   1       1.080   6.326 -12.060  0.00  0.00     0.261 C 
ATOM     15  C   UNK d   1       0.201   7.470 -11.503  0.00  0.00     0.153 C 
ATOM     16  N   UNK d   1       0.325   8.526 -12.428  0.00  0.00    -0.356 N 
ATOM     17  C   UNK d   1       1.727   9.098 -12.380  0.00  0.00     0.153 C 
ATOM     18  C   UNK d   1      -0.512   9.067 -13.344  0.00  0.00     0.187 C 
ATOM     19  C   UNK d   1       2.569   7.947 -12.837  0.00  0.00     0.261 C 
ATOM     20  O   UNK d   1      -0.047  10.115 -13.981  0.00  0.00    -0.171 OA
ATOM     21  H   UNK d   1       2.689   7.003 -11.079  0.00  0.00     0.287 HD
BRANCH  18  22
ATOM     22  C   UNK d   1      -1.839   8.698 -13.751  0.00  0.00     0.019 A 
ATOM     23  C   UNK d   1      -2.917   9.520 -13.686  0.00  0.00     0.039 A 
ATOM     24  C   UNK d   1      -4.172   9.138 -14.143  0.00  0.00     0.035 A 
ATOM     25  C   UNK d   1      -4.337   7.886 -14.678  0.00  0.00     0.024 A 
ATOM     26 Cl   UNK d   1      -5.545  10.243 -14.040  0.00  0.00    -0.084 Cl
ATOM     27  C   UNK d   1      -3.285   7.018 -14.765  0.00  0.00     0.003 A 
ATOM     28  C   UNK d   1      -2.067   7.423 -14.309  0.00  0.00     0.016 A 
ENDBRANCH  18  22
ENDBRANCH   7  13
BRANCH   8  29
ATOM     29  C   UNK d   1       7.183   6.906 -13.511  0.00  0.00     0.090 A 
ATOM     30  C   UNK d   1       8.546   7.375 -13.778  0.00  0.00     0.028 A 
ATOM     31  C   UNK d   1       8.167   7.315 -12.366  0.00  0.00     0.028 A 
ENDBRANCH   8  29
BRANCH  10  32
ATOM     32  C   UNK d   1       8.510   2.215 -14.263  0.00  0.00     0.214 C 
ATOM     33  O   UNK d   1       8.645   1.812 -15.429  0.00  0.00    -0.644 OA
ATOM     34  O   UNK d   1       9.338   1.727 -13.277  0.00  0.00    -0.644 OA
ENDBRANCH  10  32
TORSDOF 4
ENDMDL
