/Users/jonathanwahrer/Desktop/Msc/3_Semester/Drug_Design_Praktikum/waehrer_HTS_screening/HTS_experiment/out/docking_results/vina_output/6q9y/1506_docked.pdbqt
 OpenBabel03222220113D

 32 35  0  0  1  0  0  0  0  0999 V2000
    1.3430   12.8730  -12.4210 N   0  0  0  0  0  0  0  0  0  0  0  0
    2.6750   12.5280  -12.8510 C   0  0  0  0  0  0  0  0  0  0  0  0
    3.4990   13.4350  -13.0510 O   0  0  0  0  0  0  0  0  0  0  0  0
    0.7310   12.0790  -12.2480 H   0  0  0  0  0  0  0  0  0  0  0  0
    3.0820   11.1190  -13.0600 C   0  0  2  0  0  3  0  0  0  0  0  0
    2.5970   10.6880  -14.4260 C   0  0  0  0  0  2  0  0  0  0  0  0
    1.0930   10.5570  -14.3460 C   0  0  0  0  0  2  0  0  0  0  0  0
    0.8450    9.3830  -13.5140 N   0  0  0  0  0  0  0  0  0  0  0  0
    1.7100    9.0880  -12.4230 C   0  0  0  0  0  2  0  0  0  0  0  0
    2.6050   10.1950  -12.0000 C   0  0  0  0  0  2  0  0  0  0  0  0
   -0.2700    8.5760  -13.8410 C   0  0  0  0  0  0  0  0  0  0  0  0
   -1.5250    9.0580  -13.9160 N   0  0  0  0  0  0  0  0  0  0  0  0
   -2.5760    8.3190  -14.2170 N   0  0  0  0  0  0  0  0  0  0  0  0
   -3.8660    8.6160  -14.3370 N   0  0  0  0  0  0  0  0  0  0  0  0
   -2.4800    7.0100  -14.4760 C   0  0  0  0  0  0  0  0  0  0  0  0
   -4.5540    7.5520  -14.6540 N   0  0  0  0  0  0  0  0  0  0  0  0
   -3.7160    6.5410  -14.7480 N   0  0  0  0  0  0  0  0  0  0  0  0
   -1.2150    6.4540  -14.4140 C   0  0  0  0  0  3  0  0  0  0  0  0
   -0.1150    7.2260  -14.0990 C   0  0  0  0  0  3  0  0  0  0  0  0
    1.0550   14.2420  -12.2500 C   0  0  0  0  0  2  0  0  0  0  0  0
    0.0260   14.9310  -13.0450 C   0  0  0  0  0  2  0  0  0  0  0  0
   -0.7050   15.9800  -12.4450 N   0  0  0  0  0  0  0  0  0  0  0  0
   -1.5090   16.9700  -12.9930 C   0  0  0  0  0  0  0  0  0  0  0  0
   -1.7130   17.0500  -14.2230 O   0  0  0  0  0  0  0  0  0  0  0  0
   -0.6450   16.0640  -11.3380 H   0  0  0  0  0  0  0  0  0  0  0  0
   -2.1800   17.9990  -12.1650 C   0  0  0  0  0  0  0  0  0  0  0  0
   -3.3780   18.5370  -12.5820 C   0  0  0  0  0  3  0  0  0  0  0  0
   -4.0420   19.4880  -11.8440 C   0  0  0  0  0  3  0  0  0  0  0  0
   -3.4950   19.9200  -10.6470 C   0  0  0  0  0  0  0  0  0  0  0  0
   -4.3330   21.1350   -9.6950 Cl  0  0  0  0  0  0  0  0  0  0  0  0
   -2.3060   19.4060  -10.2010 C   0  0  0  0  0  3  0  0  0  0  0  0
   -1.6590   18.4420  -10.9770 C   0  0  0  0  0  3  0  0  0  0  0  0
  1 20  1  0  0  0  0
  1  4  1  0  0  0  0
  2  1  1  0  0  0  0
  3  2  2  0  0  0  0
  5  2  1  1  0  0  0
  5 10  1  0  0  0  0
  6  7  1  0  0  0  0
  6  5  1  0  0  0  0
  7  8  1  0  0  0  0
  8  9  1  0  0  0  0
  9 10  1  0  0  0  0
 11  8  1  0  0  0  0
 12 11  2  0  0  0  0
 13 12  1  0  0  0  0
 14 13  1  0  0  0  0
 15 18  1  0  0  0  0
 15 13  1  0  0  0  0
 16 14  2  0  0  0  0
 17 16  1  0  0  0  0
 17 15  2  0  0  0  0
 18 19  2  0  0  0  0
 19 11  1  0  0  0  0
 21 22  1  0  0  0  0
 21 20  1  0  0  0  0
 22 25  1  0  0  0  0
 23 22  1  0  0  0  0
 23 26  1  0  0  0  0
 24 23  2  0  0  0  0
 26 32  1  0  0  0  0
 27 26  2  0  0  0  0
 27 28  1  0  0  0  0
 28 29  2  0  0  0  0
 29 31  1  0  0  0  0
 29 30  1  0  0  0  0
 32 31  2  0  0  0  0
M  END
>  <Pose>
1

>  <Score>
-10.665

$$$$
