MODEL 1
REMARK VINA RESULT:   -10.665      0.000      0.000
REMARK INTER + INTRA:         -14.788
REMARK INTER:                 -14.406
REMARK INTRA:                  -0.382
REMARK UNBOUND:                -0.382
REMARK  6 active torsions:
REMARK  status: ('A' for Active; 'I' for Inactive)
REMARK    1  A    between atoms: C_5  and  C_8 
REMARK       I    between atoms: C_8  and  N_10 
REMARK    2  A    between atoms: N_10  and  C_11 
REMARK    3  A    between atoms: C_11  and  C_12 
REMARK    4  A    between atoms: C_12  and  N_13 
REMARK       I    between atoms: N_13  and  C_14 
REMARK    5  A    between atoms: C_14  and  C_16 
REMARK    6  A    between atoms: N_19  and  C_22 
ROOT
ATOM      1  N   UNK d   1       1.343  12.873 -12.421  0.00  0.00    -0.359 N 
ATOM      2  C   UNK d   1       2.675  12.528 -12.851  0.00  0.00     0.222 C 
ATOM      3  O   UNK d   1       3.499  13.435 -13.051  0.00  0.00    -0.273 OA
ATOM      4  H   UNK d   1       0.731  12.079 -12.248  0.00  0.00     0.162 HD
ENDROOT
BRANCH   2   5
ATOM      5  C   UNK d   1       3.082  11.119 -13.060  0.00  0.00     0.081 C 
ATOM      6  C   UNK d   1       2.597  10.688 -14.426  0.00  0.00     0.034 C 
ATOM      7  C   UNK d   1       1.093  10.557 -14.346  0.00  0.00     0.125 C 
ATOM      8  N   UNK d   1       0.845   9.383 -13.514  0.00  0.00    -0.364 N 
ATOM      9  C   UNK d   1       1.710   9.088 -12.423  0.00  0.00     0.125 C 
ATOM     10  C   UNK d   1       2.605  10.195 -12.000  0.00  0.00     0.034 C 
BRANCH   8  11
ATOM     11  C   UNK d   1      -0.270   8.576 -13.841  0.00  0.00     0.148 A 
ATOM     12  N   UNK d   1      -1.525   9.058 -13.916  0.00  0.00    -0.129 NA
ATOM     13  N   UNK d   1      -2.576   8.319 -14.217  0.00  0.00    -0.108 N 
ATOM     14  N   UNK d   1      -3.866   8.616 -14.337  0.00  0.00    -0.021 NA
ATOM     15  C   UNK d   1      -2.480   7.010 -14.476  0.00  0.00     0.196 A 
ATOM     16  N   UNK d   1      -4.554   7.552 -14.654  0.00  0.00    -0.021 NA
ATOM     17  N   UNK d   1      -3.716   6.541 -14.748  0.00  0.00    -0.107 NA
ATOM     18  C   UNK d   1      -1.215   6.454 -14.414  0.00  0.00     0.060 A 
ATOM     19  C   UNK d   1      -0.115   7.226 -14.099  0.00  0.00     0.056 A 
ENDBRANCH   8  11
ENDBRANCH   2   5
BRANCH   1  20
ATOM     20  C   UNK d   1       1.055  14.242 -12.250  0.00  0.00     0.142 C 
BRANCH  20  21
ATOM     21  C   UNK d   1       0.026  14.931 -13.045  0.00  0.00     0.142 C 
BRANCH  21  22
ATOM     22  N   UNK d   1      -0.705  15.980 -12.445  0.00  0.00    -0.355 N 
ATOM     23  C   UNK d   1      -1.509  16.970 -12.993  0.00  0.00     0.251 C 
ATOM     24  O   UNK d   1      -1.713  17.050 -14.223  0.00  0.00    -0.268 OA
ATOM     25  H   UNK d   1      -0.645  16.064 -11.338  0.00  0.00     0.162 HD
BRANCH  23  26
ATOM     26  C   UNK d   1      -2.180  17.999 -12.165  0.00  0.00     0.032 A 
ATOM     27  C   UNK d   1      -3.378  18.537 -12.582  0.00  0.00     0.018 A 
ATOM     28  C   UNK d   1      -4.042  19.488 -11.844  0.00  0.00     0.025 A 
ATOM     29  C   UNK d   1      -3.495  19.920 -10.647  0.00  0.00     0.034 A 
ATOM     30 Cl   UNK d   1      -4.333  21.135  -9.695  0.00  0.00    -0.084 Cl
ATOM     31  C   UNK d   1      -2.306  19.406 -10.201  0.00  0.00     0.025 A 
ATOM     32  C   UNK d   1      -1.659  18.442 -10.977  0.00  0.00     0.018 A 
ENDBRANCH  23  26
ENDBRANCH  21  22
ENDBRANCH  20  21
ENDBRANCH   1  20
TORSDOF 6
ENDMDL
