/Users/jonathanwahrer/Desktop/Msc/3_Semester/Drug_Design_Praktikum/waehrer_HTS_screening/HTS_experiment/out/docking_results/vina_output/6q9y/1507_docked.pdbqt
 OpenBabel03222220123D

 32 35  0  0  1  0  0  0  0  0999 V2000
   -1.5840    9.4720  -13.6370 C   0  0  0  0  0  0  0  0  0  0  0  0
   -1.1240    8.2520  -13.8270 C   0  0  0  0  0  0  0  0  0  0  0  0
    0.2900    7.7730  -13.9510 C   0  0  2  0  0  3  0  0  0  0  0  0
    0.2630    6.5740  -13.1950 N   0  0  0  0  0  0  0  0  0  0  0  0
   -0.9800    5.9320  -13.6130 C   0  0  0  0  0  0  0  0  0  0  0  0
   -1.2420    4.7010  -13.6270 O   0  0  0  0  0  0  0  0  0  0  0  0
   -1.8740    7.0110  -14.0180 C   0  0  0  0  0  0  0  0  0  0  0  0
   -3.0700    6.9650  -14.4580 O   0  0  0  0  0  0  0  0  0  0  0  0
   -0.7440   10.5650  -13.5240 O   0  0  0  0  0  1  0  0  0  0  0  0
   -3.0160    9.7330  -13.5380 C   0  0  0  0  0  0  0  0  0  0  0  0
   -3.6800    9.7060  -12.3260 C   0  0  0  0  0  3  0  0  0  0  0  0
   -5.0270    9.9330  -12.3190 C   0  0  0  0  0  3  0  0  0  0  0  0
   -5.7710   10.1870  -13.4480 C   0  0  0  0  0  0  0  0  0  0  0  0
   -7.6670   10.4970  -13.3550 Br  0  0  0  0  0  0  0  0  0  0  0  0
   -5.1150   10.2140  -14.6610 C   0  0  0  0  0  3  0  0  0  0  0  0
   -3.7360    9.9840  -14.6830 C   0  0  0  0  0  3  0  0  0  0  0  0
    1.2760    8.7850  -13.7720 C   0  0  0  0  0  0  0  0  0  0  0  0
    1.8290    9.3860  -14.8780 C   0  0  0  0  0  3  0  0  0  0  0  0
    2.7720   10.3810  -14.7860 C   0  0  0  0  0  3  0  0  0  0  0  0
    3.2080   10.8240  -13.5460 C   0  0  0  0  0  0  0  0  0  0  0  0
    2.6410   10.2080  -12.4480 C   0  0  0  0  0  3  0  0  0  0  0  0
    4.4050   12.0890  -13.4160 Cl  0  0  0  0  0  0  0  0  0  0  0  0
    1.6970    9.2120  -12.5490 C   0  0  0  0  0  3  0  0  0  0  0  0
    1.1700    5.9440  -12.2550 C   0  0  0  0  0  2  0  0  0  0  0  0
    2.0090    4.8330  -12.7560 C   0  0  0  0  0  2  0  0  0  0  0  0
    3.3900    4.8540  -12.2600 N   0  0  0  0  0  4  0  0  0  0  0  0
    4.0680    6.0120  -12.7330 C   0  0  0  0  0  2  0  0  0  0  0  0
    5.2120    5.7860  -13.6570 C   0  0  0  0  0  2  0  0  0  0  0  0
    5.8690    4.5790  -13.5110 O   0  0  0  0  0  0  0  0  0  0  0  0
    4.8890    3.5970  -13.7790 C   0  0  0  0  0  2  0  0  0  0  0  0
    3.9810    3.5930  -12.6000 C   0  0  0  0  0  2  0  0  0  0  0  0
    3.2880    4.8920  -11.1990 H   0  0  0  0  0  0  0  0  0  0  0  0
  1 10  1  0  0  0  0
  1  9  1  0  0  0  0
  2  1  2  0  0  0  0
  3  2  1  0  0  0  0
  3 17  1  1  0  0  0
  3  4  1  0  0  0  0
  4 24  1  0  0  0  0
  5  4  1  0  0  0  0
  6  5  2  0  0  0  0
  7  2  1  0  0  0  0
  7  5  1  0  0  0  0
  8  7  2  0  0  0  0
 10 11  1  0  0  0  0
 11 12  2  0  0  0  0
 13 14  1  0  0  0  0
 13 12  1  0  0  0  0
 15 13  2  0  0  0  0
 16 15  1  0  0  0  0
 16 10  2  0  0  0  0
 17 23  1  0  0  0  0
 18 19  1  0  0  0  0
 18 17  2  0  0  0  0
 19 20  2  0  0  0  0
 20 22  1  0  0  0  0
 20 21  1  0  0  0  0
 23 21  2  0  0  0  0
 25 26  1  0  0  0  0
 25 24  1  0  0  0  0
 26 32  1  0  0  0  0
 27 26  1  0  0  0  0
 28 29  1  0  0  0  0
 28 27  1  0  0  0  0
 30 29  1  0  0  0  0
 30 31  1  0  0  0  0
 31 26  1  0  0  0  0
M  END
>  <Pose>
1

>  <Score>
-6.791

$$$$
