MODEL 1
REMARK VINA RESULT:    -6.791      0.000      0.000
REMARK INTER + INTRA:          -9.139
REMARK INTER:                  -8.776
REMARK INTRA:                  -0.363
REMARK UNBOUND:                -0.363
REMARK  5 active torsions:
REMARK  status: ('A' for Active; 'I' for Inactive)
REMARK    1  A    between atoms: C_5  and  C_8 
REMARK    2  A    between atoms: C_10  and  C_24 
REMARK    3  A    between atoms: N_11  and  C_16 
REMARK    4  A    between atoms: C_16  and  C_17 
REMARK    5  A    between atoms: C_17  and  N_18 
ROOT
ATOM      1  C   UNK d   1      -1.584   9.472 -13.637  0.00  0.00     0.130 C 
ATOM      2  C   UNK d   1      -1.124   8.252 -13.827  0.00  0.00     0.062 C 
ATOM      3  C   UNK d   1       0.290   7.773 -13.951  0.00  0.00     0.161 C 
ATOM      4  N   UNK d   1       0.263   6.574 -13.195  0.00  0.00    -0.331 N 
ATOM      5  C   UNK d   1      -0.980   5.932 -13.613  0.00  0.00     0.295 C 
ATOM      6  O   UNK d   1      -1.242   4.701 -13.627  0.00  0.00    -0.264 OA
ATOM      7  C   UNK d   1      -1.874   7.011 -14.018  0.00  0.00     0.250 C 
ATOM      8  O   UNK d   1      -3.070   6.965 -14.458  0.00  0.00    -0.282 OA
ATOM      9  O   UNK d   1      -0.744  10.565 -13.524  0.00  0.00    -0.190 OA
ENDROOT
BRANCH   1  10
ATOM     10  C   UNK d   1      -3.016   9.733 -13.538  0.00  0.00     0.001 A 
ATOM     11  C   UNK d   1      -3.680   9.706 -12.326  0.00  0.00     0.015 A 
ATOM     12  C   UNK d   1      -5.027   9.933 -12.319  0.00  0.00     0.020 A 
ATOM     13  C   UNK d   1      -5.771  10.187 -13.448  0.00  0.00     0.011 A 
ATOM     14 Br   UNK d   1      -7.667  10.497 -13.355  0.00  0.00    -0.051 Br
ATOM     15  C   UNK d   1      -5.115  10.214 -14.661  0.00  0.00     0.020 A 
ATOM     16  C   UNK d   1      -3.736   9.984 -14.683  0.00  0.00     0.015 A 
ENDBRANCH   1  10
BRANCH   3  17
ATOM     17  C   UNK d   1       1.276   8.785 -13.772  0.00  0.00    -0.030 A 
ATOM     18  C   UNK d   1       1.829   9.386 -14.878  0.00  0.00     0.011 A 
ATOM     19  C   UNK d   1       2.772  10.381 -14.786  0.00  0.00     0.024 A 
ATOM     20  C   UNK d   1       3.208  10.824 -13.546  0.00  0.00     0.034 A 
ATOM     21  C   UNK d   1       2.641  10.208 -12.448  0.00  0.00     0.024 A 
ATOM     22 Cl   UNK d   1       4.405  12.089 -13.416  0.00  0.00    -0.084 Cl
ATOM     23  C   UNK d   1       1.697   9.212 -12.549  0.00  0.00     0.011 A 
ENDBRANCH   3  17
BRANCH   4  24
ATOM     24  C   UNK d   1       1.170   5.944 -12.255  0.00  0.00     0.155 C 
BRANCH  24  25
ATOM     25  C   UNK d   1       2.009   4.833 -12.756  0.00  0.00     0.255 C 
BRANCH  25  26
ATOM     26  N   UNK d   1       3.390   4.854 -12.260  0.00  0.00    -0.066 N 
ATOM     27  C   UNK d   1       4.068   6.012 -12.733  0.00  0.00     0.261 C 
ATOM     28  C   UNK d   1       5.212   5.786 -13.657  0.00  0.00     0.195 C 
ATOM     29  O   UNK d   1       5.869   4.579 -13.511  0.00  0.00    -0.388 OA
ATOM     30  C   UNK d   1       4.889   3.597 -13.779  0.00  0.00     0.195 C 
ATOM     31  C   UNK d   1       3.981   3.593 -12.600  0.00  0.00     0.261 C 
ATOM     32  H   UNK d   1       3.288   4.892 -11.199  0.00  0.00     0.280 HD
ENDBRANCH  25  26
ENDBRANCH  24  25
ENDBRANCH   4  24
TORSDOF 5
ENDMDL
