MODEL 1
REMARK VINA RESULT:    -8.949      0.000      0.000
REMARK INTER + INTRA:         -10.799
REMARK INTER:                 -10.518
REMARK INTRA:                  -0.281
REMARK UNBOUND:                -0.281
REMARK  3 active torsions:
REMARK  status: ('A' for Active; 'I' for Inactive)
REMARK    1  A    between atoms: C_5  and  C_8 
REMARK       I    between atoms: C_8  and  N_10 
REMARK    2  A    between atoms: N_10  and  C_11 
REMARK    3  A    between atoms: C_11  and  C_12 
REMARK       I    between atoms: C_12  and  N_14 
ROOT
ATOM      1  C   UNK d   1       0.170  12.459 -13.175  0.00  0.00     0.171 C 
ATOM      2  O   UNK d   1      -0.943  13.156 -13.178  0.00  0.00    -0.175 OA
ATOM      3  N   UNK d   1      -0.006  11.109 -13.445  0.00  0.00    -0.361 N 
ATOM      4  C   UNK d   1       1.052  10.157 -13.530  0.00  0.00     0.127 C 
ATOM      5  C   UNK d   1       0.482   8.868 -14.167  0.00  0.00     0.057 C 
ATOM      6  C   UNK d   1      -0.474   8.276 -13.149  0.00  0.00     0.073 C 
ATOM      7  N   UNK d   1       0.232   7.973 -11.972  0.00  0.00    -0.407 N 
ATOM      8  C   UNK d   1       0.908   6.755 -11.834  0.00  0.00     0.121 C 
ATOM      9  C   UNK d   1       0.282   5.550 -12.427  0.00  0.00     0.080 C 
ATOM     10  C   UNK d   1      -0.770   5.852 -13.420  0.00  0.00     0.062 A 
ATOM     11  N   UNK d   1      -1.522   4.983 -14.124  0.00  0.00    -0.246 NA
ATOM     12  C   UNK d   1      -2.347   5.687 -14.906  0.00  0.00     0.207 A 
ATOM     13  N   UNK d   1      -2.113   7.001 -14.692  0.00  0.00    -0.350 N 
ATOM     14  C   UNK d   1      -1.137   7.122 -13.773  0.00  0.00     0.063 A 
ATOM     15  C   UNK d   1      -1.507   9.361 -12.801  0.00  0.00     0.057 C 
ATOM     16  C   UNK d   1      -1.361  10.580 -13.669  0.00  0.00     0.127 C 
ATOM     17  H   UNK d   1       0.394   8.703 -11.288  0.00  0.00     0.154 HD
ATOM     18  H   UNK d   1      -2.606   7.781 -15.164  0.00  0.00     0.166 HD
ENDROOT
BRANCH   1  19
ATOM     19  C   UNK d   1       1.367  13.249 -12.892  0.00  0.00     0.210 C 
BRANCH  19  20
ATOM     20  N   UNK d   1       1.200  14.534 -12.446  0.00  0.00    -0.349 N 
ATOM     21  C   UNK d   1       1.035  15.804 -12.004  0.00  0.00     0.252 C 
ATOM     22  O   UNK d   1       1.830  16.475 -11.296  0.00  0.00    -0.268 OA
ATOM     23  H   UNK d   1       2.391  14.426 -11.765  0.00  0.00     0.163 HD
BRANCH  21  24
ATOM     24  C   UNK d   1      -0.227  16.519 -12.385  0.00  0.00     0.032 A 
ATOM     25  C   UNK d   1      -0.775  17.400 -11.501  0.00  0.00     0.018 A 
ATOM     26  C   UNK d   1      -1.952  18.074 -11.843  0.00  0.00     0.025 A 
ATOM     27  C   UNK d   1      -2.521  17.826 -13.061  0.00  0.00     0.034 A 
ATOM     28 Cl   UNK d   1      -4.003  18.671 -13.485  0.00  0.00    -0.084 Cl
ATOM     29  C   UNK d   1      -1.972  16.943 -13.945  0.00  0.00     0.025 A 
ATOM     30  C   UNK d   1      -0.786  16.269 -13.592  0.00  0.00     0.018 A 
ENDBRANCH  21  24
ENDBRANCH  19  20
ENDBRANCH   1  19
TORSDOF 3
ENDMDL
