/Users/jonathanwahrer/Desktop/Msc/3_Semester/Drug_Design_Praktikum/waehrer_HTS_screening/HTS_experiment/out/docking_results/vina_output/6q9y/1518_docked.pdbqt
 OpenBabel03222220123D

 31 34  0  0  1  0  0  0  0  0999 V2000
    0.1610   12.3690  -13.1510 C   0  0  0  0  0  0  0  0  0  0  0  0
    1.3860   12.6130  -13.2690 O   0  0  0  0  0  0  0  0  0  0  0  0
   -0.3160   11.0400  -13.2420 N   0  0  0  0  0  0  0  0  0  0  0  0
   -1.7170   10.6940  -13.1160 C   0  0  0  0  0  2  0  0  0  0  0  0
   -1.7970    9.3200  -12.4680 C   0  0  0  0  0  2  0  0  0  0  0  0
   -1.1630    8.2670  -13.3760 C   0  0  1  0  0  0  0  0  0  0  0  0
   -0.5490    7.2960  -12.5170 N   0  0  0  0  0  0  0  0  0  0  0  0
   -0.3370    6.0320  -13.1890 C   0  0  0  0  0  2  0  0  0  0  0  0
   -1.6930    5.3610  -13.3990 C   0  0  0  0  0  2  0  0  0  0  0  0
   -2.4920    6.2920  -14.2470 C   0  0  0  0  0  0  0  0  0  0  0  0
   -3.5190    6.0710  -15.1210 N   0  0  0  0  0  0  0  0  0  0  0  0
   -3.8900    7.2590  -15.6300 C   0  0  0  0  0  3  0  0  0  0  0  0
   -3.1070    8.2060  -15.0840 N   0  0  0  0  0  0  0  0  0  0  0  0
   -2.2190    7.6410  -14.2130 C   0  0  0  0  0  0  0  0  0  0  0  0
   -0.1020    8.8900  -14.2580 C   0  0  0  0  0  2  0  0  0  0  0  0
    0.6110    9.9500  -13.4710 C   0  0  0  0  0  2  0  0  0  0  0  0
    0.3450    7.6440  -12.1180 H   0  0  0  0  0  0  0  0  0  0  0  0
   -3.8910    5.1120  -15.3020 H   0  0  0  0  0  0  0  0  0  0  0  0
   -0.7590   13.5050  -12.9170 C   0  0  0  0  0  2  0  0  0  0  0  0
   -0.1230   14.8310  -13.1880 C   0  0  0  0  0  2  0  0  0  0  0  0
   -0.7950   15.8600  -12.4190 N   0  0  0  0  0  0  0  0  0  0  0  0
   -1.5090   16.9160  -12.9860 C   0  0  0  0  0  0  0  0  0  0  0  0
   -1.5980   17.0170  -14.2360 O   0  0  0  0  0  0  0  0  0  0  0  0
   -0.7140   15.7610  -11.3790 H   0  0  0  0  0  0  0  0  0  0  0  0
   -2.1740   17.9360  -12.1800 C   0  0  0  0  0  0  0  0  0  0  0  0
   -3.3450   18.5410  -12.5800 C   0  0  0  0  0  3  0  0  0  0  0  0
   -3.9290   19.5050  -11.7720 C   0  0  0  0  0  3  0  0  0  0  0  0
   -3.3630   19.8800  -10.5620 C   0  0  0  0  0  0  0  0  0  0  0  0
   -4.1670   21.1070   -9.6030 Cl  0  0  0  0  0  0  0  0  0  0  0  0
   -2.1900   19.2820  -10.1510 C   0  0  0  0  0  3  0  0  0  0  0  0
   -1.6270   18.3330  -10.9600 C   0  0  0  0  0  3  0  0  0  0  0  0
  1 19  1  0  0  0  0
  2  1  2  0  0  0  0
  3  1  1  0  0  0  0
  3  4  1  0  0  0  0
  4  5  1  0  0  0  0
  6 15  1  6  0  0  0
  6  7  1  0  0  0  0
  6  5  1  0  0  0  0
  7 17  1  0  0  0  0
  8  7  1  0  0  0  0
  9  8  1  0  0  0  0
 10 14  2  0  0  0  0
 10  9  1  0  0  0  0
 11 10  1  0  0  0  0
 12 11  1  0  0  0  0
 12 13  2  0  0  0  0
 13 14  1  0  0  0  0
 14  6  1  0  0  0  0
 15 16  1  0  0  0  0
 16  3  1  0  0  0  0
 18 11  1  0  0  0  0
 20 19  1  0  0  0  0
 20 21  1  0  0  0  0
 21 24  1  0  0  0  0
 22 21  1  0  0  0  0
 22 25  1  0  0  0  0
 23 22  2  0  0  0  0
 25 31  1  0  0  0  0
 26 25  2  0  0  0  0
 26 27  1  0  0  0  0
 27 28  2  0  0  0  0
 28 30  1  0  0  0  0
 28 29  1  0  0  0  0
 31 30  2  0  0  0  0
M  END
>  <Pose>
1

>  <Score>
-10.215

$$$$
