MODEL 1
REMARK VINA RESULT:   -10.215      0.000      0.000
REMARK INTER + INTRA:         -12.917
REMARK INTER:                 -12.603
REMARK INTRA:                  -0.313
REMARK UNBOUND:                -0.313
REMARK  4 active torsions:
REMARK  status: ('A' for Active; 'I' for Inactive)
REMARK    1  A    between atoms: C_5  and  C_8 
REMARK       I    between atoms: C_8  and  N_10 
REMARK    2  A    between atoms: N_10  and  C_11 
REMARK    3  A    between atoms: C_11  and  C_12 
REMARK    4  A    between atoms: C_12  and  C_13 
REMARK       I    between atoms: C_13  and  N_15 
ROOT
ATOM      1  C   UNK d   1       0.161  12.369 -13.151  0.00  0.00     0.221 C 
ATOM      2  O   UNK d   1       1.386  12.613 -13.269  0.00  0.00    -0.273 OA
ATOM      3  N   UNK d   1      -0.316  11.040 -13.242  0.00  0.00    -0.352 N 
ATOM      4  C   UNK d   1      -1.717  10.694 -13.116  0.00  0.00     0.129 C 
ATOM      5  C   UNK d   1      -1.797   9.320 -12.468  0.00  0.00     0.068 C 
ATOM      6  C   UNK d   1      -1.163   8.267 -13.376  0.00  0.00     0.206 C 
ATOM      7  N   UNK d   1      -0.549   7.296 -12.517  0.00  0.00     0.099 N 
ATOM      8  C   UNK d   1      -0.337   6.032 -13.189  0.00  0.00     0.277 C 
ATOM      9  C   UNK d   1      -1.693   5.361 -13.399  0.00  0.00     0.089 C 
ATOM     10  C   UNK d   1      -2.492   6.292 -14.247  0.00  0.00     0.039 A 
ATOM     11  N   UNK d   1      -3.519   6.071 -15.121  0.00  0.00    -0.352 N 
ATOM     12  C   UNK d   1      -3.890   7.259 -15.630  0.00  0.00     0.207 A 
ATOM     13  N   UNK d   1      -3.107   8.206 -15.084  0.00  0.00    -0.244 NA
ATOM     14  C   UNK d   1      -2.219   7.641 -14.213  0.00  0.00     0.097 A 
ATOM     15  C   UNK d   1      -0.102   8.890 -14.258  0.00  0.00     0.068 C 
ATOM     16  C   UNK d   1       0.611   9.950 -13.471  0.00  0.00     0.129 C 
ATOM     17  H   UNK d   1       0.345   7.644 -12.118  0.00  0.00     0.317 HD
ATOM     18  H   UNK d   1      -3.891   5.112 -15.302  0.00  0.00     0.166 HD
ENDROOT
BRANCH   1  19
ATOM     19  C   UNK d   1      -0.759  13.505 -12.917  0.00  0.00     0.122 C 
BRANCH  19  20
ATOM     20  C   UNK d   1      -0.123  14.831 -13.188  0.00  0.00     0.132 C 
BRANCH  20  21
ATOM     21  N   UNK d   1      -0.795  15.860 -12.419  0.00  0.00    -0.356 N 
ATOM     22  C   UNK d   1      -1.509  16.916 -12.986  0.00  0.00     0.251 C 
ATOM     23  O   UNK d   1      -1.598  17.017 -14.236  0.00  0.00    -0.268 OA
ATOM     24  H   UNK d   1      -0.714  15.761 -11.379  0.00  0.00     0.162 HD
BRANCH  22  25
ATOM     25  C   UNK d   1      -2.174  17.936 -12.180  0.00  0.00     0.032 A 
ATOM     26  C   UNK d   1      -3.345  18.541 -12.580  0.00  0.00     0.018 A 
ATOM     27  C   UNK d   1      -3.929  19.505 -11.772  0.00  0.00     0.025 A 
ATOM     28  C   UNK d   1      -3.363  19.880 -10.562  0.00  0.00     0.034 A 
ATOM     29 Cl   UNK d   1      -4.167  21.107  -9.603  0.00  0.00    -0.084 Cl
ATOM     30  C   UNK d   1      -2.190  19.282 -10.151  0.00  0.00     0.025 A 
ATOM     31  C   UNK d   1      -1.627  18.333 -10.960  0.00  0.00     0.018 A 
ENDBRANCH  22  25
ENDBRANCH  20  21
ENDBRANCH  19  20
ENDBRANCH   1  19
TORSDOF 4
ENDMDL
