MODEL 1
REMARK VINA RESULT:    -7.571      0.000      0.000
REMARK INTER + INTRA:          -9.050
REMARK INTER:                  -8.678
REMARK INTRA:                  -0.372
REMARK UNBOUND:                -0.372
REMARK  3 active torsions:
REMARK  status: ('A' for Active; 'I' for Inactive)
REMARK    1  A    between atoms: N_12  and  C_15 
REMARK    2  A    between atoms: C_15  and  C_16 
REMARK    3  A    between atoms: C_16  and  O_21 
ROOT
ATOM      1 Cl   UNK d   1      -4.670   7.966 -15.166  0.00  0.00    -0.082 Cl
ATOM      2  C   UNK d   1      -3.336   8.843 -14.446  0.00  0.00     0.061 A 
ATOM      3  C   UNK d   1      -2.280   8.146 -13.912  0.00  0.00     0.065 A 
ATOM      4  N   UNK d   1      -1.976   6.843 -13.786  0.00  0.00    -0.357 N 
ATOM      5  C   UNK d   1      -0.791   6.669 -13.172  0.00  0.00     0.020 A 
ATOM      6  C   UNK d   1      -0.328   7.938 -12.897  0.00  0.00    -0.006 A 
ATOM      7  C   UNK d   1      -1.240   8.867 -13.349  0.00  0.00     0.002 A 
ATOM      8  C   UNK d   1      -1.297  10.246 -13.344  0.00  0.00     0.014 A 
ATOM      9  C   UNK d   1      -2.341  10.966 -13.871  0.00  0.00     0.003 A 
ATOM     10  C   UNK d   1      -3.384  10.237 -14.434  0.00  0.00     0.026 A 
ATOM     11  C   UNK d   1       0.987   8.009 -12.212  0.00  0.00     0.158 C 
ATOM     12  N   UNK d   1       1.861   7.174 -13.005  0.00  0.00    -0.405 N 
ATOM     13  C   UNK d   1       1.551   5.797 -12.978  0.00  0.00     0.123 C 
ATOM     14  C   UNK d   1       0.078   5.553 -12.743  0.00  0.00     0.077 C 
ATOM     15  H   UNK d   1      -2.562   6.024 -14.113  0.00  0.00     0.166 HD
ENDROOT
BRANCH  12  16
ATOM     16  C   UNK d   1       3.205   7.567 -13.016  0.00  0.00     0.156 C 
BRANCH  16  17
ATOM     17  C   UNK d   1       3.508   8.604 -14.055  0.00  0.00     0.101 A 
ATOM     18  C   UNK d   1       2.428   8.765 -15.068  0.00  0.00     0.308 A 
ATOM     19  N   UNK d   1       1.988  10.117 -15.114  0.00  0.00     0.086 N 
ATOM     20  C   UNK d   1       2.686  10.873 -14.125  0.00  0.00     0.272 A 
ATOM     21  H   UNK d   1       2.045  10.551 -16.066  0.00  0.00     0.315 HD
ATOM     22  C   UNK d   1       3.588   9.947 -13.381  0.00  0.00     0.071 A 
BRANCH  17  23
ATOM     23  O   UNK d   1       4.757   8.375 -14.646  0.00  0.00    -0.386 OA
ATOM     24  H   UNK d   1       5.095   7.530 -14.246  0.00  0.00     0.210 HD
ENDBRANCH  17  23
ENDBRANCH  16  17
ENDBRANCH  12  16
TORSDOF 3
ENDMDL
