/Users/jonathanwahrer/Desktop/Msc/3_Semester/Drug_Design_Praktikum/waehrer_HTS_screening/HTS_experiment/out/docking_results/vina_output/6q9y/1521_docked.pdbqt
 OpenBabel03222220123D

 24 27  0  0  1  0  0  0  0  0999 V2000
   -4.6700    7.9660  -15.1660 Cl  0  0  0  0  0  0  0  0  0  0  0  0
   -3.3360    8.8430  -14.4460 C   0  0  0  0  0  0  0  0  0  0  0  0
   -2.2800    8.1460  -13.9120 C   0  0  0  0  0  0  0  0  0  0  0  0
   -1.9760    6.8430  -13.7860 N   0  0  0  0  0  0  0  0  0  0  0  0
   -0.7910    6.6690  -13.1720 C   0  0  0  0  0  0  0  0  0  0  0  0
   -0.3280    7.9380  -12.8970 C   0  0  0  0  0  0  0  0  0  0  0  0
   -1.2400    8.8670  -13.3490 C   0  0  0  0  0  0  0  0  0  0  0  0
   -1.2970   10.2460  -13.3440 C   0  0  0  0  0  3  0  0  0  0  0  0
   -2.3410   10.9660  -13.8710 C   0  0  0  0  0  3  0  0  0  0  0  0
   -3.3840   10.2370  -14.4340 C   0  0  0  0  0  3  0  0  0  0  0  0
    0.9870    8.0090  -12.2120 C   0  0  0  0  0  2  0  0  0  0  0  0
    1.8610    7.1740  -13.0050 N   0  0  0  0  0  0  0  0  0  0  0  0
    1.5510    5.7970  -12.9780 C   0  0  0  0  0  2  0  0  0  0  0  0
    0.0780    5.5530  -12.7430 C   0  0  0  0  0  2  0  0  0  0  0  0
   -2.5620    6.0240  -14.1130 H   0  0  0  0  0  0  0  0  0  0  0  0
    3.2050    7.5670  -13.0160 C   0  0  0  0  0  2  0  0  0  0  0  0
    3.5080    8.6040  -14.0550 C   0  0  1  0  0  0  0  0  0  0  0  0
    2.4280    8.7650  -15.0680 C   0  0  0  0  0  2  0  0  0  0  0  0
    1.9880   10.1170  -15.1140 N   0  0  0  0  0  0  0  0  0  0  0  0
    2.6860   10.8730  -14.1250 C   0  0  0  0  0  3  0  0  0  0  0  0
    2.0450   10.5510  -16.0660 H   0  0  0  0  0  0  0  0  0  0  0  0
    3.5880    9.9470  -13.3810 C   0  0  0  0  0  3  0  0  0  0  0  0
    4.7570    8.3750  -14.6460 O   0  0  0  0  0  0  0  0  0  0  0  0
    5.0950    7.5300  -14.2460 H   0  0  0  0  0  0  0  0  0  0  0  0
  1  2  1  0  0  0  0
  2 10  2  0  0  0  0
  2  3  1  0  0  0  0
  3  4  1  0  0  0  0
  3  7  2  0  0  0  0
  4  5  1  0  0  0  0
  5  6  2  0  0  0  0
  5 14  1  0  0  0  0
  6 11  1  0  0  0  0
  7  8  1  0  0  0  0
  7  6  1  0  0  0  0
  9  8  2  0  0  0  0
 10  9  1  0  0  0  0
 12 13  1  0  0  0  0
 12 11  1  0  0  0  0
 13 14  1  0  0  0  0
 15  4  1  0  0  0  0
 16 12  1  0  0  0  0
 17 22  1  0  0  0  0
 17 16  1  1  0  0  0
 18 17  1  0  0  0  0
 19 18  1  0  0  0  0
 19 20  1  0  0  0  0
 20 22  2  0  0  0  0
 21 19  1  0  0  0  0
 23 24  1  0  0  0  0
 23 17  1  0  0  0  0
M  END
>  <Pose>
1

>  <Score>
-7.571

$$$$
