MODEL 1
REMARK VINA RESULT:    -8.696      0.000      0.000
REMARK INTER + INTRA:         -10.245
REMARK INTER:                 -10.221
REMARK INTRA:                  -0.025
REMARK UNBOUND:                -0.025
REMARK  3 active torsions:
REMARK  status: ('A' for Active; 'I' for Inactive)
REMARK    1  A    between atoms: C_4  and  N_8 
REMARK    2  A    between atoms: C_11  and  C_13 
REMARK       I    between atoms: C_13  and  N_15 
REMARK       I    between atoms: N_18  and  C_21 
REMARK    3  A    between atoms: C_21  and  C_23 
ROOT
ATOM      1  C   UNK d   1       3.417  12.338 -12.550  0.00  0.00     0.275 C 
ATOM      2  O   UNK d   1       4.585  12.283 -12.029  0.00  0.00    -0.266 OA
ATOM      3  N   UNK d   1       3.004  11.372 -13.468  0.00  0.00    -0.344 N 
ATOM      4  C   UNK d   1       3.900  10.311 -13.837  0.00  0.00     0.146 C 
ATOM      5  C   UNK d   1       3.336   9.014 -13.327  0.00  0.00     0.145 C 
ATOM      6  N   UNK d   1       1.932   8.955 -13.618  0.00  0.00    -0.349 N 
ATOM      7  C   UNK d   1       1.451   9.922 -14.624  0.00  0.00     0.145 C 
ATOM      8  C   UNK d   1       1.710  11.333 -14.114  0.00  0.00     0.146 C 
ATOM      9  C   UNK d   1       0.978   8.104 -13.061  0.00  0.00     0.224 C 
ATOM     10  O   UNK d   1      -0.222   8.242 -13.537  0.00  0.00    -0.273 OA
ENDROOT
BRANCH   1  11
ATOM     11  C   UNK d   1       2.582  13.477 -12.102  0.00  0.00     0.166 A 
ATOM     12  N   UNK d   1       2.617  14.099 -10.915  0.00  0.00    -0.125 NA
ATOM     13  N   UNK d   1       1.721  15.060 -10.902  0.00  0.00    -0.060 NA
ATOM     14  N   UNK d   1       1.069  15.107 -12.069  0.00  0.00    -0.224 N 
ATOM     15  C   UNK d   1       1.601  14.124 -12.815  0.00  0.00     0.159 A 
BRANCH  14  16
ATOM     16  C   UNK d   1       0.038  16.016 -12.413  0.00  0.00     0.060 A 
ATOM     17  C   UNK d   1      -0.455  16.898 -11.482  0.00  0.00     0.050 A 
ATOM     18  C   UNK d   1      -1.475  17.791 -11.842  0.00  0.00     0.013 A 
ATOM     19 Br   UNK d   1      -2.170  19.022 -10.563  0.00  0.00    -0.051 Br
ATOM     20  C   UNK d   1      -1.988  17.795 -13.112  0.00  0.00     0.019 A 
ATOM     21  C   UNK d   1      -1.501  16.917 -14.050  0.00  0.00     0.004 A 
ATOM     22  C   UNK d   1      -0.482  16.030 -13.681  0.00  0.00     0.032 A 
ENDBRANCH  14  16
ENDBRANCH   1  11
BRANCH   9  23
ATOM     23  C   UNK d   1       1.108   7.082 -12.030  0.00  0.00     0.078 A 
ATOM     24  C   UNK d   1       0.505   5.751 -12.103  0.00  0.00     0.015 A 
ATOM     25  C   UNK d   1       2.022   5.917 -12.115  0.00  0.00     0.015 A 
ENDBRANCH   9  23
TORSDOF 3
ENDMDL
