MODEL 1
REMARK VINA RESULT:    -9.306      0.000      0.000
REMARK INTER + INTRA:         -11.725
REMARK INTER:                 -11.483
REMARK INTRA:                  -0.242
REMARK UNBOUND:                -0.242
REMARK  4 active torsions:
REMARK  status: ('A' for Active; 'I' for Inactive)
REMARK    1  A    between atoms: C_6  and  C_8 
REMARK    2  A    between atoms: C_10  and  N_11 
REMARK    3  A    between atoms: C_14  and  C_16 
REMARK    4  A    between atoms: C_19  and  O_22 
ROOT
ATOM      1  N   UNK d   1       1.867   8.178 -12.695  0.00  0.00    -0.338 N 
ATOM      2  C   UNK d   1       2.889   8.535 -13.534  0.00  0.00     0.086 A 
ATOM      3  N   UNK d   1       2.775   9.852 -13.725  0.00  0.00    -0.335 N 
ATOM      4  C   UNK d   1       1.733  10.374 -13.057  0.00  0.00     0.061 A 
ATOM      5  C   UNK d   1       1.156   9.301 -12.401  0.00  0.00     0.123 A 
ATOM      6  C   UNK d   1       3.830  10.328 -14.614  0.00  0.00     0.131 A 
ATOM      7  C   UNK d   1       4.568   9.095 -15.047  0.00  0.00     0.028 A 
ATOM      8  C   UNK d   1       4.038   7.947 -14.265  0.00  0.00     0.078 A 
ENDROOT
BRANCH   1   9
ATOM      9  C   UNK d   1       1.619   6.874 -12.180  0.00  0.00     0.198 C 
ATOM     10  C   UNK d   1       0.412   6.150 -12.504  0.00  0.00     0.113 C 
ATOM     11  O   UNK d   1       0.337   4.951 -11.961  0.00  0.00    -0.194 OA
BRANCH  10  12
ATOM     12  C   UNK d   1      -0.726   6.497 -13.312  0.00  0.00    -0.000 A 
ATOM     13  C   UNK d   1      -1.354   5.700 -14.220  0.00  0.00     0.016 A 
ATOM     14  C   UNK d   1      -2.466   6.093 -14.980  0.00  0.00     0.026 A 
ATOM     15  C   UNK d   1      -2.981   7.356 -14.826  0.00  0.00     0.055 A 
ATOM     16  C   UNK d   1      -2.374   8.194 -13.918  0.00  0.00     0.056 A 
ATOM     17 Cl   UNK d   1      -4.365   7.852 -15.772  0.00  0.00    -0.083 Cl
ATOM     18 Cl   UNK d   1      -3.014   9.802 -13.708  0.00  0.00    -0.083 Cl
ATOM     19  C   UNK d   1      -1.301   7.787 -13.197  0.00  0.00     0.039 A 
ENDBRANCH  10  12
ENDBRANCH   1   9
BRANCH   4  20
ATOM     20  C   UNK d   1       1.266  11.758 -13.000  0.00  0.00    -0.008 A 
ATOM     21  C   UNK d   1       0.042  12.189 -13.443  0.00  0.00     0.016 A 
ATOM     22  C   UNK d   1      -0.336  13.536 -13.353  0.00  0.00     0.037 A 
ATOM     23  C   UNK d   1       0.500  14.492 -12.819  0.00  0.00     0.068 A 
ATOM     24  C   UNK d   1       1.733  14.069 -12.372  0.00  0.00     0.037 A 
ATOM     25  C   UNK d   1       2.101  12.743 -12.461  0.00  0.00     0.016 A 
BRANCH  23  26
ATOM     26  O   UNK d   1       0.139  15.829 -12.724  0.00  0.00    -0.356 OA
ATOM     27  C   UNK d   1      -1.132  16.264 -13.174  0.00  0.00     0.210 C 
ENDBRANCH  23  26
ENDBRANCH   4  20
TORSDOF 4
ENDMDL
