MODEL 1
REMARK VINA RESULT:    -9.373      0.000      0.000
REMARK INTER + INTRA:         -12.080
REMARK INTER:                 -11.564
REMARK INTRA:                  -0.515
REMARK UNBOUND:                -0.515
REMARK  4 active torsions:
REMARK  status: ('A' for Active; 'I' for Inactive)
REMARK    1  A    between atoms: C_6  and  C_8 
REMARK    2  A    between atoms: N_11  and  C_13 
REMARK    3  A    between atoms: C_14  and  C_16 
REMARK    4  A    between atoms: C_18  and  N_22 
ROOT
ATOM      1  C   UNK d   1       1.740  10.475 -13.061  0.00  0.00     0.061 A 
ATOM      2  N   UNK d   1       2.858   9.972 -13.646  0.00  0.00    -0.335 N 
ATOM      3  C   UNK d   1       2.934   8.660 -13.403  0.00  0.00     0.086 A 
ATOM      4  N   UNK d   1       1.863   8.262 -12.651  0.00  0.00    -0.338 N 
ATOM      5  C   UNK d   1       1.145   9.380 -12.451  0.00  0.00     0.123 A 
ATOM      6  C   UNK d   1       4.148   8.076 -14.016  0.00  0.00     0.078 C 
ATOM      7  C   UNK d   1       4.464   9.086 -15.084  0.00  0.00     0.028 C 
ATOM      8  C   UNK d   1       4.002  10.383 -14.462  0.00  0.00     0.131 C 
ENDROOT
BRANCH   4   9
ATOM      9  C   UNK d   1       1.607   6.944 -12.147  0.00  0.00     0.198 C 
ATOM     10  C   UNK d   1       0.434   6.193 -12.503  0.00  0.00     0.113 C 
ATOM     11  O   UNK d   1       0.394   4.990 -11.938  0.00  0.00    -0.194 OA
BRANCH  10  12
ATOM     12  C   UNK d   1      -0.710   6.455 -13.338  0.00  0.00     0.000 A 
ATOM     13  C   UNK d   1      -1.388   7.691 -13.230  0.00  0.00     0.050 A 
ATOM     14  C   UNK d   1      -2.483   8.032 -13.980  0.00  0.00     0.103 A 
ATOM     15  C   UNK d   1      -2.927   7.092 -14.888  0.00  0.00     0.036 A 
ATOM     16  C   UNK d   1      -2.284   5.881 -15.013  0.00  0.00     0.003 A 
ATOM     17  C   UNK d   1      -1.169   5.539 -14.245  0.00  0.00     0.014 A 
BRANCH  14  18
ATOM     18  N   UNK d   1      -3.147   9.275 -13.855  0.00  0.00    -0.116 N 
ATOM     19  O   UNK d   1      -2.644  10.163 -13.158  0.00  0.00    -0.532 OA
ATOM     20  O   UNK d   1      -4.332   9.525 -14.484  0.00  0.00    -0.532 OA
ENDBRANCH  14  18
ENDBRANCH  10  12
ENDBRANCH   4   9
BRANCH   1  21
ATOM     21  C   UNK d   1       1.217  11.840 -13.037  0.00  0.00    -0.006 A 
ATOM     22  C   UNK d   1      -0.035  12.074 -13.561  0.00  0.00     0.015 A 
ATOM     23  C   UNK d   1      -0.602  13.351 -13.556  0.00  0.00     0.026 A 
ATOM     24  C   UNK d   1       0.110  14.396 -13.014  0.00  0.00     0.055 A 
ATOM     25  C   UNK d   1       1.351  14.172 -12.493  0.00  0.00     0.056 A 
ATOM     26 Cl   UNK d   1      -0.624  16.001 -13.016  0.00  0.00    -0.083 Cl
ATOM     27 Cl   UNK d   1       2.228  15.524 -11.812  0.00  0.00    -0.083 Cl
ATOM     28  C   UNK d   1       1.902  12.894 -12.506  0.00  0.00     0.039 A 
ENDBRANCH   1  21
TORSDOF 4
ENDMDL
