MODEL 1
REMARK VINA RESULT:   -11.097      0.000      0.000
REMARK INTER + INTRA:         -14.835
REMARK INTER:                 -14.341
REMARK INTRA:                  -0.494
REMARK UNBOUND:                -0.494
REMARK  5 active torsions:
REMARK  status: ('A' for Active; 'I' for Inactive)
REMARK    1  A    between atoms: C_6  and  C_8 
REMARK    2  A    between atoms: N_11  and  C_13 
REMARK    3  A    between atoms: C_13  and  C_14 
REMARK    4  A    between atoms: C_14  and  C_16 
REMARK    5  A    between atoms: C_18  and  N_22 
ROOT
ATOM      1  C   UNK d   1      -2.112   9.649 -13.941  0.00  0.00     0.061 A 
ATOM      2  N   UNK d   1      -2.209   8.318 -14.091  0.00  0.00    -0.335 N 
ATOM      3  C   UNK d   1      -3.484   7.990 -14.386  0.00  0.00     0.086 A 
ATOM      4  N   UNK d   1      -4.206   9.124 -14.425  0.00  0.00    -0.338 N 
ATOM      5  C   UNK d   1      -3.392  10.183 -14.154  0.00  0.00     0.123 A 
ATOM      6  C   UNK d   1      -3.607   6.522 -14.542  0.00  0.00     0.078 C 
ATOM      7  C   UNK d   1      -2.217   6.203 -15.029  0.00  0.00     0.028 C 
ATOM      8  C   UNK d   1      -1.411   7.087 -14.062  0.00  0.00     0.131 C 
ENDROOT
BRANCH   4   9
ATOM      9  C   UNK d   1      -5.599   9.217 -14.663  0.00  0.00     0.198 C 
BRANCH   9  10
ATOM     10  C   UNK d   1      -6.483  10.034 -13.882  0.00  0.00     0.113 C 
ATOM     11  O   UNK d   1      -6.294   9.863 -12.589  0.00  0.00    -0.194 OA
BRANCH  10  12
ATOM     12  C   UNK d   1      -7.513  10.982 -14.235  0.00  0.00     0.000 A 
ATOM     13  C   UNK d   1      -8.264  10.939 -15.378  0.00  0.00     0.050 A 
ATOM     14  C   UNK d   1      -9.248  11.894 -15.653  0.00  0.00     0.103 A 
ATOM     15  C   UNK d   1      -9.484  12.903 -14.775  0.00  0.00     0.036 A 
ATOM     16  C   UNK d   1      -8.742  12.971 -13.616  0.00  0.00     0.003 A 
ATOM     17  C   UNK d   1      -7.777  12.042 -13.337  0.00  0.00     0.014 A 
BRANCH  14  18
ATOM     18  N   UNK d   1      -9.998  11.792 -16.864  0.00  0.00    -0.116 N 
ATOM     19  O   UNK d   1     -10.192  10.673 -17.371  0.00  0.00    -0.532 OA
ATOM     20  O   UNK d   1     -10.510  12.885 -17.487  0.00  0.00    -0.532 OA
ENDBRANCH  14  18
ENDBRANCH  10  12
ENDBRANCH   9  10
ENDBRANCH   4   9
BRANCH   1  21
ATOM     21  C   UNK d   1      -0.957  10.491 -13.622  0.00  0.00    -0.006 A 
ATOM     22  C   UNK d   1       0.322   9.932 -13.540  0.00  0.00     0.015 A 
ATOM     23  C   UNK d   1       1.438  10.675 -13.264  0.00  0.00     0.026 A 
ATOM     24  C   UNK d   1       1.343  12.030 -13.050  0.00  0.00     0.055 A 
ATOM     25  C   UNK d   1       0.105  12.609 -13.123  0.00  0.00     0.056 A 
ATOM     26 Cl   UNK d   1       2.776  12.970 -12.697  0.00  0.00    -0.083 Cl
ATOM     27 Cl   UNK d   1      -0.092  14.314 -12.867  0.00  0.00    -0.083 Cl
ATOM     28  C   UNK d   1      -1.031  11.827 -13.410  0.00  0.00     0.039 A 
ENDBRANCH   1  21
TORSDOF 5
ENDMDL
