/Users/jonathanwahrer/Desktop/Msc/3_Semester/Drug_Design_Praktikum/waehrer_HTS_screening/HTS_experiment/out/docking_results/vina_output/6q9y/1535_docked.pdbqt
 OpenBabel03222220133D

 28 31  0  0  1  0  0  0  0  0999 V2000
   -2.1120    9.6490  -13.9410 C   0  0  0  0  0  0  0  0  0  0  0  0
   -2.2090    8.3180  -14.0910 N   0  0  0  0  0  0  0  0  0  0  0  0
   -3.4840    7.9900  -14.3860 C   0  0  2  0  0  3  0  0  0  0  0  0
   -4.2060    9.1240  -14.4250 N   0  0  0  0  0  0  0  0  0  0  0  0
   -3.3920   10.1830  -14.1540 C   0  0  0  0  0  3  0  0  0  0  0  0
   -3.6070    6.5220  -14.5420 C   0  0  0  0  0  2  0  0  0  0  0  0
   -2.2170    6.2030  -15.0290 C   0  0  0  0  0  2  0  0  0  0  0  0
   -1.4110    7.0870  -14.0620 C   0  0  0  0  0  2  0  0  0  0  0  0
   -5.5990    9.2170  -14.6630 C   0  0  0  0  0  2  0  0  0  0  0  0
   -6.4830   10.0340  -13.8820 C   0  0  2  0  0  3  0  0  0  0  0  0
   -6.2940    9.8630  -12.5890 O   0  0  0  0  0  1  0  0  0  0  0  0
   -7.5130   10.9820  -14.2350 C   0  0  0  0  0  0  0  0  0  0  0  0
   -8.2640   10.9390  -15.3780 C   0  0  0  0  0  3  0  0  0  0  0  0
   -9.2480   11.8940  -15.6530 C   0  0  0  0  0  0  0  0  0  0  0  0
   -9.4840   12.9030  -14.7750 C   0  0  0  0  0  3  0  0  0  0  0  0
   -8.7420   12.9710  -13.6160 C   0  0  0  0  0  3  0  0  0  0  0  0
   -7.7770   12.0420  -13.3370 C   0  0  0  0  0  3  0  0  0  0  0  0
   -9.9980   11.7920  -16.8640 N   0  0  0  0  0  0  0  0  0  0  0  0
  -10.1920   10.6730  -17.3710 O   0  0  0  0  0  0  0  0  0  0  0  0
  -10.5100   12.8850  -17.4870 O   0  0  0  0  0  0  0  0  0  0  0  0
   -0.9570   10.4910  -13.6220 C   0  0  0  0  0  0  0  0  0  0  0  0
    0.3220    9.9320  -13.5400 C   0  0  0  0  0  3  0  0  0  0  0  0
    1.4380   10.6750  -13.2640 C   0  0  0  0  0  3  0  0  0  0  0  0
    1.3430   12.0300  -13.0500 C   0  0  0  0  0  0  0  0  0  0  0  0
    0.1050   12.6090  -13.1230 C   0  0  0  0  0  0  0  0  0  0  0  0
    2.7760   12.9700  -12.6970 Cl  0  0  0  0  0  0  0  0  0  0  0  0
   -0.0920   14.3140  -12.8670 Cl  0  0  0  0  0  0  0  0  0  0  0  0
   -1.0310   11.8270  -13.4100 C   0  0  0  0  0  3  0  0  0  0  0  0
  1 21  1  0  0  0  0
  2  8  1  0  0  0  0
  2  1  1  0  0  0  0
  3  6  1  1  0  0  0
  3  2  1  0  0  0  0
  4  3  1  0  0  0  0
  4  5  1  0  0  0  0
  5  1  2  0  0  0  0
  7  6  1  0  0  0  0
  7  8  1  0  0  0  0
  9  4  1  0  0  0  0
  9 10  1  0  0  0  0
 10 11  1  1  0  0  0
 12 10  1  0  0  0  0
 12 17  1  0  0  0  0
 13 12  2  0  0  0  0
 14 13  1  0  0  0  0
 14 15  2  0  0  0  0
 15 16  1  0  0  0  0
 16 17  2  0  0  0  0
 18 14  1  0  0  0  0
 19 18  2  0  0  0  0
 20 18  2  0  0  0  0
 21 22  2  0  0  0  0
 21 28  1  0  0  0  0
 22 23  1  0  0  0  0
 23 24  2  0  0  0  0
 24 26  1  0  0  0  0
 25 24  1  0  0  0  0
 25 27  1  0  0  0  0
 28 25  2  0  0  0  0
M  END
>  <Pose>
1

>  <Score>
-11.097

$$$$
