MODEL 1
REMARK VINA RESULT:    -8.875      0.000      0.000
REMARK INTER + INTRA:         -10.773
REMARK INTER:                 -10.432
REMARK INTRA:                  -0.342
REMARK UNBOUND:                -0.342
REMARK  3 active torsions:
REMARK  status: ('A' for Active; 'I' for Inactive)
REMARK    1  A    between atoms: S_1  and  N_4 
REMARK    2  A    between atoms: S_1  and  C_19 
REMARK    3  A    between atoms: C_7  and  C_10 
REMARK       I    between atoms: C_10  and  N_12 
ROOT
ATOM      1  S   UNK d   1       0.534   7.565 -13.087  0.00  0.00     0.262 S 
ATOM      2  O   UNK d   1       0.438   8.236 -11.713  0.00  0.00    -0.200 OA
ATOM      3  O   UNK d   1       0.957   6.134 -12.744  0.00  0.00    -0.200 OA
ENDROOT
BRANCH   1   4
ATOM      4  N   UNK d   1       1.733   8.310 -13.947  0.00  0.00    -0.307 N 
ATOM      5  C   UNK d   1       3.049   8.436 -13.517  0.00  0.00     0.136 C 
ATOM      6  C   UNK d   1       3.396   9.684 -12.771  0.00  0.00     0.034 C 
ATOM      7  C   UNK d   1       2.387  10.774 -13.129  0.00  0.00     0.081 C 
ATOM      8  C   UNK d   1       2.201  10.606 -14.646  0.00  0.00     0.034 C 
ATOM      9  C   UNK d   1       1.283   9.403 -14.800  0.00  0.00     0.136 C 
BRANCH   7  10
ATOM     10  C   UNK d   1       2.864  12.102 -12.784  0.00  0.00     0.224 C 
ATOM     11  O   UNK d   1       4.101  12.307 -12.666  0.00  0.00    -0.273 OA
ATOM     12  N   UNK d   1       1.982  13.168 -12.582  0.00  0.00    -0.348 N 
ATOM     13  C   UNK d   1       2.433  14.530 -12.271  0.00  0.00     0.156 C 
ATOM     14  C   UNK d   1       0.560  12.981 -12.645  0.00  0.00     0.156 C 
ATOM     15  C   UNK d   1       1.189  15.321 -11.924  0.00  0.00     0.291 C 
ATOM     16  N   UNK d   1       0.294  15.379 -13.065  0.00  0.00     0.087 N 
ATOM     17  C   UNK d   1      -0.112  14.051 -13.487  0.00  0.00     0.291 C 
ATOM     18  C   UNK d   1      -0.860  16.202 -12.777  0.00  0.00     0.310 C 
ENDBRANCH   7  10
ENDBRANCH   1   4
BRANCH   1  19
ATOM     19  C   UNK d   1      -1.085   7.573 -13.723  0.00  0.00     0.104 A 
ATOM     20  C   UNK d   1      -1.878   8.722 -13.563  0.00  0.00     0.066 A 
ATOM     21  C   UNK d   1      -3.178   8.786 -13.992  0.00  0.00     0.097 A 
ATOM     22  C   UNK d   1      -3.740   7.706 -14.600  0.00  0.00     0.070 A 
ATOM     23  O   UNK d   1      -3.938   9.949 -13.815  0.00  0.00    -0.340 OA
ATOM     24  C   UNK d   1      -3.015   6.557 -14.785  0.00  0.00     0.058 A 
ATOM     25  N   UNK d   1      -5.107   7.790 -15.040  0.00  0.00    -0.323 N 
ATOM     26  C   UNK d   1      -1.692   6.518 -14.340  0.00  0.00     0.059 A 
ATOM     27 Cl   UNK d   1      -0.786   5.051 -14.673  0.00  0.00    -0.083 Cl
ATOM     28  C   UNK d   1      -5.835   8.988 -14.831  0.00  0.00     0.246 C 
ATOM     29  H   UNK d   1      -5.545   6.971 -15.506  0.00  0.00     0.169 HD
ATOM     30  O   UNK d   1      -6.854   9.262 -15.498  0.00  0.00    -0.271 OA
ATOM     31  C   UNK d   1      -5.340   9.917 -13.781  0.00  0.00     0.278 C 
ENDBRANCH   1  19
TORSDOF 3
ENDMDL
