MODEL 1
REMARK VINA RESULT:    -7.404      0.000      0.000
REMARK INTER + INTRA:         -10.534
REMARK INTER:                 -10.001
REMARK INTRA:                  -0.533
REMARK UNBOUND:                -0.533
REMARK  6 active torsions:
REMARK  status: ('A' for Active; 'I' for Inactive)
REMARK    1  A    between atoms: C_5  and  C_8 
REMARK    2  A    between atoms: N_9  and  C_26 
REMARK    3  A    between atoms: C_15  and  C_17 
REMARK    4  A    between atoms: C_20  and  O_23 
REMARK    5  A    between atoms: C_26  and  C_27 
REMARK    6  A    between atoms: C_27  and  N_28 
ROOT
ATOM      1  C   UNK d   1       2.956   9.312 -12.537  0.00  0.00     0.161 C 
ATOM      2  N   UNK d   1       3.851   8.885 -13.620  0.00  0.00    -0.331 N 
ATOM      3  C   UNK d   1       3.149   9.189 -14.817  0.00  0.00     0.295 C 
ATOM      4  O   UNK d   1       3.645   9.448 -15.926  0.00  0.00    -0.264 OA
ATOM      5  C   UNK d   1       1.730   9.134 -14.483  0.00  0.00     0.250 C 
ATOM      6  O   UNK d   1       0.707   9.331 -15.204  0.00  0.00    -0.282 OA
ATOM      7  C   UNK d   1       1.659   8.788 -13.055  0.00  0.00     0.062 C 
ATOM      8  C   UNK d   1       0.659   8.191 -12.438  0.00  0.00     0.130 C 
ATOM      9  O   UNK d   1       0.758   7.983 -11.060  0.00  0.00    -0.190 OA
ENDROOT
BRANCH   1  10
ATOM     10  C   UNK d   1       2.974  10.796 -12.559  0.00  0.00    -0.030 A 
ATOM     11  C   UNK d   1       1.814  11.531 -12.672  0.00  0.00     0.011 A 
ATOM     12  C   UNK d   1       1.803  12.909 -12.695  0.00  0.00     0.024 A 
ATOM     13  C   UNK d   1       2.984  13.623 -12.601  0.00  0.00     0.034 A 
ATOM     14 Cl   UNK d   1       2.991  15.385 -12.627  0.00  0.00    -0.084 Cl
ATOM     15  C   UNK d   1       4.152  12.910 -12.487  0.00  0.00     0.024 A 
ATOM     16  C   UNK d   1       4.160  11.535 -12.465  0.00  0.00     0.011 A 
ENDBRANCH   1  10
BRANCH   8  17
ATOM     17  C   UNK d   1      -0.539   7.735 -13.127  0.00  0.00     0.002 A 
ATOM     18  C   UNK d   1      -0.657   6.451 -13.633  0.00  0.00     0.024 A 
ATOM     19  C   UNK d   1      -1.784   6.032 -14.309  0.00  0.00    -0.028 A 
ATOM     20  C   UNK d   1      -2.854   6.894 -14.509  0.00  0.00     0.074 A 
ATOM     21  C   UNK d   1      -1.866   4.650 -14.833  0.00  0.00     0.051 C 
ATOM     22  C   UNK d   1      -2.749   8.173 -14.011  0.00  0.00     0.038 A 
ATOM     23  C   UNK d   1      -1.601   8.586 -13.328  0.00  0.00     0.017 A 
BRANCH  20  24
ATOM     24  O   UNK d   1      -3.999   6.486 -15.188  0.00  0.00    -0.355 OA
ATOM     25  C   UNK d   1      -5.132   7.307 -15.165  0.00  0.00     0.210 C 
ENDBRANCH  20  24
ENDBRANCH   8  17
BRANCH   2  26
ATOM     26  C   UNK d   1       5.177   8.282 -13.483  0.00  0.00     0.155 C 
BRANCH  26  27
ATOM     27  C   UNK d   1       5.038   6.836 -13.896  0.00  0.00     0.255 C 
BRANCH  27  28
ATOM     28  N   UNK d   1       5.341   5.924 -12.827  0.00  0.00    -0.066 N 
ATOM     29  C   UNK d   1       6.748   5.726 -12.706  0.00  0.00     0.261 C 
ATOM     30  C   UNK d   1       7.303   4.519 -13.386  0.00  0.00     0.195 C 
ATOM     31  O   UNK d   1       6.464   3.439 -13.436  0.00  0.00    -0.388 OA
ATOM     32  C   UNK d   1       5.213   3.739 -13.960  0.00  0.00     0.195 C 
ATOM     33  C   UNK d   1       4.573   4.725 -13.018  0.00  0.00     0.261 C 
ATOM     34  H   UNK d   1       5.012   6.406 -11.942  0.00  0.00     0.280 HD
ENDBRANCH  27  28
ENDBRANCH  26  27
ENDBRANCH   2  26
TORSDOF 6
ENDMDL
