/Users/jonathanwahrer/Desktop/Msc/3_Semester/Drug_Design_Praktikum/waehrer_HTS_screening/HTS_experiment/out/docking_results/vina_output/6q9y/1548_docked.pdbqt
 OpenBabel03222220143D

 24 27  0  0  1  0  0  0  0  0999 V2000
  -11.8040   13.8320  -17.8110 Cl  0  0  0  0  0  0  0  0  0  0  0  0
  -10.6960   13.3020  -16.5530 C   0  0  0  0  0  0  0  0  0  0  0  0
   -9.9820   12.1280  -16.6520 C   0  0  0  0  0  2  0  0  0  0  0  0
   -9.1230   11.7180  -15.6730 N   0  0  0  0  0  0  0  0  0  0  0  0
   -8.9300   12.4470  -14.5590 C   0  0  0  0  0  0  0  0  0  0  0  0
   -8.0770   12.0420  -13.5850 N   0  0  0  0  0  0  0  0  0  0  0  0
   -7.3800   10.8900  -13.6880 C   0  0  0  0  0  0  0  0  0  0  0  0
   -7.5510   10.1260  -14.8060 C   0  0  2  0  0  3  0  0  0  0  0  0
   -6.8030    8.8390  -14.9730 C   0  0  0  0  0  2  0  0  0  0  0  0
   -5.5670    9.0170  -14.1910 N   0  0  0  0  0  0  0  0  0  0  0  0
   -5.7900    9.2270  -12.7880 C   0  0  0  0  0  2  0  0  0  0  0  0
   -6.4780   10.5600  -12.5530 C   0  0  0  0  0  2  0  0  0  0  0  0
   -4.3550    8.9670  -14.8730 C   0  0  0  0  0  0  0  0  0  0  0  0
   -4.3720    8.7630  -16.1360 O   0  0  0  0  0  0  0  0  0  0  0  0
   -8.4320   10.5690  -15.7830 C   0  0  0  0  0  0  0  0  0  0  0  0
   -8.5940    9.8780  -16.8080 O   0  0  0  0  0  0  0  0  0  0  0  0
   -9.6450   13.6300  -14.4510 C   0  0  0  0  0  3  0  0  0  0  0  0
  -10.5190   14.0690  -15.4220 C   0  0  0  0  0  3  0  0  0  0  0  0
   -3.0250    9.1290  -14.2740 C   0  0  0  0  0  0  0  0  0  0  0  0
   -2.2540    8.0860  -13.9510 N   0  0  0  0  0  0  0  0  0  0  0  0
   -1.0440    8.2430  -13.4050 C   0  0  0  0  0  3  0  0  0  0  0  0
   -0.5210    9.4920  -13.1430 C   0  0  0  0  0  3  0  0  0  0  0  0
   -1.3100   10.5290  -13.4750 N   0  0  0  0  0  0  0  0  0  0  0  0
   -2.5200   10.3990  -14.0190 C   0  0  0  0  0  3  0  0  0  0  0  0
  1  2  1  0  0  0  0
  2 18  2  0  0  0  0
  3  2  1  0  0  0  0
  3  4  1  0  0  0  0
  4  5  1  0  0  0  0
  5 17  2  0  0  0  0
  5  6  1  0  0  0  0
  7  6  2  0  0  0  0
  7 12  1  0  0  0  0
  8  9  1  6  0  0  0
  8  7  1  0  0  0  0
  9 10  1  0  0  0  0
 10 11  1  0  0  0  0
 11 12  1  0  0  0  0
 13 19  1  0  0  0  0
 13 10  1  0  0  0  0
 14 13  2  0  0  0  0
 15  4  1  0  0  0  0
 15  8  1  0  0  0  0
 16 15  2  0  0  0  0
 18 17  1  0  0  0  0
 19 24  2  0  0  0  0
 19 20  1  0  0  0  0
 20 21  2  0  0  0  0
 21 22  1  0  0  0  0
 23 22  2  0  0  0  0
 24 23  1  0  0  0  0
M  END
>  <Pose>
1

>  <Score>
-7.816

$$$$
