MODEL 1
REMARK VINA RESULT:    -7.816      0.000      0.000
REMARK INTER + INTRA:          -8.519
REMARK INTER:                  -8.273
REMARK INTRA:                  -0.247
REMARK UNBOUND:                -0.247
REMARK  1 active torsions:
REMARK  status: ('A' for Active; 'I' for Inactive)
REMARK       I    between atoms: N_10  and  C_13 
REMARK    1  A    between atoms: C_13  and  C_15 
ROOT
ATOM      1 Cl   UNK d   1     -11.804  13.832 -17.811  0.00  0.00    -0.083 Cl
ATOM      2  C   UNK d   1     -10.696  13.302 -16.553  0.00  0.00     0.050 A 
ATOM      3  C   UNK d   1      -9.982  12.128 -16.652  0.00  0.00     0.125 A 
ATOM      4  N   UNK d   1      -9.123  11.718 -15.673  0.00  0.00    -0.271 N 
ATOM      5  C   UNK d   1      -8.930  12.447 -14.559  0.00  0.00     0.137 A 
ATOM      6  N   UNK d   1      -8.077  12.042 -13.585  0.00  0.00    -0.234 NA
ATOM      7  C   UNK d   1      -7.380  10.890 -13.688  0.00  0.00     0.051 A 
ATOM      8  C   UNK d   1      -7.551  10.126 -14.806  0.00  0.00     0.053 A 
ATOM      9  C   UNK d   1      -6.803   8.839 -14.973  0.00  0.00     0.172 C 
ATOM     10  N   UNK d   1      -5.567   9.017 -14.191  0.00  0.00    -0.342 N 
ATOM     11  C   UNK d   1      -5.790   9.227 -12.788  0.00  0.00     0.132 C 
ATOM     12  C   UNK d   1      -6.478  10.560 -12.553  0.00  0.00     0.080 C 
ATOM     13  C   UNK d   1      -4.355   8.967 -14.873  0.00  0.00     0.274 C 
ATOM     14  O   UNK d   1      -4.372   8.763 -16.136  0.00  0.00    -0.266 OA
ATOM     15  C   UNK d   1      -8.432  10.569 -15.783  0.00  0.00     0.263 A 
ATOM     16  O   UNK d   1      -8.594   9.878 -16.808  0.00  0.00    -0.267 OA
ATOM     17  C   UNK d   1      -9.645  13.630 -14.451  0.00  0.00     0.053 A 
ATOM     18  C   UNK d   1     -10.519  14.069 -15.422  0.00  0.00     0.029 A 
ENDROOT
BRANCH  13  19
ATOM     19  C   UNK d   1      -3.025   9.129 -14.274  0.00  0.00     0.141 A 
ATOM     20  N   UNK d   1      -2.254   8.086 -13.951  0.00  0.00    -0.253 NA
ATOM     21  C   UNK d   1      -1.044   8.243 -13.405  0.00  0.00     0.136 A 
ATOM     22  C   UNK d   1      -0.521   9.492 -13.143  0.00  0.00     0.135 A 
ATOM     23  N   UNK d   1      -1.310  10.529 -13.475  0.00  0.00    -0.269 NA
ATOM     24  C   UNK d   1      -2.520  10.399 -14.019  0.00  0.00     0.153 A 
ENDBRANCH  13  19
TORSDOF 1
ENDMDL
