MODEL 1
REMARK VINA RESULT:    -6.292      0.000      0.000
REMARK INTER + INTRA:          -7.697
REMARK INTER:                  -7.212
REMARK INTRA:                  -0.485
REMARK UNBOUND:                -0.485
REMARK  3 active torsions:
REMARK  status: ('A' for Active; 'I' for Inactive)
REMARK    1  A    between atoms: C_3  and  O_25 
REMARK    2  A    between atoms: C_4  and  C_9 
REMARK    3  A    between atoms: C_11  and  C_22 
ROOT
ATOM      1  C   UNK d   1       5.981   5.619 -14.019  0.00  0.00     0.272 C 
ATOM      2  N   UNK d   1       5.536   4.365 -13.538  0.00  0.00    -0.047 N 
ATOM      3  C   UNK d   1       4.126   4.215 -13.327  0.00  0.00     0.291 C 
ATOM      4  C   UNK d   1       3.635   5.344 -12.406  0.00  0.00     0.086 C 
ATOM      5  C   UNK d   1       3.858   6.568 -13.199  0.00  0.00    -0.018 A 
ATOM      6  C   UNK d   1       3.099   7.718 -13.349  0.00  0.00    -0.001 A 
ATOM      7  C   UNK d   1       3.789   8.530 -14.222  0.00  0.00     0.043 A 
ATOM      8  N   UNK d   1       4.923   7.920 -14.600  0.00  0.00    -0.356 N 
ATOM      9  C   UNK d   1       4.972   6.701 -13.969  0.00  0.00     0.052 A 
ATOM     10  C   UNK d   1       3.231   9.754 -14.541  0.00  0.00     0.030 A 
ATOM     11  C   UNK d   1       2.029  10.104 -13.979  0.00  0.00     0.002 A 
ATOM     12  C   UNK d   1       1.341   9.290 -13.107  0.00  0.00     0.001 A 
ATOM     13  C   UNK d   1       1.891   8.054 -12.777  0.00  0.00     0.014 A 
ATOM     14  H   UNK d   1       5.821   3.626 -14.257  0.00  0.00     0.279 HD
ATOM     15  H   UNK d   1       6.003   4.052 -12.650  0.00  0.00     0.279 HD
ATOM     16  H   UNK d   1       5.673   8.262 -15.255  0.00  0.00     0.166 HD
ENDROOT
BRANCH   1  17
ATOM     17  C   UNK d   1       7.149   6.081 -13.183  0.00  0.00     0.014 A 
ATOM     18  C   UNK d   1       8.261   5.284 -12.977  0.00  0.00     0.091 A 
ATOM     19  C   UNK d   1       9.334   5.740 -12.205  0.00  0.00     0.046 A 
ATOM     20 Br   UNK d   1      10.861   4.622 -11.927  0.00  0.00    -0.048 Br
ATOM     21  C   UNK d   1       9.313   6.982 -11.632  0.00  0.00     0.041 A 
ATOM     22  C   UNK d   1       8.209   7.777 -11.835  0.00  0.00     0.013 A 
ATOM     23  C   UNK d   1       7.140   7.332 -12.602  0.00  0.00     0.031 A 
ATOM     24 Br   UNK d   1       8.141   9.532 -11.044  0.00  0.00    -0.051 Br
BRANCH  18  25
ATOM     25  O   UNK d   1       8.386   4.024 -13.502  0.00  0.00    -0.359 OA
ATOM     26  H   UNK d   1       8.937   3.290 -13.149  0.00  0.00     0.217 HD
ENDBRANCH  18  25
ENDBRANCH   1  17
BRANCH   3  27
ATOM     27  C   UNK d   1       3.846   2.893 -12.731  0.00  0.00     0.205 C 
ATOM     28  O   UNK d   1       3.356   2.837 -11.574  0.00  0.00    -0.646 OA
ATOM     29  O   UNK d   1       4.129   1.745 -13.453  0.00  0.00    -0.646 OA
ENDBRANCH   3  27
TORSDOF 3
ENDMDL
