MODEL 1
REMARK VINA RESULT:    -9.991      0.000      0.000
REMARK INTER + INTRA:         -13.553
REMARK INTER:                 -12.912
REMARK INTRA:                  -0.641
REMARK UNBOUND:                -0.641
REMARK  5 active torsions:
REMARK  status: ('A' for Active; 'I' for Inactive)
REMARK    1  A    between atoms: C_7  and  C_11 
REMARK    2  A    between atoms: C_11  and  O_12 
REMARK    3  A    between atoms: O_12  and  C_13 
REMARK    4  A    between atoms: C_13  and  C_15 
REMARK    5  A    between atoms: C_15  and  N_16 
ROOT
ATOM      1  O   UNK d   1       0.814  15.478 -12.260  0.00  0.00    -0.314 OA
ENDROOT
BRANCH   1   2
ATOM      2  C   UNK d   1       0.032  15.880 -13.349  0.00  0.00     0.238 C 
BRANCH   2   3
ATOM      3  C   UNK d   1      -1.080  16.779 -12.959  0.00  0.00     0.066 A 
ATOM      4  N   UNK d   1      -1.074  17.508 -11.825  0.00  0.00    -0.233 NA
ATOM      5  C   UNK d   1      -2.089  18.311 -11.497  0.00  0.00     0.137 A 
ATOM      6  N   UNK d   1      -3.197  18.460 -12.268  0.00  0.00    -0.272 N 
ATOM      7  C   UNK d   1      -2.008  19.031 -10.307  0.00  0.00     0.052 A 
ATOM      8  C   UNK d   1      -4.188  19.281 -11.895  0.00  0.00     0.121 A 
ATOM      9  C   UNK d   1      -3.233  17.739 -13.418  0.00  0.00     0.255 A 
ATOM     10  C   UNK d   1      -4.145  20.006 -10.728  0.00  0.00     0.027 A 
ATOM     11 Br   UNK d   1      -5.594  21.175 -10.231  0.00  0.00    -0.050 Br
ATOM     12  C   UNK d   1      -3.035  19.871  -9.934  0.00  0.00     0.024 A 
ATOM     13  C   UNK d   1      -2.190  16.905 -13.768  0.00  0.00     0.104 A 
ATOM     14  O   UNK d   1      -4.265  17.884 -14.130  0.00  0.00    -0.268 OA
ENDBRANCH   2   3
ENDBRANCH   1   2
BRANCH   1  15
ATOM     15  C   UNK d   1       1.951  14.707 -12.332  0.00  0.00     0.277 C 
ATOM     16  O   UNK d   1       2.935  15.230 -12.928  0.00  0.00    -0.263 OA
BRANCH  15  17
ATOM     17  C   UNK d   1       2.037  13.340 -11.752  0.00  0.00     0.245 C 
BRANCH  17  18
ATOM     18  N   UNK d   1       1.861  12.310 -12.776  0.00  0.00    -0.278 N 
ATOM     19  C   UNK d   1       2.881  11.573 -13.446  0.00  0.00     0.232 C 
ATOM     20  O   UNK d   1       4.101  11.551 -13.146  0.00  0.00    -0.273 OA
ATOM     21  C   UNK d   1       2.247  10.833 -14.562  0.00  0.00     0.091 C 
ATOM     22  C   UNK d   1       0.876  10.581 -13.979  0.00  0.00     0.091 C 
ATOM     23  C   UNK d   1       2.972   9.625 -14.996  0.00  0.00     0.015 C 
ATOM     24  C   UNK d   1       0.869   9.471 -12.946  0.00  0.00     0.015 C 
ATOM     25  C   UNK d   1       0.618  11.869 -13.295  0.00  0.00     0.232 C 
ATOM     26  C   UNK d   1       2.183   8.741 -12.855  0.00  0.00     0.001 C 
ATOM     27  C   UNK d   1       2.701   8.386 -14.220  0.00  0.00     0.001 C 
ATOM     28  O   UNK d   1      -0.490  12.480 -13.181  0.00  0.00    -0.273 OA
ENDBRANCH  17  18
ENDBRANCH  15  17
ENDBRANCH   1  15
TORSDOF 5
ENDMDL
