/Users/jonathanwahrer/Desktop/Msc/3_Semester/Drug_Design_Praktikum/waehrer_HTS_screening/HTS_experiment/out/docking_results/vina_output/6q9y/1576_docked.pdbqt
 OpenBabel03222220153D

 30 33  0  0  0  0  0  0  0  0999 V2000
    1.5690   10.7660  -13.8860 N   0  0  0  0  0  0  0  0  0  0  0  0
    2.2000   10.5690  -15.1740 C   0  0  0  0  0  2  0  0  0  0  0  0
    2.4260    9.0730  -15.3770 C   0  0  0  0  0  2  0  0  0  0  0  0
    2.8760    8.4790  -14.1290 N   0  0  0  0  0  0  0  0  0  0  0  0
    2.0410    8.6200  -12.9590 C   0  0  0  0  0  2  0  0  0  0  0  0
    0.9260    9.5820  -13.2940 C   0  0  0  0  0  2  0  0  0  0  0  0
    4.1060    7.7700  -14.0390 C   0  0  0  0  0  0  0  0  0  0  0  0
    4.8130    7.6600  -15.0890 O   0  0  0  0  0  0  0  0  0  0  0  0
    4.6110    7.1530  -12.8070 C   0  0  0  0  0  2  0  0  0  0  0  0
    5.0620    5.7740  -12.9890 N   0  0  0  0  0  0  0  0  0  0  0  0
    6.2580    5.3200  -13.3040 N   0  0  0  0  0  0  0  0  0  0  0  0
    6.3040    3.9880  -13.3830 C   0  0  0  0  0  0  0  0  0  0  0  0
    5.0280    3.5400  -13.0940 C   0  0  0  0  0  3  0  0  0  0  0  0
    4.2770    4.6690  -12.8530 C   0  0  0  0  0  0  0  0  0  0  0  0
    2.8420    4.6690  -12.5030 C   0  0  0  0  0  1  0  0  0  0  0  0
    7.4800    3.1610  -13.7110 C   0  0  0  0  0  0  0  0  0  0  0  0
    7.3870    2.2450  -14.5510 O   0  0  0  0  0  0  0  0  0  0  0  0
    8.7040    3.4280  -13.0600 N   0  0  0  0  0  0  0  0  0  0  0  0
    8.8850    4.4650  -12.0840 C   0  0  0  0  0  2  0  0  0  0  0  0
    9.8810    2.6140  -13.3770 C   0  0  0  0  0  2  0  0  0  0  0  0
   10.3080    4.3000  -11.5370 C   0  0  0  0  0  2  0  0  0  0  0  0
   10.5240    3.0140  -11.0940 O   0  0  0  0  0  0  0  0  0  0  0  0
   10.4140    2.0560  -12.0740 C   0  0  0  0  0  2  0  0  0  0  0  0
    1.5230   11.9650  -13.1720 C   0  0  0  0  0  0  0  0  0  0  0  0
    2.5780   12.4950  -12.4610 C   0  0  0  0  0  0  0  0  0  0  0  0
    4.0760   11.6350  -12.4300 Cl  0  0  0  0  0  0  0  0  0  0  0  0
    2.4920   13.6860  -11.7690 C   0  0  0  0  0  3  0  0  0  0  0  0
    1.3260   14.3870  -11.7720 C   0  0  0  0  0  3  0  0  0  0  0  0
    0.2500   13.8990  -12.4650 C   0  0  0  0  0  3  0  0  0  0  0  0
    0.3440   12.7060  -13.1550 C   0  0  0  0  0  3  0  0  0  0  0  0
  1  6  1  0  0  0  0
  1 24  1  0  0  0  0
  2  1  1  0  0  0  0
  3  2  1  0  0  0  0
  3  4  1  0  0  0  0
  4  7  1  0  0  0  0
  4  5  1  0  0  0  0
  6  5  1  0  0  0  0
  7  9  1  0  0  0  0
  8  7  2  0  0  0  0
 10 14  1  0  0  0  0
 10  9  1  0  0  0  0
 11 10  1  0  0  0  0
 12 11  2  0  0  0  0
 12 13  1  0  0  0  0
 13 14  2  0  0  0  0
 14 15  1  0  0  0  0
 16 12  1  0  0  0  0
 16 18  1  0  0  0  0
 17 16  2  0  0  0  0
 18 19  1  0  0  0  0
 19 21  1  0  0  0  0
 20 18  1  0  0  0  0
 20 23  1  0  0  0  0
 21 22  1  0  0  0  0
 23 22  1  0  0  0  0
 24 30  2  0  0  0  0
 24 25  1  0  0  0  0
 25 26  1  0  0  0  0
 25 27  2  0  0  0  0
 28 27  1  0  0  0  0
 29 28  2  0  0  0  0
 30 29  1  0  0  0  0
M  END
>  <Pose>
1

>  <Score>
-7.631

$$$$
