MODEL 1
REMARK VINA RESULT:    -7.631      0.000      0.000
REMARK INTER + INTRA:          -9.907
REMARK INTER:                  -9.415
REMARK INTRA:                  -0.492
REMARK UNBOUND:                -0.492
REMARK  4 active torsions:
REMARK  status: ('A' for Active; 'I' for Inactive)
REMARK    1  A    between atoms: C_3  and  N_8 
REMARK       I    between atoms: N_11  and  C_14 
REMARK    2  A    between atoms: C_14  and  C_16 
REMARK    3  A    between atoms: C_16  and  N_17 
REMARK    4  A    between atoms: C_19  and  C_23 
REMARK       I    between atoms: C_23  and  N_25 
ROOT
ATOM      1  N   UNK d   1       1.569  10.766 -13.886  0.00  0.00    -0.376 N 
ATOM      2  C   UNK d   1       2.200  10.569 -15.174  0.00  0.00     0.143 C 
ATOM      3  C   UNK d   1       2.426   9.073 -15.377  0.00  0.00     0.145 C 
ATOM      4  N   UNK d   1       2.876   8.479 -14.129  0.00  0.00    -0.348 N 
ATOM      5  C   UNK d   1       2.041   8.620 -12.959  0.00  0.00     0.145 C 
ATOM      6  C   UNK d   1       0.926   9.582 -13.294  0.00  0.00     0.143 C 
ATOM      7  C   UNK d   1       4.106   7.770 -14.039  0.00  0.00     0.239 C 
ATOM      8  O   UNK d   1       4.813   7.660 -15.089  0.00  0.00    -0.271 OA
ENDROOT
BRANCH   7   9
ATOM      9  C   UNK d   1       4.611   7.153 -12.807  0.00  0.00     0.254 C 
BRANCH   9  10
ATOM     10  N   UNK d   1       5.062   5.774 -12.989  0.00  0.00    -0.265 N 
ATOM     11  N   UNK d   1       6.258   5.320 -13.304  0.00  0.00    -0.167 NA
ATOM     12  C   UNK d   1       6.304   3.988 -13.383  0.00  0.00     0.146 A 
ATOM     13  C   UNK d   1       5.028   3.540 -13.094  0.00  0.00     0.065 A 
ATOM     14  C   UNK d   1       4.277   4.669 -12.853  0.00  0.00     0.029 A 
ATOM     15  C   UNK d   1       2.842   4.669 -12.503  0.00  0.00     0.070 C 
BRANCH  12  16
ATOM     16  C   UNK d   1       7.480   3.161 -13.711  0.00  0.00     0.274 C 
ATOM     17  O   UNK d   1       7.387   2.245 -14.551  0.00  0.00    -0.266 OA
ATOM     18  N   UNK d   1       8.704   3.428 -13.060  0.00  0.00    -0.343 N 
ATOM     19  C   UNK d   1       8.885   4.465 -12.084  0.00  0.00     0.152 C 
ATOM     20  C   UNK d   1       9.881   2.614 -13.377  0.00  0.00     0.152 C 
ATOM     21  C   UNK d   1      10.308   4.300 -11.537  0.00  0.00     0.187 C 
ATOM     22  O   UNK d   1      10.524   3.014 -11.094  0.00  0.00    -0.388 OA
ATOM     23  C   UNK d   1      10.414   2.056 -12.074  0.00  0.00     0.187 C 
ENDBRANCH  12  16
ENDBRANCH   9  10
ENDBRANCH   7   9
BRANCH   1  24
ATOM     24  C   UNK d   1       1.523  11.965 -13.172  0.00  0.00     0.052 A 
ATOM     25  C   UNK d   1       2.578  12.495 -12.461  0.00  0.00     0.060 A 
ATOM     26 Cl   UNK d   1       4.076  11.635 -12.430  0.00  0.00    -0.082 Cl
ATOM     27  C   UNK d   1       2.492  13.686 -11.769  0.00  0.00     0.026 A 
ATOM     28  C   UNK d   1       1.326  14.387 -11.772  0.00  0.00     0.002 A 
ATOM     29  C   UNK d   1       0.250  13.899 -12.465  0.00  0.00     0.002 A 
ATOM     30  C   UNK d   1       0.344  12.706 -13.155  0.00  0.00     0.031 A 
ENDBRANCH   1  24
TORSDOF 4
ENDMDL
