MODEL 1
REMARK VINA RESULT:    -9.560      0.000      0.000
REMARK INTER + INTRA:         -12.566
REMARK INTER:                 -12.075
REMARK INTRA:                  -0.491
REMARK UNBOUND:                -0.491
REMARK  5 active torsions:
REMARK  status: ('A' for Active; 'I' for Inactive)
REMARK    1  A    between atoms: C_7  and  C_11 
REMARK    2  A    between atoms: C_11  and  N_12 
REMARK    3  A    between atoms: C_17  and  C_21 
REMARK    4  A    between atoms: C_21  and  O_22 
REMARK    5  A    between atoms: C_21  and  C_23 
ROOT
ATOM      1  N   UNK d   1       0.367  14.179 -12.475  0.00  0.00    -0.400 N 
ATOM      2  C   UNK d   1      -0.778  13.382 -12.317  0.00  0.00     0.139 C 
ATOM      3  C   UNK d   1      -0.845  12.161 -13.172  0.00  0.00     0.170 C 
ATOM      4  N   UNK d   1       0.478  11.656 -13.512  0.00  0.00    -0.270 N 
ATOM      5  N   UNK d   1       0.742  10.550 -14.206  0.00  0.00    -0.174 NA
ATOM      6  C   UNK d   1       2.065  10.408 -14.321  0.00  0.00     0.085 A 
ATOM      7  C   UNK d   1       2.641  11.471 -13.671  0.00  0.00     0.060 A 
ATOM      8  C   UNK d   1       1.616  12.269 -13.153  0.00  0.00     0.050 A 
ATOM      9  C   UNK d   1       1.624  13.529 -12.369  0.00  0.00     0.176 C 
ENDROOT
BRANCH   1  10
ATOM     10  C   UNK d   1       0.292  15.306 -13.307  0.00  0.00     0.177 C 
BRANCH  10  11
ATOM     11  C   UNK d   1      -0.759  16.284 -12.993  0.00  0.00     0.059 A 
ATOM     12  N   UNK d   1      -0.770  17.056 -11.892  0.00  0.00    -0.233 NA
ATOM     13  C   UNK d   1      -1.752  17.941 -11.637  0.00  0.00     0.137 A 
ATOM     14  N   UNK d   1      -2.795  18.120 -12.463  0.00  0.00    -0.272 N 
ATOM     15  C   UNK d   1      -1.644  18.684 -10.457  0.00  0.00     0.053 A 
ATOM     16  C   UNK d   1      -3.780  19.015 -12.199  0.00  0.00     0.125 A 
ATOM     17  C   UNK d   1      -2.838  17.372 -13.584  0.00  0.00     0.255 A 
ATOM     18  C   UNK d   1      -3.679  19.748 -11.038  0.00  0.00     0.050 A 
ATOM     19 Cl   UNK d   1      -4.953  20.908 -10.692  0.00  0.00    -0.083 Cl
ATOM     20  C   UNK d   1      -2.625  19.597 -10.161  0.00  0.00     0.029 A 
ATOM     21  C   UNK d   1      -1.834  16.467 -13.845  0.00  0.00     0.103 A 
ATOM     22  O   UNK d   1      -3.806  17.508 -14.394  0.00  0.00    -0.268 OA
ENDBRANCH  10  11
ENDBRANCH   1  10
BRANCH   6  23
ATOM     23  C   UNK d   1       2.775   9.297 -15.028  0.00  0.00     0.171 C 
BRANCH  23  24
ATOM     24  O   UNK d   1       2.666   9.530 -16.408  0.00  0.00    -0.389 OA
ATOM     25  H   UNK d   1       2.906  10.477 -16.625  0.00  0.00     0.210 HD
ENDBRANCH  23  24
BRANCH  23  26
ATOM     26  C   UNK d   1       4.269   9.350 -14.716  0.00  0.00     0.034 C 
ATOM     27  C   UNK d   1       4.655   8.062 -14.005  0.00  0.00     0.008 C 
ENDBRANCH  23  26
ENDBRANCH   6  23
TORSDOF 5
ENDMDL
