MODEL 1
REMARK VINA RESULT:    -7.097      0.000      0.000
REMARK INTER + INTRA:          -8.789
REMARK INTER:                  -8.341
REMARK INTRA:                  -0.448
REMARK UNBOUND:                -0.448
REMARK  3 active torsions:
REMARK  status: ('A' for Active; 'I' for Inactive)
REMARK    1  A    between atoms: C_5  and  C_8 
REMARK       I    between atoms: C_8  and  N_10 
REMARK    2  A    between atoms: C_18  and  C_22 
REMARK    3  A    between atoms: C_22  and  C_23 
ROOT
ATOM      1  C   UNK d   1       4.898   5.724 -13.034  0.00  0.00     0.187 C 
ATOM      2  O   UNK d   1       4.634   4.586 -12.411  0.00  0.00    -0.171 OA
ATOM      3  N   UNK d   1       3.778   6.474 -13.430  0.00  0.00    -0.355 N 
ATOM      4  C   UNK d   1       3.835   7.706 -14.133  0.00  0.00     0.160 C 
ATOM      5  C   UNK d   1       2.413   8.091 -14.576  0.00  0.00     0.197 C 
ATOM      6  N   UNK d   1       1.640   8.172 -13.363  0.00  0.00    -0.334 N 
ATOM      7  C   UNK d   1       1.526   6.989 -12.578  0.00  0.00     0.147 C 
ATOM      8  C   UNK d   1       2.478   5.914 -13.060  0.00  0.00     0.145 C 
ATOM      9  C   UNK d   1       1.027   9.375 -12.976  0.00  0.00     0.243 C 
ATOM     10  O   UNK d   1       0.079   9.335 -12.171  0.00  0.00    -0.271 OA
ATOM     11  C   UNK d   1       1.529  10.646 -13.537  0.00  0.00     0.182 C 
ATOM     12  N   UNK d   1       1.671  10.449 -14.949  0.00  0.00    -0.346 N 
ATOM     13  C   UNK d   1       2.386   9.307 -15.387  0.00  0.00     0.243 C 
ATOM     14  O   UNK d   1       3.019   9.300 -16.489  0.00  0.00    -0.271 OA
ATOM     15  H   UNK d   1       1.269  11.113 -15.656  0.00  0.00     0.163 HD
ENDROOT
BRANCH   1  16
ATOM     16  C   UNK d   1       6.308   5.956 -13.177  0.00  0.00     0.018 A 
ATOM     17  C   UNK d   1       6.977   7.149 -13.056  0.00  0.00     0.017 A 
ATOM     18  C   UNK d   1       8.352   7.300 -13.245  0.00  0.00     0.025 A 
ATOM     19  C   UNK d   1       9.106   6.219 -13.568  0.00  0.00     0.034 A 
ATOM     20 Cl   UNK d   1      10.852   6.369 -13.816  0.00  0.00    -0.084 Cl
ATOM     21  C   UNK d   1       8.500   4.997 -13.703  0.00  0.00     0.025 A 
ATOM     22  C   UNK d   1       7.140   4.872 -13.512  0.00  0.00     0.017 A 
ENDBRANCH   1  16
BRANCH  11  23
ATOM     23  C   UNK d   1       0.741  11.835 -13.142  0.00  0.00     0.095 C 
BRANCH  23  24
ATOM     24  C   UNK d   1       1.582  12.768 -12.374  0.00  0.00     0.053 A 
ATOM     25  N   UNK d   1       1.311  14.020 -11.998  0.00  0.00    -0.247 NA
ATOM     26  C   UNK d   1       2.374  14.520 -11.301  0.00  0.00     0.207 A 
ATOM     27  N   UNK d   1       3.321  13.582 -11.236  0.00  0.00    -0.359 N 
ATOM     28  C   UNK d   1       2.862  12.506 -11.883  0.00  0.00     0.116 A 
ATOM     29  H   UNK d   1       4.232  13.666 -10.778  0.00  0.00     0.166 HD
ENDBRANCH  23  24
ENDBRANCH  11  23
TORSDOF 3
ENDMDL
