MODEL 1
REMARK VINA RESULT:    -8.499      0.000      0.000
REMARK INTER + INTRA:         -10.014
REMARK INTER:                  -9.990
REMARK INTRA:                  -0.024
REMARK UNBOUND:                -0.024
REMARK  3 active torsions:
REMARK  status: ('A' for Active; 'I' for Inactive)
REMARK    1  A    between atoms: C_3  and  N_15 
REMARK    2  A    between atoms: N_6  and  C_9 
REMARK    3  A    between atoms: N_18  and  C_21 
ROOT
ATOM      1 Cl   UNK d   1      -2.421   6.024 -15.033  0.00  0.00    -0.076 Cl
ATOM      2  C   UNK d   1      -2.821   7.614 -14.423  0.00  0.00     0.131 A 
ATOM      3  C   UNK d   1      -1.880   8.359 -13.771  0.00  0.00     0.077 A 
ATOM      4  C   UNK d   1      -2.317   9.606 -13.315  0.00  0.00     0.170 A 
ATOM      5  N   UNK d   1      -3.580  10.010 -13.522  0.00  0.00    -0.174 NA
ATOM      6  N   UNK d   1      -4.500   9.310 -14.146  0.00  0.00    -0.197 N 
ATOM      7  C   UNK d   1      -4.126   8.107 -14.601  0.00  0.00     0.292 A 
ATOM      8  O   UNK d   1      -4.934   7.362 -15.212  0.00  0.00    -0.264 OA
ENDROOT
BRANCH   3   9
ATOM      9  N   UNK d   1      -0.544   7.934 -13.577  0.00  0.00    -0.375 N 
ATOM     10  C   UNK d   1      -0.064   7.395 -12.315  0.00  0.00     0.143 C 
ATOM     11  C   UNK d   1       1.005   8.268 -11.709  0.00  0.00     0.146 C 
ATOM     12  N   UNK d   1       1.852   8.701 -12.792  0.00  0.00    -0.341 N 
ATOM     13  C   UNK d   1       1.878   7.902 -13.990  0.00  0.00     0.146 C 
ATOM     14  C   UNK d   1       0.473   8.024 -14.619  0.00  0.00     0.143 C 
BRANCH  12  15
ATOM     15  C   UNK d   1       2.638   9.874 -12.686  0.00  0.00     0.270 A 
ATOM     16  N   UNK d   1       3.829  10.131 -13.299  0.00  0.00    -0.103 NA
ATOM     17  N   UNK d   1       4.247  11.332 -12.951  0.00  0.00    -0.126 NA
ATOM     18  C   UNK d   1       3.347  11.852 -12.126  0.00  0.00     0.167 A 
ATOM     19  O   UNK d   1       2.398  10.965 -11.983  0.00  0.00    -0.260 OA
ATOM     20  C   UNK d   1       3.352  13.189 -11.450  0.00  0.00     0.102 C 
ENDBRANCH  12  15
ENDBRANCH   3   9
BRANCH   6  21
ATOM     21  C   UNK d   1      -5.820   9.814 -14.324  0.00  0.00     0.062 A 
ATOM     22  C   UNK d   1      -6.596   9.502 -15.422  0.00  0.00     0.032 A 
ATOM     23  C   UNK d   1      -7.873   9.996 -15.584  0.00  0.00     0.002 A 
ATOM     24  C   UNK d   1      -8.427  10.833 -14.637  0.00  0.00     0.000 A 
ATOM     25  C   UNK d   1      -7.658  11.148 -13.537  0.00  0.00     0.002 A 
ATOM     26  C   UNK d   1      -6.378  10.651 -13.379  0.00  0.00     0.032 A 
ENDBRANCH   6  21
TORSDOF 3
ENDMDL
