/Users/jonathanwahrer/Desktop/Msc/3_Semester/Drug_Design_Praktikum/waehrer_HTS_screening/HTS_experiment/out/docking_results/vina_output/6q9y/1594_docked.pdbqt
 OpenBabel03222220153D

 27 30  0  0  0  0  0  0  0  0999 V2000
    1.1540   14.7360  -11.7560 C   0  0  0  0  0  0  0  0  0  0  0  0
    1.2530   14.7730  -10.4750 O   0  0  0  0  0  0  0  0  0  0  0  0
    0.7810   15.9100  -12.3810 N   0  0  0  0  0  0  0  0  0  0  0  0
    0.6290   16.0490  -13.8090 C   0  0  0  0  0  2  0  0  0  0  0  0
   -0.8260   16.2410  -14.1830 C   0  0  0  0  0  2  0  0  0  0  0  0
   -1.5010   17.0870  -13.1410 C   0  0  0  0  0  0  0  0  0  0  0  0
   -0.9170   17.5050  -11.9760 C   0  0  0  0  0  0  0  0  0  0  0  0
   -1.8660   18.2360  -11.3370 N   0  0  0  0  0  0  0  0  0  0  0  0
   -2.9750   18.2810  -12.0400 N   0  0  0  0  0  0  0  0  0  0  0  0
   -2.8120   17.5860  -13.1730 C   0  0  0  0  0  0  0  0  0  0  0  0
   -3.6530   17.3960  -14.1100 O   0  0  0  0  0  0  0  0  0  0  0  0
    0.4880   17.1500  -11.6220 C   0  0  0  0  0  2  0  0  0  0  0  0
   -1.6870   18.6830  -10.4060 H   0  0  0  0  0  0  0  0  0  0  0  0
    1.4430   13.4660  -12.4010 C   0  0  0  0  0  0  0  0  0  0  0  0
    0.5920   12.5850  -12.9280 N   0  0  0  0  0  0  0  0  0  0  0  0
    1.2820   11.5450  -13.4230 C   0  0  0  0  0  0  0  0  0  0  0  0
    2.5860   11.7560  -13.2140 N   0  0  0  0  0  0  0  0  0  0  0  0
    0.7970   10.3930  -14.0660 C   0  0  0  0  0  3  0  0  0  0  0  0
    3.4920   10.8290  -13.6340 C   0  0  0  0  0  3  0  0  0  0  0  0
    2.7270   12.9310  -12.5860 C   0  0  0  0  0  3  0  0  0  0  0  0
    3.0440    9.6910  -14.2660 C   0  0  0  0  0  0  0  0  0  0  0  0
    4.1720    8.4700  -14.8240 Cl  0  0  0  0  0  0  0  0  0  0  0  0
    1.6960    9.4640  -14.4870 C   0  0  0  0  0  3  0  0  0  0  0  0
   -4.2300   18.9660  -11.6990 C   0  0  0  0  0  2  0  0  0  0  0  0
   -4.0890   19.7280  -10.4020 C   0  0  0  0  0  2  0  0  0  0  0  0
   -3.0990   20.7010  -10.4670 O   0  0  0  0  0  0  0  0  0  0  0  0
   -2.8030   20.8740  -11.4110 H   0  0  0  0  0  0  0  0  0  0  0  0
  1  2  2  0  0  0  0
  3  1  1  0  0  0  0
  3 12  1  0  0  0  0
  4  3  1  0  0  0  0
  5  4  1  0  0  0  0
  5  6  1  0  0  0  0
  6  7  2  0  0  0  0
  7 12  1  0  0  0  0
  7  8  1  0  0  0  0
  8 13  1  0  0  0  0
  9 24  1  0  0  0  0
  9  8  1  0  0  0  0
 10  6  1  0  0  0  0
 10  9  1  0  0  0  0
 11 10  2  0  0  0  0
 14  1  1  0  0  0  0
 15 14  1  0  0  0  0
 16 17  1  0  0  0  0
 16 15  2  0  0  0  0
 17 20  1  0  0  0  0
 18 16  1  0  0  0  0
 19 17  1  0  0  0  0
 20 14  2  0  0  0  0
 21 19  2  0  0  0  0
 22 21  1  0  0  0  0
 23 21  1  0  0  0  0
 23 18  2  0  0  0  0
 24 25  1  0  0  0  0
 26 25  1  0  0  0  0
 27 26  1  0  0  0  0
M  END
>  <Pose>
1

>  <Score>
-7.904

$$$$
