MODEL 1
REMARK VINA RESULT:    -7.904      0.000      0.000
REMARK INTER + INTRA:         -10.140
REMARK INTER:                  -9.521
REMARK INTRA:                  -0.619
REMARK UNBOUND:                -0.619
REMARK  4 active torsions:
REMARK  status: ('A' for Active; 'I' for Inactive)
REMARK    1  A    between atoms: C_7  and  C_9 
REMARK       I    between atoms: C_9  and  N_11 
REMARK    2  A    between atoms: N_17  and  C_20 
REMARK    3  A    between atoms: C_20  and  C_21 
REMARK    4  A    between atoms: C_21  and  O_22 
ROOT
ATOM      1  C   UNK d   1       1.154  14.736 -11.756  0.00  0.00     0.274 C 
ATOM      2  O   UNK d   1       1.253  14.773 -10.475  0.00  0.00    -0.266 OA
ATOM      3  N   UNK d   1       0.781  15.910 -12.381  0.00  0.00    -0.341 N 
ATOM      4  C   UNK d   1       0.629  16.049 -13.809  0.00  0.00     0.131 C 
ATOM      5  C   UNK d   1      -0.826  16.241 -14.183  0.00  0.00     0.066 C 
ATOM      6  C   UNK d   1      -1.501  17.087 -13.141  0.00  0.00     0.039 A 
ATOM      7  C   UNK d   1      -0.917  17.505 -11.976  0.00  0.00     0.056 A 
ATOM      8  N   UNK d   1      -1.866  18.236 -11.337  0.00  0.00    -0.297 N 
ATOM      9  N   UNK d   1      -2.975  18.281 -12.040  0.00  0.00    -0.255 N 
ATOM     10  C   UNK d   1      -2.812  17.586 -13.173  0.00  0.00     0.270 A 
ATOM     11  O   UNK d   1      -3.653  17.396 -14.110  0.00  0.00    -0.266 OA
ATOM     12  C   UNK d   1       0.488  17.150 -11.622  0.00  0.00     0.185 C 
ATOM     13  H   UNK d   1      -1.687  18.683 -10.406  0.00  0.00     0.187 HD
ENDROOT
BRANCH   1  14
ATOM     14  C   UNK d   1       1.443  13.466 -12.401  0.00  0.00     0.142 A 
ATOM     15  N   UNK d   1       0.592  12.585 -12.928  0.00  0.00    -0.224 NA
ATOM     16  C   UNK d   1       1.282  11.545 -13.423  0.00  0.00     0.134 A 
ATOM     17  N   UNK d   1       2.586  11.756 -13.214  0.00  0.00    -0.313 N 
ATOM     18  C   UNK d   1       0.797  10.393 -14.066  0.00  0.00     0.052 A 
ATOM     19  C   UNK d   1       3.492  10.829 -13.634  0.00  0.00     0.122 A 
ATOM     20  C   UNK d   1       2.727  12.931 -12.586  0.00  0.00     0.135 A 
ATOM     21  C   UNK d   1       3.044   9.691 -14.266  0.00  0.00     0.050 A 
ATOM     22 Cl   UNK d   1       4.172   8.470 -14.824  0.00  0.00    -0.083 Cl
ATOM     23  C   UNK d   1       1.696   9.464 -14.487  0.00  0.00     0.029 A 
ENDBRANCH   1  14
BRANCH   9  24
ATOM     24  C   UNK d   1      -4.230  18.966 -11.699  0.00  0.00     0.178 C 
BRANCH  24  25
ATOM     25  C   UNK d   1      -4.089  19.728 -10.402  0.00  0.00     0.186 C 
BRANCH  25  26
ATOM     26  O   UNK d   1      -3.099  20.701 -10.467  0.00  0.00    -0.399 OA
ATOM     27  H   UNK d   1      -2.803  20.874 -11.411  0.00  0.00     0.209 HD
ENDBRANCH  25  26
ENDBRANCH  24  25
ENDBRANCH   9  24
TORSDOF 4
ENDMDL
