MODEL 1
REMARK VINA RESULT:    -8.747      0.000      0.000
REMARK INTER + INTRA:         -10.833
REMARK INTER:                 -10.281
REMARK INTRA:                  -0.553
REMARK UNBOUND:                -0.553
REMARK  3 active torsions:
REMARK  status: ('A' for Active; 'I' for Inactive)
REMARK    1  A    between atoms: C_4  and  C_8 
REMARK       I    between atoms: C_8  and  N_10 
REMARK    2  A    between atoms: N_10  and  C_11 
REMARK    3  A    between atoms: C_11  and  C_12 
REMARK       I    between atoms: C_12  and  N_14 
ROOT
ATOM      1  C   UNK d   1       0.340   7.691 -13.228  0.00  0.00     0.237 C 
ATOM      2  O   UNK d   1       0.192   7.280 -12.023  0.00  0.00    -0.272 OA
ATOM      3  N   UNK d   1       1.555   8.226 -13.674  0.00  0.00    -0.351 N 
ATOM      4  C   UNK d   1       1.755   8.697 -15.007  0.00  0.00     0.129 C 
ATOM      5  C   UNK d   1       2.654   9.900 -15.070  0.00  0.00     0.068 C 
ATOM      6  C   UNK d   1       2.756  10.684 -13.780  0.00  0.00     0.204 C 
ATOM      7  N   UNK d   1       3.879  11.583 -14.010  0.00  0.00     0.099 N 
ATOM      8  C   UNK d   1       4.079  12.591 -13.041  0.00  0.00     0.277 C 
ATOM      9  C   UNK d   1       2.952  12.914 -12.130  0.00  0.00     0.091 C 
ATOM     10  C   UNK d   1       1.628  12.618 -12.761  0.00  0.00     0.062 A 
ATOM     11  N   UNK d   1       0.451  13.239 -12.690  0.00  0.00    -0.246 NA
ATOM     12  C   UNK d   1      -0.389  12.525 -13.467  0.00  0.00     0.207 A 
ATOM     13  N   UNK d   1       0.259  11.472 -14.013  0.00  0.00    -0.350 N 
ATOM     14  C   UNK d   1       1.549  11.515 -13.572  0.00  0.00     0.074 A 
ATOM     15  C   UNK d   1       3.008   9.830 -12.564  0.00  0.00     0.068 C 
ATOM     16  C   UNK d   1       2.704   8.360 -12.785  0.00  0.00     0.129 C 
ATOM     17  H   UNK d   1       4.714  10.933 -14.078  0.00  0.00     0.317 HD
ATOM     18  H   UNK d   1      -0.158  10.770 -14.647  0.00  0.00     0.166 HD
ENDROOT
BRANCH   1  19
ATOM     19  C   UNK d   1      -0.887   7.546 -14.092  0.00  0.00     0.225 C 
BRANCH  19  20
ATOM     20  N   UNK d   1      -1.827   8.525 -13.811  0.00  0.00    -0.348 N 
ATOM     21  C   UNK d   1      -2.723   9.459 -13.542  0.00  0.00     0.252 C 
ATOM     22  O   UNK d   1      -2.580  10.530 -12.853  0.00  0.00    -0.268 OA
ATOM     23  H   UNK d   1      -0.874   9.208 -13.075  0.00  0.00     0.163 HD
BRANCH  21  24
ATOM     24  C   UNK d   1      -4.114   9.290 -14.094  0.00  0.00     0.033 A 
ATOM     25  C   UNK d   1      -5.106  10.195 -13.823  0.00  0.00     0.036 A 
ATOM     26  C   UNK d   1      -6.391  10.011 -14.309  0.00  0.00     0.011 A 
ATOM     27 Br   UNK d   1      -7.725  11.287 -13.918  0.00  0.00    -0.051 Br
ATOM     28  C   UNK d   1      -6.630   8.892 -15.067  0.00  0.00     0.019 A 
ATOM     29  C   UNK d   1      -5.626   7.981 -15.339  0.00  0.00     0.002 A 
ATOM     30  C   UNK d   1      -4.332   8.174 -14.845  0.00  0.00     0.017 A 
ENDBRANCH  21  24
ENDBRANCH  19  20
ENDBRANCH   1  19
TORSDOF 3
ENDMDL
