MODEL 1
REMARK VINA RESULT:    -7.951      0.000      0.000
REMARK INTER + INTRA:         -10.531
REMARK INTER:                  -9.810
REMARK INTRA:                  -0.721
REMARK UNBOUND:                -0.721
REMARK  4 active torsions:
REMARK  status: ('A' for Active; 'I' for Inactive)
REMARK    1  A    between atoms: C_4  and  C_8 
REMARK    2  A    between atoms: C_8  and  N_9 
REMARK    3  A    between atoms: C_13  and  N_14 
REMARK       I    between atoms: N_17  and  C_20 
REMARK    4  A    between atoms: C_20  and  C_22 
ROOT
ATOM      1  N   UNK d   1       2.786   7.800 -13.811  0.00  0.00    -0.168 N 
ATOM      2  C   UNK d   1       4.114   7.663 -14.006  0.00  0.00     0.167 A 
ATOM      3  C   UNK d   1       4.507   6.541 -13.316  0.00  0.00     0.185 A 
ATOM      4  N   UNK d   1       3.434   6.040 -12.737  0.00  0.00    -0.044 NA
ATOM      5  C   UNK d   1       2.353   6.805 -13.031  0.00  0.00     0.707 A 
ATOM      6  N   UNK d   1       5.824   6.193 -13.364  0.00  0.00    -0.286 N 
ATOM      7  C   UNK d   1       6.717   6.910 -14.056  0.00  0.00     0.330 A 
ATOM      8  O   UNK d   1       7.925   6.545 -14.070  0.00  0.00    -0.246 OA
ATOM      9  N   UNK d   1       6.376   8.008 -14.741  0.00  0.00    -0.273 N 
ATOM     10  C   UNK d   1       5.074   8.380 -14.712  0.00  0.00     0.280 A 
ATOM     11  O   UNK d   1       4.750   9.404 -15.352  0.00  0.00    -0.265 OA
ATOM     12  C   UNK d   1       6.261   5.000 -12.642  0.00  0.00     0.163 C 
ATOM     13  H   UNK d   1       7.105   8.539 -15.269  0.00  0.00     0.173 HD
ENDROOT
BRANCH   5  14
ATOM     14  N   UNK d   1       1.011   6.504 -12.617  0.00  0.00    -0.212 N 
ATOM     15  C   UNK d   1       0.376   7.407 -11.636  0.00  0.00     0.161 C 
ATOM     16  C   UNK d   1      -0.914   7.963 -12.146  0.00  0.00     0.146 C 
ATOM     17  N   UNK d   1      -1.485   7.112 -13.164  0.00  0.00    -0.349 N 
ATOM     18  C   UNK d   1      -1.254   5.688 -13.047  0.00  0.00     0.146 C 
ATOM     19  C   UNK d   1      -2.249   7.661 -14.229  0.00  0.00     0.219 C 
ATOM     20  C   UNK d   1       0.239   5.409 -13.083  0.00  0.00     0.161 C 
ATOM     21  O   UNK d   1      -2.451   8.893 -14.293  0.00  0.00    -0.273 OA
BRANCH  19  22
ATOM     22  C   UNK d   1      -2.824   6.798 -15.288  0.00  0.00     0.098 C 
ATOM     23  C   UNK d   1      -4.301   7.163 -15.415  0.00  0.00     0.014 C 
ENDBRANCH  19  22
ENDBRANCH   5  14
BRANCH   1  24
ATOM     24  C   UNK d   1       2.016   8.836 -14.422  0.00  0.00     0.186 C 
BRANCH  24  25
ATOM     25  C   UNK d   1       1.958  10.121 -13.687  0.00  0.00    -0.038 A 
ATOM     26  C   UNK d   1       0.927  11.003 -13.847  0.00  0.00     0.032 A 
ATOM     27  C   UNK d   1       0.968  12.207 -13.155  0.00  0.00     0.034 A 
ATOM     28 Cl   UNK d   1      -0.379  13.322 -13.379  0.00  0.00    -0.084 Cl
ATOM     29  C   UNK d   1       1.999  12.559 -12.312  0.00  0.00     0.024 A 
ATOM     30  C   UNK d   1       3.036  11.654 -12.162  0.00  0.00     0.002 A 
ATOM     31  C   UNK d   1       3.022  10.463 -12.830  0.00  0.00     0.009 A 
ENDBRANCH  24  25
ENDBRANCH   1  24
TORSDOF 4
ENDMDL
