MODEL 1
REMARK VINA RESULT:    -7.357      0.000      0.000
REMARK INTER + INTRA:          -7.771
REMARK INTER:                  -8.218
REMARK INTRA:                   0.447
REMARK UNBOUND:                 0.447
REMARK  2 active torsions:
REMARK  status: ('A' for Active; 'I' for Inactive)
REMARK    1  A    between atoms: C_3  and  C_13 
REMARK    2  A    between atoms: C_5  and  N_8 
REMARK       I    between atoms: C_13  and  N_15 
ROOT
ATOM      1  C   UNK d   1       2.581  11.177 -13.812  0.00  0.00     0.255 C 
ATOM      2  O   UNK d   1       3.747  10.834 -14.137  0.00  0.00    -0.267 OA
ATOM      3  N   UNK d   1       1.432  10.455 -14.231  0.00  0.00    -0.348 N 
ATOM      4  C   UNK d   1       1.612   9.283 -15.060  0.00  0.00     0.129 C 
ATOM      5  C   UNK d   1       0.419   8.378 -14.809  0.00  0.00     0.061 C 
ATOM      6  C   UNK d   1      -0.046   8.441 -13.370  0.00  0.00     0.119 C 
ATOM      7  N   UNK d   1      -1.023   7.392 -13.192  0.00  0.00    -0.324 N 
ATOM      8  C   UNK d   1      -0.337   6.194 -12.862  0.00  0.00     0.325 C 
ATOM      9  O   UNK d   1      -0.757   4.998 -12.961  0.00  0.00    -0.247 OA
ATOM     10  N   UNK d   1       0.949   6.598 -12.385  0.00  0.00    -0.272 N 
ATOM     11  C   UNK d   1       1.026   8.024 -12.431  0.00  0.00     0.256 C 
ATOM     12  O   UNK d   1       1.848   8.737 -11.792  0.00  0.00    -0.270 OA
ATOM     13  C   UNK d   1       2.038   5.738 -11.916  0.00  0.00     0.164 C 
ATOM     14  C   UNK d   1      -0.579   9.794 -13.003  0.00  0.00     0.061 C 
ATOM     15  C   UNK d   1       0.077  10.817 -13.880  0.00  0.00     0.129 C 
ATOM     16  H   UNK d   1      -2.048   7.518 -13.295  0.00  0.00     0.165 HD
ENDROOT
BRANCH   1  17
ATOM     17  C   UNK d   1       2.474  12.374 -12.972  0.00  0.00     0.056 A 
ATOM     18  C   UNK d   1       3.361  12.585 -11.939  0.00  0.00     0.050 A 
ATOM     19 Cl   UNK d   1       4.627  11.384 -11.651  0.00  0.00    -0.083 Cl
ATOM     20  C   UNK d   1       3.284  13.701 -11.132  0.00  0.00     0.027 A 
ATOM     21  C   UNK d   1       2.281  14.603 -11.399  0.00  0.00     0.033 A 
ATOM     22  C   UNK d   1       1.367  14.433 -12.427  0.00  0.00     0.059 A 
ATOM     23  C   UNK d   1       1.483  13.302 -13.207  0.00  0.00     0.050 A 
BRANCH  22  24
ATOM     24  N   UNK d   1       0.349  15.407 -12.651  0.00  0.00    -0.245 N 
ATOM     25  N   UNK d   1      -0.053  16.367 -11.855  0.00  0.00    -0.180 NA
ATOM     26  C   UNK d   1      -1.052  17.075 -12.459  0.00  0.00     0.140 A 
ATOM     27  C   UNK d   1      -1.278  16.520 -13.698  0.00  0.00     0.040 A 
ATOM     28  C   UNK d   1      -0.369  15.462 -13.786  0.00  0.00     0.120 A 
ENDBRANCH  22  24
ENDBRANCH   1  17
TORSDOF 2
ENDMDL
