MODEL 1
REMARK VINA RESULT:    -8.942      0.000      0.000
REMARK INTER + INTRA:         -12.331
REMARK INTER:                 -11.556
REMARK INTRA:                  -0.775
REMARK UNBOUND:                -0.775
REMARK  5 active torsions:
REMARK  status: ('A' for Active; 'I' for Inactive)
REMARK    1  A    between atoms: C_5  and  C_8 
REMARK    2  A    between atoms: N_9  and  C_24 
REMARK    3  A    between atoms: C_15  and  C_17 
REMARK    4  A    between atoms: C_24  and  C_25 
REMARK    5  A    between atoms: C_25  and  N_26 
ROOT
ATOM      1  C   UNK d   1       2.482   8.159 -12.789  0.00  0.00     0.161 C 
ATOM      2  N   UNK d   1       3.080   9.191 -13.655  0.00  0.00    -0.331 N 
ATOM      3  C   UNK d   1       2.520   9.060 -14.955  0.00  0.00     0.295 C 
ATOM      4  O   UNK d   1       2.989   9.472 -16.017  0.00  0.00    -0.264 OA
ATOM      5  C   UNK d   1       1.246   8.328 -14.809  0.00  0.00     0.250 C 
ATOM      6  O   UNK d   1       0.427   7.993 -15.725  0.00  0.00    -0.282 OA
ATOM      7  C   UNK d   1       1.111   8.057 -13.387  0.00  0.00     0.062 C 
ATOM      8  C   UNK d   1      -0.020   7.753 -12.800  0.00  0.00     0.130 C 
ATOM      9  O   UNK d   1       0.007   7.474 -11.437  0.00  0.00    -0.190 OA
ENDROOT
BRANCH   2  10
ATOM     10  C   UNK d   1       4.051  10.127 -13.148  0.00  0.00     0.155 C 
BRANCH  10  11
ATOM     11  C   UNK d   1       3.704  11.560 -13.290  0.00  0.00     0.255 C 
BRANCH  11  12
ATOM     12  N   UNK d   1       2.803  12.142 -12.367  0.00  0.00    -0.066 N 
ATOM     13  C   UNK d   1       1.431  12.182 -12.827  0.00  0.00     0.261 C 
ATOM     14  C   UNK d   1       0.827  13.566 -12.816  0.00  0.00     0.195 C 
ATOM     15  O   UNK d   1       1.007  14.264 -11.650  0.00  0.00    -0.388 OA
ATOM     16  C   UNK d   1       2.304  14.224 -11.174  0.00  0.00     0.195 C 
ATOM     17  C   UNK d   1       3.185  13.558 -12.188  0.00  0.00     0.261 C 
ATOM     18  H   UNK d   1       2.873  11.747 -11.415  0.00  0.00     0.280 HD
ENDBRANCH  11  12
ENDBRANCH  10  11
ENDBRANCH   2  10
BRANCH   1  19
ATOM     19  C   UNK d   1       3.245   6.922 -12.899  0.00  0.00    -0.030 A 
ATOM     20  C   UNK d   1       4.493   6.865 -13.433  0.00  0.00     0.011 A 
ATOM     21  C   UNK d   1       5.226   5.692 -13.532  0.00  0.00     0.024 A 
ATOM     22  C   UNK d   1       4.684   4.526 -13.078  0.00  0.00     0.034 A 
ATOM     23 Cl   UNK d   1       5.552   3.019 -13.172  0.00  0.00    -0.084 Cl
ATOM     24  C   UNK d   1       3.402   4.550 -12.523  0.00  0.00     0.024 A 
ATOM     25  C   UNK d   1       2.694   5.727 -12.435  0.00  0.00     0.011 A 
ENDBRANCH   1  19
BRANCH   8  26
ATOM     26  C   UNK d   1      -1.327   7.682 -13.445  0.00  0.00     0.001 A 
ATOM     27  C   UNK d   1      -2.031   8.877 -13.537  0.00  0.00     0.016 A 
ATOM     28  C   UNK d   1      -3.251   8.891 -14.152  0.00  0.00     0.024 A 
ATOM     29  C   UNK d   1      -3.800   7.740 -14.683  0.00  0.00     0.034 A 
ATOM     30  C   UNK d   1      -3.098   6.557 -14.589  0.00  0.00     0.024 A 
ATOM     31 Cl   UNK d   1      -5.351   7.806 -15.453  0.00  0.00    -0.084 Cl
ATOM     32  C   UNK d   1      -1.866   6.556 -13.967  0.00  0.00     0.016 A 
ENDBRANCH   8  26
TORSDOF 5
ENDMDL
