/Users/jonathanwahrer/Desktop/Msc/3_Semester/Drug_Design_Praktikum/waehrer_HTS_screening/HTS_experiment/out/docking_results/vina_output/6q9y/1630_docked.pdbqt
 OpenBabel03222220173D

 39 43  0  0  1  0  0  0  0  0999 V2000
    4.1030   12.8570  -13.5550 Cl  0  0  0  0  0  0  0  0  0  0  0  0
    2.7630   11.7000  -13.5210 C   0  0  0  0  0  0  0  0  0  0  0  0
    1.5050   12.1150  -13.1580 C   0  0  0  0  0  0  0  0  0  0  0  0
    0.4520   11.2100  -13.1320 C   0  0  0  0  0  0  0  0  0  0  0  0
    0.5920    9.8870  -13.4540 C   0  0  0  0  0  0  0  0  0  0  0  0
    1.8880    9.4910  -13.8210 C   0  0  0  0  0  3  0  0  0  0  0  0
    2.9390   10.3810  -13.8510 C   0  0  0  0  0  3  0  0  0  0  0  0
   -0.6920    9.2180  -13.3230 C   0  0  1  0  0  0  0  0  0  0  0  0
   -1.0760    8.7240  -14.6420 N   0  0  0  0  0  0  0  0  0  0  0  0
   -0.8080    7.3150  -14.5540 C   0  0  1  0  0  3  0  0  0  0  0  0
   -1.3630    6.9750  -13.1890 C   0  0  2  0  0  3  0  0  0  0  0  0
   -0.7450    8.0810  -12.3620 C   0  0  1  0  0  3  0  0  0  0  0  0
    0.5170    7.5340  -11.9050 C   0  0  0  0  0  0  0  0  0  0  0  0
    1.4810    8.1710  -11.4280 O   0  0  0  0  0  0  0  0  0  0  0  0
    0.5030    6.1240  -12.0830 N   0  0  0  0  0  0  0  0  0  0  0  0
   -0.7530    5.7370  -12.6430 C   0  0  0  0  0  0  0  0  0  0  0  0
   -1.2920    4.6060  -12.6970 O   0  0  0  0  0  0  0  0  0  0  0  0
   -1.6360   10.2770  -12.8940 C   0  0  0  0  0  0  0  0  0  0  0  0
   -2.8760   10.1630  -12.6590 O   0  0  0  0  0  0  0  0  0  0  0  0
   -0.9010   11.4750  -12.7840 N   0  0  0  0  0  0  0  0  0  0  0  0
    1.3020   13.5460  -12.7980 C   0  0  0  0  0  1  0  0  0  0  0  0
   -0.5320    9.2250  -15.3760 H   0  0  0  0  0  0  0  0  0  0  0  0
   -1.3060   12.4050  -12.4930 H   0  0  0  0  0  0  0  0  0  0  0  0
   -1.5020    6.5480  -15.6570 C   0  0  0  0  0  2  0  0  0  0  0  0
   -2.8940    6.2280  -15.1560 C   0  0  0  0  0  2  0  0  0  0  0  0
   -3.8820    7.2500  -15.5830 C   0  0  0  0  0  0  0  0  0  0  0  0
   -4.2880    7.2590  -16.7800 O   0  0  0  0  0  0  0  0  0  0  0  0
   -4.3230    8.1790  -14.6030 N   0  0  0  0  0  0  0  0  0  0  0  0
   -4.4570    7.8420  -13.6350 H   0  0  0  0  0  0  0  0  0  0  0  0
   -4.4920    9.1660  -14.9230 H   0  0  0  0  0  0  0  0  0  0  0  0
    1.5410    5.1580  -11.7730 C   0  0  0  0  0  2  0  0  0  0  0  0
    2.7880    5.4250  -12.5120 C   0  0  0  0  0  0  0  0  0  0  0  0
    3.6880    4.3910  -12.6530 C   0  0  0  0  0  0  0  0  0  0  0  0
    4.8610    4.6490  -13.3490 C   0  0  0  0  0  3  0  0  0  0  0  0
    5.1210    5.8800  -13.8800 C   0  0  0  0  0  3  0  0  0  0  0  0
    4.1980    6.8860  -13.7190 C   0  0  0  0  0  3  0  0  0  0  0  0
    3.0160    6.6930  -13.0380 C   0  0  0  0  0  3  0  0  0  0  0  0
    3.4040    3.1560  -12.1090 O   0  0  0  0  0  0  0  0  0  0  0  0
    4.1600    2.0030  -12.3050 C   0  0  0  0  0  1  0  0  0  0  0  0
  1  2  1  0  0  0  0
  2  3  1  0  0  0  0
  3  4  2  0  0  0  0
  3 21  1  0  0  0  0
  4 20  1  0  0  0  0
  5  4  1  0  0  0  0
  6  5  2  0  0  0  0
  7  6  1  0  0  0  0
  7  2  2  0  0  0  0
  8  5  1  6  0  0  0
  8 18  1  0  0  0  0
  8 12  1  0  0  0  0
  9 10  1  0  0  0  0
  9  8  1  0  0  0  0
 10 24  1  6  0  0  0
 10 11  1  0  0  0  0
 11 16  1  1  0  0  0
 11 12  1  0  0  0  0
 12 13  1  6  0  0  0
 13 14  2  0  0  0  0
 15 13  1  0  0  0  0
 15 31  1  0  0  0  0
 16 15  1  0  0  0  0
 17 16  2  0  0  0  0
 18 20  1  0  0  0  0
 18 19  2  0  0  0  0
 20 23  1  0  0  0  0
 22  9  1  0  0  0  0
 24 25  1  0  0  0  0
 26 25  1  0  0  0  0
 26 28  1  0  0  0  0
 27 26  2  0  0  0  0
 28 29  1  0  0  0  0
 30 28  1  0  0  0  0
 32 31  1  0  0  0  0
 33 32  1  0  0  0  0
 33 38  1  0  0  0  0
 34 33  2  0  0  0  0
 35 36  2  0  0  0  0
 35 34  1  0  0  0  0
 36 37  1  0  0  0  0
 37 32  2  0  0  0  0
 39 38  1  0  0  0  0
M  END
>  <Pose>
1

>  <Score>
-6.925

$$$$
