/Users/jonathanwahrer/Desktop/Msc/3_Semester/Drug_Design_Praktikum/waehrer_HTS_screening/HTS_experiment/out/docking_results/vina_output/6q9y/1631_docked.pdbqt
 OpenBabel03222220173D

 29 32  0  0  1  0  0  0  0  0999 V2000
    0.4410   10.5500  -12.9580 C   0  0  1  0  0  3  0  0  0  0  0  0
    0.4990   11.9750  -13.1200 N   0  0  0  0  0  0  0  0  0  0  0  0
   -0.4210   12.4040  -14.1200 C   0  0  0  0  0  0  0  0  0  0  0  0
   -0.4460   13.5220  -14.7110 O   0  0  0  0  0  0  0  0  0  0  0  0
   -1.3680   11.2950  -14.3600 C   0  0  0  0  0  0  0  0  0  0  0  0
   -2.3120   11.3200  -15.1820 O   0  0  0  0  0  0  0  0  0  0  0  0
   -0.9420   10.2340  -13.4570 C   0  0  0  0  0  0  0  0  0  0  0  0
   -1.6680    9.1710  -13.1810 C   0  0  0  0  0  0  0  0  0  0  0  0
   -1.0930    8.2080  -12.3260 O   0  0  0  0  0  1  0  0  0  0  0  0
    1.4830    9.8170  -13.7200 C   0  0  0  0  0  0  0  0  0  0  0  0
    2.1290    8.7080  -13.1910 C   0  0  0  0  0  3  0  0  0  0  0  0
    3.0980    8.0010  -13.8620 C   0  0  0  0  0  0  0  0  0  0  0  0
    3.8890    6.6050  -13.1650 Cl  0  0  0  0  0  0  0  0  0  0  0  0
    3.4410    8.4230  -15.1280 C   0  0  0  0  0  3  0  0  0  0  0  0
    2.8260    9.5200  -15.6960 C   0  0  0  0  0  3  0  0  0  0  0  0
    1.8590   10.2090  -15.0010 C   0  0  0  0  0  3  0  0  0  0  0  0
   -3.0110    8.9340  -13.6930 C   0  0  0  0  0  0  0  0  0  0  0  0
   -3.2220    7.9190  -14.6370 C   0  0  0  0  0  3  0  0  0  0  0  0
   -4.4850    7.6540  -15.1170 C   0  0  0  0  0  3  0  0  0  0  0  0
   -5.5950    8.3590  -14.7010 C   0  0  0  0  0  3  0  0  0  0  0  0
   -5.4090    9.3590  -13.7730 C   0  0  0  0  0  3  0  0  0  0  0  0
   -4.1280    9.6270  -13.2890 C   0  0  0  0  0  3  0  0  0  0  0  0
    1.3450   12.8460  -12.4010 C   0  0  1  0  0  3  0  0  0  0  0  0
    0.8110   14.0500  -12.0630 N   0  0  0  0  0  0  0  0  0  0  0  0
    1.5070   14.9600  -11.3830 C   0  0  0  0  0  3  0  0  0  0  0  0
   -0.1810   14.2940  -12.3340 H   0  0  0  0  0  0  0  0  0  0  0  0
    2.7980   14.6510  -11.0210 C   0  0  0  0  0  3  0  0  0  0  0  0
    3.3190   13.4230  -11.3730 C   0  0  0  0  0  3  0  0  0  0  0  0
    2.6090   12.5120  -12.0610 N   0  0  0  0  0  0  0  0  0  0  0  0
  1 10  1  6  0  0  0
  2  1  1  0  0  0  0
  3  2  1  0  0  0  0
  4  3  2  0  0  0  0
  5  3  1  0  0  0  0
  5  7  1  0  0  0  0
  6  5  2  0  0  0  0
  7  8  2  0  0  0  0
  7  1  1  0  0  0  0
  8  9  1  0  0  0  0
 10 11  1  0  0  0  0
 12 11  2  0  0  0  0
 12 13  1  0  0  0  0
 14 12  1  0  0  0  0
 15 14  2  0  0  0  0
 15 16  1  0  0  0  0
 16 10  2  0  0  0  0
 17 22  1  0  0  0  0
 17  8  1  0  0  0  0
 18 17  2  0  0  0  0
 19 20  2  0  0  0  0
 19 18  1  0  0  0  0
 20 21  1  0  0  0  0
 21 22  2  0  0  0  0
 23  2  1  1  0  0  0
 23 24  1  0  0  0  0
 23 29  1  0  0  0  0
 24 25  1  0  0  0  0
 25 27  2  0  0  0  0
 26 24  1  0  0  0  0
 28 27  1  0  0  0  0
 29 28  2  0  0  0  0
M  END
>  <Pose>
1

>  <Score>
-7.127

$$$$
