MODEL 1
REMARK VINA RESULT:    -7.127      0.000      0.000
REMARK INTER + INTRA:          -9.106
REMARK INTER:                  -8.377
REMARK INTRA:                  -0.729
REMARK UNBOUND:                -0.729
REMARK  3 active torsions:
REMARK  status: ('A' for Active; 'I' for Inactive)
REMARK    1  A    between atoms: C_4  and  C_8 
REMARK    2  A    between atoms: N_9  and  C_23 
REMARK    3  A    between atoms: C_15  and  C_17 
ROOT
ATOM      1  C   UNK d   1       0.441  10.550 -12.958  0.00  0.00     0.185 C 
ATOM      2  N   UNK d   1       0.499  11.975 -13.120  0.00  0.00    -0.128 N 
ATOM      3  C   UNK d   1      -0.421  12.404 -14.120  0.00  0.00     0.314 C 
ATOM      4  O   UNK d   1      -0.446  13.522 -14.711  0.00  0.00    -0.263 OA
ATOM      5  C   UNK d   1      -1.368  11.295 -14.360  0.00  0.00     0.251 C 
ATOM      6  O   UNK d   1      -2.312  11.320 -15.182  0.00  0.00    -0.282 OA
ATOM      7  C   UNK d   1      -0.942  10.234 -13.457  0.00  0.00     0.063 C 
ATOM      8  C   UNK d   1      -1.668   9.171 -13.181  0.00  0.00     0.130 C 
ATOM      9  O   UNK d   1      -1.093   8.208 -12.326  0.00  0.00    -0.190 OA
ENDROOT
BRANCH   1  10
ATOM     10  C   UNK d   1       1.483   9.817 -13.720  0.00  0.00    -0.028 A 
ATOM     11  C   UNK d   1       2.129   8.708 -13.191  0.00  0.00     0.033 A 
ATOM     12  C   UNK d   1       3.098   8.001 -13.862  0.00  0.00     0.034 A 
ATOM     13 Cl   UNK d   1       3.889   6.605 -13.165  0.00  0.00    -0.084 Cl
ATOM     14  C   UNK d   1       3.441   8.423 -15.128  0.00  0.00     0.024 A 
ATOM     15  C   UNK d   1       2.826   9.520 -15.696  0.00  0.00     0.002 A 
ATOM     16  C   UNK d   1       1.859  10.209 -15.001  0.00  0.00     0.010 A 
ENDBRANCH   1  10
BRANCH   8  17
ATOM     17  C   UNK d   1      -3.011   8.934 -13.693  0.00  0.00     0.001 A 
ATOM     18  C   UNK d   1      -3.222   7.919 -14.637  0.00  0.00     0.014 A 
ATOM     19  C   UNK d   1      -4.485   7.654 -15.117  0.00  0.00     0.001 A 
ATOM     20  C   UNK d   1      -5.595   8.359 -14.701  0.00  0.00     0.000 A 
ATOM     21  C   UNK d   1      -5.409   9.359 -13.773  0.00  0.00     0.001 A 
ATOM     22  C   UNK d   1      -4.128   9.627 -13.289  0.00  0.00     0.014 A 
ENDBRANCH   8  17
BRANCH   2  23
ATOM     23  C   UNK d   1       1.345  12.846 -12.401  0.00  0.00     0.710 A 
ATOM     24  N   UNK d   1       0.811  14.050 -12.063  0.00  0.00    -0.200 N 
ATOM     25  C   UNK d   1       1.507  14.960 -11.383  0.00  0.00     0.107 A 
ATOM     26  H   UNK d   1      -0.181  14.294 -12.334  0.00  0.00     0.183 HD
ATOM     27  C   UNK d   1       2.798  14.651 -11.021  0.00  0.00     0.037 A 
ATOM     28  C   UNK d   1       3.319  13.423 -11.373  0.00  0.00     0.138 A 
ATOM     29  N   UNK d   1       2.609  12.512 -12.061  0.00  0.00    -0.077 NA
ENDBRANCH   2  23
TORSDOF 3
ENDMDL
