MODEL 1
REMARK VINA RESULT:    -7.240      0.000      0.000
REMARK INTER + INTRA:          -8.510
REMARK INTER:                  -8.721
REMARK INTRA:                   0.211
REMARK UNBOUND:                 0.211
REMARK  4 active torsions:
REMARK  status: ('A' for Active; 'I' for Inactive)
REMARK    1  A    between atoms: S_1  and  C_5 
REMARK    2  A    between atoms: C_9  and  O_11 
REMARK    3  A    between atoms: N_13  and  C_16 
REMARK    4  A    between atoms: C_16  and  C_17 
ROOT
ATOM      1  C   UNK d   1       0.356   6.500 -13.901  0.00  0.00     0.249 A 
ATOM      2  N   UNK d   1       0.532   7.624 -14.604  0.00  0.00    -0.223 NA
ATOM      3  C   UNK d   1       1.662   8.324 -14.630  0.00  0.00     0.051 A 
ATOM      4  C   UNK d   1       2.730   7.843 -13.855  0.00  0.00     0.048 A 
ATOM      5  C   UNK d   1       2.547   6.708 -13.148  0.00  0.00     0.175 A 
ATOM      6  N   UNK d   1       1.359   6.039 -13.177  0.00  0.00    -0.194 NA
ATOM      7  C   UNK d   1       3.901   8.721 -13.804  0.00  0.00     0.318 C 
ATOM      8  N   UNK d   1       3.396  10.017 -13.472  0.00  0.00     0.097 N 
ATOM      9  C   UNK d   1       2.871  10.524 -14.817  0.00  0.00     0.279 C 
ATOM     10  C   UNK d   1       1.869   9.585 -15.390  0.00  0.00     0.090 C 
ENDROOT
BRANCH   8  11
ATOM     11  C   UNK d   1       2.124  10.070 -12.665  0.00  0.00     0.319 C 
BRANCH  11  12
ATOM     12  C   UNK d   1       1.995  11.589 -12.521  0.00  0.00     0.068 A 
ATOM     13  C   UNK d   1       0.927  12.322 -12.864  0.00  0.00     0.061 A 
ATOM     14  C   UNK d   1       0.850  13.733 -12.710  0.00  0.00     0.020 A 
ATOM     15 Cl   UNK d   1      -0.467  11.500 -13.479  0.00  0.00    -0.083 Cl
ATOM     16  C   UNK d   1       1.993  14.315 -12.154  0.00  0.00     0.091 A 
ATOM     17  C   UNK d   1      -0.204  14.513 -13.044  0.00  0.00     0.016 A 
ATOM     18  C   UNK d   1       1.977  15.668 -11.982  0.00  0.00     0.038 A 
ATOM     19  O   UNK d   1       3.020  13.617 -11.810  0.00  0.00    -0.274 OA
ATOM     20  C   UNK d   1       0.891  16.502 -12.327  0.00  0.00     0.003 A 
ATOM     21  C   UNK d   1      -0.239  15.868 -12.876  0.00  0.00     0.001 A 
ATOM     22  C   UNK d   1       3.068  12.286 -11.971  0.00  0.00     0.298 A 
ATOM     23  O   UNK d   1       4.108  11.602 -11.631  0.00  0.00    -0.259 OA
ENDBRANCH  11  12
ENDBRANCH   8  11
BRANCH   5  24
ATOM     24  O   UNK d   1       3.604   6.223 -12.392  0.00  0.00    -0.344 OA
ATOM     25  H   UNK d   1       4.590   6.350 -12.641  0.00  0.00     0.219 HD
ENDBRANCH   5  24
BRANCH   1  26
ATOM     26  S   UNK d   1      -1.251   5.749 -13.902  0.00  0.00     0.207 S 
ATOM     27  O   UNK d   1      -1.558   5.103 -12.646  0.00  0.00    -0.220 OA
ATOM     28  O   UNK d   1      -1.269   4.785 -15.050  0.00  0.00    -0.220 OA
ATOM     29  C   UNK d   1      -2.402   7.086 -14.307  0.00  0.00     0.170 C 
ENDBRANCH   1  26
TORSDOF 4
ENDMDL
