MODEL 1
REMARK VINA RESULT:    -7.547      0.000      0.000
REMARK INTER + INTRA:         -10.778
REMARK INTER:                 -10.415
REMARK INTRA:                  -0.362
REMARK UNBOUND:                -0.362
REMARK  7 active torsions:
REMARK  status: ('A' for Active; 'I' for Inactive)
REMARK    1  A    between atoms: S_1  and  C_4 
REMARK    2  A    between atoms: S_1  and  C_26 
REMARK    3  A    between atoms: C_5  and  N_25 
REMARK    4  A    between atoms: C_7  and  N_10 
REMARK    5  A    between atoms: C_13  and  N_16 
REMARK    6  A    between atoms: C_13  and  C_22 
REMARK       I    between atoms: C_22  and  N_24 
REMARK    7  A    between atoms: C_27  and  O_33 
ROOT
ATOM      1  C   UNK d   1       2.852   7.043 -13.186  0.00  0.00     0.128 A 
ATOM      2  C   UNK d   1       3.270   5.822 -12.674  0.00  0.00     0.164 A 
ATOM      3  N   UNK d   1       4.590   5.495 -12.702  0.00  0.00    -0.044 NA
ATOM      4  C   UNK d   1       5.527   6.308 -13.207  0.00  0.00     0.726 A 
ATOM      5  N   UNK d   1       5.130   7.492 -13.705  0.00  0.00    -0.073 NA
ATOM      6  C   UNK d   1       3.837   7.860 -13.700  0.00  0.00     0.164 A 
ENDROOT
BRANCH   4   7
ATOM      7  N   UNK d   1       6.911   5.966 -13.232  0.00  0.00    -0.214 N 
ATOM      8  C   UNK d   1       7.740   6.031 -12.052  0.00  0.00     0.144 C 
ATOM      9  C   UNK d   1       8.463   4.752 -11.733  0.00  0.00     0.072 C 
ATOM     10  C   UNK d   1       8.668   3.885 -12.964  0.00  0.00     0.241 C 
ATOM     11  C   UNK d   1       8.860   4.908 -14.096  0.00  0.00     0.072 C 
ATOM     12  C   UNK d   1       7.557   5.536 -14.459  0.00  0.00     0.144 C 
BRANCH  10  13
ATOM     13  N   UNK d   1       7.608   3.053 -13.282  0.00  0.00     0.107 N 
ATOM     14  C   UNK d   1       6.876   2.362 -12.294  0.00  0.00     0.274 C 
ATOM     15  C   UNK d   1       5.429   2.241 -12.801  0.00  0.00     0.030 C 
ATOM     16  C   UNK d   1       5.454   2.345 -14.302  0.00  0.00     0.003 C 
ATOM     17  C   UNK d   1       6.627   1.622 -14.912  0.00  0.00     0.030 C 
ATOM     18  C   UNK d   1       7.937   2.097 -14.304  0.00  0.00     0.274 C 
ENDBRANCH  10  13
BRANCH  10  19
ATOM     19  C   UNK d   1       9.971   3.197 -12.820  0.00  0.00     0.255 C 
ATOM     20  O   UNK d   1      10.861   3.289 -13.732  0.00  0.00    -0.271 OA
ATOM     21  N   UNK d   1      10.314   2.419 -11.709  0.00  0.00    -0.368 N 
ATOM     22  H   UNK d   1      10.315   1.368 -11.817  0.00  0.00     0.159 HD
ATOM     23  H   UNK d   1      10.582   2.765 -10.766  0.00  0.00     0.159 HD
ENDBRANCH  10  19
ENDBRANCH   4   7
BRANCH   2  24
ATOM     24  N   UNK d   1       2.282   4.972 -12.143  0.00  0.00    -0.382 N 
ATOM     25  H   UNK d   1       2.108   4.856 -11.124  0.00  0.00     0.157 HD
ATOM     26  H   UNK d   1       1.684   4.423 -12.795  0.00  0.00     0.157 HD
ENDBRANCH   2  24
BRANCH   1  27
ATOM     27  S   UNK d   1       1.164   7.509 -13.170  0.00  0.00     0.214 S 
ATOM     28  O   UNK d   1       0.406   6.880 -14.294  0.00  0.00    -0.217 OA
ATOM     29  O   UNK d   1       0.601   7.123 -11.826  0.00  0.00    -0.217 OA
BRANCH  27  30
ATOM     30  C   UNK d   1       1.092   9.273 -13.294  0.00  0.00     0.099 A 
ATOM     31  C   UNK d   1      -0.122   9.904 -13.474  0.00  0.00     0.090 A 
ATOM     32  C   UNK d   1      -0.130  11.280 -13.564  0.00  0.00     0.040 A 
ATOM     33  C   UNK d   1       1.042  12.025 -13.480  0.00  0.00     0.026 A 
ATOM     34  C   UNK d   1       2.234  11.358 -13.300  0.00  0.00     0.035 A 
ATOM     35  C   UNK d   1       2.276   9.982 -13.206  0.00  0.00     0.050 A 
ATOM     36 Cl   UNK d   1       3.735  12.289 -13.190  0.00  0.00    -0.084 Cl
BRANCH  31  37
ATOM     37  O   UNK d   1      -1.252   9.140 -13.553  0.00  0.00    -0.354 OA
ATOM     38  C   UNK d   1      -2.564   9.629 -13.574  0.00  0.00     0.210 C 
ENDBRANCH  31  37
ENDBRANCH  27  30
ENDBRANCH   1  27
TORSDOF 7
ENDMDL
