MODEL 1
REMARK VINA RESULT:    -6.648      0.000      0.000
REMARK INTER + INTRA:          -6.648
REMARK INTER:                  -6.648
REMARK INTRA:                   0.000
REMARK UNBOUND:                 0.000
REMARK  0 active torsions:
REMARK  status: ('A' for Active; 'I' for Inactive)
ROOT
ATOM      1 Cl   UNK d   1       2.977  14.056 -11.098  0.00  0.00    -0.084 Cl
ATOM      2  C   UNK d   1       3.054  12.590 -12.079  0.00  0.00     0.034 A 
ATOM      3  C   UNK d   1       2.130  11.584 -11.947  0.00  0.00     0.034 A 
ATOM      4  C   UNK d   1       2.212  10.428 -12.739  0.00  0.00    -0.006 A 
ATOM      5  C   UNK d   1       3.207  10.266 -13.662  0.00  0.00     0.044 A 
ATOM      6  C   UNK d   1       4.158  11.293 -13.803  0.00  0.00     0.032 A 
ATOM      7  C   UNK d   1       4.048  12.410 -13.012  0.00  0.00     0.026 A 
ATOM      8  N   UNK d   1       3.103   9.031 -14.351  0.00  0.00    -0.321 N 
ATOM      9  C   UNK d   1       1.965   8.372 -13.823  0.00  0.00     0.242 A 
ATOM     10  O   UNK d   1       1.569   7.234 -14.209  0.00  0.00    -0.271 OA
ATOM     11  C   UNK d   1       1.348   9.223 -12.781  0.00  0.00     0.111 A 
ATOM     12  C   UNK d   1       1.418   8.445 -11.485  0.00  0.00     0.132 C 
ATOM     13  C   UNK d   1       0.418   7.335 -11.642  0.00  0.00     0.225 C 
ATOM     14  O   UNK d   1       0.701   6.134 -11.478  0.00  0.00    -0.273 OA
ATOM     15  N   UNK d   1      -0.912   7.729 -12.000  0.00  0.00    -0.311 N 
ATOM     16  C   UNK d   1      -1.108   8.911 -12.765  0.00  0.00     0.133 A 
ATOM     17  N   UNK d   1      -2.222   9.532 -13.240  0.00  0.00    -0.262 N 
ATOM     18  N   UNK d   1      -1.846  10.608 -13.887  0.00  0.00    -0.185 NA
ATOM     19  C   UNK d   1      -0.510  10.741 -13.868  0.00  0.00     0.151 A 
ATOM     20  C   UNK d   1      -0.015   9.648 -13.145  0.00  0.00     0.030 A 
ATOM     21  C   UNK d   1       4.008   8.549 -15.399  0.00  0.00     0.159 C 
ATOM     22  H   UNK d   1      -1.738   7.163 -11.708  0.00  0.00     0.170 HD
ATOM     23  H   UNK d   1      -3.189   9.165 -13.083  0.00  0.00     0.191 HD
ENDROOT
TORSDOF 0
ENDMDL
