/Users/jonathanwahrer/Desktop/Msc/3_Semester/Drug_Design_Praktikum/waehrer_HTS_screening/HTS_experiment/out/docking_results/vina_output/6q9y/1651_docked.pdbqt
 OpenBabel03222220183D

 23 26  0  0  1  0  0  0  0  0999 V2000
    2.9770   14.0560  -11.0980 Cl  0  0  0  0  0  0  0  0  0  0  0  0
    3.0540   12.5900  -12.0790 C   0  0  0  0  0  0  0  0  0  0  0  0
    2.1300   11.5840  -11.9470 C   0  0  0  0  0  3  0  0  0  0  0  0
    2.2120   10.4280  -12.7390 C   0  0  0  0  0  0  0  0  0  0  0  0
    3.2070   10.2660  -13.6620 C   0  0  0  0  0  0  0  0  0  0  0  0
    4.1580   11.2930  -13.8030 C   0  0  0  0  0  3  0  0  0  0  0  0
    4.0480   12.4100  -13.0120 C   0  0  0  0  0  3  0  0  0  0  0  0
    3.1030    9.0310  -14.3510 N   0  0  0  0  0  0  0  0  0  0  0  0
    1.9650    8.3720  -13.8230 C   0  0  0  0  0  0  0  0  0  0  0  0
    1.5690    7.2340  -14.2090 O   0  0  0  0  0  0  0  0  0  0  0  0
    1.3480    9.2230  -12.7810 C   0  0  1  0  0  0  0  0  0  0  0  0
    1.4180    8.4450  -11.4850 C   0  0  0  0  0  2  0  0  0  0  0  0
    0.4180    7.3350  -11.6420 C   0  0  0  0  0  0  0  0  0  0  0  0
    0.7010    6.1340  -11.4780 O   0  0  0  0  0  0  0  0  0  0  0  0
   -0.9120    7.7290  -12.0000 N   0  0  0  0  0  0  0  0  0  0  0  0
   -1.1080    8.9110  -12.7650 C   0  0  0  0  0  0  0  0  0  0  0  0
   -2.2220    9.5320  -13.2400 N   0  0  0  0  0  0  0  0  0  0  0  0
   -1.8460   10.6080  -13.8870 N   0  0  0  0  0  0  0  0  0  0  0  0
   -0.5100   10.7410  -13.8680 C   0  0  0  0  0  3  0  0  0  0  0  0
   -0.0150    9.6480  -13.1450 C   0  0  0  0  0  0  0  0  0  0  0  0
    4.0080    8.5490  -15.3990 C   0  0  0  0  0  1  0  0  0  0  0  0
   -1.7380    7.1630  -11.7080 H   0  0  0  0  0  0  0  0  0  0  0  0
   -3.1890    9.1650  -13.0830 H   0  0  0  0  0  0  0  0  0  0  0  0
  2  3  1  0  0  0  0
  2  1  1  0  0  0  0
  4  3  2  0  0  0  0
  5  4  1  0  0  0  0
  6  5  2  0  0  0  0
  6  7  1  0  0  0  0
  7  2  2  0  0  0  0
  8  9  1  0  0  0  0
  8  5  1  0  0  0  0
  9 11  1  0  0  0  0
 10  9  2  0  0  0  0
 11  4  1  0  0  0  0
 11 12  1  1  0  0  0
 13 12  1  0  0  0  0
 13 14  2  0  0  0  0
 15 22  1  0  0  0  0
 15 13  1  0  0  0  0
 16 15  1  0  0  0  0
 17 23  1  0  0  0  0
 17 16  1  0  0  0  0
 18 19  2  0  0  0  0
 18 17  1  0  0  0  0
 19 20  1  0  0  0  0
 20 11  1  0  0  0  0
 20 16  2  0  0  0  0
 21  8  1  0  0  0  0
M  END
>  <Pose>
1

>  <Score>
-6.648

$$$$
