MODEL 1
REMARK VINA RESULT:    -7.258      0.000      0.000
REMARK INTER + INTRA:          -7.808
REMARK INTER:                  -8.107
REMARK INTRA:                   0.299
REMARK UNBOUND:                 0.299
REMARK  2 active torsions:
REMARK  status: ('A' for Active; 'I' for Inactive)
REMARK    1  A    between atoms: N_15  and  C_20 
REMARK       I    between atoms: C_21  and  N_23 
REMARK    2  A    between atoms: N_26  and  C_29 
ROOT
ATOM      1 Cl   UNK d   1      -4.026   9.858 -13.152  0.00  0.00    -0.084 Cl
ATOM      2  C   UNK d   1      -2.366   9.367 -13.512  0.00  0.00     0.035 A 
ATOM      3  C   UNK d   1      -1.373  10.315 -13.635  0.00  0.00     0.043 A 
ATOM      4  C   UNK d   1      -0.100   9.934 -13.909  0.00  0.00     0.060 A 
ATOM      5  C   UNK d   1       0.216   8.578 -14.070  0.00  0.00     0.045 A 
ATOM      6  C   UNK d   1      -0.790   7.650 -13.943  0.00  0.00     0.032 A 
ATOM      7  C   UNK d   1      -2.098   8.023 -13.662  0.00  0.00     0.026 A 
ATOM      8  N   UNK d   1       1.550   8.170 -14.356  0.00  0.00    -0.363 N 
ATOM      9  C   UNK d   1       2.652   9.020 -13.931  0.00  0.00     0.108 C 
ATOM     10  N   UNK d   1       2.316  10.361 -14.347  0.00  0.00    -0.330 N 
ATOM     11  C   UNK d   1       1.020  10.860 -14.059  0.00  0.00     0.255 C 
ATOM     12  O   UNK d   1       0.770  12.085 -13.921  0.00  0.00    -0.268 OA
ATOM     13  C   UNK d   1       3.895   8.562 -14.618  0.00  0.00     0.074 C 
ATOM     14  C   UNK d   1       4.616   7.457 -13.881  0.00  0.00     0.130 C 
ATOM     15  N   UNK d   1       3.715   6.400 -13.471  0.00  0.00    -0.344 N 
ATOM     16  C   UNK d   1       2.605   6.615 -12.565  0.00  0.00     0.220 C 
ATOM     17  O   UNK d   1       1.837   5.637 -12.421  0.00  0.00    -0.273 OA
ATOM     18  C   UNK d   1       2.235   7.809 -11.786  0.00  0.00     0.107 C 
ATOM     19  C   UNK d   1       2.763   9.061 -12.420  0.00  0.00     0.063 C 
ATOM     20  H   UNK d   1       1.671   7.270 -14.865  0.00  0.00     0.162 HD
ATOM     21  H   UNK d   1       2.979  10.985 -14.849  0.00  0.00     0.165 HD
ENDROOT
BRANCH  15  22
ATOM     22  C   UNK d   1       3.862   5.089 -13.959  0.00  0.00     0.212 C 
ATOM     23  C   UNK d   1       5.022   4.280 -13.663  0.00  0.00     0.171 C 
ATOM     24  O   UNK d   1       4.914   3.068 -14.210  0.00  0.00    -0.175 OA
ATOM     25  N   UNK d   1       6.161   4.559 -12.942  0.00  0.00    -0.359 N 
ATOM     26  C   UNK d   1       7.194   3.499 -12.810  0.00  0.00     0.144 C 
ATOM     27  C   UNK d   1       6.497   5.771 -12.305  0.00  0.00     0.144 C 
ATOM     28  C   UNK d   1       8.517   4.234 -13.081  0.00  0.00     0.137 C 
ATOM     29  N   UNK d   1       8.304   5.435 -13.817  0.00  0.00    -0.406 N 
ATOM     30  C   UNK d   1       7.615   6.480 -13.122  0.00  0.00     0.137 C 
BRANCH  29  31
ATOM     31  C   UNK d   1       9.387   5.872 -14.631  0.00  0.00     0.071 C 
ATOM     32  C   UNK d   1      10.297   6.874 -13.951  0.00  0.00     0.031 C 
ATOM     33  C   UNK d   1      10.219   4.746 -15.182  0.00  0.00     0.031 C 
ENDBRANCH  29  31
ENDBRANCH  15  22
TORSDOF 2
ENDMDL
