MODEL 1
REMARK VINA RESULT:    -9.781      0.000      0.000
REMARK INTER + INTRA:         -12.776
REMARK INTER:                 -12.640
REMARK INTRA:                  -0.136
REMARK UNBOUND:                -0.136
REMARK  5 active torsions:
REMARK  status: ('A' for Active; 'I' for Inactive)
REMARK    1  A    between atoms: C_5  and  N_8 
REMARK    2  A    between atoms: N_15  and  C_18 
REMARK    3  A    between atoms: C_18  and  C_19 
REMARK       I    between atoms: C_19  and  N_21 
REMARK       I    between atoms: N_24  and  C_27 
REMARK    4  A    between atoms: C_27  and  O_29 
REMARK    5  A    between atoms: O_29  and  C_30 
ROOT
ATOM      1  N   UNK d   1       0.360  15.853 -12.184  0.00  0.00    -0.215 N 
ATOM      2  N   UNK d   1       1.490  16.131 -11.590  0.00  0.00    -0.177 NA
ATOM      3  C   UNK d   1       2.377  15.134 -11.679  0.00  0.00     0.160 A 
ATOM      4  C   UNK d   1       1.763  14.117 -12.397  0.00  0.00     0.099 A 
ATOM      5  C   UNK d   1       0.496  14.609 -12.695  0.00  0.00     0.169 A 
ATOM      6  N   UNK d   1      -0.304  13.796 -13.391  0.00  0.00    -0.223 NA
ATOM      7  C   UNK d   1       0.098  12.567 -13.782  0.00  0.00     0.215 A 
ATOM      8  N   UNK d   1       1.313  12.066 -13.509  0.00  0.00    -0.299 N 
ATOM      9  C   UNK d   1       2.156  12.863 -12.802  0.00  0.00     0.264 A 
ATOM     10  O   UNK d   1       3.304  12.436 -12.522  0.00  0.00    -0.267 OA
ENDROOT
BRANCH   8  11
ATOM     11  C   UNK d   1       1.759  10.739 -13.943  0.00  0.00     0.236 C 
BRANCH  11  12
ATOM     12  C   UNK d   1       1.376   9.685 -12.987  0.00  0.00     0.238 C 
ATOM     13  O   UNK d   1       2.321   9.301 -12.210  0.00  0.00    -0.272 OA
ATOM     14  N   UNK d   1       0.125   9.089 -12.850  0.00  0.00    -0.348 N 
ATOM     15  C   UNK d   1      -0.095   7.999 -11.887  0.00  0.00     0.145 C 
ATOM     16  C   UNK d   1      -1.037   9.505 -13.603  0.00  0.00     0.145 C 
ATOM     17  C   UNK d   1      -0.422   6.783 -12.764  0.00  0.00     0.148 C 
ATOM     18  N   UNK d   1      -1.482   7.101 -13.684  0.00  0.00    -0.325 N 
ATOM     19  C   UNK d   1      -2.081   8.419 -13.585  0.00  0.00     0.148 C 
ATOM     20  C   UNK d   1      -1.907   6.178 -14.664  0.00  0.00     0.362 C 
ATOM     21  O   UNK d   1      -1.288   5.051 -14.726  0.00  0.00    -0.238 OA
BRANCH  20  22
ATOM     22  O   UNK d   1      -2.930   6.362 -15.567  0.00  0.00    -0.304 OA
BRANCH  22  23
ATOM     23  C   UNK d   1      -4.290   6.522 -15.119  0.00  0.00     0.176 C 
ATOM     24  C   UNK d   1      -4.816   7.772 -15.801  0.00  0.00     0.034 C 
ENDBRANCH  22  23
ENDBRANCH  20  22
ENDBRANCH  11  12
ENDBRANCH   8  11
BRANCH   1  25
ATOM     25  C   UNK d   1      -0.782  16.687 -12.295  0.00  0.00     0.060 A 
ATOM     26  C   UNK d   1      -1.625  16.732 -13.375  0.00  0.00     0.033 A 
ATOM     27  C   UNK d   1      -2.693  17.608 -13.391  0.00  0.00     0.026 A 
ATOM     28  C   UNK d   1      -2.975  18.470 -12.356  0.00  0.00     0.034 A 
ATOM     29 Cl   UNK d   1      -4.306  19.582 -12.354  0.00  0.00    -0.084 Cl
ATOM     30  C   UNK d   1      -2.136  18.439 -11.257  0.00  0.00     0.026 A 
ATOM     31  C   UNK d   1      -1.077  17.558 -11.260  0.00  0.00     0.033 A 
ENDBRANCH   1  25
TORSDOF 5
ENDMDL
