/Users/jonathanwahrer/Desktop/Msc/3_Semester/Drug_Design_Praktikum/waehrer_HTS_screening/HTS_experiment/out/docking_results/vina_output/6q9y/1660_docked.pdbqt
 OpenBabel03222220183D

 31 34  0  0  0  0  0  0  0  0999 V2000
    0.3600   15.8530  -12.1840 N   0  0  0  0  0  0  0  0  0  0  0  0
    1.4900   16.1310  -11.5900 N   0  0  0  0  0  0  0  0  0  0  0  0
    2.3770   15.1340  -11.6790 C   0  0  0  0  0  3  0  0  0  0  0  0
    1.7630   14.1170  -12.3970 C   0  0  0  0  0  0  0  0  0  0  0  0
    0.4960   14.6090  -12.6950 C   0  0  0  0  0  0  0  0  0  0  0  0
   -0.3040   13.7960  -13.3910 N   0  0  0  0  0  0  0  0  0  0  0  0
    0.0980   12.5670  -13.7820 C   0  0  0  0  0  3  0  0  0  0  0  0
    1.3130   12.0660  -13.5090 N   0  0  0  0  0  0  0  0  0  0  0  0
    2.1560   12.8630  -12.8020 C   0  0  0  0  0  0  0  0  0  0  0  0
    3.3040   12.4360  -12.5220 O   0  0  0  0  0  0  0  0  0  0  0  0
    1.7590   10.7390  -13.9430 C   0  0  0  0  0  2  0  0  0  0  0  0
    1.3760    9.6850  -12.9870 C   0  0  0  0  0  0  0  0  0  0  0  0
    2.3210    9.3010  -12.2100 O   0  0  0  0  0  0  0  0  0  0  0  0
    0.1250    9.0890  -12.8500 N   0  0  0  0  0  0  0  0  0  0  0  0
   -0.0950    7.9990  -11.8870 C   0  0  0  0  0  2  0  0  0  0  0  0
   -1.0370    9.5050  -13.6030 C   0  0  0  0  0  2  0  0  0  0  0  0
   -0.4220    6.7830  -12.7640 C   0  0  0  0  0  2  0  0  0  0  0  0
   -1.4820    7.1010  -13.6840 N   0  0  0  0  0  0  0  0  0  0  0  0
   -2.0810    8.4190  -13.5850 C   0  0  0  0  0  2  0  0  0  0  0  0
   -1.9070    6.1780  -14.6640 C   0  0  0  0  0  0  0  0  0  0  0  0
   -1.2880    5.0510  -14.7260 O   0  0  0  0  0  0  0  0  0  0  0  0
   -2.9300    6.3620  -15.5670 O   0  0  0  0  0  0  0  0  0  0  0  0
   -4.2900    6.5220  -15.1190 C   0  0  0  0  0  2  0  0  0  0  0  0
   -4.8160    7.7720  -15.8010 C   0  0  0  0  0  1  0  0  0  0  0  0
   -0.7820   16.6870  -12.2950 C   0  0  0  0  0  0  0  0  0  0  0  0
   -1.6250   16.7320  -13.3750 C   0  0  0  0  0  3  0  0  0  0  0  0
   -2.6930   17.6080  -13.3910 C   0  0  0  0  0  3  0  0  0  0  0  0
   -2.9750   18.4700  -12.3560 C   0  0  0  0  0  0  0  0  0  0  0  0
   -4.3060   19.5820  -12.3540 Cl  0  0  0  0  0  0  0  0  0  0  0  0
   -2.1360   18.4390  -11.2570 C   0  0  0  0  0  3  0  0  0  0  0  0
   -1.0770   17.5580  -11.2600 C   0  0  0  0  0  3  0  0  0  0  0  0
  1  2  1  0  0  0  0
  3  2  2  0  0  0  0
  4  3  1  0  0  0  0
  5  4  2  0  0  0  0
  5  1  1  0  0  0  0
  6  5  1  0  0  0  0
  7  8  1  0  0  0  0
  7  6  2  0  0  0  0
  8  9  1  0  0  0  0
  9 10  2  0  0  0  0
  9  4  1  0  0  0  0
 11  8  1  0  0  0  0
 11 12  1  0  0  0  0
 12 14  1  0  0  0  0
 12 13  2  0  0  0  0
 14 15  1  0  0  0  0
 16 19  1  0  0  0  0
 16 14  1  0  0  0  0
 17 15  1  0  0  0  0
 18 19  1  0  0  0  0
 18 17  1  0  0  0  0
 20 18  1  0  0  0  0
 21 20  2  0  0  0  0
 22 23  1  0  0  0  0
 22 20  1  0  0  0  0
 24 23  1  0  0  0  0
 25  1  1  0  0  0  0
 25 31  1  0  0  0  0
 26 25  2  0  0  0  0
 27 26  1  0  0  0  0
 27 28  2  0  0  0  0
 28 29  1  0  0  0  0
 28 30  1  0  0  0  0
 31 30  2  0  0  0  0
M  END
>  <Pose>
1

>  <Score>
-9.781

$$$$
