/Users/jonathanwahrer/Desktop/Msc/3_Semester/Drug_Design_Praktikum/waehrer_HTS_screening/HTS_experiment/out/docking_results/vina_output/6q9y/1666_docked.pdbqt
 OpenBabel03222220183D

 30 34  0  0  1  0  0  0  0  0999 V2000
    0.2120    7.2180  -12.3840 N   0  0  0  0  0  0  0  0  0  0  0  0
    0.0430    5.7900  -12.4420 C   0  0  0  0  0  2  0  0  0  0  0  0
    1.3140    5.0620  -12.0700 C   0  0  0  0  0  2  0  0  0  0  0  0
    2.4370    5.5350  -12.9190 N   0  0  0  0  0  0  0  0  0  0  0  0
    2.6580    6.9400  -12.6070 C   0  0  0  0  0  2  0  0  0  0  0  0
    1.4960    7.5760  -11.8640 C   0  0  0  0  0  2  0  0  0  0  0  0
    3.5660    4.7550  -12.4590 C   0  0  0  0  0  2  0  0  0  0  0  0
    4.6190    4.4310  -13.4310 C   0  0  0  0  0  2  0  0  0  0  0  0
    5.9500    4.8850  -13.2110 N   0  0  0  0  0  0  0  0  0  0  0  0
    6.4750    6.2030  -13.0950 C   0  0  0  0  0  0  0  0  0  0  0  0
    5.9690    7.2220  -13.5870 O   0  0  0  0  0  0  0  0  0  0  0  0
    7.7210    6.1520  -12.2920 C   0  0  1  0  0  3  0  0  0  0  0  0
    8.2190    4.7310  -12.6420 C   0  0  2  0  0  3  0  0  0  0  0  0
    8.7810    6.9740  -12.9340 C   0  0  2  0  0  3  0  0  0  0  0  0
    9.2420    4.9170  -13.6990 C   0  0  1  0  0  3  0  0  0  0  0  0
    7.0410    3.9590  -13.0090 C   0  0  0  0  0  0  0  0  0  0  0  0
    8.8420    6.2730  -14.3030 C   0  0  0  0  0  2  0  0  0  0  0  0
   10.4950    5.3980  -12.9970 C   0  0  0  0  0  2  0  0  0  0  0  0
   10.0910    6.5040  -12.3720 C   0  0  0  0  0  2  0  0  0  0  0  0
    7.0130    2.7080  -13.1220 O   0  0  0  0  0  0  0  0  0  0  0  0
   -0.3840    8.1030  -13.6800 S   0  0  0  0  0  0  0  0  0  0  0  0
    0.3390    7.6370  -14.9370 O   0  0  0  0  0  0  0  0  0  0  0  0
   -1.8320    7.6680  -13.9110 O   0  0  0  0  0  0  0  0  0  0  0  0
   -0.3820    9.8150  -13.5380 C   0  0  0  0  0  0  0  0  0  0  0  0
   -1.5470   10.5020  -13.2990 C   0  0  0  0  0  3  0  0  0  0  0  0
   -1.5060   11.8800  -13.1800 C   0  0  0  0  0  3  0  0  0  0  0  0
   -0.3310   12.6000  -13.2940 C   0  0  0  0  0  0  0  0  0  0  0  0
    0.8360   11.9060  -13.5330 C   0  0  0  0  0  3  0  0  0  0  0  0
   -0.2730   14.4990  -13.1320 Br  0  0  0  0  0  0  0  0  0  0  0  0
    0.7930   10.5210  -13.6530 C   0  0  0  0  0  3  0  0  0  0  0  0
  1  6  1  0  0  0  0
  2  1  1  0  0  0  0
  2  3  1  0  0  0  0
  4  5  1  0  0  0  0
  4  7  1  0  0  0  0
  4  3  1  0  0  0  0
  5  6  1  0  0  0  0
  8  9  1  0  0  0  0
  8  7  1  0  0  0  0
  9 10  1  0  0  0  0
  9 16  1  0  0  0  0
 11 10  2  0  0  0  0
 12 10  1  6  0  0  0
 13 16  1  6  0  0  0
 13 12  1  0  0  0  0
 14 17  1  6  0  0  0
 14 19  1  0  0  0  0
 14 12  1  0  0  0  0
 15 17  1  6  0  0  0
 15 18  1  0  0  0  0
 15 13  1  0  0  0  0
 18 19  1  0  0  0  0
 20 16  2  0  0  0  0
 21 24  1  0  0  0  0
 21  1  1  0  0  0  0
 22 21  2  0  0  0  0
 23 21  2  0  0  0  0
 24 25  1  0  0  0  0
 25 26  2  0  0  0  0
 27 26  1  0  0  0  0
 27 29  1  0  0  0  0
 28 27  2  0  0  0  0
 30 24  2  0  0  0  0
 30 28  1  0  0  0  0
M  END
>  <Pose>
1

>  <Score>
-8.855

$$$$
