MODEL 1
REMARK VINA RESULT:    -8.855      0.000      0.000
REMARK INTER + INTRA:         -12.163
REMARK INTER:                 -11.444
REMARK INTRA:                  -0.719
REMARK UNBOUND:                -0.719
REMARK  5 active torsions:
REMARK  status: ('A' for Active; 'I' for Inactive)
REMARK    1  A    between atoms: S_1  and  N_4 
REMARK    2  A    between atoms: S_1  and  C_24 
REMARK    3  A    between atoms: N_7  and  C_10 
REMARK    4  A    between atoms: C_10  and  C_11 
REMARK    5  A    between atoms: C_11  and  N_12 
ROOT
ATOM      1  N   UNK d   1       0.212   7.218 -12.384  0.00  0.00    -0.303 N 
ATOM      2  C   UNK d   1       0.043   5.790 -12.442  0.00  0.00     0.165 C 
ATOM      3  C   UNK d   1       1.314   5.062 -12.070  0.00  0.00     0.293 C 
ATOM      4  N   UNK d   1       2.437   5.535 -12.919  0.00  0.00     0.093 N 
ATOM      5  C   UNK d   1       2.658   6.940 -12.607  0.00  0.00     0.293 C 
ATOM      6  C   UNK d   1       1.496   7.576 -11.864  0.00  0.00     0.165 C 
ENDROOT
BRANCH   4   7
ATOM      7  C   UNK d   1       3.566   4.755 -12.459  0.00  0.00     0.293 C 
BRANCH   7   8
ATOM      8  C   UNK d   1       4.619   4.431 -13.431  0.00  0.00     0.165 C 
BRANCH   8   9
ATOM      9  N   UNK d   1       5.950   4.885 -13.211  0.00  0.00    -0.286 N 
ATOM     10  C   UNK d   1       6.475   6.203 -13.095  0.00  0.00     0.232 C 
ATOM     11  O   UNK d   1       5.969   7.222 -13.587  0.00  0.00    -0.272 OA
ATOM     12  C   UNK d   1       7.721   6.152 -12.292  0.00  0.00     0.100 C 
ATOM     13  C   UNK d   1       8.219   4.731 -12.642  0.00  0.00     0.100 C 
ATOM     14  C   UNK d   1       8.781   6.974 -12.934  0.00  0.00     0.022 C 
ATOM     15  C   UNK d   1       9.242   4.917 -13.699  0.00  0.00     0.022 C 
ATOM     16  C   UNK d   1       7.041   3.959 -13.009  0.00  0.00     0.232 C 
ATOM     17  C   UNK d   1       8.842   6.273 -14.303  0.00  0.00     0.018 C 
ATOM     18  C   UNK d   1      10.495   5.398 -12.997  0.00  0.00    -0.025 C 
ATOM     19  C   UNK d   1      10.091   6.504 -12.372  0.00  0.00    -0.025 C 
ATOM     20  O   UNK d   1       7.013   2.708 -13.122  0.00  0.00    -0.272 OA
ENDBRANCH   8   9
ENDBRANCH   7   8
ENDBRANCH   4   7
BRANCH   1  21
ATOM     21  S   UNK d   1      -0.384   8.103 -13.680  0.00  0.00     0.260 S 
ATOM     22  O   UNK d   1       0.339   7.637 -14.937  0.00  0.00    -0.200 OA
ATOM     23  O   UNK d   1      -1.832   7.668 -13.911  0.00  0.00    -0.200 OA
BRANCH  21  24
ATOM     24  C   UNK d   1      -0.382   9.815 -13.538  0.00  0.00     0.079 A 
ATOM     25  C   UNK d   1      -1.547  10.502 -13.299  0.00  0.00     0.026 A 
ATOM     26  C   UNK d   1      -1.506  11.880 -13.180  0.00  0.00     0.020 A 
ATOM     27  C   UNK d   1      -0.331  12.600 -13.294  0.00  0.00     0.011 A 
ATOM     28  C   UNK d   1       0.836  11.906 -13.533  0.00  0.00     0.020 A 
ATOM     29 Br   UNK d   1      -0.273  14.499 -13.132  0.00  0.00    -0.051 Br
ATOM     30  C   UNK d   1       0.793  10.521 -13.653  0.00  0.00     0.026 A 
ENDBRANCH  21  24
ENDBRANCH   1  21
TORSDOF 5
ENDMDL
