MODEL 1
REMARK VINA RESULT:    -6.633      0.000      0.000
REMARK INTER + INTRA:          -9.483
REMARK INTER:                  -9.347
REMARK INTRA:                  -0.136
REMARK UNBOUND:                -0.136
REMARK  7 active torsions:
REMARK  status: ('A' for Active; 'I' for Inactive)
REMARK    1  A    between atoms: C_5  and  C_8 
REMARK    2  A    between atoms: C_8  and  C_10 
REMARK    3  A    between atoms: N_12  and  C_17 
REMARK    4  A    between atoms: C_17  and  C_18 
REMARK    5  A    between atoms: C_18  and  N_19 
REMARK    6  A    between atoms: C_27  and  O_32 
REMARK    7  A    between atoms: O_32  and  C_33 
ROOT
ATOM      1  C   UNK d   1       3.515   9.571 -12.576  0.00  0.00     0.167 C 
ATOM      2  C   UNK d   1       2.030   9.811 -12.631  0.00  0.00     0.140 C 
ATOM      3  N   UNK d   1       1.837  11.034 -13.272  0.00  0.00    -0.334 N 
ATOM      4  C   UNK d   1       2.938  11.851 -12.706  0.00  0.00     0.291 C 
ATOM      5  O   UNK d   1       2.923  13.090 -12.474  0.00  0.00    -0.264 OA
ATOM      6  C   UNK d   1       4.051  10.946 -12.469  0.00  0.00     0.230 C 
ATOM      7  O   UNK d   1       5.241  11.293 -12.221  0.00  0.00    -0.286 OA
ATOM      8  C   UNK d   1       1.206   8.635 -12.753  0.00  0.00    -0.031 A 
ATOM      9  C   UNK d   1       0.538   8.247 -13.871  0.00  0.00     0.049 A 
ATOM     10  C   UNK d   1      -0.216   7.084 -13.892  0.00  0.00     0.105 A 
ATOM     11  C   UNK d   1      -0.289   6.297 -12.733  0.00  0.00     0.140 A 
ATOM     12  C   UNK d   1       0.382   6.689 -11.610  0.00  0.00     0.043 A 
ATOM     13  C   UNK d   1       1.122   7.829 -11.592  0.00  0.00     0.012 A 
ATOM     14  O   UNK d   1      -1.027   5.130 -12.699  0.00  0.00    -0.189 OA
ENDROOT
BRANCH   1  15
ATOM     15  C   UNK d   1       4.070   8.874 -13.736  0.00  0.00     0.173 C 
ATOM     16  O   UNK d   1       3.884   9.353 -14.907  0.00  0.00    -0.291 OA
BRANCH  15  17
ATOM     17  C   UNK d   1       4.847   7.643 -13.701  0.00  0.00     0.011 A 
ATOM     18  C   UNK d   1       4.266   6.420 -13.451  0.00  0.00     0.016 A 
ATOM     19  C   UNK d   1       5.085   5.297 -13.405  0.00  0.00     0.020 A 
ATOM     20  C   UNK d   1       6.442   5.340 -13.594  0.00  0.00     0.011 A 
ATOM     21 Br   UNK d   1       7.514   3.740 -13.515  0.00  0.00    -0.051 Br
ATOM     22  C   UNK d   1       7.029   6.562 -13.845  0.00  0.00     0.020 A 
ATOM     23  C   UNK d   1       6.220   7.673 -13.891  0.00  0.00     0.016 A 
ENDBRANCH  15  17
ENDBRANCH   1  15
BRANCH   3  24
ATOM     24  C   UNK d   1       0.920  11.725 -14.125  0.00  0.00     0.154 C 
BRANCH  24  25
ATOM     25  C   UNK d   1       0.607  13.133 -13.787  0.00  0.00     0.255 C 
BRANCH  25  26
ATOM     26  N   UNK d   1      -0.178  13.484 -12.681  0.00  0.00    -0.066 N 
ATOM     27  C   UNK d   1       0.547  14.304 -11.702  0.00  0.00     0.261 C 
ATOM     28  C   UNK d   1       0.966  15.625 -12.252  0.00  0.00     0.195 C 
ATOM     29  O   UNK d   1       0.399  15.815 -13.492  0.00  0.00    -0.388 OA
ATOM     30  C   UNK d   1      -0.992  15.673 -13.351  0.00  0.00     0.195 C 
ATOM     31  C   UNK d   1      -1.371  14.224 -13.132  0.00  0.00     0.261 C 
ATOM     32  H   UNK d   1      -0.530  12.675 -12.174  0.00  0.00     0.280 HD
ENDBRANCH  25  26
ENDBRANCH  24  25
ENDBRANCH   3  24
BRANCH  10  33
ATOM     33  O   UNK d   1      -0.891   6.669 -14.994  0.00  0.00    -0.349 OA
BRANCH  33  34
ATOM     34  C   UNK d   1      -2.259   6.419 -15.026  0.00  0.00     0.171 C 
ATOM     35  C   UNK d   1      -3.109   7.623 -14.664  0.00  0.00     0.034 C 
ENDBRANCH  33  34
ENDBRANCH  10  33
TORSDOF 7
ENDMDL
