/Users/jonathanwahrer/Desktop/Msc/3_Semester/Drug_Design_Praktikum/waehrer_HTS_screening/HTS_experiment/out/docking_results/vina_output/6q9y/1673_docked.pdbqt
 OpenBabel03222220193D

 35 38  0  0  1  0  0  0  0  0999 V2000
    3.5150    9.5710  -12.5760 C   0  0  2  0  0  3  0  0  0  0  0  0
    2.0300    9.8110  -12.6310 C   0  0  1  0  0  3  0  0  0  0  0  0
    1.8370   11.0340  -13.2720 N   0  0  0  0  0  0  0  0  0  0  0  0
    2.9380   11.8510  -12.7060 C   0  0  0  0  0  0  0  0  0  0  0  0
    2.9230   13.0900  -12.4740 O   0  0  0  0  0  0  0  0  0  0  0  0
    4.0510   10.9460  -12.4690 C   0  0  0  0  0  0  0  0  0  0  0  0
    5.2410   11.2930  -12.2210 O   0  0  0  0  0  0  0  0  0  0  0  0
    1.2060    8.6350  -12.7530 C   0  0  0  0  0  0  0  0  0  0  0  0
    0.5380    8.2470  -13.8710 C   0  0  0  0  0  3  0  0  0  0  0  0
   -0.2160    7.0840  -13.8920 C   0  0  0  0  0  0  0  0  0  0  0  0
   -0.2890    6.2970  -12.7330 C   0  0  0  0  0  0  0  0  0  0  0  0
    0.3820    6.6890  -11.6100 C   0  0  0  0  0  3  0  0  0  0  0  0
    1.1220    7.8290  -11.5920 C   0  0  0  0  0  3  0  0  0  0  0  0
   -1.0270    5.1300  -12.6990 O   0  0  0  0  0  1  0  0  0  0  0  0
    4.0700    8.8740  -13.7360 C   0  0  0  0  0  0  0  0  0  0  0  0
    3.8840    9.3530  -14.9070 O   0  0  0  0  0  0  0  0  0  0  0  0
    4.8470    7.6430  -13.7010 C   0  0  0  0  0  0  0  0  0  0  0  0
    4.2660    6.4200  -13.4510 C   0  0  0  0  0  3  0  0  0  0  0  0
    5.0850    5.2970  -13.4050 C   0  0  0  0  0  3  0  0  0  0  0  0
    6.4420    5.3400  -13.5940 C   0  0  0  0  0  0  0  0  0  0  0  0
    7.5140    3.7400  -13.5150 Br  0  0  0  0  0  0  0  0  0  0  0  0
    7.0290    6.5620  -13.8450 C   0  0  0  0  0  3  0  0  0  0  0  0
    6.2200    7.6730  -13.8910 C   0  0  0  0  0  3  0  0  0  0  0  0
    0.9200   11.7250  -14.1250 C   0  0  0  0  0  2  0  0  0  0  0  0
    0.6070   13.1330  -13.7870 C   0  0  0  0  0  2  0  0  0  0  0  0
   -0.1780   13.4840  -12.6810 N   0  0  0  0  0  4  0  0  0  0  0  0
    0.5470   14.3040  -11.7020 C   0  0  0  0  0  2  0  0  0  0  0  0
    0.9660   15.6250  -12.2520 C   0  0  0  0  0  2  0  0  0  0  0  0
    0.3990   15.8150  -13.4920 O   0  0  0  0  0  0  0  0  0  0  0  0
   -0.9920   15.6730  -13.3510 C   0  0  0  0  0  2  0  0  0  0  0  0
   -1.3710   14.2240  -13.1320 C   0  0  0  0  0  2  0  0  0  0  0  0
   -0.5300   12.6750  -12.1740 H   0  0  0  0  0  0  0  0  0  0  0  0
   -0.8910    6.6690  -14.9940 O   0  0  0  0  0  0  0  0  0  0  0  0
   -2.2590    6.4190  -15.0260 C   0  0  0  0  0  2  0  0  0  0  0  0
   -3.1090    7.6230  -14.6640 C   0  0  0  0  0  1  0  0  0  0  0  0
  1 15  1  6  0  0  0
  1  6  1  0  0  0  0
  2  8  1  6  0  0  0
  2  1  1  0  0  0  0
  3  4  1  0  0  0  0
  3  2  1  0  0  0  0
  4  5  2  0  0  0  0
  4  6  1  0  0  0  0
  6  7  2  0  0  0  0
  8 13  1  0  0  0  0
  9  8  2  0  0  0  0
 10  9  1  0  0  0  0
 10 11  2  0  0  0  0
 11 14  1  0  0  0  0
 11 12  1  0  0  0  0
 12 13  2  0  0  0  0
 15 17  1  0  0  0  0
 16 15  2  0  0  0  0
 17 18  1  0  0  0  0
 18 19  2  0  0  0  0
 20 21  1  0  0  0  0
 20 19  1  0  0  0  0
 22 20  2  0  0  0  0
 23 22  1  0  0  0  0
 23 17  2  0  0  0  0
 24 25  1  0  0  0  0
 24  3  1  0  0  0  0
 25 26  1  0  0  0  0
 26 32  1  0  0  0  0
 26 27  1  0  0  0  0
 28 27  1  0  0  0  0
 29 30  1  0  0  0  0
 29 28  1  0  0  0  0
 30 31  1  0  0  0  0
 31 26  1  0  0  0  0
 33 10  1  0  0  0  0
 34 33  1  0  0  0  0
 34 35  1  0  0  0  0
M  END
>  <Pose>
1

>  <Score>
-6.633

$$$$
