MODEL 1
REMARK VINA RESULT:    -9.649      0.000      0.000
REMARK INTER + INTRA:         -11.889
REMARK INTER:                 -11.341
REMARK INTRA:                  -0.548
REMARK UNBOUND:                -0.548
REMARK  3 active torsions:
REMARK  status: ('A' for Active; 'I' for Inactive)
REMARK    1  A    between atoms: C_9  and  C_11 
REMARK       I    between atoms: C_11  and  N_13 
REMARK    2  A    between atoms: N_13  and  C_14 
REMARK    3  A    between atoms: C_14  and  C_15 
ROOT
ATOM      1  C   UNK d   1      -4.430   9.052 -14.651  0.00  0.00     0.254 C 
ATOM      2  O   UNK d   1      -4.637   8.037 -15.343  0.00  0.00    -0.268 OA
ATOM      3  N   UNK d   1      -5.521   9.902 -14.340  0.00  0.00    -0.350 N 
ATOM      4  H   UNK d   1      -5.364  10.747 -13.767  0.00  0.00     0.163 HD
ENDROOT
BRANCH   1   5
ATOM      5  C   UNK d   1      -3.072   9.319 -14.191  0.00  0.00     0.063 A 
ATOM      6  C   UNK d   1      -2.225   8.244 -13.986  0.00  0.00     0.098 A 
ATOM      7  C   UNK d   1      -0.941   8.469 -13.553  0.00  0.00     0.111 A 
ATOM      8  N   UNK d   1      -2.384   6.900 -14.127  0.00  0.00    -0.257 N 
ATOM      9  C   UNK d   1      -0.520   9.760 -13.331  0.00  0.00     0.055 A 
ATOM     10  N   UNK d   1      -0.355   7.253 -13.443  0.00  0.00    -0.130 NA
ATOM     11  C   UNK d   1      -1.359  10.835 -13.533  0.00  0.00     0.014 A 
ATOM     12 Br   UNK d   1      -0.747  12.618 -13.216  0.00  0.00    -0.051 Br
ATOM     13  C   UNK d   1      -2.641  10.618 -13.965  0.00  0.00     0.038 A 
ATOM     14  N   UNK d   1      -1.251   6.348 -13.794  0.00  0.00    -0.067 NA
ATOM     15  H   UNK d   1      -3.286   6.491 -14.447  0.00  0.00     0.191 HD
ENDBRANCH   1   5
BRANCH   3  16
ATOM     16  C   UNK d   1      -6.854   9.613 -14.809  0.00  0.00     0.203 C 
BRANCH  16  17
ATOM     17  C   UNK d   1      -7.715  10.832 -14.613  0.00  0.00     0.148 A 
ATOM     18  N   UNK d   1      -8.519  11.409 -15.521  0.00  0.00    -0.319 N 
ATOM     19  C   UNK d   1      -9.139  12.486 -14.992  0.00  0.00     0.130 A 
ATOM     20  C   UNK d   1      -8.829  11.101 -16.899  0.00  0.00     0.132 C 
ATOM     21  N   UNK d   1      -8.706  12.576 -13.728  0.00  0.00    -0.135 NA
ATOM     22  C   UNK d   1     -10.065  13.223 -15.894  0.00  0.00     0.081 C 
ATOM     23  N   UNK d   1      -7.843  11.575 -13.497  0.00  0.00    -0.133 NA
ATOM     24  C   UNK d   1     -11.036  12.153 -16.413  0.00  0.00     0.009 C 
ATOM     25  C   UNK d   1     -10.332  10.993 -17.036  0.00  0.00     0.021 C 
ENDBRANCH  16  17
ENDBRANCH   3  16
TORSDOF 3
ENDMDL
