MODEL 1
REMARK VINA RESULT:    -8.675      0.000      0.000
REMARK INTER + INTRA:         -11.501
REMARK INTER:                 -11.211
REMARK INTRA:                  -0.290
REMARK UNBOUND:                -0.290
REMARK  5 active torsions:
REMARK  status: ('A' for Active; 'I' for Inactive)
REMARK    1  A    between atoms: N_7  and  C_11 
REMARK    2  A    between atoms: C_11  and  C_12 
REMARK    3  A    between atoms: C_12  and  N_13 
REMARK    4  A    between atoms: C_21  and  C_23 
REMARK    5  A    between atoms: C_23  and  O_25 
ROOT
ATOM      1  N   UNK d   1       0.076  13.863 -12.606  0.00  0.00    -0.363 N 
ATOM      2  C   UNK d   1       1.375  13.510 -12.733  0.00  0.00     0.110 A 
ATOM      3  C   UNK d   1       1.756  12.253 -13.148  0.00  0.00     0.080 A 
ATOM      4  C   UNK d   1       0.736  11.261 -13.464  0.00  0.00     0.111 A 
ATOM      5  N   UNK d   1       1.392  10.152 -13.833  0.00  0.00    -0.170 NA
ATOM      6  N   UNK d   1       2.718  10.355 -13.778  0.00  0.00    -0.242 N 
ATOM      7  C   UNK d   1       2.955  11.611 -13.369  0.00  0.00     0.275 A 
ATOM      8  O   UNK d   1       4.099  12.096 -13.220  0.00  0.00    -0.266 OA
ATOM      9  C   UNK d   1      -0.584  11.656 -13.323  0.00  0.00     0.086 A 
ATOM     10  C   UNK d   1      -0.842  12.932 -12.904  0.00  0.00     0.110 A 
ATOM     11  H   UNK d   1       3.412   9.606 -14.029  0.00  0.00     0.192 HD
ENDROOT
BRANCH   1  12
ATOM     12  C   UNK d   1      -0.292  15.203 -12.164  0.00  0.00     0.148 C 
BRANCH  12  13
ATOM     13  C   UNK d   1      -0.459  16.070 -13.393  0.00  0.00     0.150 C 
BRANCH  13  14
ATOM     14  N   UNK d   1      -1.631  16.914 -13.301  0.00  0.00    -0.338 N 
ATOM     15  C   UNK d   1      -2.643  16.957 -14.193  0.00  0.00     0.210 A 
ATOM     16  N   UNK d   1      -3.568  17.850 -13.799  0.00  0.00    -0.242 NA
ATOM     17  C   UNK d   1      -3.169  18.411 -12.625  0.00  0.00     0.086 A 
ATOM     18  C   UNK d   1      -3.725  19.365 -11.796  0.00  0.00     0.057 A 
ATOM     19  C   UNK d   1      -1.960  17.804 -12.348  0.00  0.00     0.064 A 
ATOM     20  C   UNK d   1      -3.063  19.736 -10.645  0.00  0.00     0.036 A 
ATOM     21 Cl   UNK d   1      -3.713  20.946  -9.540  0.00  0.00    -0.084 Cl
ATOM     22  C   UNK d   1      -1.854  19.121 -10.379  0.00  0.00     0.026 A 
ATOM     23  C   UNK d   1      -1.292  18.167 -11.203  0.00  0.00     0.034 A 
ENDBRANCH  13  14
ENDBRANCH  12  13
ENDBRANCH   1  12
BRANCH   9  24
ATOM     24  C   UNK d   1      -1.633  10.690 -13.631  0.00  0.00     0.296 C 
ATOM     25  O   UNK d   1      -2.495  10.980 -14.498  0.00  0.00    -0.259 OA
BRANCH  24  26
ATOM     26  O   UNK d   1      -1.703   9.477 -12.999  0.00  0.00    -0.322 OA
ATOM     27  C   UNK d   1      -1.610   8.258 -13.717  0.00  0.00     0.213 C 
ENDBRANCH  24  26
ENDBRANCH   9  24
TORSDOF 5
ENDMDL
