MODEL 1
REMARK VINA RESULT:    -9.752      0.000      0.000
REMARK INTER + INTRA:         -13.229
REMARK INTER:                 -12.317
REMARK INTRA:                  -0.912
REMARK UNBOUND:                -0.912
REMARK  5 active torsions:
REMARK  status: ('A' for Active; 'I' for Inactive)
REMARK    1  A    between atoms: C_6  and  C_11 
REMARK    2  A    between atoms: C_11  and  C_12 
REMARK    3  A    between atoms: C_12  and  C_13 
REMARK       I    between atoms: C_13  and  N_15 
REMARK    4  A    between atoms: C_17  and  N_21 
REMARK    5  A    between atoms: C_18  and  O_20 
ROOT
ATOM      1  C   UNK d   1       2.508  15.053 -12.716  0.00  0.00     0.220 C 
ATOM      2  O   UNK d   1       3.100  15.786 -13.546  0.00  0.00    -0.273 OA
ATOM      3  N   UNK d   1       2.996  13.745 -12.508  0.00  0.00    -0.348 N 
ATOM      4  C   UNK d   1       2.523  12.687 -11.639  0.00  0.00     0.154 C 
ATOM      5  C   UNK d   1       2.680  11.482 -12.453  0.00  0.00     0.142 C 
ATOM      6  C   UNK d   1       3.519  11.866 -13.674  0.00  0.00     0.161 C 
ATOM      7  C   UNK d   1       4.144  13.184 -13.170  0.00  0.00     0.159 C 
ENDROOT
BRANCH   1   8
ATOM      8  C   UNK d   1       1.334  15.603 -12.007  0.00  0.00     0.110 C 
BRANCH   8   9
ATOM      9  C   UNK d   1       0.127  15.577 -12.894  0.00  0.00     0.087 C 
BRANCH   9  10
ATOM     10  C   UNK d   1      -0.842  16.623 -12.517  0.00  0.00     0.105 A 
ATOM     11  N   UNK d   1      -0.796  17.371 -11.381  0.00  0.00    -0.343 N 
ATOM     12  C   UNK d   1      -1.827  18.229 -11.322  0.00  0.00     0.064 A 
ATOM     13  H   UNK d   1      -0.075  17.328 -10.619  0.00  0.00     0.167 HD
ATOM     14  C   UNK d   1      -2.245  19.189 -10.415  0.00  0.00     0.055 A 
ATOM     15  C   UNK d   1      -2.562  18.023 -12.464  0.00  0.00     0.085 A 
ATOM     16  C   UNK d   1      -3.391  19.936 -10.651  0.00  0.00     0.036 A 
ATOM     17 Cl   UNK d   1      -3.903  21.140  -9.493  0.00  0.00    -0.084 Cl
ATOM     18  C   UNK d   1      -4.133  19.733 -11.794  0.00  0.00     0.026 A 
ATOM     19  C   UNK d   1      -3.700  18.768 -12.692  0.00  0.00     0.036 A 
ATOM     20  N   UNK d   1      -1.956  17.057 -13.165  0.00  0.00    -0.233 NA
ENDBRANCH   9  10
ENDBRANCH   8   9
ENDBRANCH   1   8
BRANCH   5  21
ATOM     21  N   UNK d   1       1.574  10.685 -12.817  0.00  0.00    -0.300 N 
ATOM     22  C   UNK d   1       0.425  11.326 -13.163  0.00  0.00     0.108 A 
ATOM     23  C   UNK d   1      -0.707  10.637 -13.536  0.00  0.00     0.022 A 
ATOM     24  C   UNK d   1      -0.704   9.263 -13.569  0.00  0.00     0.256 A 
ATOM     25  C   UNK d   1      -1.966  11.359 -13.916  0.00  0.00     0.056 C 
ATOM     26  O   UNK d   1      -1.732   8.604 -13.909  0.00  0.00    -0.267 OA
ATOM     27  N   UNK d   1       0.430   8.630 -13.228  0.00  0.00    -0.275 N 
ATOM     28  C   UNK d   1       1.497   9.351 -12.875  0.00  0.00     0.329 A 
ATOM     29  H   UNK d   1       0.459   7.564 -13.243  0.00  0.00     0.173 HD
ATOM     30  O   UNK d   1       2.524   8.711 -12.570  0.00  0.00    -0.246 OA
ENDBRANCH   5  21
BRANCH   6  31
ATOM     31  O   UNK d   1       4.492  10.945 -13.972  0.00  0.00    -0.392 OA
ATOM     32  H   UNK d   1       5.217  11.035 -13.305  0.00  0.00     0.210 HD
ENDBRANCH   6  31
TORSDOF 5
ENDMDL
