/Users/jonathanwahrer/Desktop/Msc/3_Semester/Drug_Design_Praktikum/waehrer_HTS_screening/HTS_experiment/out/docking_results/vina_output/6q9y/1689_docked.pdbqt
 OpenBabel03222220193D

 32 35  0  0  1  0  0  0  0  0999 V2000
    2.5080   15.0530  -12.7160 C   0  0  0  0  0  0  0  0  0  0  0  0
    3.1000   15.7860  -13.5460 O   0  0  0  0  0  0  0  0  0  0  0  0
    2.9960   13.7450  -12.5080 N   0  0  0  0  0  0  0  0  0  0  0  0
    2.5230   12.6870  -11.6390 C   0  0  0  0  0  2  0  0  0  0  0  0
    2.6800   11.4820  -12.4530 C   0  0  2  0  0  3  0  0  0  0  0  0
    3.5190   11.8660  -13.6740 C   0  0  1  0  0  3  0  0  0  0  0  0
    4.1440   13.1840  -13.1700 C   0  0  0  0  0  2  0  0  0  0  0  0
    1.3340   15.6030  -12.0070 C   0  0  0  0  0  2  0  0  0  0  0  0
    0.1270   15.5770  -12.8940 C   0  0  0  0  0  2  0  0  0  0  0  0
   -0.8420   16.6230  -12.5170 C   0  0  0  0  0  0  0  0  0  0  0  0
   -0.7960   17.3710  -11.3810 N   0  0  0  0  0  0  0  0  0  0  0  0
   -1.8270   18.2290  -11.3220 C   0  0  0  0  0  0  0  0  0  0  0  0
   -0.0750   17.3280  -10.6190 H   0  0  0  0  0  0  0  0  0  0  0  0
   -2.2450   19.1890  -10.4150 C   0  0  0  0  0  3  0  0  0  0  0  0
   -2.5620   18.0230  -12.4640 C   0  0  0  0  0  0  0  0  0  0  0  0
   -3.3910   19.9360  -10.6510 C   0  0  0  0  0  0  0  0  0  0  0  0
   -3.9030   21.1400   -9.4930 Cl  0  0  0  0  0  0  0  0  0  0  0  0
   -4.1330   19.7330  -11.7940 C   0  0  0  0  0  3  0  0  0  0  0  0
   -3.7000   18.7680  -12.6920 C   0  0  0  0  0  3  0  0  0  0  0  0
   -1.9560   17.0570  -13.1650 N   0  0  0  0  0  0  0  0  0  0  0  0
    1.5740   10.6850  -12.8170 N   0  0  0  0  0  0  0  0  0  0  0  0
    0.4250   11.3260  -13.1630 C   0  0  0  0  0  3  0  0  0  0  0  0
   -0.7070   10.6370  -13.5360 C   0  0  0  0  0  0  0  0  0  0  0  0
   -0.7040    9.2630  -13.5690 C   0  0  0  0  0  0  0  0  0  0  0  0
   -1.9660   11.3590  -13.9160 C   0  0  0  0  0  1  0  0  0  0  0  0
   -1.7320    8.6040  -13.9090 O   0  0  0  0  0  0  0  0  0  0  0  0
    0.4300    8.6300  -13.2280 N   0  0  0  0  0  0  0  0  0  0  0  0
    1.4970    9.3510  -12.8750 C   0  0  0  0  0  0  0  0  0  0  0  0
    0.4590    7.5640  -13.2430 H   0  0  0  0  0  0  0  0  0  0  0  0
    2.5240    8.7110  -12.5700 O   0  0  0  0  0  0  0  0  0  0  0  0
    4.4920   10.9450  -13.9720 O   0  0  0  0  0  0  0  0  0  0  0  0
    5.2170   11.0350  -13.3050 H   0  0  0  0  0  0  0  0  0  0  0  0
  1  3  1  0  0  0  0
  1  8  1  0  0  0  0
  2  1  2  0  0  0  0
  3  4  1  0  0  0  0
  5 21  1  6  0  0  0
  5  4  1  0  0  0  0
  6 31  1  1  0  0  0
  6  7  1  0  0  0  0
  6  5  1  0  0  0  0
  7  3  1  0  0  0  0
  9 10  1  0  0  0  0
  9  8  1  0  0  0  0
 10 11  1  0  0  0  0
 11 12  1  0  0  0  0
 11 13  1  0  0  0  0
 12 14  1  0  0  0  0
 15 12  2  0  0  0  0
 16 14  2  0  0  0  0
 16 17  1  0  0  0  0
 18 16  1  0  0  0  0
 19 15  1  0  0  0  0
 19 18  2  0  0  0  0
 20 10  2  0  0  0  0
 20 15  1  0  0  0  0
 22 21  1  0  0  0  0
 23 22  2  0  0  0  0
 24 23  1  0  0  0  0
 24 27  1  0  0  0  0
 25 23  1  0  0  0  0
 26 24  2  0  0  0  0
 27 28  1  0  0  0  0
 28 21  1  0  0  0  0
 28 30  2  0  0  0  0
 29 27  1  0  0  0  0
 31 32  1  0  0  0  0
M  END
>  <Pose>
1

>  <Score>
-9.752

$$$$
