MODEL 1
REMARK VINA RESULT:    -6.366      0.000      0.000
REMARK INTER + INTRA:          -8.755
REMARK INTER:                  -8.413
REMARK INTRA:                  -0.341
REMARK UNBOUND:                -0.341
REMARK  6 active torsions:
REMARK  status: ('A' for Active; 'I' for Inactive)
REMARK    1  A    between atoms: C_13  and  C_26 
REMARK    2  A    between atoms: N_18  and  C_21 
REMARK    3  A    between atoms: C_21  and  C_22 
REMARK    4  A    between atoms: C_22  and  C_23 
REMARK    5  A    between atoms: C_23  and  O_24 
REMARK    6  A    between atoms: C_26  and  O_27 
ROOT
ATOM      1 Cl   UNK d   1       3.017  13.735 -10.929  0.00  0.00    -0.084 Cl
ATOM      2  C   UNK d   1       2.958  12.560 -12.202  0.00  0.00     0.034 A 
ATOM      3  C   UNK d   1       1.899  11.668 -12.300  0.00  0.00     0.036 A 
ATOM      4  C   UNK d   1       1.838  10.728 -13.309  0.00  0.00     0.019 A 
ATOM      5  C   UNK d   1       2.858  10.695 -14.219  0.00  0.00     0.044 A 
ATOM      6  C   UNK d   1       3.941  11.577 -14.155  0.00  0.00     0.032 A 
ATOM      7  C   UNK d   1       3.970  12.503 -13.136  0.00  0.00     0.026 A 
ATOM      8  N   UNK d   1       2.628   9.655 -15.159  0.00  0.00    -0.324 N 
ATOM      9  C   UNK d   1       1.412   9.010 -14.816  0.00  0.00     0.267 A 
ATOM     10  O   UNK d   1       0.983   8.011 -15.479  0.00  0.00    -0.270 OA
ATOM     11  C   UNK d   1       0.859   9.701 -13.659  0.00  0.00     0.279 A 
ATOM     12  N   UNK d   1      -0.459  10.278 -13.939  0.00  0.00     0.116 N 
ATOM     13  C   UNK d   1      -1.293   9.098 -13.903  0.00  0.00     0.264 C 
ATOM     14  C   UNK d   1      -0.783   8.258 -12.777  0.00  0.00     0.130 C 
ATOM     15  C   UNK d   1       0.557   8.856 -12.471  0.00  0.00     0.147 C 
ATOM     16  C   UNK d   1       1.510   7.743 -12.243  0.00  0.00     0.234 C 
ATOM     17  O   UNK d   1       2.684   7.958 -11.844  0.00  0.00    -0.272 OA
ATOM     18  N   UNK d   1       0.839   6.532 -12.552  0.00  0.00    -0.287 N 
ATOM     19  C   UNK d   1      -0.385   6.879 -13.209  0.00  0.00     0.233 C 
ATOM     20  O   UNK d   1      -1.042   6.197 -14.002  0.00  0.00    -0.272 OA
ATOM     21  H   UNK d   1       3.253   9.401 -15.981  0.00  0.00     0.169 HD
ATOM     22  H   UNK d   1      -0.691  10.856 -13.100  0.00  0.00     0.318 HD
ENDROOT
BRANCH  13  23
ATOM     23  C   UNK d   1      -2.757   9.431 -13.776  0.00  0.00     0.148 C 
ATOM     24  C   UNK d   1      -3.640   8.444 -14.495  0.00  0.00     0.041 C 
BRANCH  23  25
ATOM     25  O   UNK d   1      -2.947  10.707 -14.292  0.00  0.00    -0.394 OA
ATOM     26  H   UNK d   1      -3.128  10.703 -15.266  0.00  0.00     0.210 HD
ENDBRANCH  23  25
ENDBRANCH  13  23
BRANCH  18  27
ATOM     27  C   UNK d   1       1.285   5.221 -12.264  0.00  0.00     0.137 C 
BRANCH  27  28
ATOM     28  C   UNK d   1       2.732   4.971 -12.096  0.00  0.00     0.046 C 
BRANCH  28  29
ATOM     29  C   UNK d   1       3.334   3.852 -12.856  0.00  0.00     0.168 C 
BRANCH  29  30
ATOM     30  O   UNK d   1       4.655   4.019 -13.244  0.00  0.00    -0.396 OA
ATOM     31  C   UNK d   1       4.934   5.407 -13.205  0.00  0.00     0.201 C 
ENDBRANCH  29  30
ENDBRANCH  28  29
ENDBRANCH  27  28
ENDBRANCH  18  27
TORSDOF 6
ENDMDL
