MODEL 1
REMARK VINA RESULT:    -7.097      0.000      0.000
REMARK INTER + INTRA:          -7.097
REMARK INTER:                  -7.097
REMARK INTRA:                   0.000
REMARK UNBOUND:                 0.000
REMARK  0 active torsions:
REMARK  status: ('A' for Active; 'I' for Inactive)
ROOT
ATOM      1  F   UNK d   1      -2.268   5.432 -13.251  0.00  0.00    -0.202 F 
ATOM      2  C   UNK d   1      -1.629   6.627 -13.487  0.00  0.00     0.165 A 
ATOM      3  C   UNK d   1      -0.260   6.721 -13.209  0.00  0.00     0.086 A 
ATOM      4  C   UNK d   1       0.391   7.896 -13.435  0.00  0.00     0.030 A 
ATOM      5  C   UNK d   1      -0.304   9.002 -13.942  0.00  0.00     0.016 A 
ATOM      6  C   UNK d   1      -1.640   8.882 -14.205  0.00  0.00     0.028 A 
ATOM      7  C   UNK d   1      -2.317   7.707 -13.984  0.00  0.00     0.074 A 
ATOM      8 Cl   UNK d   1      -4.046   7.558 -14.326  0.00  0.00    -0.081 Cl
ATOM      9  C   UNK d   1       1.820   7.726 -13.060  0.00  0.00     0.222 A 
ATOM     10  N   UNK d   1       2.158   8.672 -12.044  0.00  0.00    -0.336 N 
ATOM     11  C   UNK d   1       2.590   9.973 -12.376  0.00  0.00     0.141 A 
ATOM     12  N   UNK d   1       2.599  10.983 -11.468  0.00  0.00    -0.243 NA
ATOM     13  C   UNK d   1       2.997  12.232 -11.730  0.00  0.00     0.119 A 
ATOM     14  C   UNK d   1       3.439  12.547 -13.010  0.00  0.00     0.020 A 
ATOM     15  C   UNK d   1       3.461  11.588 -13.983  0.00  0.00     0.022 A 
ATOM     16  C   UNK d   1       3.036  10.322 -13.643  0.00  0.00     0.077 A 
ATOM     17  C   UNK d   1       3.021   9.224 -14.614  0.00  0.00     0.258 C 
ATOM     18  O   UNK d   1       3.424   9.500 -15.795  0.00  0.00    -0.267 OA
ATOM     19  N   UNK d   1       2.590   7.929 -14.275  0.00  0.00    -0.318 N 
ATOM     20  C   UNK d   1       1.915   6.337 -12.596  0.00  0.00     0.277 A 
ATOM     21  O   UNK d   1       2.965   5.732 -12.167  0.00  0.00    -0.268 OA
ATOM     22  N   UNK d   1       0.648   5.739 -12.693  0.00  0.00    -0.320 N 
ATOM     23  H   UNK d   1       2.096   8.425 -11.026  0.00  0.00     0.164 HD
ATOM     24  H   UNK d   1       2.845   7.150 -14.925  0.00  0.00     0.166 HD
ATOM     25  H   UNK d   1       0.354   4.756 -12.447  0.00  0.00     0.169 HD
ENDROOT
TORSDOF 0
ENDMDL
