/Users/jonathanwahrer/Desktop/Msc/3_Semester/Drug_Design_Praktikum/waehrer_HTS_screening/HTS_experiment/out/docking_results/vina_output/6q9y/1706_docked.pdbqt
 OpenBabel03222220203D

 25 28  0  0  1  0  0  0  0  0999 V2000
   -2.2680    5.4320  -13.2510 F   0  0  0  0  0  0  0  0  0  0  0  0
   -1.6290    6.6270  -13.4870 C   0  0  0  0  0  0  0  0  0  0  0  0
   -0.2600    6.7210  -13.2090 C   0  0  0  0  0  0  0  0  0  0  0  0
    0.3910    7.8960  -13.4350 C   0  0  0  0  0  0  0  0  0  0  0  0
   -0.3040    9.0020  -13.9420 C   0  0  0  0  0  3  0  0  0  0  0  0
   -1.6400    8.8820  -14.2050 C   0  0  0  0  0  3  0  0  0  0  0  0
   -2.3170    7.7070  -13.9840 C   0  0  0  0  0  0  0  0  0  0  0  0
   -4.0460    7.5580  -14.3260 Cl  0  0  0  0  0  0  0  0  0  0  0  0
    1.8200    7.7260  -13.0600 C   0  0  2  0  0  0  0  0  0  0  0  0
    2.1580    8.6720  -12.0440 N   0  0  0  0  0  0  0  0  0  0  0  0
    2.5900    9.9730  -12.3760 C   0  0  0  0  0  0  0  0  0  0  0  0
    2.5990   10.9830  -11.4680 N   0  0  0  0  0  0  0  0  0  0  0  0
    2.9970   12.2320  -11.7300 C   0  0  0  0  0  3  0  0  0  0  0  0
    3.4390   12.5470  -13.0100 C   0  0  0  0  0  3  0  0  0  0  0  0
    3.4610   11.5880  -13.9830 C   0  0  0  0  0  3  0  0  0  0  0  0
    3.0360   10.3220  -13.6430 C   0  0  0  0  0  0  0  0  0  0  0  0
    3.0210    9.2240  -14.6140 C   0  0  0  0  0  0  0  0  0  0  0  0
    3.4240    9.5000  -15.7950 O   0  0  0  0  0  0  0  0  0  0  0  0
    2.5900    7.9290  -14.2750 N   0  0  0  0  0  0  0  0  0  0  0  0
    1.9150    6.3370  -12.5960 C   0  0  0  0  0  0  0  0  0  0  0  0
    2.9650    5.7320  -12.1670 O   0  0  0  0  0  0  0  0  0  0  0  0
    0.6480    5.7390  -12.6930 N   0  0  0  0  0  0  0  0  0  0  0  0
    2.0960    8.4250  -11.0260 H   0  0  0  0  0  0  0  0  0  0  0  0
    2.8450    7.1500  -14.9250 H   0  0  0  0  0  0  0  0  0  0  0  0
    0.3540    4.7560  -12.4470 H   0  0  0  0  0  0  0  0  0  0  0  0
  2  1  1  0  0  0  0
  2  3  1  0  0  0  0
  3 22  1  0  0  0  0
  4  3  2  0  0  0  0
  5  4  1  0  0  0  0
  6  7  1  0  0  0  0
  6  5  2  0  0  0  0
  7  2  2  0  0  0  0
  8  7  1  0  0  0  0
  9  4  1  6  0  0  0
  9 20  1  0  0  0  0
  9 10  1  0  0  0  0
 10 23  1  0  0  0  0
 11 10  1  0  0  0  0
 11 12  1  0  0  0  0
 13 12  2  0  0  0  0
 14 13  1  0  0  0  0
 15 16  1  0  0  0  0
 15 14  2  0  0  0  0
 16 11  2  0  0  0  0
 17 19  1  0  0  0  0
 17 16  1  0  0  0  0
 18 17  2  0  0  0  0
 19  9  1  0  0  0  0
 20 21  2  0  0  0  0
 22 20  1  0  0  0  0
 22 25  1  0  0  0  0
 24 19  1  0  0  0  0
M  END
>  <Pose>
1

>  <Score>
-7.097

$$$$
