MODEL 1
REMARK VINA RESULT:    -9.089      0.000      0.000
REMARK INTER + INTRA:         -11.986
REMARK INTER:                 -11.215
REMARK INTRA:                  -0.771
REMARK UNBOUND:                -0.771
REMARK  4 active torsions:
REMARK  status: ('A' for Active; 'I' for Inactive)
REMARK    1  A    between atoms: S_1  and  N_4 
REMARK    2  A    between atoms: S_1  and  C_24 
REMARK       I    between atoms: N_7  and  C_10 
REMARK    3  A    between atoms: C_10  and  C_12 
REMARK    4  A    between atoms: C_12  and  N_13 
ROOT
ATOM      1  N   UNK d   1       1.456  15.744 -12.192  0.00  0.00    -0.304 N 
ATOM      2  C   UNK d   1       1.559  15.127 -10.916  0.00  0.00     0.155 C 
ATOM      3  C   UNK d   1       2.615  14.053 -10.855  0.00  0.00     0.146 C 
ATOM      4  N   UNK d   1       2.768  13.358 -12.106  0.00  0.00    -0.348 N 
ATOM      5  C   UNK d   1       2.928  14.119 -13.322  0.00  0.00     0.146 C 
ATOM      6  C   UNK d   1       2.570  15.546 -13.044  0.00  0.00     0.155 C 
ATOM      7  C   UNK d   1       2.768  11.944 -12.191  0.00  0.00     0.238 C 
ATOM      8  O   UNK d   1       2.631  11.279 -11.146  0.00  0.00    -0.272 OA
ENDROOT
BRANCH   7   9
ATOM      9  C   UNK d   1       2.926  11.236 -13.481  0.00  0.00     0.238 C 
BRANCH   9  10
ATOM     10  N   UNK d   1       2.006  10.142 -13.590  0.00  0.00    -0.271 N 
ATOM     11  C   UNK d   1       2.260   8.746 -13.677  0.00  0.00     0.262 A 
ATOM     12  O   UNK d   1       3.403   8.238 -13.670  0.00  0.00    -0.267 OA
ATOM     13  C   UNK d   1       0.986   8.053 -13.770  0.00  0.00     0.048 A 
ATOM     14  C   UNK d   1      -0.031   8.977 -13.743  0.00  0.00     0.048 A 
ATOM     15  C   UNK d   1       0.668   6.722 -13.873  0.00  0.00     0.018 A 
ATOM     16  C   UNK d   1      -1.348   8.545 -13.820  0.00  0.00     0.018 A 
ATOM     17  C   UNK d   1       0.582  10.294 -13.630  0.00  0.00     0.262 A 
ATOM     18  C   UNK d   1      -1.662   7.218 -13.923  0.00  0.00     0.001 A 
ATOM     19  C   UNK d   1      -0.641   6.269 -13.951  0.00  0.00     0.001 A 
ATOM     20  O   UNK d   1      -0.096  11.354 -13.581  0.00  0.00    -0.267 OA
ENDBRANCH   9  10
ENDBRANCH   7   9
BRANCH   1  21
ATOM     21  S   UNK d   1      -0.067  15.770 -12.897  0.00  0.00     0.260 S 
ATOM     22  O   UNK d   1       0.099  15.865 -14.408  0.00  0.00    -0.200 OA
ATOM     23  O   UNK d   1      -0.731  14.427 -12.659  0.00  0.00    -0.200 OA
BRANCH  21  24
ATOM     24  C   UNK d   1      -1.140  16.990 -12.324  0.00  0.00     0.079 A 
ATOM     25  C   UNK d   1      -0.840  17.679 -11.161  0.00  0.00     0.026 A 
ATOM     26  C   UNK d   1      -1.663  18.666 -10.657  0.00  0.00     0.020 A 
ATOM     27  C   UNK d   1      -2.821  18.961 -11.355  0.00  0.00     0.011 A 
ATOM     28  C   UNK d   1      -3.107  18.266 -12.512  0.00  0.00     0.020 A 
ATOM     29 Br   UNK d   1      -4.015  20.327 -10.708  0.00  0.00    -0.051 Br
ATOM     30  C   UNK d   1      -2.293  17.278 -13.026  0.00  0.00     0.026 A 
ENDBRANCH  21  24
ENDBRANCH   1  21
TORSDOF 4
ENDMDL
