/Users/jonathanwahrer/Desktop/Msc/3_Semester/Drug_Design_Praktikum/waehrer_HTS_screening/HTS_experiment/out/docking_results/vina_output/6q9y/1718_docked.pdbqt
 OpenBabel03222220213D

 34 38  0  0  1  0  0  0  0  0999 V2000
    6.6310    6.0230  -14.2960 Cl  0  0  0  0  0  0  0  0  0  0  0  0
    5.0660    6.0460  -13.5150 C   0  0  0  0  0  0  0  0  0  0  0  0
    4.2040    7.0920  -13.8470 C   0  0  0  0  0  0  0  0  0  0  0  0
    2.9620    7.1450  -13.2530 C   0  0  0  0  0  0  0  0  0  0  0  0
    2.6280    6.1420  -12.3410 C   0  0  0  0  0  3  0  0  0  0  0  0
    3.4870    5.1130  -12.0190 C   0  0  0  0  0  3  0  0  0  0  0  0
    4.7300    5.0600  -12.6150 C   0  0  0  0  0  3  0  0  0  0  0  0
    2.2100    8.3070  -13.7250 C   0  0  1  0  0  0  0  0  0  0  0  0
    0.9340    7.9520  -14.3160 N   0  0  0  0  0  0  0  0  0  0  0  0
    0.1290    9.1640  -14.2400 C   0  0  2  0  0  3  0  0  0  0  0  0
    0.5490    9.8720  -12.9820 C   0  0  1  0  0  3  0  0  0  0  0  0
    1.8970    9.2960  -12.6240 C   0  0  2  0  0  3  0  0  0  0  0  0
    2.8430   10.4400  -12.6300 C   0  0  0  0  0  0  0  0  0  0  0  0
    4.0870   10.2710  -12.4980 O   0  0  0  0  0  0  0  0  0  0  0  0
    2.1220   11.6490  -12.7980 N   0  0  0  0  0  0  0  0  0  0  0  0
    0.8450   11.3080  -13.3150 C   0  0  0  0  0  0  0  0  0  0  0  0
    0.0370   12.0360  -13.9580 O   0  0  0  0  0  0  0  0  0  0  0  0
    3.1100    8.9690  -14.6830 C   0  0  0  0  0  0  0  0  0  0  0  0
    2.8790   10.0340  -15.3630 O   0  0  0  0  0  0  0  0  0  0  0  0
    4.3030    8.2050  -14.7250 N   0  0  0  0  0  0  0  0  0  0  0  0
    0.4780    7.1580  -13.8150 H   0  0  0  0  0  0  0  0  0  0  0  0
    5.1500    8.4220  -15.3180 H   0  0  0  0  0  0  0  0  0  0  0  0
   -1.3230    8.7840  -14.2250 C   0  0  0  0  0  2  0  0  0  0  0  0
   -1.3890    7.3090  -13.9720 C   0  0  0  0  0  0  0  0  0  0  0  0
   -1.1000    6.9240  -12.8100 O   0  0  0  0  0  0  0  0  0  0  0  0
   -1.7540    6.3770  -14.9760 N   0  0  0  0  0  0  0  0  0  0  0  0
   -2.7540    6.3250  -15.2530 H   0  0  0  0  0  0  0  0  0  0  0  0
   -1.0850    5.7430  -15.4550 H   0  0  0  0  0  0  0  0  0  0  0  0
    2.5880   12.9550  -12.5010 C   0  0  0  0  0  2  0  0  0  0  0  0
    1.5730   13.9960  -12.2420 C   0  0  2  0  0  3  0  0  0  0  0  0
    1.2980   14.8350  -13.3120 O   0  0  0  0  0  0  0  0  0  0  0  0
    0.2540   15.5990  -12.7900 C   0  0  0  0  0  2  0  0  0  0  0  0
    0.7160   15.9780  -11.3770 C   0  0  0  0  0  2  0  0  0  0  0  0
    1.8310   14.9470  -11.1320 C   0  0  0  0  0  2  0  0  0  0  0  0
  1  2  1  0  0  0  0
  2  7  1  0  0  0  0
  3  2  2  0  0  0  0
  3  4  1  0  0  0  0
  4  5  2  0  0  0  0
  5  6  1  0  0  0  0
  7  6  2  0  0  0  0
  8 18  1  6  0  0  0
  8  4  1  0  0  0  0
  8 12  1  0  0  0  0
  9 10  1  0  0  0  0
  9 21  1  0  0  0  0
  9  8  1  0  0  0  0
 10 23  1  1  0  0  0
 10 11  1  0  0  0  0
 11 16  1  6  0  0  0
 11 12  1  0  0  0  0
 12 13  1  6  0  0  0
 13 14  2  0  0  0  0
 15 13  1  0  0  0  0
 15 29  1  0  0  0  0
 16 15  1  0  0  0  0
 17 16  2  0  0  0  0
 19 18  2  0  0  0  0
 20 18  1  0  0  0  0
 20  3  1  0  0  0  0
 22 20  1  0  0  0  0
 23 24  1  0  0  0  0
 24 25  2  0  0  0  0
 26 24  1  0  0  0  0
 27 26  1  0  0  0  0
 28 26  1  0  0  0  0
 30 29  1  6  0  0  0
 30 34  1  0  0  0  0
 31 32  1  0  0  0  0
 31 30  1  0  0  0  0
 32 33  1  0  0  0  0
 33 34  1  0  0  0  0
M  END
>  <Pose>
1

>  <Score>
-6.913

$$$$
