MODEL 1
REMARK VINA RESULT:    -6.913      0.000      0.000
REMARK INTER + INTRA:          -8.893
REMARK INTER:                  -8.530
REMARK INTRA:                  -0.363
REMARK UNBOUND:                -0.363
REMARK  4 active torsions:
REMARK  status: ('A' for Active; 'I' for Inactive)
REMARK    1  A    between atoms: C_10  and  C_24 
REMARK    2  A    between atoms: N_15  and  C_18 
REMARK    3  A    between atoms: C_18  and  C_19 
REMARK    4  A    between atoms: C_24  and  C_25 
REMARK       I    between atoms: C_25  and  N_27 
ROOT
ATOM      1 Cl   UNK d   1       6.631   6.023 -14.296  0.00  0.00    -0.082 Cl
ATOM      2  C   UNK d   1       5.066   6.046 -13.515  0.00  0.00     0.061 A 
ATOM      3  C   UNK d   1       4.204   7.092 -13.847  0.00  0.00     0.066 A 
ATOM      4  C   UNK d   1       2.962   7.145 -13.253  0.00  0.00     0.019 A 
ATOM      5  C   UNK d   1       2.628   6.142 -12.341  0.00  0.00     0.013 A 
ATOM      6  C   UNK d   1       3.487   5.113 -12.019  0.00  0.00     0.002 A 
ATOM      7  C   UNK d   1       4.730   5.060 -12.615  0.00  0.00     0.026 A 
ATOM      8  C   UNK d   1       2.210   8.307 -13.725  0.00  0.00     0.279 A 
ATOM      9  N   UNK d   1       0.934   7.952 -14.316  0.00  0.00     0.114 N 
ATOM     10  C   UNK d   1       0.129   9.164 -14.240  0.00  0.00     0.245 C 
ATOM     11  C   UNK d   1       0.549   9.872 -12.982  0.00  0.00     0.128 C 
ATOM     12  C   UNK d   1       1.897   9.296 -12.624  0.00  0.00     0.147 C 
ATOM     13  C   UNK d   1       2.843  10.440 -12.630  0.00  0.00     0.235 C 
ATOM     14  O   UNK d   1       4.087  10.271 -12.498  0.00  0.00    -0.272 OA
ATOM     15  N   UNK d   1       2.122  11.649 -12.798  0.00  0.00    -0.285 N 
ATOM     16  C   UNK d   1       0.845  11.308 -13.315  0.00  0.00     0.233 C 
ATOM     17  O   UNK d   1       0.037  12.036 -13.958  0.00  0.00    -0.272 OA
ATOM     18  C   UNK d   1       3.110   8.969 -14.683  0.00  0.00     0.267 A 
ATOM     19  O   UNK d   1       2.879  10.034 -15.363  0.00  0.00    -0.270 OA
ATOM     20  N   UNK d   1       4.303   8.205 -14.725  0.00  0.00    -0.323 N 
ATOM     21  H   UNK d   1       0.478   7.158 -13.815  0.00  0.00     0.318 HD
ATOM     22  H   UNK d   1       5.150   8.422 -15.318  0.00  0.00     0.169 HD
ENDROOT
BRANCH  10  23
ATOM     23  C   UNK d   1      -1.323   8.784 -14.225  0.00  0.00     0.139 C 
BRANCH  23  24
ATOM     24  C   UNK d   1      -1.389   7.309 -13.972  0.00  0.00     0.217 C 
ATOM     25  O   UNK d   1      -1.100   6.924 -12.810  0.00  0.00    -0.274 OA
ATOM     26  N   UNK d   1      -1.754   6.377 -14.976  0.00  0.00    -0.370 N 
ATOM     27  H   UNK d   1      -2.754   6.325 -15.253  0.00  0.00     0.159 HD
ATOM     28  H   UNK d   1      -1.085   5.743 -15.455  0.00  0.00     0.159 HD
ENDBRANCH  23  24
ENDBRANCH  10  23
BRANCH  15  29
ATOM     29  C   UNK d   1       2.588  12.955 -12.501  0.00  0.00     0.166 C 
BRANCH  29  30
ATOM     30  C   UNK d   1       1.573  13.996 -12.242  0.00  0.00     0.140 C 
ATOM     31  O   UNK d   1       1.298  14.835 -13.312  0.00  0.00    -0.384 OA
ATOM     32  C   UNK d   1       0.254  15.599 -12.790  0.00  0.00     0.168 C 
ATOM     33  C   UNK d   1       0.716  15.978 -11.377  0.00  0.00     0.029 C 
ATOM     34  C   UNK d   1       1.831  14.947 -11.132  0.00  0.00     0.035 C 
ENDBRANCH  29  30
ENDBRANCH  15  29
TORSDOF 4
ENDMDL
