MODEL 1
REMARK VINA RESULT:    -8.304      0.000      0.000
REMARK INTER + INTRA:         -10.699
REMARK INTER:                 -10.246
REMARK INTRA:                  -0.453
REMARK UNBOUND:                -0.453
REMARK  4 active torsions:
REMARK  status: ('A' for Active; 'I' for Inactive)
REMARK    1  A    between atoms: C_9  and  N_11 
REMARK    2  A    between atoms: N_11  and  C_12 
REMARK    3  A    between atoms: C_12  and  C_13 
REMARK       I    between atoms: C_13  and  N_15 
REMARK    4  A    between atoms: N_18  and  C_21 
ROOT
ATOM      1  C   UNK d   1       4.002   7.823 -14.682  0.00  0.00     0.208 C 
ENDROOT
BRANCH   1   2
ATOM      2  N   UNK d   1       4.902   7.822 -13.591  0.00  0.00    -0.365 N 
ATOM      3  H   UNK d   1       4.796   8.484 -12.817  0.00  0.00     0.161 HD
BRANCH   2   4
ATOM      4  C   UNK d   1       5.999   6.879 -13.577  0.00  0.00     0.158 A 
ATOM      5  C   UNK d   1       5.677   5.560 -13.362  0.00  0.00     0.128 A 
ATOM      6  C   UNK d   1       6.703   4.620 -13.338  0.00  0.00     0.184 A 
ATOM      7  N   UNK d   1       4.555   4.857 -13.147  0.00  0.00    -0.345 N 
ATOM      8  N   UNK d   1       7.941   5.088 -13.532  0.00  0.00    -0.196 NA
ATOM      9  N   UNK d   1       6.158   3.414 -13.115  0.00  0.00    -0.222 NA
ATOM     10  C   UNK d   1       8.263   6.357 -13.741  0.00  0.00     0.227 A 
ATOM     11 Cl   UNK d   1       9.916   6.857 -13.981  0.00  0.00    -0.041 Cl
ATOM     12  N   UNK d   1       7.266   7.271 -13.763  0.00  0.00    -0.198 NA
ATOM     13  C   UNK d   1       4.826   3.547 -12.994  0.00  0.00     0.210 A 
ATOM     14  H   UNK d   1       3.609   5.323 -13.113  0.00  0.00     0.167 HD
ENDBRANCH   2   4
ENDBRANCH   1   2
BRANCH   1  15
ATOM     15  C   UNK d   1       2.981   8.860 -14.673  0.00  0.00     0.171 C 
ATOM     16  O   UNK d   1       2.984   9.591 -15.809  0.00  0.00    -0.175 OA
ATOM     17  N   UNK d   1       2.045   9.218 -13.744  0.00  0.00    -0.358 N 
ATOM     18  C   UNK d   1       1.871   8.716 -12.424  0.00  0.00     0.144 C 
ATOM     19  C   UNK d   1       1.051  10.270 -14.183  0.00  0.00     0.144 C 
ATOM     20  C   UNK d   1       0.534   7.996 -12.262  0.00  0.00     0.144 C 
ATOM     21  N   UNK d   1      -0.366   8.656 -13.163  0.00  0.00    -0.363 N 
ATOM     22  C   UNK d   1      -0.215  10.070 -13.344  0.00  0.00     0.144 C 
BRANCH  21  23
ATOM     23  C   UNK d   1      -1.379   7.973 -13.860  0.00  0.00     0.125 A 
ATOM     24  N   UNK d   1      -2.612   8.523 -14.061  0.00  0.00    -0.244 NA
ATOM     25  C   UNK d   1      -3.605   7.936 -14.705  0.00  0.00     0.119 A 
ATOM     26  C   UNK d   1      -3.472   6.685 -15.238  0.00  0.00     0.019 A 
ATOM     27  C   UNK d   1      -2.242   6.066 -15.070  0.00  0.00     0.005 A 
ATOM     28  C   UNK d   1      -1.214   6.702 -14.391  0.00  0.00     0.050 A 
ENDBRANCH  21  23
ENDBRANCH   1  15
TORSDOF 4
ENDMDL
