MODEL 1
REMARK VINA RESULT:    -8.653      0.000      0.000
REMARK INTER + INTRA:         -12.274
REMARK INTER:                 -11.436
REMARK INTRA:                  -0.838
REMARK UNBOUND:                -0.838
REMARK  6 active torsions:
REMARK  status: ('A' for Active; 'I' for Inactive)
REMARK    1  A    between atoms: C_3  and  O_10 
REMARK    2  A    between atoms: O_10  and  C_11 
REMARK    3  A    between atoms: C_11  and  C_12 
REMARK    4  A    between atoms: C_12  and  O_13 
REMARK    5  A    between atoms: C_12  and  C_14 
REMARK    6  A    between atoms: C_14  and  N_15 
ROOT
ATOM      1  N   UNK d   1       2.546   8.134 -13.854  0.00  0.00    -0.068 N 
ATOM      2  C   UNK d   1       1.998   8.694 -15.044  0.00  0.00     0.241 C 
ATOM      3  C   UNK d   1       2.199  10.167 -15.210  0.00  0.00     0.031 C 
ATOM      4  C   UNK d   1       1.363  11.009 -14.313  0.00  0.00     0.138 C 
ATOM      5  N   UNK d   1       2.092  11.749 -13.322  0.00  0.00    -0.317 N 
ATOM      6  C   UNK d   1       3.318  11.423 -12.873  0.00  0.00     0.020 A 
ATOM      7  C   UNK d   1       4.012  12.125 -11.930  0.00  0.00     0.026 A 
ATOM      8  C   UNK d   1       3.433  13.254 -11.388  0.00  0.00     0.007 A 
ATOM      9  C   UNK d   1       2.181  13.595 -11.841  0.00  0.00     0.074 A 
ATOM     10  C   UNK d   1       1.510  12.863 -12.792  0.00  0.00     0.247 A 
ATOM     11  O   UNK d   1       0.364  13.206 -13.183  0.00  0.00    -0.268 OA
ATOM     12  C   UNK d   1       3.896  10.176 -13.506  0.00  0.00     0.062 C 
ATOM     13  C   UNK d   1       3.157   9.026 -12.946  0.00  0.00     0.245 C 
ATOM     14  C   UNK d   1       3.699  10.395 -14.986  0.00  0.00     0.020 C 
ATOM     15  H   UNK d   1       3.281   7.422 -14.149  0.00  0.00     0.280 HD
ENDROOT
BRANCH   1  16
ATOM     16  C   UNK d   1       1.499   7.352 -13.227  0.00  0.00     0.268 C 
BRANCH  16  17
ATOM     17  C   UNK d   1       1.105   7.844 -11.871  0.00  0.00     0.168 C 
BRANCH  17  18
ATOM     18  C   UNK d   1      -0.404   8.087 -11.916  0.00  0.00     0.209 C 
BRANCH  18  19
ATOM     19  O   UNK d   1      -0.751   8.199 -13.265  0.00  0.00    -0.346 OA
BRANCH  19  20
ATOM     20  C   UNK d   1      -1.990   8.154 -13.812  0.00  0.00     0.103 A 
ATOM     21  C   UNK d   1      -2.757   9.295 -13.891  0.00  0.00     0.046 A 
ATOM     22 Br   UNK d   1      -2.031  10.923 -13.219  0.00  0.00    -0.048 Br
ATOM     23  C   UNK d   1      -4.035   9.290 -14.445  0.00  0.00     0.028 A 
ATOM     24  C   UNK d   1      -4.555   8.124 -14.927  0.00  0.00    -0.059 A 
ATOM     25  C   UNK d   1      -3.810   6.962 -14.861  0.00  0.00     0.028 A 
ATOM     26  C   UNK d   1      -5.928   8.126 -15.520  0.00  0.00     0.048 C 
ATOM     27  C   UNK d   1      -2.529   6.986 -14.302  0.00  0.00     0.046 A 
ATOM     28 Br   UNK d   1      -1.495   5.390 -14.208  0.00  0.00    -0.048 Br
ENDBRANCH  19  20
ENDBRANCH  18  19
ENDBRANCH  17  18
BRANCH  17  29
ATOM     29  O   UNK d   1       1.437   6.894 -10.908  0.00  0.00    -0.392 OA
ATOM     30  H   UNK d   1       0.624   6.323 -10.795  0.00  0.00     0.210 HD
ENDBRANCH  17  29
ENDBRANCH  16  17
ENDBRANCH   1  16
TORSDOF 6
ENDMDL
