/Users/jonathanwahrer/Desktop/Msc/3_Semester/Drug_Design_Praktikum/waehrer_HTS_screening/HTS_experiment/out/docking_results/vina_output/6q9y/1732_docked.pdbqt
 OpenBabel03222220213D

 28 31  0  0  0  0  0  0  0  0999 V2000
    3.7610    9.1110  -13.9680 N   0  0  0  0  0  0  0  0  0  0  0  0
    3.8580    9.8140  -12.8520 N   0  0  0  0  0  2  0  0  0  0  0  0
    2.6620   10.2740  -12.5020 N   0  0  0  0  0  0  0  0  0  0  0  0
    1.7660    9.8550  -13.4210 C   0  0  0  0  0  0  0  0  0  0  0  0
    2.4830    9.1430  -14.3050 N   0  0  0  0  0  2  0  0  0  0  0  0
    4.8500    8.4310  -14.6890 C   0  0  0  0  0  2  0  0  0  0  0  0
    5.2990    7.2250  -13.9440 C   0  0  0  0  0  0  0  0  0  0  0  0
    6.6310    6.8120  -13.9580 N   0  0  0  0  0  0  0  0  0  0  0  0
    7.2920    7.4150  -14.5330 H   0  0  0  0  0  0  0  0  0  0  0  0
    4.4270    6.6030  -13.3090 O   0  0  0  0  0  0  0  0  0  0  0  0
    7.2200    5.7020  -13.3150 C   0  0  0  0  0  0  0  0  0  0  0  0
    8.2600    5.8810  -12.4030 C   0  0  0  0  0  0  0  0  0  0  0  0
    8.8530    7.6470  -12.0610 Br  0  0  0  0  0  0  0  0  0  0  0  0
    8.8800    4.8510  -11.7390 C   0  0  0  0  0  3  0  0  0  0  0  0
    8.4680    3.5580  -11.9700 C   0  0  0  0  0  3  0  0  0  0  0  0
    7.4480    3.3180  -12.8560 C   0  0  0  0  0  3  0  0  0  0  0  0
    6.8390    4.3890  -13.5140 C   0  0  0  0  0  3  0  0  0  0  0  0
    0.3360   10.1250  -13.4370 C   0  0  0  0  0  0  0  0  0  0  0  0
   -0.5190    9.0980  -13.1110 C   0  0  0  0  0  0  0  0  0  0  0  0
   -1.8800    9.3560  -13.1280 C   0  0  0  0  0  3  0  0  0  0  0  0
   -2.3870   10.5880  -13.4550 C   0  0  0  0  0  3  0  0  0  0  0  0
   -1.5300   11.6190  -13.7830 C   0  0  0  0  0  3  0  0  0  0  0  0
   -0.1710   11.3600  -13.7650 C   0  0  0  0  0  3  0  0  0  0  0  0
   -0.0680    7.7910  -12.7600 N   0  0  0  0  0  0  0  0  0  0  0  0
    0.4530    7.4770  -11.5810 N   0  0  0  0  0  0  0  0  0  0  0  0
    0.7650    6.2000  -11.5820 N   0  0  0  0  0  0  0  0  0  0  0  0
    0.4410    5.6990  -12.7720 N   0  0  0  0  0  0  0  0  0  0  0  0
   -0.0820    6.6990  -13.5110 C   0  0  0  0  0  3  0  0  0  0  0  0
  1  2  1  0  0  0  0
  2  3  1  0  0  0  0
  4  3  2  0  0  0  0
  5  1  1  0  0  0  0
  5  4  1  0  0  0  0
  6  1  1  0  0  0  0
  6  7  1  0  0  0  0
  7 10  2  0  0  0  0
  8  7  1  0  0  0  0
  8 11  1  0  0  0  0
  9  8  1  0  0  0  0
 11 12  1  0  0  0  0
 12 13  1  0  0  0  0
 12 14  2  0  0  0  0
 15 14  1  0  0  0  0
 16 15  2  0  0  0  0
 17 11  2  0  0  0  0
 17 16  1  0  0  0  0
 18  4  1  0  0  0  0
 18 19  1  0  0  0  0
 19 24  1  0  0  0  0
 20 19  2  0  0  0  0
 21 20  1  0  0  0  0
 22 23  1  0  0  0  0
 22 21  2  0  0  0  0
 23 18  2  0  0  0  0
 24 25  1  0  0  0  0
 26 25  2  0  0  0  0
 27 26  1  0  0  0  0
 28 27  2  0  0  0  0
 28 24  1  0  0  0  0
M  END
>  <Pose>
1

>  <Score>
-8.449

$$$$
