MODEL 1
REMARK VINA RESULT:    -8.449      0.000      0.000
REMARK INTER + INTRA:         -11.541
REMARK INTER:                 -10.918
REMARK INTRA:                  -0.623
REMARK UNBOUND:                -0.623
REMARK  5 active torsions:
REMARK  status: ('A' for Active; 'I' for Inactive)
REMARK    1  A    between atoms: C_3  and  N_8 
REMARK       I    between atoms: N_8  and  C_9 
REMARK    2  A    between atoms: C_9  and  C_11 
REMARK    3  A    between atoms: C_11  and  N_12 
REMARK    4  A    between atoms: C_15  and  C_17 
REMARK    5  A    between atoms: C_18  and  N_23 
ROOT
ATOM      1  N   UNK d   1       3.761   9.111 -13.968  0.00  0.00    -0.182 N 
ATOM      2  N   UNK d   1       3.858   9.814 -12.852  0.00  0.00     0.025 NA
ATOM      3  N   UNK d   1       2.662  10.274 -12.502  0.00  0.00    -0.136 NA
ATOM      4  C   UNK d   1       1.766   9.855 -13.421  0.00  0.00     0.200 A 
ATOM      5  N   UNK d   1       2.483   9.143 -14.305  0.00  0.00    -0.136 NA
ENDROOT
BRANCH   1   6
ATOM      6  C   UNK d   1       4.850   8.431 -14.689  0.00  0.00     0.272 C 
BRANCH   6   7
ATOM      7  C   UNK d   1       5.299   7.225 -13.944  0.00  0.00     0.243 C 
ATOM      8  N   UNK d   1       6.631   6.812 -13.958  0.00  0.00    -0.324 N 
ATOM      9  H   UNK d   1       7.292   7.415 -14.533  0.00  0.00     0.169 HD
ATOM     10  O   UNK d   1       4.427   6.603 -13.309  0.00  0.00    -0.271 OA
BRANCH   8  11
ATOM     11  C   UNK d   1       7.220   5.702 -13.315  0.00  0.00     0.052 A 
ATOM     12  C   UNK d   1       8.260   5.881 -12.403  0.00  0.00     0.037 A 
ATOM     13 Br   UNK d   1       8.853   7.647 -12.061  0.00  0.00    -0.049 Br
ATOM     14  C   UNK d   1       8.880   4.851 -11.739  0.00  0.00     0.021 A 
ATOM     15  C   UNK d   1       8.468   3.558 -11.970  0.00  0.00     0.002 A 
ATOM     16  C   UNK d   1       7.448   3.318 -12.856  0.00  0.00     0.002 A 
ATOM     17  C   UNK d   1       6.839   4.389 -13.514  0.00  0.00     0.031 A 
ENDBRANCH   8  11
ENDBRANCH   6   7
ENDBRANCH   1   6
BRANCH   4  18
ATOM     18  C   UNK d   1       0.336  10.125 -13.437  0.00  0.00     0.044 A 
ATOM     19  C   UNK d   1      -0.519   9.098 -13.111  0.00  0.00     0.075 A 
ATOM     20  C   UNK d   1      -1.880   9.356 -13.128  0.00  0.00     0.032 A 
ATOM     21  C   UNK d   1      -2.387  10.588 -13.455  0.00  0.00     0.002 A 
ATOM     22  C   UNK d   1      -1.530  11.619 -13.783  0.00  0.00     0.001 A 
ATOM     23  C   UNK d   1      -0.171  11.360 -13.765  0.00  0.00     0.018 A 
BRANCH  19  24
ATOM     24  N   UNK d   1      -0.068   7.791 -12.760  0.00  0.00    -0.205 N 
ATOM     25  N   UNK d   1       0.453   7.477 -11.581  0.00  0.00    -0.040 NA
ATOM     26  N   UNK d   1       0.765   6.200 -11.582  0.00  0.00    -0.023 NA
ATOM     27  N   UNK d   1       0.441   5.699 -12.772  0.00  0.00    -0.122 NA
ATOM     28  C   UNK d   1      -0.082   6.699 -13.511  0.00  0.00     0.262 A 
ENDBRANCH  19  24
ENDBRANCH   4  18
TORSDOF 5
ENDMDL
