MODEL 1
REMARK VINA RESULT:    -7.315      0.000      0.000
REMARK INTER + INTRA:          -9.184
REMARK INTER:                  -9.240
REMARK INTRA:                   0.056
REMARK UNBOUND:                 0.056
REMARK  5 active torsions:
REMARK  status: ('A' for Active; 'I' for Inactive)
REMARK    1  A    between atoms: C_13  and  C_30 
REMARK    2  A    between atoms: N_18  and  C_21 
REMARK    3  A    between atoms: C_21  and  C_22 
REMARK    4  A    between atoms: C_23  and  O_28 
REMARK    5  A    between atoms: C_30  and  O_31 
ROOT
ATOM      1 Cl   UNK d   1       2.152  13.521 -10.555  0.00  0.00    -0.084 Cl
ATOM      2  C   UNK d   1       2.794  12.593 -11.919  0.00  0.00     0.034 A 
ATOM      3  C   UNK d   1       2.397  11.298 -12.140  0.00  0.00     0.036 A 
ATOM      4  C   UNK d   1       2.899  10.587 -13.197  0.00  0.00     0.019 A 
ATOM      5  C   UNK d   1       3.806  11.182 -14.037  0.00  0.00     0.044 A 
ATOM      6  C   UNK d   1       4.228  12.496 -13.839  0.00  0.00     0.032 A 
ATOM      7  C   UNK d   1       3.705  13.184 -12.767  0.00  0.00     0.026 A 
ATOM      8  N   UNK d   1       4.211  10.296 -15.064  0.00  0.00    -0.324 N 
ATOM      9  C   UNK d   1       3.513   9.079 -14.846  0.00  0.00     0.267 A 
ATOM     10  O   UNK d   1       3.610   8.048 -15.546  0.00  0.00    -0.270 OA
ATOM     11  C   UNK d   1       2.645   9.203 -13.659  0.00  0.00     0.279 A 
ATOM     12  N   UNK d   1       2.948   8.222 -12.646  0.00  0.00     0.116 N 
ATOM     13  C   UNK d   1       1.716   7.827 -12.039  0.00  0.00     0.264 C 
ATOM     14  C   UNK d   1       0.654   7.905 -13.111  0.00  0.00     0.130 C 
ATOM     15  C   UNK d   1       1.231   8.947 -14.034  0.00  0.00     0.147 C 
ATOM     16  C   UNK d   1       0.345  10.133 -13.934  0.00  0.00     0.235 C 
ATOM     17  O   UNK d   1       0.589  11.331 -14.227  0.00  0.00    -0.272 OA
ATOM     18  N   UNK d   1      -0.909   9.644 -13.417  0.00  0.00    -0.283 N 
ATOM     19  C   UNK d   1      -0.630   8.472 -12.624  0.00  0.00     0.234 C 
ATOM     20  O   UNK d   1      -1.328   7.999 -11.690  0.00  0.00    -0.272 OA
ATOM     21  H   UNK d   1       4.896  10.462 -15.858  0.00  0.00     0.169 HD
ATOM     22  H   UNK d   1       3.618   8.602 -11.970  0.00  0.00     0.318 HD
ENDROOT
BRANCH  13  23
ATOM     23  C   UNK d   1       1.803   6.441 -11.437  0.00  0.00     0.148 C 
ATOM     24  C   UNK d   1       0.732   5.602 -12.126  0.00  0.00     0.041 C 
BRANCH  23  25
ATOM     25  O   UNK d   1       3.028   5.897 -11.811  0.00  0.00    -0.394 OA
ATOM     26  H   UNK d   1       2.878   5.100 -12.368  0.00  0.00     0.210 HD
ENDBRANCH  23  25
ENDBRANCH  13  23
BRANCH  18  27
ATOM     27  C   UNK d   1      -2.222  10.210 -13.641  0.00  0.00     0.176 C 
BRANCH  27  28
ATOM     28  C   UNK d   1      -3.130   9.181 -14.233  0.00  0.00    -0.006 A 
ATOM     29  C   UNK d   1      -4.488   9.402 -14.316  0.00  0.00     0.076 A 
ATOM     30  C   UNK d   1      -5.308   8.433 -14.869  0.00  0.00     0.037 A 
ATOM     31  C   UNK d   1      -4.808   7.238 -15.348  0.00  0.00     0.003 A 
ATOM     32  C   UNK d   1      -3.452   7.007 -15.269  0.00  0.00     0.001 A 
ATOM     33  C   UNK d   1      -2.648   7.978 -14.718  0.00  0.00     0.011 A 
BRANCH  29  34
ATOM     34  O   UNK d   1      -4.993  10.613 -13.831  0.00  0.00    -0.355 OA
ATOM     35  C   UNK d   1      -6.409  10.821 -13.869  0.00  0.00     0.210 C 
ENDBRANCH  29  34
ENDBRANCH  27  28
ENDBRANCH  18  27
TORSDOF 5
ENDMDL
