MODEL 1
REMARK VINA RESULT:    -8.299      0.000      0.000
REMARK INTER + INTRA:         -10.492
REMARK INTER:                 -10.239
REMARK INTRA:                  -0.253
REMARK UNBOUND:                -0.253
REMARK  4 active torsions:
REMARK  status: ('A' for Active; 'I' for Inactive)
REMARK    1  A    between atoms: N_6  and  C_9 
REMARK    2  A    between atoms: C_9  and  C_10 
REMARK       I    between atoms: C_10  and  N_12 
REMARK    3  A    between atoms: N_15  and  C_18 
REMARK    4  A    between atoms: C_18  and  C_19 
REMARK       I    between atoms: C_19  and  N_21 
ROOT
ATOM      1  C   UNK d   1       2.060   9.913 -12.799  0.00  0.00     0.238 C 
ATOM      2  O   UNK d   1       2.212  10.035 -11.568  0.00  0.00    -0.272 OA
ATOM      3  N   UNK d   1       2.072   8.642 -13.392  0.00  0.00    -0.348 N 
ATOM      4  C   UNK d   1       2.249   7.417 -12.644  0.00  0.00     0.145 C 
ATOM      5  C   UNK d   1       1.102   6.496 -13.027  0.00  0.00     0.137 C 
ATOM      6  N   UNK d   1       0.158   7.150 -13.833  0.00  0.00    -0.401 N 
ATOM      7  C   UNK d   1       0.557   7.756 -15.036  0.00  0.00     0.137 C 
ATOM      8  C   UNK d   1       1.899   8.452 -14.840  0.00  0.00     0.145 C 
ENDROOT
BRANCH   1   9
ATOM      9  C   UNK d   1       1.866  11.151 -13.627  0.00  0.00     0.231 C 
BRANCH   9  10
ATOM     10  N   UNK d   1       2.099  12.354 -12.857  0.00  0.00    -0.347 N 
ATOM     11  C   UNK d   1       1.253  13.422 -12.788  0.00  0.00     0.045 A 
ATOM     12  C   UNK d   1       1.780  14.397 -11.973  0.00  0.00    -0.007 A 
ATOM     13  C   UNK d   1       0.032  13.625 -13.388  0.00  0.00     0.032 A 
ATOM     14  C   UNK d   1       1.114  15.594 -11.731  0.00  0.00     0.032 A 
ATOM     15  C   UNK d   1       2.992  13.923 -11.519  0.00  0.00     0.031 A 
ATOM     16  C   UNK d   1      -0.126  15.807 -12.337  0.00  0.00     0.011 A 
ATOM     17 Br   UNK d   1      -1.072  17.446 -12.024  0.00  0.00    -0.051 Br
ATOM     18  C   UNK d   1      -0.639  14.820 -13.151  0.00  0.00     0.021 A 
ATOM     19  C   UNK d   1       3.144  12.674 -12.084  0.00  0.00     0.092 A 
ENDBRANCH   9  10
ENDBRANCH   1   9
BRANCH   6  20
ATOM     20  C   UNK d   1      -1.148   7.346 -13.355  0.00  0.00     0.220 C 
BRANCH  20  21
ATOM     21  C   UNK d   1      -2.218   6.976 -14.319  0.00  0.00     0.237 C 
ATOM     22  O   UNK d   1      -2.149   5.826 -14.820  0.00  0.00    -0.272 OA
ATOM     23  N   UNK d   1      -3.270   7.830 -14.685  0.00  0.00    -0.347 N 
ATOM     24  C   UNK d   1      -4.268   7.394 -15.641  0.00  0.00     0.152 C 
ATOM     25  C   UNK d   1      -3.444   9.170 -14.162  0.00  0.00     0.152 C 
ATOM     26  C   UNK d   1      -5.622   7.586 -14.989  0.00  0.00     0.187 C 
ATOM     27  O   UNK d   1      -5.767   8.973 -14.832  0.00  0.00    -0.388 OA
ATOM     28  C   UNK d   1      -4.880   9.475 -13.911  0.00  0.00     0.187 C 
ENDBRANCH  20  21
ENDBRANCH   6  20
TORSDOF 4
ENDMDL
