MODEL 1
REMARK VINA RESULT:    -8.547      0.000      0.000
REMARK INTER + INTRA:         -11.710
REMARK INTER:                 -10.795
REMARK INTRA:                  -0.914
REMARK UNBOUND:                -0.914
REMARK  5 active torsions:
REMARK  status: ('A' for Active; 'I' for Inactive)
REMARK    1  A    between atoms: C_4  and  N_8 
REMARK    2  A    between atoms: C_14  and  C_17 
REMARK    3  A    between atoms: C_19  and  C_22 
REMARK    4  A    between atoms: C_24  and  O_30 
REMARK    5  A    between atoms: C_25  and  O_28 
ROOT
ATOM      1  N   UNK d   1       1.253   7.623 -13.954  0.00  0.00    -0.233 N 
ATOM      2  C   UNK d   1       1.842   6.773 -12.971  0.00  0.00     0.336 C 
ATOM      3  O   UNK d   1       1.186   5.975 -12.258  0.00  0.00    -0.246 OA
ATOM      4  N   UNK d   1       3.256   6.832 -12.790  0.00  0.00    -0.277 N 
ATOM      5  C   UNK d   1       4.032   7.735 -13.592  0.00  0.00     0.244 C 
ATOM      6  O   UNK d   1       5.297   7.567 -13.549  0.00  0.00    -0.272 OA
ATOM      7  C   UNK d   1       3.420   8.793 -14.416  0.00  0.00     0.221 C 
ATOM      8  C   UNK d   1       2.004   8.520 -14.761  0.00  0.00     0.251 C 
ATOM      9  O   UNK d   1       1.513   9.097 -15.763  0.00  0.00    -0.271 OA
ATOM     10  H   UNK d   1       3.756   6.233 -12.083  0.00  0.00     0.173 HD
ENDROOT
BRANCH   7  11
ATOM     11  C   UNK d   1       3.533  10.133 -13.728  0.00  0.00     0.041 C 
ATOM     12  C   UNK d   1       3.254  10.336 -12.453  0.00  0.00     0.026 C 
ATOM     13  C   UNK d   1       3.501  11.777 -12.226  0.00  0.00     0.134 C 
ATOM     14  N   UNK d   1       4.521  12.066 -13.218  0.00  0.00    -0.228 NA
ATOM     15  N   UNK d   1       3.973  11.357 -14.315  0.00  0.00    -0.323 N 
ATOM     16  H   UNK d   1       4.684  13.059 -13.402  0.00  0.00     0.147 HD
ATOM     17  H   UNK d   1       3.878  11.588 -15.304  0.00  0.00     0.180 HD
BRANCH  13  18
ATOM     18  C   UNK d   1       2.269  12.572 -12.491  0.00  0.00    -0.032 A 
ATOM     19  C   UNK d   1       1.112  12.074 -13.019  0.00  0.00     0.048 A 
ATOM     20  C   UNK d   1      -0.016  12.846 -13.208  0.00  0.00     0.099 A 
ATOM     21  C   UNK d   1      -0.012  14.185 -12.861  0.00  0.00     0.101 A 
ATOM     22  C   UNK d   1       1.180  14.692 -12.319  0.00  0.00     0.040 A 
ATOM     23  C   UNK d   1       2.295  13.908 -12.138  0.00  0.00     0.012 A 
BRANCH  20  24
ATOM     24  O   UNK d   1      -1.182  12.285 -13.758  0.00  0.00    -0.358 OA
ATOM     25  H   UNK d   1      -1.537  12.675 -14.625  0.00  0.00     0.217 HD
ENDBRANCH  20  24
BRANCH  21  26
ATOM     26  O   UNK d   1      -1.118  14.983 -13.031  0.00  0.00    -0.353 OA
ATOM     27  C   UNK d   1      -1.008  16.378 -13.223  0.00  0.00     0.210 C 
ENDBRANCH  21  26
ENDBRANCH  13  18
ENDBRANCH   7  11
BRANCH   1  28
ATOM     28  C   UNK d   1      -0.161   7.560 -14.105  0.00  0.00     0.048 A 
ATOM     29  C   UNK d   1      -0.981   8.575 -13.644  0.00  0.00     0.054 A 
ATOM     30  C   UNK d   1      -2.346   8.553 -13.787  0.00  0.00     0.036 A 
ATOM     31 Cl   UNK d   1      -3.338   9.853 -13.184  0.00  0.00    -0.084 Cl
ATOM     32  C   UNK d   1      -2.905   7.460 -14.423  0.00  0.00     0.024 A 
ATOM     33  C   UNK d   1      -2.123   6.426 -14.897  0.00  0.00     0.004 A 
ATOM     34  C   UNK d   1      -0.744   6.497 -14.726  0.00  0.00     0.030 A 
ENDBRANCH   1  28
TORSDOF 5
ENDMDL
