MODEL 1
REMARK VINA RESULT:    -8.116      0.000      0.000
REMARK INTER + INTRA:         -11.076
REMARK INTER:                 -10.252
REMARK INTRA:                  -0.825
REMARK UNBOUND:                -0.825
REMARK  5 active torsions:
REMARK  status: ('A' for Active; 'I' for Inactive)
REMARK    1  A    between atoms: C_4  and  N_8 
REMARK    2  A    between atoms: C_14  and  C_17 
REMARK    3  A    between atoms: C_19  and  C_22 
REMARK    4  A    between atoms: C_24  and  O_29 
REMARK    5  A    between atoms: C_25  and  O_28 
ROOT
ATOM      1  N   UNK d   1       1.973  10.879 -13.634  0.00  0.00    -0.233 N 
ATOM      2  C   UNK d   1       2.020  10.317 -14.935  0.00  0.00     0.336 C 
ATOM      3  O   UNK d   1       1.342  10.778 -15.864  0.00  0.00    -0.246 OA
ATOM      4  N   UNK d   1       2.865   9.187 -15.198  0.00  0.00    -0.277 N 
ATOM      5  C   UNK d   1       3.668   8.616 -14.167  0.00  0.00     0.244 C 
ATOM      6  O   UNK d   1       4.692   7.954 -14.411  0.00  0.00    -0.272 OA
ATOM      7  C   UNK d   1       3.249   8.830 -12.736  0.00  0.00     0.221 C 
ATOM      8  C   UNK d   1       2.809  10.239 -12.646  0.00  0.00     0.251 C 
ATOM      9  O   UNK d   1       3.162  10.977 -11.657  0.00  0.00    -0.271 OA
ATOM     10  H   UNK d   1       2.884   8.795 -16.148  0.00  0.00     0.173 HD
ENDROOT
BRANCH   7  11
ATOM     11  C   UNK d   1       2.171   7.856 -12.390  0.00  0.00     0.041 C 
ATOM     12  C   UNK d   1       1.121   8.020 -11.612  0.00  0.00     0.026 C 
ATOM     13  C   UNK d   1       0.344   6.751 -11.588  0.00  0.00     0.134 C 
ATOM     14  N   UNK d   1       1.405   5.774 -11.942  0.00  0.00    -0.228 NA
ATOM     15  N   UNK d   1       2.149   6.507 -12.876  0.00  0.00    -0.323 N 
ATOM     16  H   UNK d   1       1.954   5.529 -11.094  0.00  0.00     0.147 HD
ATOM     17  H   UNK d   1       2.592   6.176 -13.727  0.00  0.00     0.180 HD
BRANCH  13  18
ATOM     18  C   UNK d   1      -0.604   6.741 -12.735  0.00  0.00    -0.032 A 
ATOM     19  C   UNK d   1      -1.292   7.908 -13.133  0.00  0.00     0.048 A 
ATOM     20  C   UNK d   1      -2.141   7.955 -14.195  0.00  0.00     0.101 A 
ATOM     21  C   UNK d   1      -2.359   6.813 -14.942  0.00  0.00     0.099 A 
ATOM     22  C   UNK d   1      -1.705   5.657 -14.583  0.00  0.00     0.040 A 
ATOM     23  C   UNK d   1      -0.849   5.624 -13.505  0.00  0.00     0.012 A 
BRANCH  20  24
ATOM     24  O   UNK d   1      -2.802   9.141 -14.544  0.00  0.00    -0.353 OA
ATOM     25  C   UNK d   1      -3.996   9.491 -13.878  0.00  0.00     0.210 C 
ENDBRANCH  20  24
BRANCH  21  26
ATOM     26  O   UNK d   1      -3.222   6.844 -16.033  0.00  0.00    -0.358 OA
ATOM     27  H   UNK d   1      -3.757   6.015 -16.258  0.00  0.00     0.217 HD
ENDBRANCH  21  26
ENDBRANCH  13  18
ENDBRANCH   7  11
BRANCH   1  28
ATOM     28  C   UNK d   1       1.200  12.015 -13.272  0.00  0.00     0.048 A 
ATOM     29  C   UNK d   1       1.887  13.163 -12.858  0.00  0.00     0.054 A 
ATOM     30  C   UNK d   1       1.231  14.310 -12.473  0.00  0.00     0.036 A 
ATOM     31 Cl   UNK d   1       2.170  15.689 -11.968  0.00  0.00    -0.084 Cl
ATOM     32  C   UNK d   1      -0.137  14.382 -12.477  0.00  0.00     0.024 A 
ATOM     33  C   UNK d   1      -0.832  13.242 -12.890  0.00  0.00     0.004 A 
ATOM     34  C   UNK d   1      -0.167  12.097 -13.273  0.00  0.00     0.030 A 
ENDBRANCH   1  28
TORSDOF 5
ENDMDL
