MODEL 1
REMARK VINA RESULT:    -7.487      0.000      0.000
REMARK INTER + INTRA:          -8.946
REMARK INTER:                  -8.800
REMARK INTRA:                  -0.147
REMARK UNBOUND:                -0.147
REMARK  3 active torsions:
REMARK  status: ('A' for Active; 'I' for Inactive)
REMARK    1  A    between atoms: S_1  and  N_4 
REMARK    2  A    between atoms: S_1  and  N_22 
REMARK       I    between atoms: N_7  and  C_10 
REMARK    3  A    between atoms: C_10  and  C_12 
ROOT
ATOM      1  N   UNK d   1       3.528  10.275 -13.807  0.00  0.00    -0.295 N 
ATOM      2  C   UNK d   1       2.755  10.191 -15.008  0.00  0.00     0.156 C 
ATOM      3  C   UNK d   1       1.476   9.396 -14.824  0.00  0.00     0.147 C 
ATOM      4  N   UNK d   1       1.785   8.162 -14.152  0.00  0.00    -0.344 N 
ATOM      5  C   UNK d   1       3.179   7.849 -13.907  0.00  0.00     0.147 C 
ATOM      6  C   UNK d   1       3.781   9.027 -13.172  0.00  0.00     0.156 C 
ATOM      7  C   UNK d   1       0.784   7.244 -13.723  0.00  0.00     0.274 C 
ATOM      8  O   UNK d   1       1.079   6.176 -13.138  0.00  0.00    -0.266 OA
ENDROOT
BRANCH   7   9
ATOM      9  C   UNK d   1      -0.634   7.525 -13.955  0.00  0.00     0.142 A 
ATOM     10  N   UNK d   1      -1.511   6.741 -14.640  0.00  0.00    -0.224 NA
ATOM     11  C   UNK d   1      -2.716   7.331 -14.640  0.00  0.00     0.134 A 
ATOM     12  N   UNK d   1      -2.596   8.473 -13.963  0.00  0.00    -0.313 N 
ATOM     13  C   UNK d   1      -3.944   6.979 -15.178  0.00  0.00     0.052 A 
ATOM     14  C   UNK d   1      -1.334   8.616 -13.535  0.00  0.00     0.135 A 
ATOM     15  C   UNK d   1      -3.680   9.259 -13.820  0.00  0.00     0.122 A 
ATOM     16  C   UNK d   1      -4.914   8.962 -14.328  0.00  0.00     0.050 A 
ATOM     17  C   UNK d   1      -5.060   7.775 -15.038  0.00  0.00     0.029 A 
ATOM     18 Cl   UNK d   1      -6.310  10.014 -14.121  0.00  0.00    -0.083 Cl
ENDBRANCH   7   9
BRANCH   1  19
ATOM     19  S   UNK d   1       3.124  11.543 -12.765  0.00  0.00     0.301 S 
ATOM     20  O   UNK d   1       2.886  11.016 -11.388  0.00  0.00    -0.188 OA
ATOM     21  O   UNK d   1       4.277  12.505 -12.712  0.00  0.00    -0.188 OA
BRANCH  19  22
ATOM     22  N   UNK d   1       1.738  12.431 -13.255  0.00  0.00    -0.189 NA
ATOM     23  C   UNK d   1       1.671  13.739 -12.630  0.00  0.00     0.135 C 
ATOM     24  C   UNK d   1       0.223  14.168 -12.646  0.00  0.00     0.183 C 
ATOM     25  O   UNK d   1      -0.439  13.702 -13.777  0.00  0.00    -0.389 OA
ATOM     26  C   UNK d   1      -0.586  12.317 -13.781  0.00  0.00     0.183 C 
ATOM     27  C   UNK d   1       0.508  11.745 -12.902  0.00  0.00     0.135 C 
ENDBRANCH  19  22
ENDBRANCH   1  19
TORSDOF 3
ENDMDL
