MODEL 1
REMARK VINA RESULT:    -7.978      0.000      0.000
REMARK INTER + INTRA:         -10.728
REMARK INTER:                  -9.844
REMARK INTRA:                  -0.884
REMARK UNBOUND:                -0.884
REMARK  4 active torsions:
REMARK  status: ('A' for Active; 'I' for Inactive)
REMARK    1  A    between atoms: C_5  and  N_8 
REMARK    2  A    between atoms: C_12  and  C_13 
REMARK    3  A    between atoms: C_13  and  N_14 
REMARK    4  A    between atoms: N_14  and  C_15 
ROOT
ATOM      1  N   UNK d   1       0.453  15.253 -12.643  0.00  0.00    -0.220 N 
ATOM      2  N   UNK d   1       1.750  15.497 -12.693  0.00  0.00    -0.291 N 
ATOM      3  C   UNK d   1       2.471  14.359 -12.748  0.00  0.00     0.056 A 
ATOM      4  C   UNK d   1       3.772  14.204 -12.807  0.00  0.00     0.045 C 
ATOM      5  C   UNK d   1       1.561  13.320 -12.730  0.00  0.00     0.076 A 
ATOM      6  C   UNK d   1       0.320  13.916 -12.665  0.00  0.00     0.280 A 
ATOM      7  O   UNK d   1      -0.778  13.306 -12.631  0.00  0.00    -0.265 OA
ATOM      8  H   UNK d   1       2.187  16.448 -12.692  0.00  0.00     0.187 HD
ENDROOT
BRANCH   5   9
ATOM      9  C   UNK d   1       1.852  12.011 -12.771  0.00  0.00     0.103 C 
BRANCH   9  10
ATOM     10  N   UNK d   1       1.166  11.241 -13.750  0.00  0.00    -0.384 N 
ATOM     11  H   UNK d   1       0.803  11.625 -14.644  0.00  0.00     0.159 HD
BRANCH  10  12
ATOM     12  C   UNK d   1       0.952   9.825 -13.498  0.00  0.00     0.109 C 
ATOM     13  C   UNK d   1       1.705   9.401 -12.246  0.00  0.00     0.311 C 
ATOM     14  N   UNK d   1       1.434   8.016 -11.980  0.00  0.00     0.147 N 
ATOM     15  C   UNK d   1       1.907   7.250 -13.129  0.00  0.00     0.547 C 
ATOM     16  C   UNK d   1       0.009   7.852 -11.797  0.00  0.00     0.547 C 
ATOM     17  N   UNK d   1       1.188   7.592 -14.324  0.00  0.00     0.147 N 
ATOM     18  C   UNK d   1      -0.234   7.417 -14.129  0.00  0.00     0.547 C 
ATOM     19  C   UNK d   1       1.443   8.976 -14.632  0.00  0.00     0.311 C 
ATOM     20  N   UNK d   1      -0.727   8.180 -13.014  0.00  0.00     0.147 N 
ATOM     21  C   UNK d   1      -0.526   9.586 -13.278  0.00  0.00     0.311 C 
ENDBRANCH  10  12
ENDBRANCH   9  10
ENDBRANCH   5   9
BRANCH   1  22
ATOM     22  C   UNK d   1      -0.605  16.229 -12.577  0.00  0.00     0.060 A 
ATOM     23  C   UNK d   1      -1.582  16.338 -13.515  0.00  0.00     0.033 A 
ATOM     24  C   UNK d   1      -2.564  17.318 -13.362  0.00  0.00     0.020 A 
ATOM     25  C   UNK d   1      -2.571  18.180 -12.284  0.00  0.00     0.006 A 
ATOM     26  I   UNK d   1      -4.055  19.656 -12.058  0.00  0.00    -0.045 I 
ATOM     27  C   UNK d   1      -1.583  18.072 -11.332  0.00  0.00     0.020 A 
ATOM     28  C   UNK d   1      -0.623  17.098 -11.501  0.00  0.00     0.033 A 
ENDBRANCH   1  22
TORSDOF 4
ENDMDL
