/Users/jonathanwahrer/Desktop/Msc/3_Semester/Drug_Design_Praktikum/waehrer_HTS_screening/HTS_experiment/out/docking_results/vina_output/6q9y/1758_docked.pdbqt
 OpenBabel03222220233D

 28 32  0  0  1  0  0  0  0  0999 V2000
    0.4530   15.2530  -12.6430 N   0  0  0  0  0  0  0  0  0  0  0  0
    1.7500   15.4970  -12.6930 N   0  0  0  0  0  0  0  0  0  0  0  0
    2.4710   14.3590  -12.7480 C   0  0  0  0  0  0  0  0  0  0  0  0
    3.7720   14.2040  -12.8070 C   0  0  0  0  0  2  0  0  0  0  0  0
    1.5610   13.3200  -12.7300 C   0  0  1  0  0  3  0  0  0  0  0  0
    0.3200   13.9160  -12.6650 C   0  0  0  0  0  0  0  0  0  0  0  0
   -0.7780   13.3060  -12.6310 O   0  0  0  0  0  0  0  0  0  0  0  0
    2.1870   16.4480  -12.6920 H   0  0  0  0  0  0  0  0  0  0  0  0
    1.8520   12.0110  -12.7710 C   0  0  0  0  0  2  0  0  0  0  0  0
    1.1660   11.2410  -13.7500 N   0  0  0  0  0  0  0  0  0  0  0  0
    0.8030   11.6250  -14.6440 H   0  0  0  0  0  0  0  0  0  0  0  0
    0.9520    9.8250  -13.4980 C   0  0  2  0  0  0  0  0  0  0  0  0
    1.7050    9.4010  -12.2460 C   0  0  0  0  0  2  0  0  0  0  0  0
    1.4340    8.0160  -11.9800 N   0  0  2  0  0  0  0  0  0  0  0  0
    1.9070    7.2500  -13.1290 C   0  0  0  0  0  2  0  0  0  0  0  0
    0.0090    7.8520  -11.7970 C   0  0  0  0  0  2  0  0  0  0  0  0
    1.1880    7.5920  -14.3240 N   0  0  1  0  0  0  0  0  0  0  0  0
   -0.2340    7.4170  -14.1290 C   0  0  0  0  0  2  0  0  0  0  0  0
    1.4430    8.9760  -14.6320 C   0  0  0  0  0  2  0  0  0  0  0  0
   -0.7270    8.1800  -13.0140 N   0  0  2  0  0  0  0  0  0  0  0  0
   -0.5260    9.5860  -13.2780 C   0  0  0  0  0  2  0  0  0  0  0  0
   -0.6050   16.2290  -12.5770 C   0  0  0  0  0  0  0  0  0  0  0  0
   -1.5820   16.3380  -13.5150 C   0  0  0  0  0  3  0  0  0  0  0  0
   -2.5640   17.3180  -13.3620 C   0  0  0  0  0  3  0  0  0  0  0  0
   -2.5710   18.1800  -12.2840 C   0  0  0  0  0  0  0  0  0  0  0  0
   -4.0550   19.6560  -12.0580 I   0  0  0  0  0  0  0  0  0  0  0  0
   -1.5830   18.0720  -11.3320 C   0  0  0  0  0  3  0  0  0  0  0  0
   -0.6230   17.0980  -11.5010 C   0  0  0  0  0  3  0  0  0  0  0  0
  1 22  1  0  0  0  0
  2  8  1  0  0  0  0
  2  1  1  0  0  0  0
  3  5  1  0  0  0  0
  3  2  1  0  0  0  0
  4  3  2  0  0  0  0
  5  9  1  6  0  0  0
  5  6  1  0  0  0  0
  6  1  1  0  0  0  0
  6  7  2  0  0  0  0
 10  9  1  0  0  0  0
 11 10  1  0  0  0  0
 12 10  1  6  0  0  0
 12 21  1  0  0  0  0
 12 13  1  0  0  0  0
 13 14  1  0  0  0  0
 14 15  1  6  0  0  0
 14 16  1  0  0  0  0
 17 19  1  1  0  0  0
 17 18  1  0  0  0  0
 17 15  1  0  0  0  0
 19 12  1  0  0  0  0
 20 18  1  6  0  0  0
 20 16  1  0  0  0  0
 21 20  1  0  0  0  0
 22 28  1  0  0  0  0
 23 24  1  0  0  0  0
 23 22  2  0  0  0  0
 24 25  2  0  0  0  0
 25 26  1  0  0  0  0
 25 27  1  0  0  0  0
 28 27  2  0  0  0  0
M  END
>  <Pose>
1

>  <Score>
-7.978

$$$$
