MODEL 1
REMARK VINA RESULT:    -9.359      0.000      0.000
REMARK INTER + INTRA:         -13.184
REMARK INTER:                 -12.641
REMARK INTRA:                  -0.543
REMARK UNBOUND:                -0.543
REMARK  6 active torsions:
REMARK  status: ('A' for Active; 'I' for Inactive)
REMARK    1  A    between atoms: S_1  and  N_4 
REMARK    2  A    between atoms: S_1  and  C_21 
REMARK    3  A    between atoms: C_5  and  C_9 
REMARK       I    between atoms: C_9  and  N_11 
REMARK    4  A    between atoms: N_11  and  C_12 
REMARK    5  A    between atoms: C_12  and  C_13 
REMARK    6  A    between atoms: C_13  and  N_14 
ROOT
ATOM      1  N   UNK d   1       1.810  13.443 -12.802  0.00  0.00    -0.293 N 
ATOM      2  C   UNK d   1       0.794  13.996 -12.047  0.00  0.00     0.188 C 
ATOM      3  C   UNK d   1       1.494  14.862 -10.990  0.00  0.00     0.037 C 
ATOM      4  C   UNK d   1       2.661  15.417 -11.776  0.00  0.00     0.023 C 
ATOM      5  C   UNK d   1       2.949  14.356 -12.811  0.00  0.00     0.136 C 
ENDROOT
BRANCH   1   6
ATOM      6  S   UNK d   1       2.229  11.837 -12.832  0.00  0.00     0.263 S 
ATOM      7  O   UNK d   1       2.916  11.383 -11.545  0.00  0.00    -0.200 OA
ATOM      8  O   UNK d   1       3.308  11.640 -13.899  0.00  0.00    -0.200 OA
BRANCH   6   9
ATOM      9  C   UNK d   1       0.936  10.736 -13.204  0.00  0.00     0.104 A 
ATOM     10  C   UNK d   1      -0.346  11.257 -13.445  0.00  0.00     0.066 A 
ATOM     11  C   UNK d   1      -1.446  10.485 -13.687  0.00  0.00     0.097 A 
ATOM     12  C   UNK d   1      -1.267   9.114 -13.690  0.00  0.00     0.070 A 
ATOM     13  O   UNK d   1      -2.709  11.005 -13.925  0.00  0.00    -0.340 OA
ATOM     14  C   UNK d   1      -0.052   8.541 -13.465  0.00  0.00     0.058 A 
ATOM     15  N   UNK d   1      -2.415   8.291 -13.948  0.00  0.00    -0.323 N 
ATOM     16  C   UNK d   1       1.035   9.373 -13.225  0.00  0.00     0.059 A 
ATOM     17 Cl   UNK d   1       2.578   8.568 -13.049  0.00  0.00    -0.083 Cl
ATOM     18  C   UNK d   1      -3.679   8.904 -14.189  0.00  0.00     0.246 C 
ATOM     19  H   UNK d   1      -2.294   7.248 -13.954  0.00  0.00     0.169 HD
ATOM     20  O   UNK d   1      -4.730   8.274 -13.973  0.00  0.00    -0.271 OA
ATOM     21  C   UNK d   1      -3.673  10.297 -14.700  0.00  0.00     0.278 C 
ENDBRANCH   6   9
ENDBRANCH   1   6
BRANCH   2  22
ATOM     22  C   UNK d   1      -0.028  14.909 -12.940  0.00  0.00     0.241 C 
ATOM     23  O   UNK d   1      -0.292  14.465 -14.065  0.00  0.00    -0.271 OA
ATOM     24  N   UNK d   1      -0.434  16.167 -12.460  0.00  0.00    -0.358 N 
ATOM     25  H   UNK d   1      -0.183  16.516 -11.513  0.00  0.00     0.162 HD
BRANCH  24  26
ATOM     26  C   UNK d   1      -1.225  17.041 -13.292  0.00  0.00     0.152 C 
BRANCH  26  27
ATOM     27  C   UNK d   1      -2.614  17.279 -12.839  0.00  0.00     0.292 C 
BRANCH  27  28
ATOM     28  N   UNK d   1      -2.842  18.456 -12.080  0.00  0.00     0.090 N 
ATOM     29  C   UNK d   1      -2.875  18.284 -10.664  0.00  0.00     0.272 C 
ATOM     30  C   UNK d   1      -2.177  19.474 -10.035  0.00  0.00     0.030 C 
ATOM     31  C   UNK d   1      -2.782  20.746 -10.593  0.00  0.00     0.002 C 
ATOM     32  C   UNK d   1      -4.281  20.615 -10.551  0.00  0.00     0.002 C 
ATOM     33  C   UNK d   1      -4.863  19.817 -11.658  0.00  0.00     0.030 C 
ATOM     34  C   UNK d   1      -3.899  19.242 -12.626  0.00  0.00     0.272 C 
ENDBRANCH  27  28
ENDBRANCH  26  27
ENDBRANCH  24  26
ENDBRANCH   2  22
TORSDOF 6
ENDMDL
