MODEL 1
REMARK VINA RESULT:    -8.789      0.000      0.000
REMARK INTER + INTRA:         -10.311
REMARK INTER:                  -9.817
REMARK INTRA:                  -0.494
REMARK UNBOUND:                -0.494
REMARK  2 active torsions:
REMARK  status: ('A' for Active; 'I' for Inactive)
REMARK    1  A    between atoms: C_5  and  C_8 
REMARK       I    between atoms: C_8  and  N_10 
REMARK    2  A    between atoms: N_13  and  C_16 
ROOT
ATOM      1  C   UNK d   1       2.590   7.340 -13.161  0.00  0.00     0.187 C 
ATOM      2  O   UNK d   1       2.068   6.946 -12.027  0.00  0.00    -0.171 OA
ATOM      3  N   UNK d   1       1.739   8.085 -13.964  0.00  0.00    -0.356 N 
ATOM      4  C   UNK d   1       1.913   8.633 -15.268  0.00  0.00     0.145 C 
ATOM      5  C   UNK d   1       2.226  10.125 -15.035  0.00  0.00     0.144 C 
ATOM      6  N   UNK d   1       1.333  10.589 -13.958  0.00  0.00    -0.361 N 
ATOM      7  C   UNK d   1       0.098   9.886 -13.761  0.00  0.00     0.144 C 
ATOM      8  C   UNK d   1       0.407   8.451 -13.375  0.00  0.00     0.145 C 
ENDROOT
BRANCH   1   9
ATOM      9  C   UNK d   1       3.949   6.918 -13.348  0.00  0.00     0.018 A 
ATOM     10  C   UNK d   1       4.330   5.625 -12.971  0.00  0.00     0.017 A 
ATOM     11  C   UNK d   1       5.618   5.153 -13.077  0.00  0.00     0.025 A 
ATOM     12  C   UNK d   1       6.620   5.950 -13.571  0.00  0.00     0.034 A 
ATOM     13 Cl   UNK d   1       8.278   5.347 -13.710  0.00  0.00    -0.084 Cl
ATOM     14  C   UNK d   1       6.294   7.226 -13.953  0.00  0.00     0.025 A 
ATOM     15  C   UNK d   1       4.973   7.695 -13.839  0.00  0.00     0.017 A 
ENDBRANCH   1   9
BRANCH   6  16
ATOM     16  C   UNK d   1       1.718  11.708 -13.163  0.00  0.00     0.146 A 
ATOM     17  N   UNK d   1       0.959  12.825 -13.112  0.00  0.00    -0.147 NA
ATOM     18  N   UNK d   1       1.285  13.881 -12.389  0.00  0.00    -0.204 N 
ATOM     19  C   UNK d   1       2.400  13.926 -11.645  0.00  0.00     0.174 A 
ATOM     20  C   UNK d   1       0.680  15.087 -12.196  0.00  0.00     0.261 A 
ATOM     21  N   UNK d   1       2.491  15.119 -11.007  0.00  0.00    -0.129 NA
ATOM     22  C   UNK d   1       3.231  12.818 -11.644  0.00  0.00     0.058 A 
ATOM     23  N   UNK d   1       1.428  15.821 -11.354  0.00  0.00    -0.141 NA
ATOM     24  C   UNK d   1       2.868  11.733 -12.406  0.00  0.00     0.056 A 
ENDBRANCH   6  16
TORSDOF 2
ENDMDL
