/Users/jonathanwahrer/Desktop/Msc/3_Semester/Drug_Design_Praktikum/waehrer_HTS_screening/HTS_experiment/out/docking_results/vina_output/6q9y/1781_docked.pdbqt
 OpenBabel03222220233D

 24 27  0  0  0  0  0  0  0  0999 V2000
    2.5900    7.3400  -13.1610 C   0  0  0  0  0  0  0  0  0  0  0  0
    2.0680    6.9460  -12.0270 O   0  0  0  0  0  0  0  0  0  0  0  0
    1.7390    8.0850  -13.9640 N   0  0  0  0  0  0  0  0  0  0  0  0
    1.9130    8.6330  -15.2680 C   0  0  0  0  0  2  0  0  0  0  0  0
    2.2260   10.1250  -15.0350 C   0  0  0  0  0  2  0  0  0  0  0  0
    1.3330   10.5890  -13.9580 N   0  0  0  0  0  0  0  0  0  0  0  0
    0.0980    9.8860  -13.7610 C   0  0  0  0  0  2  0  0  0  0  0  0
    0.4070    8.4510  -13.3750 C   0  0  0  0  0  2  0  0  0  0  0  0
    3.9490    6.9180  -13.3480 C   0  0  0  0  0  0  0  0  0  0  0  0
    4.3300    5.6250  -12.9710 C   0  0  0  0  0  3  0  0  0  0  0  0
    5.6180    5.1530  -13.0770 C   0  0  0  0  0  3  0  0  0  0  0  0
    6.6200    5.9500  -13.5710 C   0  0  0  0  0  0  0  0  0  0  0  0
    8.2780    5.3470  -13.7100 Cl  0  0  0  0  0  0  0  0  0  0  0  0
    6.2940    7.2260  -13.9530 C   0  0  0  0  0  3  0  0  0  0  0  0
    4.9730    7.6950  -13.8390 C   0  0  0  0  0  3  0  0  0  0  0  0
    1.7180   11.7080  -13.1630 C   0  0  0  0  0  0  0  0  0  0  0  0
    0.9590   12.8250  -13.1120 N   0  0  0  0  0  0  0  0  0  0  0  0
    1.2850   13.8810  -12.3890 N   0  0  0  0  0  0  0  0  0  0  0  0
    2.4000   13.9260  -11.6450 C   0  0  0  0  0  0  0  0  0  0  0  0
    0.6800   15.0870  -12.1960 C   0  0  0  0  0  3  0  0  0  0  0  0
    2.4910   15.1190  -11.0070 N   0  0  0  0  0  0  0  0  0  0  0  0
    3.2310   12.8180  -11.6440 C   0  0  0  0  0  3  0  0  0  0  0  0
    1.4280   15.8210  -11.3540 N   0  0  0  0  0  0  0  0  0  0  0  0
    2.8680   11.7330  -12.4060 C   0  0  0  0  0  3  0  0  0  0  0  0
  1  2  2  0  0  0  0
  3  8  1  0  0  0  0
  3  1  1  0  0  0  0
  4  5  1  0  0  0  0
  4  3  1  0  0  0  0
  5  6  1  0  0  0  0
  6  7  1  0  0  0  0
  6 16  1  0  0  0  0
  7  8  1  0  0  0  0
  9  1  1  0  0  0  0
  9 10  1  0  0  0  0
 11 10  2  0  0  0  0
 12 11  1  0  0  0  0
 13 12  1  0  0  0  0
 14 15  1  0  0  0  0
 14 12  2  0  0  0  0
 15  9  2  0  0  0  0
 16 17  2  0  0  0  0
 16 24  1  0  0  0  0
 17 18  1  0  0  0  0
 18 20  1  0  0  0  0
 18 19  1  0  0  0  0
 19 22  1  0  0  0  0
 19 21  2  0  0  0  0
 20 23  2  0  0  0  0
 23 21  1  0  0  0  0
 24 22  2  0  0  0  0
M  END
>  <Pose>
1

>  <Score>
-8.789

$$$$
