/Users/jonathanwahrer/Desktop/Msc/3_Semester/Drug_Design_Praktikum/waehrer_HTS_screening/HTS_experiment/out/docking_results/vina_output/6q9y/1788_docked.pdbqt
 OpenBabel03222220233D

 30 33  0  0  0  0  0  0  0  0999 V2000
    2.9390    6.2110  -12.7330 N   0  0  0  0  0  0  0  0  0  0  0  0
    3.0810    7.4670  -12.9660 N   0  0  0  0  0  0  0  0  0  0  0  0
    1.9030    8.1620  -12.7430 C   0  0  0  0  0  0  0  0  0  0  0  0
    1.0170    7.2630  -12.3590 N   0  0  0  0  0  0  0  0  0  0  0  0
    1.6690    6.0510  -12.3520 C   0  0  0  0  0  0  0  0  0  0  0  0
    1.1150    4.9780  -12.0300 O   0  0  0  0  0  0  0  0  0  0  0  0
   -0.3800    7.4160  -12.0970 C   0  0  0  0  0  2  0  0  0  0  0  0
   -1.2640    7.2630  -13.2680 C   0  0  0  0  0  0  0  0  0  0  0  0
   -1.1570    6.1000  -13.8400 O   0  0  0  0  0  0  0  0  0  0  0  0
   -2.1660    8.1280  -13.8460 N   0  0  0  0  0  0  0  0  0  0  0  0
   -2.4250    9.4770  -13.4200 C   0  0  0  0  0  2  0  0  0  0  0  0
   -2.9660    7.6680  -14.9950 C   0  0  0  0  0  2  0  0  0  0  0  0
   -3.4540   10.1850  -14.3190 C   0  0  0  0  0  2  0  0  0  0  0  0
   -4.6610    9.3580  -14.4050 N   0  0  0  0  0  0  0  0  0  0  0  0
   -4.3800    7.9650  -14.6640 C   0  0  0  0  0  0  0  0  0  0  0  0
   -5.6100    9.7250  -14.2920 H   0  0  0  0  0  0  0  0  0  0  0  0
   -5.2950    7.1130  -14.5990 O   0  0  0  0  0  0  0  0  0  0  0  0
    1.8460    9.6040  -12.9770 C   0  0  0  0  0  0  0  0  0  0  0  0
    2.8420   10.4030  -12.4010 C   0  0  0  0  0  3  0  0  0  0  0  0
    2.8730   11.7670  -12.4900 C   0  0  0  0  0  3  0  0  0  0  0  0
    1.8810   12.4510  -13.1810 C   0  0  0  0  0  3  0  0  0  0  0  0
    0.9030   11.6820  -13.7450 C   0  0  0  0  0  3  0  0  0  0  0  0
    0.8760   10.2870  -13.6510 C   0  0  0  0  0  3  0  0  0  0  0  0
    3.9530    5.2210  -12.8660 C   0  0  0  0  0  0  0  0  0  0  0  0
    5.2630    5.5970  -13.0890 C   0  0  0  0  0  3  0  0  0  0  0  0
    6.2630    4.6490  -13.2220 C   0  0  0  0  0  3  0  0  0  0  0  0
    6.0110    3.2930  -13.1400 C   0  0  0  0  0  0  0  0  0  0  0  0
    7.2680    2.0830  -13.3090 Cl  0  0  0  0  0  0  0  0  0  0  0  0
    4.6950    2.9170  -12.9170 C   0  0  0  0  0  3  0  0  0  0  0  0
    3.6890    3.8700  -12.7830 C   0  0  0  0  0  3  0  0  0  0  0  0
  1  5  1  0  0  0  0
  2  3  2  0  0  0  0
  2  1  1  0  0  0  0
  3  4  1  0  0  0  0
  4  5  1  0  0  0  0
  4  7  1  0  0  0  0
  5  6  2  0  0  0  0
  8  7  1  0  0  0  0
  9  8  2  0  0  0  0
 10 11  1  0  0  0  0
 10  8  1  0  0  0  0
 12 15  1  0  0  0  0
 12 10  1  0  0  0  0
 13 11  1  0  0  0  0
 14 13  1  0  0  0  0
 14 16  1  0  0  0  0
 15 17  2  0  0  0  0
 15 14  1  0  0  0  0
 18  3  1  0  0  0  0
 18 19  1  0  0  0  0
 20 19  2  0  0  0  0
 21 20  1  0  0  0  0
 22 23  1  0  0  0  0
 22 21  2  0  0  0  0
 23 18  2  0  0  0  0
 24 30  1  0  0  0  0
 24  1  1  0  0  0  0
 25 24  2  0  0  0  0
 26 27  2  0  0  0  0
 26 25  1  0  0  0  0
 27 29  1  0  0  0  0
 28 27  1  0  0  0  0
 29 30  2  0  0  0  0
M  END
>  <Pose>
1

>  <Score>
-9.302

$$$$
