/Users/jonathanwahrer/Desktop/Msc/3_Semester/Drug_Design_Praktikum/waehrer_HTS_screening/HTS_experiment/out/docking_results/vina_output/6q9y/1790_docked.pdbqt
 OpenBabel03222220243D

 29 32  0  0  0  0  0  0  0  0999 V2000
    1.0450   15.1610  -12.6710 N   0  0  0  0  0  0  0  0  0  0  0  0
    2.3070   15.4800  -12.4630 N   0  0  0  0  0  0  0  0  0  0  0  0
    2.9790   14.3350  -12.4680 N   0  0  0  0  0  0  0  0  0  0  0  0
    2.1630   13.2870  -12.6750 C   0  0  0  0  0  0  0  0  0  0  0  0
    0.9380   13.8230  -12.8030 C   0  0  0  0  0  0  0  0  0  0  0  0
    0.1020   12.7430  -13.0160 C   0  0  0  0  0  0  0  0  0  0  0  0
   -1.1470   12.8750  -13.1820 O   0  0  0  0  0  0  0  0  0  0  0  0
    0.7760   11.5810  -13.0220 N   0  0  0  0  0  0  0  0  0  0  0  0
    2.0590   11.9180  -12.8100 C   0  0  0  0  0  0  0  0  0  0  0  0
    3.0120   11.0850  -12.7470 O   0  0  0  0  0  0  0  0  0  0  0  0
    2.6800   16.4490  -12.3250 H   0  0  0  0  0  0  0  0  0  0  0  0
    4.0090   14.2550  -12.3280 H   0  0  0  0  0  0  0  0  0  0  0  0
    0.1990   10.2920  -13.2180 C   0  0  0  0  0  0  0  0  0  0  0  0
   -1.1390   10.1210  -13.5120 C   0  0  0  0  0  3  0  0  0  0  0  0
   -1.7200    8.8850  -13.7070 C   0  0  0  0  0  0  0  0  0  0  0  0
   -0.9240    7.7640  -13.6000 C   0  0  0  0  0  3  0  0  0  0  0  0
    0.4200    7.8750  -13.3070 C   0  0  0  0  0  0  0  0  0  0  0  0
    0.9600    9.1440  -13.1190 C   0  0  0  0  0  3  0  0  0  0  0  0
   -3.0910    8.7650  -14.0060 O   0  0  0  0  0  0  0  0  0  0  0  0
   -3.8460    9.9330  -14.2320 C   0  0  0  0  0  1  0  0  0  0  0  0
    1.1900    6.7240  -13.2070 O   0  0  0  0  0  0  0  0  0  0  0  0
    1.0960    5.8610  -12.1070 C   0  0  0  0  0  1  0  0  0  0  0  0
   -0.0390   16.0710  -12.7440 C   0  0  0  0  0  0  0  0  0  0  0  0
   -0.8340   16.1900  -13.8740 C   0  0  0  0  0  3  0  0  0  0  0  0
   -1.8740   17.0810  -13.9100 C   0  0  0  0  0  3  0  0  0  0  0  0
   -2.1760   17.8930  -12.8360 C   0  0  0  0  0  0  0  0  0  0  0  0
   -3.5300   19.0260  -12.9390 Cl  0  0  0  0  0  0  0  0  0  0  0  0
   -1.4030   17.7930  -11.7090 C   0  0  0  0  0  3  0  0  0  0  0  0
   -0.3560   16.8950  -11.6760 C   0  0  0  0  0  3  0  0  0  0  0  0
  1  2  1  0  0  0  0
  2 11  1  0  0  0  0
  3  2  1  0  0  0  0
  3 12  1  0  0  0  0
  4  3  1  0  0  0  0
  5  4  2  0  0  0  0
  5  1  1  0  0  0  0
  6  5  1  0  0  0  0
  7  6  2  0  0  0  0
  8  6  1  0  0  0  0
  8  9  1  0  0  0  0
  9 10  2  0  0  0  0
  9  4  1  0  0  0  0
 13 18  1  0  0  0  0
 13  8  1  0  0  0  0
 14 13  2  0  0  0  0
 15 16  2  0  0  0  0
 15 14  1  0  0  0  0
 16 17  1  0  0  0  0
 17 21  1  0  0  0  0
 17 18  2  0  0  0  0
 19 15  1  0  0  0  0
 20 19  1  0  0  0  0
 21 22  1  0  0  0  0
 23  1  1  0  0  0  0
 23 29  1  0  0  0  0
 24 23  2  0  0  0  0
 25 24  1  0  0  0  0
 25 26  2  0  0  0  0
 26 28  1  0  0  0  0
 27 26  1  0  0  0  0
 28 29  2  0  0  0  0
M  END
>  <Pose>
1

>  <Score>
-9.000

$$$$
