MODEL 1
REMARK VINA RESULT:    -9.000      0.000      0.000
REMARK INTER + INTRA:         -10.761
REMARK INTER:                 -11.104
REMARK INTRA:                   0.343
REMARK UNBOUND:                 0.343
REMARK  4 active torsions:
REMARK  status: ('A' for Active; 'I' for Inactive)
REMARK    1  A    between atoms: C_5  and  N_8 
REMARK    2  A    between atoms: N_15  and  C_18 
REMARK    3  A    between atoms: C_20  and  O_26 
REMARK    4  A    between atoms: C_22  and  O_24 
ROOT
ATOM      1  N   UNK d   1       1.045  15.161 -12.671  0.00  0.00    -0.234 N 
ATOM      2  N   UNK d   1       2.307  15.480 -12.463  0.00  0.00    -0.234 N 
ATOM      3  N   UNK d   1       2.979  14.335 -12.468  0.00  0.00    -0.278 N 
ATOM      4  C   UNK d   1       2.163  13.287 -12.675  0.00  0.00     0.152 A 
ATOM      5  C   UNK d   1       0.938  13.823 -12.803  0.00  0.00     0.160 A 
ATOM      6  C   UNK d   1       0.102  12.743 -13.016  0.00  0.00     0.286 A 
ATOM      7  O   UNK d   1      -1.147  12.875 -13.182  0.00  0.00    -0.265 OA
ATOM      8  N   UNK d   1       0.776  11.581 -13.022  0.00  0.00    -0.241 N 
ATOM      9  C   UNK d   1       2.059  11.918 -12.810  0.00  0.00     0.286 A 
ATOM     10  O   UNK d   1       3.012  11.085 -12.747  0.00  0.00    -0.265 OA
ATOM     11  H   UNK d   1       2.680  16.449 -12.325  0.00  0.00     0.209 HD
ATOM     12  H   UNK d   1       4.009  14.255 -12.328  0.00  0.00     0.189 HD
ENDROOT
BRANCH   8  13
ATOM     13  C   UNK d   1       0.199  10.292 -13.218  0.00  0.00     0.051 A 
ATOM     14  C   UNK d   1      -1.139  10.121 -13.512  0.00  0.00     0.067 A 
ATOM     15  C   UNK d   1      -1.720   8.885 -13.707  0.00  0.00     0.073 A 
ATOM     16  C   UNK d   1      -0.924   7.764 -13.600  0.00  0.00     0.073 A 
ATOM     17  C   UNK d   1       0.420   7.875 -13.307  0.00  0.00     0.073 A 
ATOM     18  C   UNK d   1       0.960   9.144 -13.119  0.00  0.00     0.067 A 
BRANCH  15  19
ATOM     19  O   UNK d   1      -3.091   8.765 -14.006  0.00  0.00    -0.356 OA
ATOM     20  C   UNK d   1      -3.846   9.933 -14.232  0.00  0.00     0.210 C 
ENDBRANCH  15  19
BRANCH  17  21
ATOM     21  O   UNK d   1       1.190   6.724 -13.207  0.00  0.00    -0.356 OA
ATOM     22  C   UNK d   1       1.096   5.861 -12.107  0.00  0.00     0.210 C 
ENDBRANCH  17  21
ENDBRANCH   8  13
BRANCH   1  23
ATOM     23  C   UNK d   1      -0.039  16.071 -12.744  0.00  0.00     0.058 A 
ATOM     24  C   UNK d   1      -0.834  16.190 -13.874  0.00  0.00     0.033 A 
ATOM     25  C   UNK d   1      -1.874  17.081 -13.910  0.00  0.00     0.026 A 
ATOM     26  C   UNK d   1      -2.176  17.893 -12.836  0.00  0.00     0.034 A 
ATOM     27 Cl   UNK d   1      -3.530  19.026 -12.939  0.00  0.00    -0.084 Cl
ATOM     28  C   UNK d   1      -1.403  17.793 -11.709  0.00  0.00     0.026 A 
ATOM     29  C   UNK d   1      -0.356  16.895 -11.676  0.00  0.00     0.033 A 
ENDBRANCH   1  23
TORSDOF 4
ENDMDL
