MODEL 1
REMARK VINA RESULT:    -8.146      0.000      0.000
REMARK INTER + INTRA:          -9.909
REMARK INTER:                  -9.574
REMARK INTRA:                  -0.335
REMARK UNBOUND:                -0.335
REMARK  3 active torsions:
REMARK  status: ('A' for Active; 'I' for Inactive)
REMARK    1  A    between atoms: N_15  and  C_19 
REMARK    2  A    between atoms: C_19  and  C_20 
REMARK       I    between atoms: C_20  and  N_22 
REMARK    3  A    between atoms: N_22  and  C_23 
ROOT
ATOM      1 Cl   UNK d   1      -4.685   8.285 -14.520  0.00  0.00    -0.084 Cl
ATOM      2  C   UNK d   1      -3.145   9.056 -14.142  0.00  0.00     0.036 A 
ATOM      3  C   UNK d   1      -2.058   8.293 -13.752  0.00  0.00     0.055 A 
ATOM      4  C   UNK d   1      -0.858   8.879 -13.457  0.00  0.00     0.077 A 
ATOM      5  C   UNK d   1      -0.789  10.247 -13.564  0.00  0.00     0.038 A 
ATOM      6  C   UNK d   1      -1.849  11.026 -13.948  0.00  0.00     0.019 A 
ATOM      7  C   UNK d   1      -3.058  10.420 -14.245  0.00  0.00     0.025 A 
ATOM      8  C   UNK d   1       0.491  10.914 -13.253  0.00  0.00     0.153 A 
ATOM      9  N   UNK d   1       0.863  12.146 -13.260  0.00  0.00    -0.270 NA
ATOM     10  C   UNK d   1       2.235  12.301 -12.872  0.00  0.00     0.172 A 
ATOM     11  C   UNK d   1       2.715  10.912 -12.602  0.00  0.00     0.171 A 
ATOM     12  N   UNK d   1       1.565  10.077 -12.859  0.00  0.00    -0.160 N 
ATOM     13  C   UNK d   1       1.437   8.651 -12.763  0.00  0.00     0.736 A 
ATOM     14  N   UNK d   1       2.298   7.682 -12.420  0.00  0.00     0.025 NA
ATOM     15  N   UNK d   1       1.704   6.503 -12.483  0.00  0.00    -0.194 N 
ATOM     16  C   UNK d   1       0.444   6.755 -12.875  0.00  0.00     0.365 A 
ATOM     17  O   UNK d   1      -0.426   5.867 -13.047  0.00  0.00    -0.244 OA
ATOM     18  N   UNK d   1       0.251   8.089 -13.057  0.00  0.00    -0.090 N 
ENDROOT
BRANCH  15  19
ATOM     19  C   UNK d   1       2.272   5.191 -12.193  0.00  0.00     0.259 C 
BRANCH  19  20
ATOM     20  C   UNK d   1       3.608   5.095 -12.827  0.00  0.00     0.237 C 
ATOM     21  O   UNK d   1       3.975   3.986 -13.307  0.00  0.00    -0.272 OA
ATOM     22  N   UNK d   1       4.495   6.200 -12.920  0.00  0.00    -0.356 N 
ATOM     23  H   UNK d   1       4.176   7.106 -12.520  0.00  0.00     0.162 HD
BRANCH  22  24
ATOM     24  C   UNK d   1       5.789   6.058 -13.548  0.00  0.00     0.076 C 
ATOM     25  C   UNK d   1       6.219   7.377 -14.196  0.00  0.00     0.032 C 
ATOM     26  C   UNK d   1       6.790   5.801 -12.430  0.00  0.00     0.032 C 
ENDBRANCH  22  24
ENDBRANCH  19  20
ENDBRANCH  15  19
TORSDOF 3
ENDMDL
