MODEL 1
REMARK VINA RESULT:    -8.177      0.000      0.000
REMARK INTER + INTRA:         -11.067
REMARK INTER:                 -10.567
REMARK INTRA:                  -0.501
REMARK UNBOUND:                -0.501
REMARK  5 active torsions:
REMARK  status: ('A' for Active; 'I' for Inactive)
REMARK    1  A    between atoms: N_15  and  C_19 
REMARK    2  A    between atoms: C_19  and  C_20 
REMARK       I    between atoms: C_20  and  N_22 
REMARK    3  A    between atoms: N_22  and  C_23 
REMARK    4  A    between atoms: C_23  and  C_24 
REMARK    5  A    between atoms: C_24  and  O_25 
ROOT
ATOM      1 Cl   UNK d   1       2.627   4.887 -12.118  0.00  0.00    -0.084 Cl
ATOM      2  C   UNK d   1       1.346   6.021 -12.553  0.00  0.00     0.036 A 
ATOM      3  C   UNK d   1       1.672   7.375 -12.662  0.00  0.00     0.055 A 
ATOM      4  C   UNK d   1       0.721   8.315 -13.007  0.00  0.00     0.077 A 
ATOM      5  C   UNK d   1      -0.558   7.847 -13.233  0.00  0.00     0.038 A 
ATOM      6  C   UNK d   1      -0.916   6.543 -13.138  0.00  0.00     0.019 A 
ATOM      7  C   UNK d   1       0.058   5.596 -12.788  0.00  0.00     0.025 A 
ATOM      8  C   UNK d   1      -1.566   8.871 -13.607  0.00  0.00     0.153 A 
ATOM      9  N   UNK d   1      -2.832   8.770 -13.881  0.00  0.00    -0.270 NA
ATOM     10  C   UNK d   1      -3.389  10.067 -14.191  0.00  0.00     0.172 A 
ATOM     11  C   UNK d   1      -2.260  11.063 -14.089  0.00  0.00     0.171 A 
ATOM     12  N   UNK d   1      -1.150  10.209 -13.698  0.00  0.00    -0.160 N 
ATOM     13  C   UNK d   1       0.194  10.613 -13.446  0.00  0.00     0.736 A 
ATOM     14  N   UNK d   1       0.795  11.820 -13.485  0.00  0.00     0.025 NA
ATOM     15  N   UNK d   1       2.083  11.675 -13.179  0.00  0.00    -0.194 N 
ATOM     16  C   UNK d   1       2.247  10.373 -12.957  0.00  0.00     0.365 A 
ATOM     17  O   UNK d   1       3.340   9.826 -12.639  0.00  0.00    -0.244 OA
ATOM     18  N   UNK d   1       1.084   9.682 -13.115  0.00  0.00    -0.090 N 
ENDROOT
BRANCH  15  19
ATOM     19  C   UNK d   1       3.091  12.738 -13.121  0.00  0.00     0.259 C 
BRANCH  19  20
ATOM     20  C   UNK d   1       2.598  13.609 -11.924  0.00  0.00     0.237 C 
ATOM     21  O   UNK d   1       3.150  13.160 -10.859  0.00  0.00    -0.272 OA
ATOM     22  N   UNK d   1       1.739  14.619 -12.119  0.00  0.00    -0.358 N 
ATOM     23  H   UNK d   1       1.836  14.957 -10.808  0.00  0.00     0.162 HD
BRANCH  22  24
ATOM     24  C   UNK d   1       0.855  15.656 -12.319  0.00  0.00     0.148 C 
BRANCH  24  25
ATOM     25  C   UNK d   1      -0.323  15.260 -13.217  0.00  0.00     0.186 C 
BRANCH  25  26
ATOM     26  O   UNK d   1      -0.828  16.345 -13.893  0.00  0.00    -0.394 OA
ATOM     27  C   UNK d   1      -1.720  17.108 -13.197  0.00  0.00     0.201 C 
ENDBRANCH  25  26
ENDBRANCH  24  25
ENDBRANCH  22  24
ENDBRANCH  19  20
ENDBRANCH  15  19
TORSDOF 5
ENDMDL
