/Users/jonathanwahrer/Desktop/Msc/3_Semester/Drug_Design_Praktikum/waehrer_HTS_screening/HTS_experiment/out/docking_results/vina_output/6q9y/1804_docked.pdbqt
 OpenBabel03222220243D

 26 30  0  0  0  0  0  0  0  0999 V2000
   -4.4630    7.0620  -14.6760 Cl  0  0  0  0  0  0  0  0  0  0  0  0
   -3.2780    8.2940  -14.3000 C   0  0  0  0  0  0  0  0  0  0  0  0
   -1.9430    8.0090  -14.0670 C   0  0  0  0  0  3  0  0  0  0  0  0
   -1.0210    8.9860  -13.7740 C   0  0  0  0  0  0  0  0  0  0  0  0
   -1.4870   10.2770  -13.7200 C   0  0  0  0  0  0  0  0  0  0  0  0
   -2.8000   10.6180  -13.9430 C   0  0  0  0  0  3  0  0  0  0  0  0
   -3.7120    9.6010  -14.2380 C   0  0  0  0  0  3  0  0  0  0  0  0
   -0.5260   11.3530  -13.4070 C   0  0  0  0  0  0  0  0  0  0  0  0
   -0.6770   12.6220  -13.2940 N   0  0  0  0  0  0  0  0  0  0  0  0
    0.5580   13.2870  -12.9730 C   0  0  0  0  0  3  0  0  0  0  0  0
    1.5650   12.1840  -12.8980 C   0  0  0  0  0  3  0  0  0  0  0  0
    0.8190   10.9860  -13.1810 N   0  0  0  0  0  0  0  0  0  0  0  0
    1.2520    9.6120  -13.2510 C   0  0  0  0  0  0  0  0  0  0  0  0
    2.4560    9.0330  -13.0770 N   0  0  0  0  0  0  0  0  0  0  0  0
    2.3420    7.7270  -13.2470 N   0  0  0  0  0  0  0  0  0  0  0  0
    1.0470    7.5120  -13.5290 C   0  0  0  0  0  0  0  0  0  0  0  0
    0.5770    6.3600  -13.7520 O   0  0  0  0  0  0  0  0  0  0  0  0
    0.3440    8.6650  -13.5380 N   0  0  0  0  0  0  0  0  0  0  0  0
    3.4030    6.7130  -13.1500 C   0  0  0  0  0  2  0  0  0  0  0  0
    4.5830    7.2050  -13.9080 C   0  0  0  0  0  0  0  0  0  0  0  0
    4.3550    8.0200  -14.8380 O   0  0  0  0  0  0  0  0  0  0  0  0
    5.9040    6.7800  -13.6060 N   0  0  0  0  0  0  0  0  0  0  0  0
    7.0920    7.2240  -14.3100 C   0  0  0  0  0  2  0  0  0  0  0  0
    6.3020    5.8560  -12.5700 C   0  0  0  0  0  2  0  0  0  0  0  0
    8.2290    6.3840  -13.7940 C   0  0  0  0  0  2  0  0  0  0  0  0
    7.5020    5.1770  -13.2380 C   0  0  0  0  0  2  0  0  0  0  0  0
  1  2  1  0  0  0  0
  2  7  2  0  0  0  0
  2  3  1  0  0  0  0
  3  4  2  0  0  0  0
  4  5  1  0  0  0  0
  4 18  1  0  0  0  0
  5  8  1  0  0  0  0
  6  5  2  0  0  0  0
  7  6  1  0  0  0  0
  8  9  2  0  0  0  0
  8 12  1  0  0  0  0
  9 10  1  0  0  0  0
 10 11  2  0  0  0  0
 12 11  1  0  0  0  0
 13 12  1  0  0  0  0
 13 14  2  0  0  0  0
 15 19  1  0  0  0  0
 15 14  1  0  0  0  0
 16 15  1  0  0  0  0
 17 16  2  0  0  0  0
 18 16  1  0  0  0  0
 18 13  1  0  0  0  0
 20 22  1  0  0  0  0
 20 19  1  0  0  0  0
 21 20  2  0  0  0  0
 22 24  1  0  0  0  0
 23 25  1  0  0  0  0
 23 22  1  0  0  0  0
 25 26  1  0  0  0  0
 26 24  1  0  0  0  0
M  END
>  <Pose>
1

>  <Score>
-8.853

$$$$
