MODEL 1
REMARK VINA RESULT:    -8.703      0.000      0.000
REMARK INTER + INTRA:         -10.512
REMARK INTER:                 -10.229
REMARK INTRA:                  -0.283
REMARK UNBOUND:                -0.283
REMARK  3 active torsions:
REMARK  status: ('A' for Active; 'I' for Inactive)
REMARK    1  A    between atoms: C_10  and  N_11 
REMARK    2  A    between atoms: N_14  and  C_17 
REMARK    3  A    between atoms: C_22  and  C_23 
REMARK       I    between atoms: C_23  and  N_25 
ROOT
ATOM      1  N   UNK d   1       1.953   6.786 -12.429  0.00  0.00    -0.384 N 
ATOM      2  C   UNK d   1       2.378   7.828 -13.340  0.00  0.00     0.142 C 
ATOM      3  C   UNK d   1       1.141   8.681 -13.664  0.00  0.00     0.144 C 
ATOM      4  N   UNK d   1      -0.052   8.115 -13.135  0.00  0.00    -0.362 N 
ATOM      5  C   UNK d   1      -0.076   8.008 -11.678  0.00  0.00     0.144 C 
ATOM      6  C   UNK d   1       1.125   7.174 -11.303  0.00  0.00     0.142 C 
ENDROOT
BRANCH   1   7
ATOM      7  C   UNK d   1       2.329   5.423 -12.570  0.00  0.00     0.134 C 
ATOM      8  C   UNK d   1       3.536   4.957 -12.789  0.00  0.00     0.124 A 
ATOM      9  N   UNK d   1       4.670   5.793 -12.920  0.00  0.00    -0.340 N 
ATOM     10  N   UNK d   1       3.736   3.530 -12.906  0.00  0.00    -0.308 N 
ATOM     11  C   UNK d   1       5.982   5.237 -13.160  0.00  0.00     0.049 A 
ATOM     12  H   UNK d   1       4.570   6.820 -12.842  0.00  0.00     0.167 HD
ATOM     13  C   UNK d   1       6.194   3.887 -13.275  0.00  0.00     0.060 A 
ATOM     14  C   UNK d   1       7.054   6.083 -13.281  0.00  0.00     0.032 A 
ATOM     15  C   UNK d   1       7.462   3.390 -13.506  0.00  0.00     0.043 A 
ATOM     16  C   UNK d   1       5.034   3.016 -13.143  0.00  0.00     0.259 A 
ATOM     17  C   UNK d   1       8.524   4.232 -13.625  0.00  0.00     0.035 A 
ATOM     18 Cl   UNK d   1      10.164   3.657 -13.920  0.00  0.00    -0.084 Cl
ATOM     19  C   UNK d   1       8.326   5.589 -13.512  0.00  0.00     0.026 A 
ATOM     20  O   UNK d   1       5.236   1.758 -13.251  0.00  0.00    -0.267 OA
ATOM     21  H   UNK d   1       2.926   2.886 -12.816  0.00  0.00     0.170 HD
ENDBRANCH   1   7
BRANCH   4  22
ATOM     22  C   UNK d   1      -1.194   7.631 -13.822  0.00  0.00     0.141 A 
ATOM     23  N   UNK d   1      -1.136   6.359 -14.365  0.00  0.00    -0.242 NA
ATOM     24  C   UNK d   1      -2.134   5.795 -15.044  0.00  0.00     0.119 A 
ATOM     25  C   UNK d   1      -3.285   6.513 -15.215  0.00  0.00     0.020 A 
ATOM     26  C   UNK d   1      -3.378   7.771 -14.692  0.00  0.00     0.022 A 
ATOM     27  C   UNK d   1      -2.327   8.374 -13.972  0.00  0.00     0.077 A 
BRANCH  27  28
ATOM     28  C   UNK d   1      -2.470   9.682 -13.411  0.00  0.00     0.253 C 
ATOM     29  O   UNK d   1      -3.080   9.959 -12.381  0.00  0.00    -0.268 OA
ATOM     30  N   UNK d   1      -1.864  10.778 -14.085  0.00  0.00    -0.366 N 
ATOM     31  H   UNK d   1      -0.824  10.869 -14.128  0.00  0.00     0.159 HD
ATOM     32  H   UNK d   1      -2.404  11.533 -14.562  0.00  0.00     0.159 HD
ENDBRANCH  27  28
ENDBRANCH   4  22
TORSDOF 3
ENDMDL
