MODEL 1
REMARK VINA RESULT:    -7.752      0.000      0.000
REMARK INTER + INTRA:         -10.092
REMARK INTER:                 -10.018
REMARK INTRA:                  -0.074
REMARK UNBOUND:                -0.074
REMARK  5 active torsions:
REMARK  status: ('A' for Active; 'I' for Inactive)
REMARK    1  A    between atoms: S_1  and  N_4 
REMARK    2  A    between atoms: S_1  and  C_26 
REMARK       I    between atoms: N_7  and  C_10 
REMARK    3  A    between atoms: C_10  and  C_12 
REMARK    4  A    between atoms: N_14  and  C_18 
REMARK    5  A    between atoms: C_18  and  C_19 
ROOT
ATOM      1  N   UNK d   1       1.036   9.497 -12.988  0.00  0.00    -0.203 NA
ATOM      2  C   UNK d   1       1.201   9.938 -14.351  0.00  0.00     0.127 C 
ATOM      3  C   UNK d   1       1.739  11.350 -14.316  0.00  0.00     0.141 C 
ATOM      4  N   UNK d   1       2.165  11.667 -12.977  0.00  0.00    -0.349 N 
ATOM      5  C   UNK d   1       2.892  10.704 -12.157  0.00  0.00     0.141 C 
ATOM      6  C   UNK d   1       2.356   9.296 -12.427  0.00  0.00     0.127 C 
ATOM      7  C   UNK d   1       1.870  12.928 -12.430  0.00  0.00     0.226 C 
ATOM      8  O   UNK d   1       2.291  13.208 -11.254  0.00  0.00    -0.273 OA
ENDROOT
BRANCH   7   9
ATOM      9  C   UNK d   1       1.077  13.922 -13.203  0.00  0.00     0.105 C 
ATOM     10  C   UNK d   1      -0.008  14.563 -12.386  0.00  0.00     0.140 C 
ATOM     11  N   UNK d   1       0.486  15.896 -12.058  0.00  0.00    -0.347 N 
ATOM     12  C   UNK d   1       1.801  16.054 -12.557  0.00  0.00     0.221 C 
ATOM     13  O   UNK d   1       2.636  16.880 -12.114  0.00  0.00    -0.273 OA
ATOM     14  C   UNK d   1       1.934  15.073 -13.654  0.00  0.00     0.118 C 
BRANCH  11  15
ATOM     15  C   UNK d   1      -0.264  16.892 -11.327  0.00  0.00     0.166 C 
BRANCH  15  16
ATOM     16  C   UNK d   1      -1.433  17.378 -12.098  0.00  0.00    -0.018 A 
ATOM     17  C   UNK d   1      -2.241  18.364 -11.552  0.00  0.00     0.042 A 
ATOM     18  C   UNK d   1      -3.350  18.866 -12.212  0.00  0.00     0.024 A 
ATOM     19 Cl   UNK d   1      -1.831  18.983  -9.975  0.00  0.00    -0.084 Cl
ATOM     20  C   UNK d   1      -3.633  18.343 -13.457  0.00  0.00     0.002 A 
ATOM     21  C   UNK d   1      -2.847  17.359 -14.032  0.00  0.00     0.001 A 
ATOM     22  C   UNK d   1      -1.736  16.872 -13.344  0.00  0.00     0.010 A 
ENDBRANCH  15  16
ENDBRANCH  11  15
ENDBRANCH   7   9
BRANCH   1  23
ATOM     23  S   UNK d   1       0.073   8.076 -12.903  0.00  0.00     0.248 S 
ATOM     24  O   UNK d   1      -0.002   7.541 -11.501  0.00  0.00    -0.206 OA
ATOM     25  O   UNK d   1       0.790   7.015 -13.711  0.00  0.00    -0.206 OA
BRANCH  23  26
ATOM     26  C   UNK d   1      -1.505   8.328 -13.584  0.00  0.00     0.132 A 
ATOM     27  C   UNK d   1      -2.289   9.458 -13.648  0.00  0.00     0.083 A 
ATOM     28  N   UNK d   1      -3.452   9.118 -14.284  0.00  0.00    -0.132 NA
ATOM     29  C   UNK d   1      -1.914  10.785 -13.125  0.00  0.00     0.074 C 
ATOM     30  O   UNK d   1      -3.382   7.876 -14.584  0.00  0.00    -0.216 OA
ATOM     31  C   UNK d   1      -2.250   7.339 -14.198  0.00  0.00     0.100 A 
ATOM     32  C   UNK d   1      -1.903   5.918 -14.419  0.00  0.00     0.081 C 
ENDBRANCH  23  26
ENDBRANCH   1  23
TORSDOF 5
ENDMDL
