MODEL 1
REMARK VINA RESULT:    -7.958      0.000      0.000
REMARK INTER + INTRA:          -9.503
REMARK INTER:                  -9.818
REMARK INTRA:                   0.316
REMARK UNBOUND:                 0.316
REMARK  4 active torsions:
REMARK  status: ('A' for Active; 'I' for Inactive)
REMARK    1  A    between atoms: C_7  and  O_8 
REMARK    2  A    between atoms: C_13  and  C_16 
REMARK    3  A    between atoms: C_16  and  C_17 
REMARK       I    between atoms: C_17  and  N_19 
REMARK       I    between atoms: N_22  and  C_25 
REMARK    4  A    between atoms: C_25  and  C_27 
ROOT
ATOM      1  C   UNK d   1      -2.806   9.503 -13.997  0.00  0.00     0.224 C 
ATOM      2  O   UNK d   1      -2.444   8.857 -15.040  0.00  0.00    -0.273 OA
ATOM      3  N   UNK d   1      -4.123   9.379 -13.591  0.00  0.00    -0.349 N 
ATOM      4  C   UNK d   1      -5.085   8.572 -14.276  0.00  0.00     0.145 C 
ATOM      5  C   UNK d   1      -6.227   9.485 -14.726  0.00  0.00     0.145 C 
ATOM      6  N   UNK d   1      -6.751  10.180 -13.599  0.00  0.00    -0.355 N 
ATOM      7  C   UNK d   1      -6.097   9.918 -12.299  0.00  0.00     0.145 C 
ATOM      8  C   UNK d   1      -4.598  10.079 -12.419  0.00  0.00     0.145 C 
ATOM      9  C   UNK d   1      -7.826  11.093 -13.622  0.00  0.00     0.204 C 
ATOM     10  O   UNK d   1      -8.120  11.592 -12.426  0.00  0.00    -0.170 OA
ENDROOT
BRANCH   1  11
ATOM     11  C   UNK d   1      -1.775  10.332 -13.314  0.00  0.00     0.148 C 
BRANCH  11  12
ATOM     12  C   UNK d   1      -0.432   9.718 -13.421  0.00  0.00     0.033 A 
ATOM     13  C   UNK d   1       0.626  10.443 -13.966  0.00  0.00     0.295 A 
ATOM     14  O   UNK d   1       1.835   9.951 -14.084  0.00  0.00    -0.274 OA
ATOM     15  O   UNK d   1       0.359  11.630 -14.352  0.00  0.00    -0.259 OA
ATOM     16  C   UNK d   1       2.149   8.737 -13.700  0.00  0.00     0.093 A 
ATOM     17  C   UNK d   1       1.178   7.935 -13.147  0.00  0.00     0.006 A 
ATOM     18  C   UNK d   1       3.451   8.239 -13.839  0.00  0.00     0.076 A 
ATOM     19  C   UNK d   1       1.522   6.666 -12.748  0.00  0.00     0.041 A 
ATOM     20  C   UNK d   1      -0.119   8.441 -13.011  0.00  0.00    -0.036 A 
ATOM     21  C   UNK d   1       2.816   6.174 -12.889  0.00  0.00     0.068 A 
ATOM     22 Cl   UNK d   1       3.257   4.559 -12.385  0.00  0.00    -0.081 Cl
ATOM     23  C   UNK d   1       3.795   6.967 -13.441  0.00  0.00     0.092 A 
ATOM     24  C   UNK d   1      -1.141   7.584 -12.419  0.00  0.00     0.050 C 
BRANCH  23  25
ATOM     25  O   UNK d   1       5.106   6.475 -13.586  0.00  0.00    -0.354 OA
ATOM     26  C   UNK d   1       6.199   7.327 -13.824  0.00  0.00     0.210 C 
ENDBRANCH  23  25
ENDBRANCH  11  12
ENDBRANCH   1  11
BRANCH   9  27
ATOM     27  C   UNK d   1      -8.650  11.574 -14.690  0.00  0.00     0.095 A 
ATOM     28  C   UNK d   1      -9.344  12.801 -14.534  0.00  0.00     0.108 A 
ATOM     29  C   UNK d   1     -10.146  13.292 -15.529  0.00  0.00     0.253 A 
ATOM     30  O   UNK d   1     -10.751  14.384 -15.365  0.00  0.00    -0.268 OA
ATOM     31  N   UNK d   1     -10.324  12.657 -16.695  0.00  0.00    -0.271 N 
ATOM     32  C   UNK d   1      -9.672  11.503 -16.842  0.00  0.00     0.329 A 
ATOM     33  C   UNK d   1     -11.176  13.191 -17.732  0.00  0.00     0.164 C 
ATOM     34  O   UNK d   1      -9.808  10.858 -17.933  0.00  0.00    -0.246 OA
ATOM     35  N   UNK d   1      -8.856  10.980 -15.860  0.00  0.00    -0.304 N 
ATOM     36  H   UNK d   1      -8.390  10.077 -16.076  0.00  0.00     0.171 HD
ENDBRANCH   9  27
TORSDOF 4
ENDMDL
