/Users/jonathanwahrer/Desktop/Msc/3_Semester/Drug_Design_Praktikum/waehrer_HTS_screening/HTS_experiment/out/docking_results/vina_output/6q9y/1822_docked.pdbqt
 OpenBabel03222220253D

 24 27  0  0  1  0  0  0  0  0999 V2000
   10.1070    3.5380  -13.9400 Cl  0  0  0  0  0  0  0  0  0  0  0  0
    8.8180    4.7350  -13.8710 C   0  0  0  0  0  0  0  0  0  0  0  0
    9.1310    6.0490  -14.1380 C   0  0  0  0  0  0  0  0  0  0  0  0
    8.1400    6.9540  -14.0840 N   0  0  0  0  0  0  0  0  0  0  0  0
    6.8590    6.6220  -13.7790 C   0  0  0  0  0  0  0  0  0  0  0  0
    6.5420    5.3430  -13.5170 N   0  0  0  0  0  0  0  0  0  0  0  0
    5.2420    5.2710  -13.2480 N   0  0  0  0  0  0  0  0  0  0  0  0
    4.6830    6.4950  -13.3290 C   0  0  0  0  0  0  0  0  0  0  0  0
    5.7120    7.3150  -13.6600 N   0  0  0  0  0  0  0  0  0  0  0  0
    7.5180    4.4020  -13.5630 C   0  0  0  0  0  0  0  0  0  0  0  0
    7.2200    3.1910  -13.3160 O   0  0  0  0  0  0  0  0  0  0  0  0
   10.5430    6.4330  -14.4770 C   0  0  0  0  0  1  0  0  0  0  0  0
    8.3720    7.9560  -14.2850 H   0  0  0  0  0  0  0  0  0  0  0  0
    3.3200    6.8510  -13.1140 N   0  0  0  0  0  0  0  0  0  0  0  0
    2.6680    8.0030  -13.6300 C   0  0  0  0  0  0  0  0  0  0  0  0
    3.0130    8.7230  -14.6020 O   0  0  0  0  0  0  0  0  0  0  0  0
    1.4330    8.2750  -12.8180 C   0  0  2  0  0  3  0  0  0  0  0  0
    1.2210    7.0560  -11.9930 C   0  0  1  0  0  3  0  0  0  0  0  0
    0.2700    8.4960  -13.7600 C   0  0  0  0  0  2  0  0  0  0  0  0
   -0.0560    6.2980  -12.3090 C   0  0  0  0  0  2  0  0  0  0  0  0
    2.3350    6.1610  -12.3600 C   0  0  0  0  0  0  0  0  0  0  0  0
   -0.0870    6.1200  -13.7960 C   0  0  0  0  0  3  0  0  0  0  0  0
    0.0770    7.2260  -14.5000 C   0  0  0  0  0  3  0  0  0  0  0  0
    2.4190    4.9290  -12.0490 O   0  0  0  0  0  0  0  0  0  0  0  0
  1  2  1  0  0  0  0
  2 10  1  0  0  0  0
  3  4  1  0  0  0  0
  3  2  2  0  0  0  0
  4  5  1  0  0  0  0
  5  9  2  0  0  0  0
  5  6  1  0  0  0  0
  6  7  1  0  0  0  0
  8  7  2  0  0  0  0
  8 14  1  0  0  0  0
  9  8  1  0  0  0  0
 10  6  1  0  0  0  0
 10 11  2  0  0  0  0
 12  3  1  0  0  0  0
 13  4  1  0  0  0  0
 14 21  1  0  0  0  0
 15 14  1  0  0  0  0
 15 17  1  0  0  0  0
 16 15  2  0  0  0  0
 17 19  1  6  0  0  0
 17 18  1  0  0  0  0
 18 20  1  6  0  0  0
 21 24  2  0  0  0  0
 21 18  1  0  0  0  0
 22 20  1  0  0  0  0
 23 22  2  0  0  0  0
 23 19  1  0  0  0  0
M  END
>  <Pose>
1

>  <Score>
-8.044

$$$$
