MODEL 1
REMARK VINA RESULT:    -8.044      0.000      0.000
REMARK INTER + INTRA:          -8.609
REMARK INTER:                  -8.514
REMARK INTRA:                  -0.095
REMARK UNBOUND:                -0.095
REMARK  1 active torsions:
REMARK  status: ('A' for Active; 'I' for Inactive)
REMARK    1  A    between atoms: C_8  and  N_10 
ROOT
ATOM      1 Cl   UNK d   1      10.107   3.538 -13.940  0.00  0.00    -0.076 Cl
ATOM      2  C   UNK d   1       8.818   4.735 -13.871  0.00  0.00     0.127 A 
ATOM      3  C   UNK d   1       9.131   6.049 -14.138  0.00  0.00     0.050 A 
ATOM      4  N   UNK d   1       8.140   6.954 -14.084  0.00  0.00    -0.190 N 
ATOM      5  C   UNK d   1       6.859   6.622 -13.779  0.00  0.00     0.747 A 
ATOM      6  N   UNK d   1       6.542   5.343 -13.517  0.00  0.00    -0.005 N 
ATOM      7  N   UNK d   1       5.242   5.271 -13.248  0.00  0.00     0.046 NA
ATOM      8  C   UNK d   1       4.683   6.495 -13.329  0.00  0.00     0.772 A 
ATOM      9  N   UNK d   1       5.712   7.315 -13.660  0.00  0.00     0.133 NA
ATOM     10  C   UNK d   1       7.518   4.402 -13.563  0.00  0.00     0.308 A 
ATOM     11  O   UNK d   1       7.220   3.191 -13.316  0.00  0.00    -0.264 OA
ATOM     12  C   UNK d   1      10.543   6.433 -14.477  0.00  0.00     0.071 C 
ATOM     13  H   UNK d   1       8.372   7.956 -14.285  0.00  0.00     0.184 HD
ENDROOT
BRANCH   8  14
ATOM     14  N   UNK d   1       3.320   6.851 -13.114  0.00  0.00    -0.076 N 
ATOM     15  C   UNK d   1       2.668   8.003 -13.630  0.00  0.00     0.251 C 
ATOM     16  O   UNK d   1       3.013   8.723 -14.602  0.00  0.00    -0.272 OA
ATOM     17  C   UNK d   1       1.433   8.275 -12.818  0.00  0.00     0.096 C 
ATOM     18  C   UNK d   1       1.221   7.056 -11.993  0.00  0.00     0.096 C 
ATOM     19  C   UNK d   1       0.270   8.496 -13.760  0.00  0.00     0.042 C 
ATOM     20  C   UNK d   1      -0.056   6.298 -12.309  0.00  0.00     0.042 C 
ATOM     21  C   UNK d   1       2.335   6.161 -12.360  0.00  0.00     0.251 C 
ATOM     22  C   UNK d   1      -0.087   6.120 -13.796  0.00  0.00    -0.030 C 
ATOM     23  C   UNK d   1       0.077   7.226 -14.500  0.00  0.00    -0.030 C 
ATOM     24  O   UNK d   1       2.419   4.929 -12.049  0.00  0.00    -0.272 OA
ENDBRANCH   8  14
TORSDOF 1
ENDMDL
