MODEL 1
REMARK VINA RESULT:   -11.171      0.000      0.000
REMARK INTER + INTRA:         -14.452
REMARK INTER:                 -14.436
REMARK INTRA:                  -0.016
REMARK UNBOUND:                -0.016
REMARK  5 active torsions:
REMARK  status: ('A' for Active; 'I' for Inactive)
REMARK    1  A    between atoms: C_4  and  N_8 
REMARK       I    between atoms: N_8  and  C_9 
REMARK    2  A    between atoms: C_9  and  C_11 
REMARK    3  A    between atoms: C_11  and  N_12 
REMARK    4  A    between atoms: C_15  and  C_17 
REMARK    5  A    between atoms: C_20  and  O_23 
ROOT
ATOM      1  N   UNK d   1       0.981  13.675 -12.755  0.00  0.00    -0.336 N 
ATOM      2  C   UNK d   1       1.961  12.730 -12.871  0.00  0.00     0.086 A 
ATOM      3  N   UNK d   1       1.398  11.547 -13.170  0.00  0.00    -0.335 N 
ATOM      4  C   UNK d   1       0.068  11.673 -13.260  0.00  0.00     0.061 A 
ATOM      5  C   UNK d   1      -0.163  13.031 -12.992  0.00  0.00     0.123 A 
ATOM      6  C   UNK d   1       2.454  10.541 -13.281  0.00  0.00     0.131 C 
ATOM      7  C   UNK d   1       3.669  11.166 -12.621  0.00  0.00     0.028 C 
ATOM      8  C   UNK d   1       3.439  12.627 -12.782  0.00  0.00     0.078 C 
ENDROOT
BRANCH   1   9
ATOM      9  C   UNK d   1       1.212  15.086 -12.414  0.00  0.00     0.232 C 
BRANCH   9  10
ATOM     10  C   UNK d   1       0.042  15.898 -12.929  0.00  0.00     0.240 C 
ATOM     11  N   UNK d   1      -0.780  16.614 -12.074  0.00  0.00    -0.325 N 
ATOM     12  H   UNK d   1      -0.540  16.566 -11.037  0.00  0.00     0.169 HD
ATOM     13  O   UNK d   1      -0.115  15.866 -14.154  0.00  0.00    -0.271 OA
BRANCH  11  14
ATOM     14  C   UNK d   1      -1.897  17.388 -12.446  0.00  0.00     0.042 A 
ATOM     15  C   UNK d   1      -2.310  18.422 -11.578  0.00  0.00    -0.013 A 
ATOM     16  C   UNK d   1      -3.396  19.214 -11.876  0.00  0.00     0.042 A 
ATOM     17  C   UNK d   1      -1.571  18.660 -10.326  0.00  0.00     0.052 C 
ATOM     18 Cl   UNK d   1      -3.917  20.503 -10.812  0.00  0.00    -0.084 Cl
ATOM     19  C   UNK d   1      -4.125  19.035 -13.029  0.00  0.00     0.024 A 
ATOM     20  C   UNK d   1      -3.748  18.037 -13.891  0.00  0.00     0.004 A 
ATOM     21  C   UNK d   1      -2.636  17.229 -13.582  0.00  0.00     0.030 A 
ENDBRANCH  11  14
ENDBRANCH   9  10
ENDBRANCH   1   9
BRANCH   4  22
ATOM     22  C   UNK d   1      -0.990  10.719 -13.547  0.00  0.00    -0.008 A 
ATOM     23  C   UNK d   1      -2.227  11.097 -13.990  0.00  0.00     0.016 A 
ATOM     24  C   UNK d   1      -3.237  10.200 -14.287  0.00  0.00     0.037 A 
ATOM     25  C   UNK d   1      -3.036   8.835 -14.142  0.00  0.00     0.068 A 
ATOM     26  C   UNK d   1      -1.794   8.453 -13.698  0.00  0.00     0.037 A 
ATOM     27  C   UNK d   1      -0.786   9.349 -13.402  0.00  0.00     0.016 A 
BRANCH  25  28
ATOM     28  O   UNK d   1      -4.023   7.907 -14.429  0.00  0.00    -0.356 OA
ATOM     29  C   UNK d   1      -4.500   7.674 -15.741  0.00  0.00     0.210 C 
ENDBRANCH  25  28
ENDBRANCH   4  22
TORSDOF 5
ENDMDL
