MODEL 1
REMARK VINA RESULT:    -7.658      0.000      0.000
REMARK INTER + INTRA:         -12.362
REMARK INTER:                 -10.792
REMARK INTRA:                  -1.570
REMARK UNBOUND:                -1.570
REMARK  9 active torsions:
REMARK  status: ('A' for Active; 'I' for Inactive)
REMARK    1  A    between atoms: C_3  and  C_9 
REMARK    2  A    between atoms: N_10  and  N_11 
REMARK    3  A    between atoms: N_11  and  C_12 
REMARK    4  A    between atoms: N_13  and  C_22 
REMARK    5  A    between atoms: C_18  and  N_21 
REMARK    6  A    between atoms: C_24  and  C_29 
REMARK    7  A    between atoms: C_25  and  O_28 
REMARK    8  A    between atoms: C_26  and  O_27 
REMARK    9  A    between atoms: C_29  and  O_30 
ROOT
ATOM      1  C   UNK d   1       1.982   8.571 -14.309  0.00  0.00     0.727 A 
ATOM      2  N   UNK d   1       1.234   7.701 -13.612  0.00  0.00    -0.131 N 
ATOM      3  C   UNK d   1       2.082   6.759 -13.163  0.00  0.00     0.182 A 
ATOM      4  N   UNK d   1       1.909   5.643 -12.415  0.00  0.00    -0.221 NA
ATOM      5  C   UNK d   1       2.939   4.840 -12.087  0.00  0.00     0.237 A 
ATOM      6  N   UNK d   1       4.188   5.136 -12.507  0.00  0.00    -0.222 NA
ATOM      7  C   UNK d   1       4.441   6.227 -13.254  0.00  0.00     0.156 A 
ATOM      8  C   UNK d   1       3.368   7.035 -13.576  0.00  0.00     0.168 A 
ATOM      9  N   UNK d   1       3.278   8.178 -14.295  0.00  0.00    -0.055 NA
ENDROOT
BRANCH   1  10
ATOM     10  N   UNK d   1       1.499   9.733 -14.967  0.00  0.00    -0.107 N 
ATOM     11  H   UNK d   1       0.943   9.664 -15.853  0.00  0.00     0.208 HD
BRANCH  10  12
ATOM     12  N   UNK d   1       1.737  11.020 -14.479  0.00  0.00    -0.172 NA
ATOM     13  C   UNK d   1       1.418  11.284 -13.265  0.00  0.00     0.154 C 
BRANCH  13  14
ATOM     14  C   UNK d   1       1.631  12.607 -12.672  0.00  0.00     0.026 A 
ATOM     15  C   UNK d   1       2.873  12.998 -12.219  0.00  0.00     0.047 A 
ATOM     16 Cl   UNK d   1       4.199  11.868 -12.372  0.00  0.00    -0.083 Cl
ATOM     17  C   UNK d   1       3.053  14.264 -11.657  0.00  0.00     0.025 A 
ATOM     18  C   UNK d   1       2.011  15.157 -11.534  0.00  0.00     0.003 A 
ATOM     19  C   UNK d   1       0.771  14.758 -11.990  0.00  0.00     0.025 A 
ATOM     20  C   UNK d   1       0.589  13.501 -12.549  0.00  0.00     0.047 A 
ATOM     21 Cl   UNK d   1      -0.999  13.007 -13.125  0.00  0.00    -0.083 Cl
ENDBRANCH  13  14
ENDBRANCH  10  12
ENDBRANCH   1  10
BRANCH   2  22
ATOM     22  C   UNK d   1      -0.175   7.695 -13.349  0.00  0.00     0.279 C 
ATOM     23  O   UNK d   1      -0.764   8.941 -13.547  0.00  0.00    -0.353 OA
ATOM     24  C   UNK d   1      -2.118   8.606 -13.563  0.00  0.00     0.179 C 
ATOM     25  C   UNK d   1      -2.137   7.538 -14.647  0.00  0.00     0.182 C 
ATOM     26  C   UNK d   1      -0.903   6.740 -14.279  0.00  0.00     0.199 C 
BRANCH  24  27
ATOM     27  C   UNK d   1      -3.001   9.773 -13.911  0.00  0.00     0.198 C 
BRANCH  27  28
ATOM     28  O   UNK d   1      -3.773   9.552 -15.025  0.00  0.00    -0.398 OA
ATOM     29  H   UNK d   1      -3.355   8.915 -15.644  0.00  0.00     0.209 HD
ENDBRANCH  27  28
ENDBRANCH  24  27
BRANCH  25  30
ATOM     30  O   UNK d   1      -3.289   6.767 -14.592  0.00  0.00    -0.390 OA
ATOM     31  H   UNK d   1      -3.925   7.135 -15.264  0.00  0.00     0.210 HD
ENDBRANCH  25  30
BRANCH  26  32
ATOM     32  O   UNK d   1      -1.342   5.602 -13.598  0.00  0.00    -0.388 OA
ATOM     33  H   UNK d   1      -2.316   5.572 -13.518  0.00  0.00     0.210 HD
ENDBRANCH  26  32
ENDBRANCH   2  22
BRANCH   7  34
ATOM     34  N   UNK d   1       5.760   6.510 -13.679  0.00  0.00    -0.382 N 
ATOM     35  H   UNK d   1       6.125   7.478 -13.721  0.00  0.00     0.157 HD
ATOM     36  H   UNK d   1       6.378   5.728 -13.956  0.00  0.00     0.157 HD
ENDBRANCH   7  34
TORSDOF 9
ENDMDL
