/Users/jonathanwahrer/Desktop/Msc/3_Semester/Drug_Design_Praktikum/waehrer_HTS_screening/HTS_experiment/out/docking_results/vina_output/6q9y/1835_docked.pdbqt
 OpenBabel03222220263D

 36 39  0  0  1  0  0  0  0  0999 V2000
    1.9820    8.5710  -14.3090 C   0  0  0  0  0  0  0  0  0  0  0  0
    1.2340    7.7010  -13.6120 N   0  0  0  0  0  0  0  0  0  0  0  0
    2.0820    6.7590  -13.1630 C   0  0  0  0  0  0  0  0  0  0  0  0
    1.9090    5.6430  -12.4150 N   0  0  0  0  0  0  0  0  0  0  0  0
    2.9390    4.8400  -12.0870 C   0  0  0  0  0  3  0  0  0  0  0  0
    4.1880    5.1360  -12.5070 N   0  0  0  0  0  0  0  0  0  0  0  0
    4.4410    6.2270  -13.2540 C   0  0  0  0  0  0  0  0  0  0  0  0
    3.3680    7.0350  -13.5760 C   0  0  0  0  0  0  0  0  0  0  0  0
    3.2780    8.1780  -14.2950 N   0  0  0  0  0  0  0  0  0  0  0  0
    1.4990    9.7330  -14.9670 N   0  0  0  0  0  0  0  0  0  0  0  0
    0.9430    9.6640  -15.8530 H   0  0  0  0  0  0  0  0  0  0  0  0
    1.7370   11.0200  -14.4790 N   0  0  0  0  0  0  0  0  0  0  0  0
    1.4180   11.2840  -13.2650 C   0  0  0  0  0  3  0  0  0  0  0  0
    1.6310   12.6070  -12.6720 C   0  0  0  0  0  0  0  0  0  0  0  0
    2.8730   12.9980  -12.2190 C   0  0  0  0  0  0  0  0  0  0  0  0
    4.1990   11.8680  -12.3720 Cl  0  0  0  0  0  0  0  0  0  0  0  0
    3.0530   14.2640  -11.6570 C   0  0  0  0  0  3  0  0  0  0  0  0
    2.0110   15.1570  -11.5340 C   0  0  0  0  0  3  0  0  0  0  0  0
    0.7710   14.7580  -11.9900 C   0  0  0  0  0  3  0  0  0  0  0  0
    0.5890   13.5010  -12.5490 C   0  0  0  0  0  0  0  0  0  0  0  0
   -0.9990   13.0070  -13.1250 Cl  0  0  0  0  0  0  0  0  0  0  0  0
   -0.1750    7.6950  -13.3490 C   0  0  1  0  0  3  0  0  0  0  0  0
   -0.7640    8.9410  -13.5470 O   0  0  0  0  0  0  0  0  0  0  0  0
   -2.1180    8.6060  -13.5630 C   0  0  2  0  0  3  0  0  0  0  0  0
   -2.1370    7.5380  -14.6470 C   0  0  1  0  0  3  0  0  0  0  0  0
   -0.9030    6.7400  -14.2790 C   0  0  2  0  0  3  0  0  0  0  0  0
   -3.0010    9.7730  -13.9110 C   0  0  0  0  0  2  0  0  0  0  0  0
   -3.7730    9.5520  -15.0250 O   0  0  0  0  0  0  0  0  0  0  0  0
   -3.3550    8.9150  -15.6440 H   0  0  0  0  0  0  0  0  0  0  0  0
   -3.2890    6.7670  -14.5920 O   0  0  0  0  0  0  0  0  0  0  0  0
   -3.9250    7.1350  -15.2640 H   0  0  0  0  0  0  0  0  0  0  0  0
   -1.3420    5.6020  -13.5980 O   0  0  0  0  0  0  0  0  0  0  0  0
   -2.3160    5.5720  -13.5180 H   0  0  0  0  0  0  0  0  0  0  0  0
    5.7600    6.5100  -13.6790 N   0  0  0  0  0  0  0  0  0  0  0  0
    6.1250    7.4780  -13.7210 H   0  0  0  0  0  0  0  0  0  0  0  0
    6.3780    5.7280  -13.9560 H   0  0  0  0  0  0  0  0  0  0  0  0
  1  9  2  0  0  0  0
  1  2  1  0  0  0  0
  2  3  1  0  0  0  0
  3  4  1  0  0  0  0
  4  5  2  0  0  0  0
  6  5  1  0  0  0  0
  7  6  2  0  0  0  0
  8  7  1  0  0  0  0
  8  3  2  0  0  0  0
  9  8  1  0  0  0  0
 10 12  1  0  0  0  0
 10  1  1  0  0  0  0
 11 10  1  0  0  0  0
 12 13  2  0  0  0  0
 13 14  1  0  0  0  0
 14 20  2  0  0  0  0
 14 15  1  0  0  0  0
 15 17  2  0  0  0  0
 16 15  1  0  0  0  0
 17 18  1  0  0  0  0
 19 18  2  0  0  0  0
 20 19  1  0  0  0  0
 21 20  1  0  0  0  0
 22  2  1  6  0  0  0
 23 22  1  0  0  0  0
 24 27  1  6  0  0  0
 24 23  1  0  0  0  0
 25 30  1  1  0  0  0
 25 26  1  0  0  0  0
 25 24  1  0  0  0  0
 26 32  1  1  0  0  0
 26 22  1  0  0  0  0
 28 27  1  0  0  0  0
 29 28  1  0  0  0  0
 31 30  1  0  0  0  0
 32 33  1  0  0  0  0
 34  7  1  0  0  0  0
 35 34  1  0  0  0  0
 36 34  1  0  0  0  0
M  END
>  <Pose>
1

>  <Score>
-7.658

$$$$
