/Users/jonathanwahrer/Desktop/Msc/3_Semester/Drug_Design_Praktikum/waehrer_HTS_screening/HTS_experiment/out/docking_results/vina_output/6q9y/1837_docked.pdbqt
 OpenBabel03222220263D

 29 32  0  0  0  0  0  0  0  0999 V2000
    1.6310    8.0240  -13.7350 N   0  0  0  0  0  0  0  0  0  0  0  0
    3.0060    7.5290  -13.5160 C   0  0  0  0  0  2  0  0  0  0  0  0
    3.7570    8.8180  -13.1240 C   0  0  0  0  0  2  0  0  0  0  0  0
    3.1170    9.8410  -13.9650 N   0  0  0  0  0  0  0  0  0  0  0  0
    2.7960    9.4170  -15.2910 C   0  0  0  0  0  2  0  0  0  0  0  0
    1.6040    8.4560  -15.1530 C   0  0  0  0  0  2  0  0  0  0  0  0
    0.6670    6.9520  -13.5570 C   0  0  0  0  0  2  0  0  0  0  0  0
   -0.6780    7.6160  -13.3750 C   0  0  0  0  0  0  0  0  0  0  0  0
   -1.6350    7.6400  -14.3940 N   0  0  0  0  0  0  0  0  0  0  0  0
   -1.3430    7.1960  -15.3210 H   0  0  0  0  0  0  0  0  0  0  0  0
   -0.9270    8.1600  -12.2690 O   0  0  0  0  0  0  0  0  0  0  0  0
   -2.9270    8.2050  -14.3680 C   0  0  0  0  0  0  0  0  0  0  0  0
   -3.1040    9.5480  -14.0030 C   0  0  0  0  0  3  0  0  0  0  0  0
   -4.3350   10.1500  -13.9700 C   0  0  0  0  0  3  0  0  0  0  0  0
   -5.4730    9.4310  -14.3060 C   0  0  0  0  0  0  0  0  0  0  0  0
   -7.0610   10.1690  -14.2760 Cl  0  0  0  0  0  0  0  0  0  0  0  0
   -5.3160    8.1150  -14.6660 C   0  0  0  0  0  3  0  0  0  0  0  0
   -4.0620    7.5190  -14.6960 C   0  0  0  0  0  3  0  0  0  0  0  0
    2.8640   11.1050  -13.4140 C   0  0  0  0  0  0  0  0  0  0  0  0
    3.8680   11.8060  -12.8040 N   0  0  0  0  0  0  0  0  0  0  0  0
    3.7040   13.0050  -12.2460 C   0  0  0  0  0  3  0  0  0  0  0  0
    2.4970   13.5810  -12.2670 N   0  0  0  0  0  0  0  0  0  0  0  0
    1.4430   12.9990  -12.8310 C   0  0  0  0  0  0  0  0  0  0  0  0
    0.1500   13.3460  -12.9850 N   0  0  0  0  0  0  0  0  0  0  0  0
    1.6300   11.7410  -13.4120 C   0  0  0  0  0  0  0  0  0  0  0  0
   -0.4270   12.3600  -13.6260 N   0  0  0  0  0  0  0  0  0  0  0  0
    0.4460   11.3990  -13.8860 N   0  0  0  0  0  0  0  0  0  0  0  0
   -0.5210   14.5540  -12.5460 C   0  0  0  0  0  2  0  0  0  0  0  0
   -0.3940   15.6590  -13.5730 C   0  0  0  0  0  1  0  0  0  0  0  0
  1  7  1  0  0  0  0
  1  2  1  0  0  0  0
  2  3  1  0  0  0  0
  4 19  1  0  0  0  0
  4  3  1  0  0  0  0
  5  6  1  0  0  0  0
  5  4  1  0  0  0  0
  6  1  1  0  0  0  0
  7  8  1  0  0  0  0
  8 11  2  0  0  0  0
  9 12  1  0  0  0  0
  9  8  1  0  0  0  0
 10  9  1  0  0  0  0
 12 13  1  0  0  0  0
 13 14  2  0  0  0  0
 15 16  1  0  0  0  0
 15 14  1  0  0  0  0
 17 15  2  0  0  0  0
 18 17  1  0  0  0  0
 18 12  2  0  0  0  0
 19 25  2  0  0  0  0
 19 20  1  0  0  0  0
 20 21  2  0  0  0  0
 22 21  1  0  0  0  0
 23 22  2  0  0  0  0
 24 23  1  0  0  0  0
 24 28  1  0  0  0  0
 25 23  1  0  0  0  0
 26 24  1  0  0  0  0
 27 26  2  0  0  0  0
 27 25  1  0  0  0  0
 29 28  1  0  0  0  0
M  END
>  <Pose>
1

>  <Score>
-8.100

$$$$
