MODEL 1
REMARK VINA RESULT:    -8.100      0.000      0.000
REMARK INTER + INTRA:         -11.208
REMARK INTER:                 -10.468
REMARK INTRA:                  -0.740
REMARK UNBOUND:                -0.740
REMARK  5 active torsions:
REMARK  status: ('A' for Active; 'I' for Inactive)
REMARK    1  A    between atoms: C_5  and  N_8 
REMARK       I    between atoms: N_8  and  C_9 
REMARK    2  A    between atoms: C_9  and  C_11 
REMARK    3  A    between atoms: C_11  and  N_12 
REMARK    4  A    between atoms: N_15  and  C_18 
REMARK    5  A    between atoms: N_23  and  C_27 
ROOT
ATOM      1  N   UNK d   1       1.631   8.024 -13.735  0.00  0.00     0.100 N 
ATOM      2  C   UNK d   1       3.006   7.529 -13.516  0.00  0.00     0.293 C 
ATOM      3  C   UNK d   1       3.757   8.818 -13.124  0.00  0.00     0.154 C 
ATOM      4  N   UNK d   1       3.117   9.841 -13.965  0.00  0.00    -0.360 N 
ATOM      5  C   UNK d   1       2.796   9.417 -15.291  0.00  0.00     0.154 C 
ATOM      6  C   UNK d   1       1.604   8.456 -15.153  0.00  0.00     0.293 C 
ENDROOT
BRANCH   1   7
ATOM      7  C   UNK d   1       0.667   6.952 -13.557  0.00  0.00     0.375 C 
BRANCH   7   8
ATOM      8  C   UNK d   1      -0.678   7.616 -13.375  0.00  0.00     0.250 C 
ATOM      9  N   UNK d   1      -1.635   7.640 -14.394  0.00  0.00    -0.326 N 
ATOM     10  H   UNK d   1      -1.343   7.196 -15.321  0.00  0.00     0.169 HD
ATOM     11  O   UNK d   1      -0.927   8.160 -12.269  0.00  0.00    -0.271 OA
BRANCH   9  12
ATOM     12  C   UNK d   1      -2.927   8.205 -14.368  0.00  0.00     0.034 A 
ATOM     13  C   UNK d   1      -3.104   9.548 -14.003  0.00  0.00     0.031 A 
ATOM     14  C   UNK d   1      -4.335  10.150 -13.970  0.00  0.00     0.026 A 
ATOM     15  C   UNK d   1      -5.473   9.431 -14.306  0.00  0.00     0.034 A 
ATOM     16 Cl   UNK d   1      -7.061  10.169 -14.276  0.00  0.00    -0.084 Cl
ATOM     17  C   UNK d   1      -5.316   8.115 -14.666  0.00  0.00     0.026 A 
ATOM     18  C   UNK d   1      -4.062   7.519 -14.696  0.00  0.00     0.031 A 
ENDBRANCH   9  12
ENDBRANCH   7   8
ENDBRANCH   1   7
BRANCH   4  19
ATOM     19  C   UNK d   1       2.864  11.105 -13.414  0.00  0.00     0.162 A 
ATOM     20  N   UNK d   1       3.868  11.806 -12.804  0.00  0.00    -0.222 NA
ATOM     21  C   UNK d   1       3.704  13.005 -12.246  0.00  0.00     0.237 A 
ATOM     22  N   UNK d   1       2.497  13.581 -12.267  0.00  0.00    -0.220 NA
ATOM     23  C   UNK d   1       1.443  12.999 -12.831  0.00  0.00     0.183 A 
ATOM     24  N   UNK d   1       0.150  13.346 -12.985  0.00  0.00    -0.232 N 
ATOM     25  C   UNK d   1       1.630  11.741 -13.412  0.00  0.00     0.173 A 
ATOM     26  N   UNK d   1      -0.427  12.360 -13.626  0.00  0.00    -0.064 NA
ATOM     27  N   UNK d   1       0.446  11.399 -13.886  0.00  0.00    -0.124 NA
BRANCH  24  28
ATOM     28  C   UNK d   1      -0.521  14.554 -12.546  0.00  0.00     0.150 C 
ATOM     29  C   UNK d   1      -0.394  15.659 -13.573  0.00  0.00     0.029 C 
ENDBRANCH  24  28
ENDBRANCH   4  19
TORSDOF 5
ENDMDL
