/Users/jonathanwahrer/Desktop/Msc/3_Semester/Drug_Design_Praktikum/waehrer_HTS_screening/HTS_experiment/out/docking_results/vina_output/6q9y/1846_docked.pdbqt
 OpenBabel03222220263D

 31 34  0  0  1  0  0  0  0  0999 V2000
    0.5470   14.4290  -12.7370 N   0  0  0  0  0  0  0  0  0  0  0  0
   -0.6490   13.8770  -13.0380 C   0  0  0  0  0  2  0  0  0  0  0  0
   -0.7570   12.5490  -13.2480 N   0  0  0  0  0  0  0  0  0  0  0  0
    0.2870   11.7150  -13.1730 C   0  0  0  0  0  0  0  0  0  0  0  0
    0.1900   10.3910  -13.3810 N   0  0  0  0  0  0  0  0  0  0  0  0
    1.2220    9.5320  -13.3120 C   0  0  0  0  0  0  0  0  0  0  0  0
    2.4360   10.0680  -13.0100 N   0  0  0  0  0  0  0  0  0  0  0  0
    2.5770   11.3850  -12.7950 C   0  0  0  0  0  3  0  0  0  0  0  0
    1.5110   12.2580  -12.8680 C   0  0  2  0  0  3  0  0  0  0  0  0
    1.6360   13.6150  -12.6500 C   0  0  0  0  0  0  0  0  0  0  0  0
    2.7810   14.0510  -12.3750 O   0  0  0  0  0  0  0  0  0  0  0  0
    0.7470   15.8240  -12.5000 C   0  0  0  0  0  2  0  0  0  0  0  0
   -0.5190   16.6190  -12.6550 C   0  0  0  0  0  0  0  0  0  0  0  0
   -1.0490   17.3570  -11.5840 N   0  0  0  0  0  0  0  0  0  0  0  0
   -0.5240   17.3380  -10.6460 H   0  0  0  0  0  0  0  0  0  0  0  0
   -1.0540   16.5810  -13.7740 O   0  0  0  0  0  0  0  0  0  0  0  0
   -2.2350   18.1180  -11.6700 C   0  0  0  0  0  0  0  0  0  0  0  0
   -3.1840   18.0110  -12.6530 C   0  0  0  0  0  3  0  0  0  0  0  0
   -4.3140   18.8320  -12.6400 C   0  0  0  0  0  3  0  0  0  0  0  0
   -4.5480   19.7780  -11.6720 C   0  0  0  0  0  0  0  0  0  0  0  0
   -3.6020   19.8920  -10.6820 C   0  0  0  0  0  0  0  0  0  0  0  0
   -3.8040   21.0660   -9.3980 Cl  0  0  0  0  0  0  0  0  0  0  0  0
   -2.4880   19.0910  -10.6850 C   0  0  0  0  0  3  0  0  0  0  0  0
   -5.6940   20.5840  -11.6920 O   0  0  0  0  0  0  0  0  0  0  0  0
   -6.2130   21.0970  -10.4860 C   0  0  0  0  0  1  0  0  0  0  0  0
    1.0780    8.1430  -13.5390 N   0  0  0  0  0  0  0  0  0  0  0  0
    2.0270    7.2430  -12.9250 C   0  0  0  0  0  2  0  0  0  0  0  0
    1.2820    6.0030  -12.4340 C   0  0  0  0  0  2  0  0  0  0  0  0
    0.4470    5.4780  -13.4180 O   0  0  0  0  0  0  0  0  0  0  0  0
   -0.5840    6.4000  -13.5990 C   0  0  0  0  0  2  0  0  0  0  0  0
    0.0280    7.5800  -14.3550 C   0  0  0  0  0  2  0  0  0  0  0  0
  1 10  1  0  0  0  0
  1 12  1  0  0  0  0
  2  1  1  0  0  0  0
  3  4  2  0  0  0  0
  3  2  1  0  0  0  0
  4  9  1  0  0  0  0
  5  6  2  0  0  0  0
  5  4  1  0  0  0  0
  6  7  1  0  0  0  0
  7  8  2  0  0  0  0
  9  8  1  1  0  0  0
  9 10  1  0  0  0  0
 10 11  2  0  0  0  0
 13 12  1  0  0  0  0
 13 14  1  0  0  0  0
 14 15  1  0  0  0  0
 16 13  2  0  0  0  0
 17 14  1  0  0  0  0
 17 23  1  0  0  0  0
 18 19  1  0  0  0  0
 18 17  2  0  0  0  0
 19 20  2  0  0  0  0
 20 21  1  0  0  0  0
 21 22  1  0  0  0  0
 23 21  2  0  0  0  0
 24 20  1  0  0  0  0
 24 25  1  0  0  0  0
 26  6  1  0  0  0  0
 26 27  1  0  0  0  0
 27 28  1  0  0  0  0
 29 28  1  0  0  0  0
 30 29  1  0  0  0  0
 31 30  1  0  0  0  0
 31 26  1  0  0  0  0
M  END
>  <Pose>
1

>  <Score>
-10.111

$$$$
