MODEL 1
REMARK VINA RESULT:   -10.111      0.000      0.000
REMARK INTER + INTRA:         -11.711
REMARK INTER:                 -13.067
REMARK INTRA:                   1.356
REMARK UNBOUND:                 1.356
REMARK  5 active torsions:
REMARK  status: ('A' for Active; 'I' for Inactive)
REMARK    1  A    between atoms: C_3  and  O_29 
REMARK    2  A    between atoms: C_6  and  N_8 
REMARK       I    between atoms: N_8  and  C_9 
REMARK    3  A    between atoms: C_9  and  C_11 
REMARK    4  A    between atoms: C_11  and  N_12 
REMARK    5  A    between atoms: C_17  and  N_23 
ROOT
ATOM      1  N   UNK d   1       0.547  14.429 -12.737  0.00  0.00    -0.299 N 
ATOM      2  C   UNK d   1      -0.649  13.877 -13.038  0.00  0.00     0.215 A 
ATOM      3  N   UNK d   1      -0.757  12.549 -13.248  0.00  0.00    -0.223 NA
ATOM      4  C   UNK d   1       0.287  11.715 -13.173  0.00  0.00     0.186 A 
ATOM      5  N   UNK d   1       0.190  10.391 -13.381  0.00  0.00    -0.042 NA
ATOM      6  C   UNK d   1       1.222   9.532 -13.312  0.00  0.00     0.726 A 
ATOM      7  N   UNK d   1       2.436  10.068 -13.010  0.00  0.00    -0.074 NA
ATOM      8  C   UNK d   1       2.577  11.385 -12.795  0.00  0.00     0.157 A 
ATOM      9  C   UNK d   1       1.511  12.258 -12.868  0.00  0.00     0.099 A 
ATOM     10  C   UNK d   1       1.636  13.615 -12.650  0.00  0.00     0.264 A 
ATOM     11  O   UNK d   1       2.781  14.051 -12.375  0.00  0.00    -0.267 OA
ENDROOT
BRANCH   1  12
ATOM     12  C   UNK d   1       0.747  15.824 -12.500  0.00  0.00     0.236 C 
BRANCH  12  13
ATOM     13  C   UNK d   1      -0.519  16.619 -12.655  0.00  0.00     0.240 C 
ATOM     14  N   UNK d   1      -1.049  17.357 -11.584  0.00  0.00    -0.326 N 
ATOM     15  H   UNK d   1      -0.524  17.338 -10.646  0.00  0.00     0.169 HD
ATOM     16  O   UNK d   1      -1.054  16.581 -13.774  0.00  0.00    -0.271 OA
BRANCH  14  17
ATOM     17  C   UNK d   1      -2.235  18.118 -11.670  0.00  0.00     0.036 A 
ATOM     18  C   UNK d   1      -3.184  18.011 -12.653  0.00  0.00     0.032 A 
ATOM     19  C   UNK d   1      -4.314  18.832 -12.640  0.00  0.00     0.041 A 
ATOM     20  C   UNK d   1      -4.548  19.778 -11.672  0.00  0.00     0.090 A 
ATOM     21  C   UNK d   1      -3.602  19.892 -10.682  0.00  0.00     0.069 A 
ATOM     22 Cl   UNK d   1      -3.804  21.066  -9.398  0.00  0.00    -0.081 Cl
ATOM     23  C   UNK d   1      -2.488  19.091 -10.685  0.00  0.00     0.056 A 
BRANCH  20  24
ATOM     24  O   UNK d   1      -5.694  20.584 -11.692  0.00  0.00    -0.354 OA
ATOM     25  C   UNK d   1      -6.213  21.097 -10.486  0.00  0.00     0.210 C 
ENDBRANCH  20  24
ENDBRANCH  14  17
ENDBRANCH  12  13
ENDBRANCH   1  12
BRANCH   6  26
ATOM     26  N   UNK d   1       1.078   8.143 -13.539  0.00  0.00    -0.210 N 
ATOM     27  C   UNK d   1       2.027   7.243 -12.925  0.00  0.00     0.167 C 
ATOM     28  C   UNK d   1       1.282   6.003 -12.434  0.00  0.00     0.188 C 
ATOM     29  O   UNK d   1       0.447   5.478 -13.418  0.00  0.00    -0.388 OA
ATOM     30  C   UNK d   1      -0.584   6.400 -13.599  0.00  0.00     0.188 C 
ATOM     31  C   UNK d   1       0.028   7.580 -14.355  0.00  0.00     0.167 C 
ENDBRANCH   6  26
TORSDOF 5
ENDMDL
