MODEL 1
REMARK VINA RESULT:    -9.123      0.000      0.000
REMARK INTER + INTRA:         -11.163
REMARK INTER:                 -10.723
REMARK INTRA:                  -0.439
REMARK UNBOUND:                -0.439
REMARK  3 active torsions:
REMARK  status: ('A' for Active; 'I' for Inactive)
REMARK       I    between atoms: N_9  and  C_12 
REMARK    1  A    between atoms: C_12  and  C_14 
REMARK    2  A    between atoms: C_14  and  O_15 
REMARK    3  A    between atoms: O_15  and  C_16 
ROOT
ATOM      1 Cl   UNK d   1       3.360  13.966 -11.764  0.00  0.00    -0.084 Cl
ATOM      2  C   UNK d   1       1.833  13.386 -12.413  0.00  0.00     0.041 A 
ATOM      3  C   UNK d   1       1.726  12.103 -12.911  0.00  0.00    -0.027 A 
ATOM      4  C   UNK d   1       0.539  11.651 -13.416  0.00  0.00    -0.032 A 
ATOM      5  C   UNK d   1      -0.540  12.506 -13.415  0.00  0.00     0.009 A 
ATOM      6  C   UNK d   1      -0.455  13.790 -12.924  0.00  0.00     0.002 A 
ATOM      7  C   UNK d   1       0.748  14.237 -12.416  0.00  0.00     0.024 A 
ATOM      8  C   UNK d   1       0.345  10.289 -13.966  0.00  0.00     0.165 C 
ATOM      9  N   UNK d   1       1.543   9.538 -13.680  0.00  0.00    -0.346 N 
ATOM     10  C   UNK d   1       2.801  10.194 -13.950  0.00  0.00     0.131 C 
ATOM     11  C   UNK d   1       2.957  11.263 -12.863  0.00  0.00     0.061 C 
ATOM     12  C   UNK d   1       1.517   8.224 -13.157  0.00  0.00     0.244 C 
ATOM     13  O   UNK d   1       2.600   7.624 -12.928  0.00  0.00    -0.271 OA
ENDROOT
BRANCH  12  14
ATOM     14  C   UNK d   1       0.264   7.492 -12.856  0.00  0.00     0.280 C 
BRANCH  14  15
ATOM     15  O   UNK d   1      -0.300   6.921 -13.995  0.00  0.00    -0.324 OA
BRANCH  15  16
ATOM     16  C   UNK d   1      -1.620   7.103 -14.386  0.00  0.00     0.184 A 
ATOM     17  N   UNK d   1      -2.274   8.214 -13.997  0.00  0.00    -0.139 NA
ATOM     18  N   UNK d   1      -3.539   8.447 -14.338  0.00  0.00    -0.203 N 
ATOM     19  C   UNK d   1      -4.246   7.594 -15.091  0.00  0.00     0.174 A 
ATOM     20  C   UNK d   1      -4.350   9.481 -14.051  0.00  0.00     0.261 A 
ATOM     21  N   UNK d   1      -5.486   8.089 -15.273  0.00  0.00    -0.129 NA
ATOM     22  C   UNK d   1      -3.603   6.436 -15.512  0.00  0.00     0.059 A 
ATOM     23  N   UNK d   1      -5.533   9.234 -14.636  0.00  0.00    -0.141 NA
ATOM     24  C   UNK d   1      -2.297   6.194 -15.160  0.00  0.00     0.063 A 
ENDBRANCH  15  16
ENDBRANCH  14  15
ENDBRANCH  12  14
TORSDOF 3
ENDMDL
