MODEL 1
REMARK VINA RESULT:    -8.351      0.000      0.000
REMARK INTER + INTRA:         -11.959
REMARK INTER:                 -11.037
REMARK INTRA:                  -0.922
REMARK UNBOUND:                -0.922
REMARK  6 active torsions:
REMARK  status: ('A' for Active; 'I' for Inactive)
REMARK    1  A    between atoms: C_4  and  C_9 
REMARK    2  A    between atoms: C_5  and  O_8 
REMARK    3  A    between atoms: N_10  and  N_11 
REMARK    4  A    between atoms: N_11  and  C_12 
REMARK    5  A    between atoms: C_14  and  N_24 
REMARK    6  A    between atoms: C_16  and  N_18 
ROOT
ATOM      1  C   UNK d   1      -1.693  10.338 -13.277  0.00  0.00     0.774 A 
ATOM      2  N   UNK d   1      -0.669   9.589 -13.713  0.00  0.00     0.133 NA
ATOM      3  C   UNK d   1       0.581  10.072 -13.941  0.00  0.00     0.756 A 
ATOM      4  N   UNK d   1       0.737  11.400 -13.694  0.00  0.00     0.131 NA
ATOM      5  C   UNK d   1      -0.249  12.199 -13.258  0.00  0.00     0.756 A 
ATOM      6  N   UNK d   1      -1.441  11.652 -13.059  0.00  0.00     0.133 NA
ENDROOT
BRANCH   1   7
ATOM      7  N   UNK d   1      -2.982   9.785 -13.054  0.00  0.00    -0.105 N 
ATOM      8  H   UNK d   1      -3.158   9.133 -12.265  0.00  0.00     0.208 HD
BRANCH   7   9
ATOM      9  N   UNK d   1      -4.057  10.098 -13.886  0.00  0.00    -0.171 NA
ATOM     10  C   UNK d   1      -5.267   9.834 -13.443  0.00  0.00     0.153 C 
BRANCH  10  11
ATOM     11  C   UNK d   1      -6.418  10.144 -14.278  0.00  0.00     0.017 A 
ATOM     12  C   UNK d   1      -7.233  11.238 -13.948  0.00  0.00     0.034 A 
ATOM     13  C   UNK d   1      -8.315  11.544 -14.719  0.00  0.00     0.011 A 
ATOM     14 Br   UNK d   1      -9.427  13.029 -14.275  0.00  0.00    -0.051 Br
ATOM     15  C   UNK d   1      -8.631  10.795 -15.830  0.00  0.00     0.022 A 
ATOM     16  C   UNK d   1      -7.848   9.722 -16.172  0.00  0.00     0.039 A 
ATOM     17  C   UNK d   1      -6.732   9.401 -15.383  0.00  0.00     0.077 A 
BRANCH  17  18
ATOM     18  O   UNK d   1      -5.965   8.314 -15.754  0.00  0.00    -0.360 OA
ATOM     19  H   UNK d   1      -5.204   7.946 -15.222  0.00  0.00     0.217 HD
ENDBRANCH  17  18
ENDBRANCH  10  11
ENDBRANCH   7   9
ENDBRANCH   1   7
BRANCH   3  20
ATOM     20  N   UNK d   1       1.635   9.258 -14.398  0.00  0.00    -0.209 N 
ATOM     21  C   UNK d   1       2.586   9.760 -15.343  0.00  0.00     0.167 C 
ATOM     22  C   UNK d   1       3.967   9.533 -14.751  0.00  0.00     0.188 C 
ATOM     23  O   UNK d   1       4.091   8.153 -14.529  0.00  0.00    -0.388 OA
ATOM     24  C   UNK d   1       3.243   7.754 -13.496  0.00  0.00     0.188 C 
ATOM     25  C   UNK d   1       1.781   7.912 -13.932  0.00  0.00     0.167 C 
ENDBRANCH   3  20
BRANCH   5  26
ATOM     26  N   UNK d   1      -0.015  13.574 -13.022  0.00  0.00    -0.209 N 
ATOM     27  C   UNK d   1      -0.716  14.629 -13.724  0.00  0.00     0.167 C 
ATOM     28  C   UNK d   1      -0.834  15.846 -12.832  0.00  0.00     0.188 C 
ATOM     29  O   UNK d   1       0.368  16.311 -12.371  0.00  0.00    -0.388 OA
ATOM     30  C   UNK d   1       1.412  15.406 -12.517  0.00  0.00     0.188 C 
ATOM     31  C   UNK d   1       0.967  14.029 -12.033  0.00  0.00     0.167 C 
ENDBRANCH   5  26
TORSDOF 6
ENDMDL
