/Users/jonathanwahrer/Desktop/Msc/3_Semester/Drug_Design_Praktikum/waehrer_HTS_screening/HTS_experiment/out/docking_results/vina_output/6q9y/1863_docked.pdbqt
 OpenBabel03222220273D

 33 36  0  0  0  0  0  0  0  0999 V2000
    4.7090    6.3200  -13.0250 N   0  0  0  0  0  0  0  0  0  0  0  0
    3.4570    6.8050  -13.2520 C   0  0  0  0  0  0  0  0  0  0  0  0
    3.5840    7.9490  -13.9940 C   0  0  0  0  0  0  0  0  0  0  0  0
    4.8900    8.1190  -14.1900 N   0  0  0  0  0  0  0  0  0  0  0  0
    5.6060    7.1260  -13.5990 C   0  0  0  0  0  0  0  0  0  0  0  0
    2.4690    8.6200  -14.3310 N   0  0  0  0  0  0  0  0  0  0  0  0
    1.2350    8.1910  -13.9510 C   0  0  0  0  0  0  0  0  0  0  0  0
    0.1750    8.8200  -14.2650 O   0  0  0  0  0  0  0  0  0  0  0  0
    1.0790    7.0730  -13.2220 N   0  0  0  0  0  0  0  0  0  0  0  0
    2.1800    6.3910  -12.8780 C   0  0  0  0  0  0  0  0  0  0  0  0
    2.0020    5.3560  -12.1980 O   0  0  0  0  0  0  0  0  0  0  0  0
    2.5500    9.8310  -15.1060 C   0  0  0  0  0  1  0  0  0  0  0  0
    0.1120    6.7400  -12.9280 H   0  0  0  0  0  0  0  0  0  0  0  0
    7.0470    7.0510  -13.5960 N   0  0  0  0  0  0  0  0  0  0  0  0
    7.6760    7.3250  -12.3240 C   0  0  0  0  0  2  0  0  0  0  0  0
    9.1730    7.1530  -12.3380 C   0  0  0  0  0  2  0  0  0  0  0  0
    9.4650    5.9260  -12.9840 N   0  0  0  0  0  0  0  0  0  0  0  0
    9.0860    5.9340  -14.3570 C   0  0  0  0  0  2  0  0  0  0  0  0
    7.8730    6.7420  -14.7120 C   0  0  0  0  0  2  0  0  0  0  0  0
    8.9530    4.8200  -12.2360 C   0  0  0  0  0  2  0  0  0  0  0  0
   10.0060    3.9750  -11.6020 C   0  0  0  0  0  0  0  0  0  0  0  0
   10.1640    3.8580  -10.3770 O   0  0  0  0  0  0  0  0  0  0  0  0
   10.8590    3.2790  -12.5210 N   0  0  0  0  0  0  0  0  0  0  0  0
   11.6810    3.7440  -12.9690 H   0  0  0  0  0  0  0  0  0  0  0  0
   10.6520    2.3060  -12.7380 H   0  0  0  0  0  0  0  0  0  0  0  0
    4.9630    5.1180  -12.3050 C   0  0  0  0  0  2  0  0  0  0  0  0
    5.1040    3.8900  -13.1310 C   0  0  0  0  0  0  0  0  0  0  0  0
    6.3940    3.5110  -13.5320 C   0  0  0  0  0  3  0  0  0  0  0  0
    6.6430    2.4060  -14.2970 C   0  0  0  0  0  0  0  0  0  0  0  0
    8.2590    1.9170  -14.7980 Cl  0  0  0  0  0  0  0  0  0  0  0  0
    5.5870    1.6190  -14.7050 C   0  0  0  0  0  3  0  0  0  0  0  0
    4.3150    1.9850  -14.3160 C   0  0  0  0  0  3  0  0  0  0  0  0
    4.0670    3.1060  -13.5380 C   0  0  0  0  0  3  0  0  0  0  0  0
  1 26  1  0  0  0  0
  2  1  1  0  0  0  0
  2 10  1  0  0  0  0
  3  2  2  0  0  0  0
  4  3  1  0  0  0  0
  4  5  2  0  0  0  0
  5 14  1  0  0  0  0
  5  1  1  0  0  0  0
  6  3  1  0  0  0  0
  6  7  1  0  0  0  0
  7  9  1  0  0  0  0
  8  7  2  0  0  0  0
  9 13  1  0  0  0  0
  9 10  1  0  0  0  0
 10 11  2  0  0  0  0
 12  6  1  0  0  0  0
 14 15  1  0  0  0  0
 16 15  1  0  0  0  0
 17 16  1  0  0  0  0
 17 20  1  0  0  0  0
 18 17  1  0  0  0  0
 19 18  1  0  0  0  0
 19 14  1  0  0  0  0
 20 21  1  0  0  0  0
 21 22  2  0  0  0  0
 23 21  1  0  0  0  0
 24 23  1  0  0  0  0
 25 23  1  0  0  0  0
 27 26  1  0  0  0  0
 28 27  1  0  0  0  0
 29 28  2  0  0  0  0
 30 29  1  0  0  0  0
 31 32  2  0  0  0  0
 31 29  1  0  0  0  0
 32 33  1  0  0  0  0
 33 27  2  0  0  0  0
M  END
>  <Pose>
1

>  <Score>
-6.749

$$$$
