MODEL 1
REMARK VINA RESULT:    -6.749      0.000      0.000
REMARK INTER + INTRA:          -9.805
REMARK INTER:                  -8.722
REMARK INTRA:                  -1.083
REMARK UNBOUND:                -1.083
REMARK  5 active torsions:
REMARK  status: ('A' for Active; 'I' for Inactive)
REMARK    1  A    between atoms: C_4  and  C_8 
REMARK    2  A    between atoms: C_8  and  N_9 
REMARK    3  A    between atoms: C_13  and  N_14 
REMARK    4  A    between atoms: N_17  and  C_20 
REMARK    5  A    between atoms: C_20  and  C_21 
REMARK       I    between atoms: C_21  and  N_23 
ROOT
ATOM      1  N   UNK d   1       4.709   6.320 -13.025  0.00  0.00    -0.168 N 
ATOM      2  C   UNK d   1       3.457   6.805 -13.252  0.00  0.00     0.167 A 
ATOM      3  C   UNK d   1       3.584   7.949 -13.994  0.00  0.00     0.185 A 
ATOM      4  N   UNK d   1       4.890   8.119 -14.190  0.00  0.00    -0.044 NA
ATOM      5  C   UNK d   1       5.606   7.126 -13.599  0.00  0.00     0.707 A 
ATOM      6  N   UNK d   1       2.469   8.620 -14.331  0.00  0.00    -0.286 N 
ATOM      7  C   UNK d   1       1.235   8.191 -13.951  0.00  0.00     0.330 A 
ATOM      8  O   UNK d   1       0.175   8.820 -14.265  0.00  0.00    -0.246 OA
ATOM      9  N   UNK d   1       1.079   7.073 -13.222  0.00  0.00    -0.273 N 
ATOM     10  C   UNK d   1       2.180   6.391 -12.878  0.00  0.00     0.280 A 
ATOM     11  O   UNK d   1       2.002   5.356 -12.198  0.00  0.00    -0.265 OA
ATOM     12  C   UNK d   1       2.550   9.831 -15.106  0.00  0.00     0.163 C 
ATOM     13  H   UNK d   1       0.112   6.740 -12.928  0.00  0.00     0.173 HD
ENDROOT
BRANCH   5  14
ATOM     14  N   UNK d   1       7.047   7.051 -13.596  0.00  0.00    -0.212 N 
ATOM     15  C   UNK d   1       7.676   7.325 -12.324  0.00  0.00     0.171 C 
ATOM     16  C   UNK d   1       9.173   7.153 -12.338  0.00  0.00     0.293 C 
ATOM     17  N   UNK d   1       9.465   5.926 -12.984  0.00  0.00     0.100 N 
ATOM     18  C   UNK d   1       9.086   5.934 -14.357  0.00  0.00     0.293 C 
ATOM     19  C   UNK d   1       7.873   6.742 -14.712  0.00  0.00     0.171 C 
BRANCH  17  20
ATOM     20  C   UNK d   1       8.953   4.820 -12.236  0.00  0.00     0.374 C 
BRANCH  20  21
ATOM     21  C   UNK d   1      10.006   3.975 -11.602  0.00  0.00     0.243 C 
ATOM     22  O   UNK d   1      10.164   3.858 -10.377  0.00  0.00    -0.272 OA
ATOM     23  N   UNK d   1      10.859   3.279 -12.521  0.00  0.00    -0.369 N 
ATOM     24  H   UNK d   1      11.681   3.744 -12.969  0.00  0.00     0.159 HD
ATOM     25  H   UNK d   1      10.652   2.306 -12.738  0.00  0.00     0.159 HD
ENDBRANCH  20  21
ENDBRANCH  17  20
ENDBRANCH   5  14
BRANCH   1  26
ATOM     26  C   UNK d   1       4.963   5.118 -12.305  0.00  0.00     0.186 C 
BRANCH  26  27
ATOM     27  C   UNK d   1       5.104   3.890 -13.131  0.00  0.00    -0.038 A 
ATOM     28  C   UNK d   1       6.394   3.511 -13.532  0.00  0.00     0.032 A 
ATOM     29  C   UNK d   1       6.643   2.406 -14.297  0.00  0.00     0.034 A 
ATOM     30 Cl   UNK d   1       8.259   1.917 -14.798  0.00  0.00    -0.084 Cl
ATOM     31  C   UNK d   1       5.587   1.619 -14.705  0.00  0.00     0.024 A 
ATOM     32  C   UNK d   1       4.315   1.985 -14.316  0.00  0.00     0.002 A 
ATOM     33  C   UNK d   1       4.067   3.106 -13.538  0.00  0.00     0.009 A 
ENDBRANCH  26  27
ENDBRANCH   1  26
TORSDOF 5
ENDMDL
