MODEL 1
REMARK VINA RESULT:    -7.175      0.000      0.000
REMARK INTER + INTRA:          -9.195
REMARK INTER:                  -8.434
REMARK INTRA:                  -0.761
REMARK UNBOUND:                -0.761
REMARK  3 active torsions:
REMARK  status: ('A' for Active; 'I' for Inactive)
REMARK    1  A    between atoms: C_4  and  C_8 
REMARK    2  A    between atoms: C_8  and  N_9 
REMARK       I    between atoms: N_16  and  C_19 
REMARK    3  A    between atoms: C_19  and  C_21 
ROOT
ATOM      1  N   UNK d   1       0.386   9.569 -13.942  0.00  0.00    -0.264 N 
ATOM      2  C   UNK d   1      -0.777   9.712 -13.112  0.00  0.00     0.326 C 
ATOM      3  O   UNK d   1      -1.334  10.823 -12.827  0.00  0.00    -0.247 OA
ATOM      4  N   UNK d   1      -1.196   8.423 -12.673  0.00  0.00    -0.324 N 
ATOM      5  C   UNK d   1      -0.034   7.571 -12.803  0.00  0.00     0.119 C 
ATOM      6  C   UNK d   1       0.854   7.848 -11.605  0.00  0.00     0.061 C 
ATOM      7  C   UNK d   1       2.232   7.305 -11.965  0.00  0.00     0.129 C 
ATOM      8  N   UNK d   1       2.112   5.960 -12.495  0.00  0.00    -0.346 N 
ATOM      9  C   UNK d   1       0.833   5.299 -12.483  0.00  0.00     0.129 C 
ATOM     10  C   UNK d   1      -0.324   6.136 -12.920  0.00  0.00     0.061 C 
ATOM     11  C   UNK d   1       3.257   5.303 -13.017  0.00  0.00     0.273 C 
ATOM     12  O   UNK d   1       3.144   4.125 -13.485  0.00  0.00    -0.266 OA
ATOM     13  C   UNK d   1       0.644   8.168 -13.981  0.00  0.00     0.256 C 
ATOM     14  O   UNK d   1       1.330   7.617 -14.883  0.00  0.00    -0.270 OA
ATOM     15  H   UNK d   1      -2.135   8.148 -12.329  0.00  0.00     0.165 HD
ENDROOT
BRANCH   1  16
ATOM     16  C   UNK d   1       1.144  10.606 -14.602  0.00  0.00     0.175 C 
BRANCH  16  17
ATOM     17  C   UNK d   1       2.046  11.331 -13.683  0.00  0.00    -0.038 A 
ATOM     18  C   UNK d   1       1.653  12.493 -13.059  0.00  0.00     0.032 A 
ATOM     19  C   UNK d   1       2.466  13.198 -12.196  0.00  0.00     0.034 A 
ATOM     20 Cl   UNK d   1       1.959  14.677 -11.406  0.00  0.00    -0.084 Cl
ATOM     21  C   UNK d   1       3.728  12.686 -11.967  0.00  0.00     0.024 A 
ATOM     22  C   UNK d   1       4.136  11.522 -12.585  0.00  0.00     0.002 A 
ATOM     23  C   UNK d   1       3.306  10.828 -13.449  0.00  0.00     0.009 A 
ENDBRANCH  16  17
ENDBRANCH   1  16
BRANCH  11  24
ATOM     24  C   UNK d   1       4.580   5.902 -13.051  0.00  0.00     0.141 A 
ATOM     25  N   UNK d   1       5.628   5.389 -12.378  0.00  0.00    -0.253 NA
ATOM     26  C   UNK d   1       6.825   5.996 -12.454  0.00  0.00     0.136 A 
ATOM     27  C   UNK d   1       7.031   7.136 -13.200  0.00  0.00     0.135 A 
ATOM     28  N   UNK d   1       5.989   7.651 -13.872  0.00  0.00    -0.269 NA
ATOM     29  C   UNK d   1       4.776   7.040 -13.798  0.00  0.00     0.153 A 
ENDBRANCH  11  24
TORSDOF 3
ENDMDL
