/Users/jonathanwahrer/Desktop/Msc/3_Semester/Drug_Design_Praktikum/waehrer_HTS_screening/HTS_experiment/out/docking_results/vina_output/6q9y/1865_docked.pdbqt
 OpenBabel03222220273D

 29 32  0  0  1  0  0  0  0  0999 V2000
    0.3860    9.5690  -13.9420 N   0  0  0  0  0  0  0  0  0  0  0  0
   -0.7770    9.7120  -13.1120 C   0  0  0  0  0  0  0  0  0  0  0  0
   -1.3340   10.8230  -12.8270 O   0  0  0  0  0  0  0  0  0  0  0  0
   -1.1960    8.4230  -12.6730 N   0  0  0  0  0  0  0  0  0  0  0  0
   -0.0340    7.5710  -12.8030 C   0  0  1  0  0  0  0  0  0  0  0  0
    0.8540    7.8480  -11.6050 C   0  0  0  0  0  2  0  0  0  0  0  0
    2.2320    7.3050  -11.9650 C   0  0  0  0  0  2  0  0  0  0  0  0
    2.1120    5.9600  -12.4950 N   0  0  0  0  0  0  0  0  0  0  0  0
    0.8330    5.2990  -12.4830 C   0  0  0  0  0  2  0  0  0  0  0  0
   -0.3240    6.1360  -12.9200 C   0  0  0  0  0  2  0  0  0  0  0  0
    3.2570    5.3030  -13.0170 C   0  0  0  0  0  0  0  0  0  0  0  0
    3.1440    4.1250  -13.4850 O   0  0  0  0  0  0  0  0  0  0  0  0
    0.6440    8.1680  -13.9810 C   0  0  0  0  0  0  0  0  0  0  0  0
    1.3300    7.6170  -14.8830 O   0  0  0  0  0  0  0  0  0  0  0  0
   -2.1350    8.1480  -12.3290 H   0  0  0  0  0  0  0  0  0  0  0  0
    1.1440   10.6060  -14.6020 C   0  0  0  0  0  2  0  0  0  0  0  0
    2.0460   11.3310  -13.6830 C   0  0  0  0  0  0  0  0  0  0  0  0
    1.6530   12.4930  -13.0590 C   0  0  0  0  0  3  0  0  0  0  0  0
    2.4660   13.1980  -12.1960 C   0  0  0  0  0  0  0  0  0  0  0  0
    1.9590   14.6770  -11.4060 Cl  0  0  0  0  0  0  0  0  0  0  0  0
    3.7280   12.6860  -11.9670 C   0  0  0  0  0  3  0  0  0  0  0  0
    4.1360   11.5220  -12.5850 C   0  0  0  0  0  3  0  0  0  0  0  0
    3.3060   10.8280  -13.4490 C   0  0  0  0  0  3  0  0  0  0  0  0
    4.5800    5.9020  -13.0510 C   0  0  0  0  0  0  0  0  0  0  0  0
    5.6280    5.3890  -12.3780 N   0  0  0  0  0  0  0  0  0  0  0  0
    6.8250    5.9960  -12.4540 C   0  0  0  0  0  3  0  0  0  0  0  0
    7.0310    7.1360  -13.2000 C   0  0  0  0  0  3  0  0  0  0  0  0
    5.9890    7.6510  -13.8720 N   0  0  0  0  0  0  0  0  0  0  0  0
    4.7760    7.0400  -13.7980 C   0  0  0  0  0  3  0  0  0  0  0  0
  1  2  1  0  0  0  0
  2  3  2  0  0  0  0
  2  4  1  0  0  0  0
  4 15  1  0  0  0  0
  5 10  1  6  0  0  0
  5  4  1  0  0  0  0
  5  6  1  0  0  0  0
  7  6  1  0  0  0  0
  8  9  1  0  0  0  0
  8  7  1  0  0  0  0
 10  9  1  0  0  0  0
 11  8  1  0  0  0  0
 12 11  2  0  0  0  0
 13  1  1  0  0  0  0
 13  5  1  0  0  0  0
 14 13  2  0  0  0  0
 16  1  1  0  0  0  0
 16 17  1  0  0  0  0
 17 23  2  0  0  0  0
 17 18  1  0  0  0  0
 18 19  2  0  0  0  0
 19 21  1  0  0  0  0
 19 20  1  0  0  0  0
 22 21  2  0  0  0  0
 23 22  1  0  0  0  0
 24 11  1  0  0  0  0
 24 25  1  0  0  0  0
 26 25  2  0  0  0  0
 27 26  1  0  0  0  0
 28 29  1  0  0  0  0
 28 27  2  0  0  0  0
 29 24  2  0  0  0  0
M  END
>  <Pose>
1

>  <Score>
-7.175

$$$$
