MODEL 1
REMARK VINA RESULT:    -5.987      0.000      0.000
REMARK INTER + INTRA:          -5.987
REMARK INTER:                  -7.212
REMARK INTRA:                   1.224
REMARK UNBOUND:                 1.224
REMARK  4 active torsions:
REMARK  status: ('A' for Active; 'I' for Inactive)
REMARK    1  A    between atoms: C_5  and  C_8 
REMARK    2  A    between atoms: C_8  and  O_26 
REMARK    3  A    between atoms: N_9  and  C_18 
REMARK    4  A    between atoms: C_21  and  O_24 
ROOT
ATOM      1  C   UNK d   1       1.961   8.806 -14.684  0.00  0.00     0.287 C 
ATOM      2  N   UNK d   1       0.861   8.011 -14.300  0.00  0.00     0.042 N 
ATOM      3  C   UNK d   1       1.286   6.913 -13.540  0.00  0.00     0.210 C 
ATOM      4  C   UNK d   1       0.837   5.812 -12.988  0.00  0.00     0.030 C 
ATOM      5  C   UNK d   1       1.718   4.914 -12.234  0.00  0.00     0.032 C 
ATOM      6  C   UNK d   1       3.022   5.375 -11.775  0.00  0.00     0.024 C 
ATOM      7  C   UNK d   1       3.424   6.751 -12.245  0.00  0.00     0.125 C 
ATOM      8  N   UNK d   1       2.722   7.120 -13.422  0.00  0.00    -0.351 N 
ATOM      9  C   UNK d   1       3.053   7.722 -14.707  0.00  0.00     0.151 C 
ATOM     10  C   UNK d   1       4.440   8.211 -14.721  0.00  0.00     0.038 C 
ATOM     11  H   UNK d   1       0.623   7.489 -15.261  0.00  0.00     0.299 HD
ENDROOT
BRANCH   1  12
ATOM     12  C   UNK d   1       2.380   9.899 -13.810  0.00  0.00     0.008 A 
ATOM     13  C   UNK d   1       2.960  11.017 -14.348  0.00  0.00     0.014 A 
ATOM     14  C   UNK d   1       3.394  12.079 -13.556  0.00  0.00     0.024 A 
ATOM     15  C   UNK d   1       3.228  11.986 -12.181  0.00  0.00     0.034 A 
ATOM     16 Cl   UNK d   1       3.742  13.266 -11.099  0.00  0.00    -0.084 Cl
ATOM     17  C   UNK d   1       2.641  10.852 -11.654  0.00  0.00     0.024 A 
ATOM     18  C   UNK d   1       2.211   9.802 -12.440  0.00  0.00     0.014 A 
ENDBRANCH   1  12
BRANCH   1  19
ATOM     19  O   UNK d   1       1.817   9.207 -15.992  0.00  0.00    -0.359 OA
ATOM     20  H   UNK d   1       1.070   8.829 -16.492  0.00  0.00     0.213 HD
ENDBRANCH   1  19
BRANCH   2  21
ATOM     21  C   UNK d   1      -0.356   8.646 -14.071  0.00  0.00     0.146 A 
ATOM     22  C   UNK d   1      -1.506   7.901 -14.279  0.00  0.00     0.041 A 
ATOM     23  C   UNK d   1      -2.768   8.413 -14.100  0.00  0.00     0.039 A 
ATOM     24  C   UNK d   1      -2.978   9.734 -13.691  0.00  0.00     0.068 A 
ATOM     25  C   UNK d   1      -1.822  10.448 -13.494  0.00  0.00     0.039 A 
ATOM     26  C   UNK d   1      -0.564   9.930 -13.674  0.00  0.00     0.041 A 
BRANCH  24  27
ATOM     27  O   UNK d   1      -4.252  10.236 -13.510  0.00  0.00    -0.356 OA
ATOM     28  C   UNK d   1      -5.364   9.445 -13.846  0.00  0.00     0.210 C 
ENDBRANCH  24  27
ENDBRANCH   2  21
TORSDOF 4
ENDMDL
