/Users/jonathanwahrer/Desktop/Msc/3_Semester/Drug_Design_Praktikum/waehrer_HTS_screening/HTS_experiment/out/docking_results/vina_output/6q9y/1871_docked.pdbqt
 OpenBabel03222220283D

 28 31  0  0  1  0  0  0  0  0999 V2000
    1.9610    8.8060  -14.6840 C   0  0  2  0  0  0  0  0  0  0  0  0
    0.8610    8.0110  -14.3000 N   0  0  0  0  0  4  0  0  0  0  0  0
    1.2860    6.9130  -13.5400 C   0  0  0  0  0  0  0  0  0  0  0  0
    0.8370    5.8120  -12.9880 C   0  0  0  0  0  3  0  0  0  0  0  0
    1.7180    4.9140  -12.2340 C   0  0  0  0  0  3  0  0  0  0  0  0
    3.0220    5.3750  -11.7750 C   0  0  0  0  0  3  0  0  0  0  0  0
    3.4240    6.7510  -12.2450 C   0  0  0  0  0  2  0  0  0  0  0  0
    2.7220    7.1200  -13.4220 N   0  0  0  0  0  0  0  0  0  0  0  0
    3.0530    7.7220  -14.7070 C   0  0  2  0  0  3  0  0  0  0  0  0
    4.4400    8.2110  -14.7210 C   0  0  0  0  0  1  0  0  0  0  0  0
    0.6230    7.4890  -15.2610 H   0  0  0  0  0  0  0  0  0  0  0  0
    2.3800    9.8990  -13.8100 C   0  0  0  0  0  0  0  0  0  0  0  0
    2.9600   11.0170  -14.3480 C   0  0  0  0  0  3  0  0  0  0  0  0
    3.3940   12.0790  -13.5560 C   0  0  0  0  0  3  0  0  0  0  0  0
    3.2280   11.9860  -12.1810 C   0  0  0  0  0  0  0  0  0  0  0  0
    3.7420   13.2660  -11.0990 Cl  0  0  0  0  0  0  0  0  0  0  0  0
    2.6410   10.8520  -11.6540 C   0  0  0  0  0  3  0  0  0  0  0  0
    2.2110    9.8020  -12.4400 C   0  0  0  0  0  3  0  0  0  0  0  0
    1.8170    9.2070  -15.9920 O   0  0  0  0  0  0  0  0  0  0  0  0
    1.0700    8.8290  -16.4920 H   0  0  0  0  0  0  0  0  0  0  0  0
   -0.3560    8.6460  -14.0710 C   0  0  0  0  0  0  0  0  0  0  0  0
   -1.5060    7.9010  -14.2790 C   0  0  0  0  0  3  0  0  0  0  0  0
   -2.7680    8.4130  -14.1000 C   0  0  0  0  0  3  0  0  0  0  0  0
   -2.9780    9.7340  -13.6910 C   0  0  0  0  0  0  0  0  0  0  0  0
   -1.8220   10.4480  -13.4940 C   0  0  0  0  0  3  0  0  0  0  0  0
   -0.5640    9.9300  -13.6740 C   0  0  0  0  0  3  0  0  0  0  0  0
   -4.2520   10.2360  -13.5100 O   0  0  0  0  0  0  0  0  0  0  0  0
   -5.3640    9.4450  -13.8460 C   0  0  0  0  0  1  0  0  0  0  0  0
  1 19  1  6  0  0  0
  1  2  1  0  0  0  0
  1 12  1  0  0  0  0
  2 21  1  0  0  0  0
  2  3  1  0  0  0  0
  3  8  1  0  0  0  0
  3  4  2  0  0  0  0
  4  5  1  0  0  0  0
  5  6  2  0  0  0  0
  7  6  1  0  0  0  0
  8  7  1  0  0  0  0
  9 10  1  1  0  0  0
  9  1  1  0  0  0  0
  9  8  1  0  0  0  0
 11  2  1  0  0  0  0
 12 18  1  0  0  0  0
 13 12  2  0  0  0  0
 13 14  1  0  0  0  0
 14 15  2  0  0  0  0
 15 17  1  0  0  0  0
 15 16  1  0  0  0  0
 18 17  2  0  0  0  0
 20 19  1  0  0  0  0
 21 26  1  0  0  0  0
 22 23  1  0  0  0  0
 22 21  2  0  0  0  0
 23 24  2  0  0  0  0
 24 27  1  0  0  0  0
 24 25  1  0  0  0  0
 26 25  2  0  0  0  0
 28 27  1  0  0  0  0
M  END
>  <Pose>
1

>  <Score>
-5.987

$$$$
