MODEL 1
REMARK VINA RESULT:   -10.660      0.000      0.000
REMARK INTER + INTRA:         -12.493
REMARK INTER:                 -13.153
REMARK INTRA:                   0.660
REMARK UNBOUND:                 0.660
REMARK  4 active torsions:
REMARK  status: ('A' for Active; 'I' for Inactive)
REMARK    1  A    between atoms: C_5  and  N_8 
REMARK    2  A    between atoms: N_15  and  C_16 
REMARK    3  A    between atoms: C_16  and  C_17 
REMARK    4  A    between atoms: C_19  and  O_23 
ROOT
ATOM      1  N   UNK d   1      -3.026  18.774 -11.932  0.00  0.00    -0.241 N 
ATOM      2  C   UNK d   1      -1.948  18.113 -11.449  0.00  0.00     0.286 A 
ATOM      3  O   UNK d   1      -1.541  18.205 -10.261  0.00  0.00    -0.265 OA
ATOM      4  C   UNK d   1      -1.363  17.332 -12.432  0.00  0.00     0.154 A 
ATOM      5  C   UNK d   1      -2.088  17.517 -13.524  0.00  0.00     0.152 A 
ATOM      6  N   UNK d   1      -1.516  16.755 -14.479  0.00  0.00    -0.279 N 
ATOM      7  N   UNK d   1      -0.458  16.124 -13.953  0.00  0.00    -0.239 N 
ATOM      8  N   UNK d   1      -0.356  16.476 -12.681  0.00  0.00    -0.266 N 
ATOM      9  C   UNK d   1      -3.105  18.398 -13.221  0.00  0.00     0.286 A 
ATOM     10  O   UNK d   1      -3.964  18.775 -14.048  0.00  0.00    -0.265 OA
ATOM     11  H   UNK d   1      -1.847  16.677 -15.459  0.00  0.00     0.189 HD
ATOM     12  H   UNK d   1       0.198  15.463 -14.422  0.00  0.00     0.208 HD
ENDROOT
BRANCH   8  13
ATOM     13  C   UNK d   1       0.644  16.030 -11.734  0.00  0.00     0.189 C 
BRANCH  13  14
ATOM     14  C   UNK d   1       1.238  14.718 -12.092  0.00  0.00    -0.036 A 
ATOM     15  C   UNK d   1       0.522  13.659 -12.603  0.00  0.00     0.045 A 
ATOM     16  C   UNK d   1       1.079  12.440 -12.935  0.00  0.00     0.068 A 
ATOM     17  C   UNK d   1       2.428  12.257 -12.750  0.00  0.00     0.037 A 
ATOM     18  C   UNK d   1       3.182  13.289 -12.242  0.00  0.00     0.003 A 
ATOM     19  C   UNK d   1       2.598  14.501 -11.916  0.00  0.00     0.009 A 
BRANCH  16  20
ATOM     20  O   UNK d   1       0.259  11.427 -13.448  0.00  0.00    -0.356 OA
ATOM     21  C   UNK d   1      -1.147  11.568 -13.493  0.00  0.00     0.210 C 
ENDBRANCH  16  20
ENDBRANCH  13  14
ENDBRANCH   8  13
BRANCH   1  22
ATOM     22  C   UNK d   1      -3.866  19.659 -11.223  0.00  0.00     0.046 A 
ATOM     23  C   UNK d   1      -3.427  20.333 -10.103  0.00  0.00     0.032 A 
ATOM     24  C   UNK d   1      -4.231  21.204  -9.391  0.00  0.00     0.026 A 
ATOM     25  C   UNK d   1      -5.525  21.402  -9.825  0.00  0.00     0.034 A 
ATOM     26 Cl   UNK d   1      -6.613  22.499  -8.967  0.00  0.00    -0.084 Cl
ATOM     27  C   UNK d   1      -6.012  20.750 -10.940  0.00  0.00     0.026 A 
ATOM     28  C   UNK d   1      -5.167  19.882 -11.626  0.00  0.00     0.032 A 
ENDBRANCH   1  22
TORSDOF 4
ENDMDL
