MODEL 1
REMARK VINA RESULT:    -7.921      0.000      0.000
REMARK INTER + INTRA:          -9.756
REMARK INTER:                  -9.310
REMARK INTRA:                  -0.446
REMARK UNBOUND:                -0.446
REMARK  3 active torsions:
REMARK  status: ('A' for Active; 'I' for Inactive)
REMARK    1  A    between atoms: S_1  and  N_4 
REMARK    2  A    between atoms: S_1  and  C_26 
REMARK       I    between atoms: N_7  and  C_10 
REMARK    3  A    between atoms: C_12  and  N_13 
ROOT
ATOM      1  N   UNK d   1      -1.429   6.974 -13.459  0.00  0.00    -0.303 N 
ATOM      2  C   UNK d   1      -0.607   7.987 -13.996  0.00  0.00     0.155 C 
ATOM      3  C   UNK d   1       0.420   8.370 -12.909  0.00  0.00     0.145 C 
ATOM      4  N   UNK d   1       1.266   7.207 -12.828  0.00  0.00    -0.358 N 
ATOM      5  C   UNK d   1       0.547   6.028 -12.298  0.00  0.00     0.145 C 
ATOM      6  C   UNK d   1      -0.840   5.900 -12.777  0.00  0.00     0.155 C 
ATOM      7  C   UNK d   1       2.609   7.063 -13.169  0.00  0.00     0.172 C 
ATOM      8  O   UNK d   1       3.062   5.840 -12.970  0.00  0.00    -0.175 OA
ATOM      9  C   UNK d   1       3.621   7.943 -13.694  0.00  0.00     0.224 C 
ENDROOT
BRANCH   9  10
ATOM     10  N   UNK d   1       3.275   9.309 -13.943  0.00  0.00    -0.260 N 
ATOM     11  C   UNK d   1       2.659   9.809 -15.131  0.00  0.00     0.326 C 
ATOM     12  O   UNK d   1       2.359   9.076 -16.133  0.00  0.00    -0.247 OA
ATOM     13  N   UNK d   1       2.463  11.198 -14.974  0.00  0.00    -0.324 N 
ATOM     14  C   UNK d   1       2.580  11.517 -13.560  0.00  0.00     0.119 C 
ATOM     15  H   UNK d   1       2.269  11.888 -15.716  0.00  0.00     0.165 HD
ATOM     16  C   UNK d   1       3.238  12.822 -13.279  0.00  0.00     0.019 C 
ATOM     17  C   UNK d   1       1.189  11.426 -12.973  0.00  0.00     0.041 C 
ATOM     18  C   UNK d   1       3.454  10.416 -13.056  0.00  0.00     0.257 C 
ATOM     19  C   UNK d   1       2.599  13.398 -12.011  0.00  0.00     0.007 C 
ATOM     20  C   UNK d   1       4.718  12.720 -12.994  0.00  0.00     0.013 C 
ATOM     21  C   UNK d   1       1.216  13.870 -12.416  0.00  0.00     0.001 C 
ATOM     22  C   UNK d   1       0.531  12.778 -13.201  0.00  0.00     0.003 C 
ATOM     23  O   UNK d   1       4.197  10.449 -12.056  0.00  0.00    -0.270 OA
ENDBRANCH   9  10
BRANCH   1  24
ATOM     24  S   UNK d   1      -2.795   6.583 -14.405  0.00  0.00     0.267 S 
ATOM     25  O   UNK d   1      -2.491   6.254 -15.813  0.00  0.00    -0.200 OA
ATOM     26  O   UNK d   1      -3.480   5.397 -13.769  0.00  0.00    -0.200 OA
BRANCH  24  27
ATOM     27  C   UNK d   1      -3.898   7.968 -14.335  0.00  0.00     0.121 A 
ATOM     28  S   UNK d   1      -5.558   8.062 -14.705  0.00  0.00    -0.064 SA
ATOM     29  C   UNK d   1      -5.819   9.711 -14.374  0.00  0.00     0.075 A 
ATOM     30  C   UNK d   1      -4.583  10.151 -13.977  0.00  0.00     0.033 A 
ATOM     31 Cl   UNK d   1      -7.323  10.636 -14.509  0.00  0.00    -0.076 Cl
ATOM     32  C   UNK d   1      -3.592   9.243 -13.959  0.00  0.00     0.035 A 
ENDBRANCH  24  27
ENDBRANCH   1  24
TORSDOF 3
ENDMDL
