/Users/jonathanwahrer/Desktop/Msc/3_Semester/Drug_Design_Praktikum/waehrer_HTS_screening/HTS_experiment/out/docking_results/vina_output/6q9y/1906_docked.pdbqt
 OpenBabel03222220293D

 33 36  0  0  1  0  0  0  0  0999 V2000
    2.1760    9.2560  -13.1940 C   0  0  1  0  0  0  0  0  0  0  0  0
    3.0460   10.1000  -12.4880 O   0  0  0  0  0  0  0  0  0  0  0  0
    3.4020   11.2390  -13.1570 C   0  0  0  0  0  2  0  0  0  0  0  0
    2.2800   12.2480  -13.3020 C   0  0  0  0  0  2  0  0  0  0  0  0
    1.0810   11.4100  -13.5620 N   0  0  0  0  0  0  0  0  0  0  0  0
    1.3570   10.1520  -14.1410 C   0  0  0  0  0  2  0  0  0  0  0  0
   -0.1550   11.9210  -13.2250 C   0  0  0  0  0  0  0  0  0  0  0  0
   -0.2530   13.1060  -12.6970 O   0  0  0  0  0  0  0  0  0  0  0  0
    3.0500    8.4180  -14.0820 C   0  0  0  0  0  2  0  0  0  0  0  0
    4.2290    8.0000  -13.6800 O   0  0  0  0  0  0  0  0  0  0  0  0
    5.1550    7.0910  -13.5890 C   0  0  0  0  0  0  0  0  0  0  0  0
    6.4980    7.3050  -13.7670 C   0  0  0  0  0  3  0  0  0  0  0  0
    7.3910    6.2750  -13.6510 C   0  0  0  0  0  0  0  0  0  0  0  0
    9.1100    6.5870  -13.8860 Cl  0  0  0  0  0  0  0  0  0  0  0  0
    6.9820    4.9890  -13.3510 C   0  0  0  0  0  3  0  0  0  0  0  0
    5.6410    4.7710  -13.1710 C   0  0  0  0  0  3  0  0  0  0  0  0
    4.7410    5.7800  -13.2820 C   0  0  0  0  0  3  0  0  0  0  0  0
    1.3390    8.5480  -12.2310 C   0  0  0  0  0  2  0  0  0  0  0  0
    1.1090    7.1150  -12.4210 C   0  0  0  0  0  0  0  0  0  0  0  0
    1.7050    6.2710  -11.7240 O   0  0  0  0  0  0  0  0  0  0  0  0
    0.2010    6.6330  -13.4070 N   0  0  0  0  0  0  0  0  0  0  0  0
   -0.5390    7.5460  -14.2720 C   0  0  0  0  0  2  0  0  0  0  0  0
   -0.0290    5.2170  -13.6020 C   0  0  0  0  0  2  0  0  0  0  0  0
   -1.9840    7.0940  -14.2600 C   0  0  0  0  0  2  0  0  0  0  0  0
   -2.0450    5.7670  -14.6970 O   0  0  0  0  0  0  0  0  0  0  0  0
   -1.4950    4.9500  -13.7100 C   0  0  0  0  0  2  0  0  0  0  0  0
   -1.4030   11.2450  -13.4080 C   0  0  0  0  0  0  0  0  0  0  0  0
   -2.1170   11.2970  -14.5320 N   0  0  0  0  0  0  0  0  0  0  0  0
   -3.2920   10.6620  -14.7120 C   0  0  0  0  0  3  0  0  0  0  0  0
   -3.8160    9.8980  -13.6810 C   0  0  0  0  0  0  0  0  0  0  0  0
   -3.1350    9.8220  -12.5500 N   0  0  0  0  0  0  0  0  0  0  0  0
   -5.1120    9.2220  -13.9340 C   0  0  0  0  0  1  0  0  0  0  0  0
   -1.9650   10.4640  -12.3920 C   0  0  0  0  0  3  0  0  0  0  0  0
  1  9  1  6  0  0  0
  1  2  1  0  0  0  0
  1 18  1  0  0  0  0
  3  2  1  0  0  0  0
  4  3  1  0  0  0  0
  5  4  1  0  0  0  0
  5  7  1  0  0  0  0
  6  5  1  0  0  0  0
  6  1  1  0  0  0  0
  7  8  2  0  0  0  0
  9 10  1  0  0  0  0
 10 11  1  0  0  0  0
 11 17  1  0  0  0  0
 12 13  1  0  0  0  0
 12 11  2  0  0  0  0
 13 15  2  0  0  0  0
 14 13  1  0  0  0  0
 15 16  1  0  0  0  0
 17 16  2  0  0  0  0
 19 18  1  0  0  0  0
 19 20  2  0  0  0  0
 21 19  1  0  0  0  0
 22 24  1  0  0  0  0
 22 21  1  0  0  0  0
 23 21  1  0  0  0  0
 25 24  1  0  0  0  0
 25 26  1  0  0  0  0
 26 23  1  0  0  0  0
 27  7  1  0  0  0  0
 27 33  1  0  0  0  0
 28 27  2  0  0  0  0
 29 28  1  0  0  0  0
 29 30  2  0  0  0  0
 30 31  1  0  0  0  0
 31 33  2  0  0  0  0
 32 30  1  0  0  0  0
M  END
>  <Pose>
1

>  <Score>
-7.071

$$$$
