MODEL 1
REMARK VINA RESULT:    -7.071      0.000      0.000
REMARK INTER + INTRA:         -10.652
REMARK INTER:                  -9.552
REMARK INTRA:                  -1.100
REMARK UNBOUND:                -1.100
REMARK  6 active torsions:
REMARK  status: ('A' for Active; 'I' for Inactive)
REMARK    1  A    between atoms: C_4  and  O_8 
REMARK    2  A    between atoms: O_8  and  C_9 
REMARK    3  A    between atoms: C_9  and  C_10 
REMARK    4  A    between atoms: C_10  and  C_25 
REMARK       I    between atoms: N_14  and  C_16 
REMARK    5  A    between atoms: C_16  and  C_18 
REMARK    6  A    between atoms: C_25  and  C_26 
REMARK       I    between atoms: C_26  and  N_28 
ROOT
ATOM      1  C   UNK d   1       2.176   9.256 -13.194  0.00  0.00     0.107 C 
ATOM      2  O   UNK d   1       3.046  10.100 -12.488  0.00  0.00    -0.374 OA
ATOM      3  C   UNK d   1       3.402  11.239 -13.157  0.00  0.00     0.189 C 
ATOM      4  C   UNK d   1       2.280  12.248 -13.302  0.00  0.00     0.151 C 
ATOM      5  N   UNK d   1       1.081  11.410 -13.562  0.00  0.00    -0.353 N 
ATOM      6  C   UNK d   1       1.357  10.152 -14.141  0.00  0.00     0.165 C 
ATOM      7  C   UNK d   1      -0.155  11.921 -13.225  0.00  0.00     0.207 C 
ATOM      8  O   UNK d   1      -0.253  13.106 -12.697  0.00  0.00    -0.170 OA
ENDROOT
BRANCH   1   9
ATOM      9  C   UNK d   1       3.050   8.418 -14.082  0.00  0.00     0.215 C 
BRANCH   9  10
ATOM     10  O   UNK d   1       4.229   8.000 -13.680  0.00  0.00    -0.348 OA
BRANCH  10  11
ATOM     11  C   UNK d   1       5.155   7.091 -13.589  0.00  0.00     0.070 A 
ATOM     12  C   UNK d   1       6.498   7.305 -13.767  0.00  0.00     0.060 A 
ATOM     13  C   UNK d   1       7.391   6.275 -13.651  0.00  0.00     0.036 A 
ATOM     14 Cl   UNK d   1       9.110   6.587 -13.886  0.00  0.00    -0.084 Cl
ATOM     15  C   UNK d   1       6.982   4.989 -13.351  0.00  0.00     0.024 A 
ATOM     16  C   UNK d   1       5.641   4.771 -13.171  0.00  0.00     0.004 A 
ATOM     17  C   UNK d   1       4.741   5.780 -13.282  0.00  0.00     0.037 A 
ENDBRANCH  10  11
ENDBRANCH   9  10
ENDBRANCH   1   9
BRANCH   1  18
ATOM     18  C   UNK d   1       1.339   8.548 -12.231  0.00  0.00     0.144 C 
BRANCH  18  19
ATOM     19  C   UNK d   1       1.109   7.115 -12.421  0.00  0.00     0.222 C 
ATOM     20  O   UNK d   1       1.705   6.271 -11.724  0.00  0.00    -0.273 OA
ATOM     21  N   UNK d   1       0.201   6.633 -13.407  0.00  0.00    -0.348 N 
ATOM     22  C   UNK d   1      -0.539   7.546 -14.272  0.00  0.00     0.152 C 
ATOM     23  C   UNK d   1      -0.029   5.217 -13.602  0.00  0.00     0.152 C 
ATOM     24  C   UNK d   1      -1.984   7.094 -14.260  0.00  0.00     0.187 C 
ATOM     25  O   UNK d   1      -2.045   5.767 -14.697  0.00  0.00    -0.388 OA
ATOM     26  C   UNK d   1      -1.495   4.950 -13.710  0.00  0.00     0.187 C 
ENDBRANCH  18  19
ENDBRANCH   1  18
BRANCH   7  27
ATOM     27  C   UNK d   1      -1.403  11.245 -13.408  0.00  0.00     0.127 A 
ATOM     28  N   UNK d   1      -2.117  11.297 -14.532  0.00  0.00    -0.253 NA
ATOM     29  C   UNK d   1      -3.292  10.662 -14.712  0.00  0.00     0.144 A 
ATOM     30  C   UNK d   1      -3.816   9.898 -13.681  0.00  0.00     0.048 A 
ATOM     31  N   UNK d   1      -3.135   9.822 -12.550  0.00  0.00    -0.262 NA
ATOM     32  C   UNK d   1      -5.112   9.222 -13.934  0.00  0.00     0.072 C 
ATOM     33  C   UNK d   1      -1.965  10.464 -12.392  0.00  0.00     0.153 A 
ENDBRANCH   7  27
TORSDOF 6
ENDMDL
