/Users/jonathanwahrer/Desktop/Msc/3_Semester/Drug_Design_Praktikum/waehrer_HTS_screening/HTS_experiment/out/docking_results/vina_output/6q9y/1913_docked.pdbqt
 OpenBabel03222220293D

 29 32  0  0  1  0  0  0  0  0999 V2000
    3.4760    9.0330  -13.9030 N   0  0  0  0  0  0  0  0  0  0  0  0
    2.6380    9.1220  -15.0770 C   0  0  0  0  0  2  0  0  0  0  0  0
    2.1570   10.5190  -15.3630 C   0  0  0  0  0  2  0  0  0  0  0  0
    1.6810   11.1500  -14.1000 C   0  0  2  0  0  3  0  0  0  0  0  0
    2.8180   11.2980  -13.1490 C   0  0  0  0  0  3  0  0  0  0  0  0
    3.7320   10.1340  -13.0260 C   0  0  0  0  0  3  0  0  0  0  0  0
    0.4960   10.4900  -13.5480 C   0  0  0  0  0  0  0  0  0  0  0  0
    0.6550    9.4520  -12.8610 O   0  0  0  0  0  0  0  0  0  0  0  0
   -0.8160   10.9640  -13.7500 N   0  0  0  0  0  0  0  0  0  0  0  0
   -0.9510   11.8430  -14.3300 H   0  0  0  0  0  0  0  0  0  0  0  0
   -1.9940   10.3240  -13.2120 C   0  0  0  0  0  2  0  0  0  0  0  0
   -3.0290    9.9950  -14.2490 C   0  0  0  0  0  2  0  0  0  0  0  0
   -3.3870    8.5890  -14.2010 N   0  0  0  0  0  0  0  0  0  0  0  0
   -2.2900    7.7450  -13.8660 C   0  0  0  0  0  2  0  0  0  0  0  0
   -1.8550    6.9370  -15.0720 C   0  0  0  0  0  2  0  0  0  0  0  0
   -2.8950    6.1130  -15.4230 O   0  0  0  0  0  0  0  0  0  0  0  0
   -4.1030    6.7230  -15.6390 C   0  0  0  0  0  2  0  0  0  0  0  0
   -4.1780    8.1710  -15.3020 C   0  0  0  0  0  2  0  0  0  0  0  0
    4.0710    7.7880  -13.6110 C   0  0  0  0  0  0  0  0  0  0  0  0
    3.3240    6.7600  -13.1000 C   0  0  0  0  0  0  0  0  0  0  0  0
    3.9130    5.5170  -12.8310 C   0  0  0  0  0  0  0  0  0  0  0  0
    2.0320    6.6430  -12.7520 N   0  0  0  0  0  0  0  0  0  0  0  0
    5.2170    5.3810  -13.0900 N   0  0  0  0  0  4  0  0  0  0  0  0
    3.0010    4.6880  -12.3390 N   0  0  0  0  0  0  0  0  0  0  0  0
    5.9550    6.3750  -13.5870 C   0  0  0  0  0  0  0  0  0  0  0  0
    7.6420    6.1280  -13.9000 Cl  0  0  0  0  0  0  0  0  0  0  0  0
    5.3970    7.5610  -13.8460 N   0  0  0  0  0  2  0  0  0  0  0  0
    1.8630    5.3940  -12.3000 C   0  0  0  0  0  3  0  0  0  0  0  0
    1.3280    7.4130  -12.8310 H   0  0  0  0  0  0  0  0  0  0  0  0
  1 19  1  0  0  0  0
  1  6  1  0  0  0  0
  2  1  1  0  0  0  0
  3  2  1  0  0  0  0
  3  4  1  0  0  0  0
  4  7  1  1  0  0  0
  4  5  1  0  0  0  0
  5  6  2  0  0  0  0
  7  8  2  0  0  0  0
  9  7  1  0  0  0  0
  9 11  1  0  0  0  0
 10  9  1  0  0  0  0
 12 13  1  0  0  0  0
 12 11  1  0  0  0  0
 13 14  1  0  0  0  0
 15 14  1  0  0  0  0
 16 15  1  0  0  0  0
 17 16  1  0  0  0  0
 17 18  1  0  0  0  0
 18 13  1  0  0  0  0
 19 20  2  0  0  0  0
 20 21  1  0  0  0  0
 20 22  1  0  0  0  0
 21 24  1  0  0  0  0
 22 28  1  0  0  0  0
 23 21  2  0  0  0  0
 24 28  2  0  0  0  0
 25 23  2  0  0  0  0
 26 25  1  0  0  0  0
 27 19  1  0  0  0  0
 27 25  1  0  0  0  0
 29 22  1  0  0  0  0
M  END
>  <Pose>
1

>  <Score>
-7.462

$$$$
