MODEL 1
REMARK VINA RESULT:    -7.462      0.000      0.000
REMARK INTER + INTRA:         -10.182
REMARK INTER:                  -9.643
REMARK INTRA:                  -0.538
REMARK UNBOUND:                -0.538
REMARK  5 active torsions:
REMARK  status: ('A' for Active; 'I' for Inactive)
REMARK    1  A    between atoms: C_9  and  N_11 
REMARK    2  A    between atoms: C_14  and  C_17 
REMARK       I    between atoms: C_17  and  N_19 
REMARK    3  A    between atoms: N_19  and  C_20 
REMARK    4  A    between atoms: C_20  and  C_21 
REMARK    5  A    between atoms: C_21  and  N_22 
ROOT
ATOM      1  N   UNK d   1       3.476   9.033 -13.903  0.00  0.00    -0.364 N 
ATOM      2  C   UNK d   1       2.638   9.122 -15.077  0.00  0.00     0.125 C 
ATOM      3  C   UNK d   1       2.157  10.519 -15.363  0.00  0.00     0.034 C 
ATOM      4  C   UNK d   1       1.681  11.150 -14.100  0.00  0.00     0.081 C 
ATOM      5  C   UNK d   1       2.818  11.298 -13.149  0.00  0.00     0.034 C 
ATOM      6  C   UNK d   1       3.732  10.134 -13.026  0.00  0.00     0.125 C 
ENDROOT
BRANCH   4   7
ATOM      7  C   UNK d   1       0.496  10.490 -13.548  0.00  0.00     0.222 C 
ATOM      8  O   UNK d   1       0.655   9.452 -12.861  0.00  0.00    -0.273 OA
ATOM      9  N   UNK d   1      -0.816  10.964 -13.750  0.00  0.00    -0.359 N 
ATOM     10  H   UNK d   1      -0.951  11.843 -14.330  0.00  0.00     0.162 HD
BRANCH   9  11
ATOM     11  C   UNK d   1      -1.994  10.324 -13.212  0.00  0.00     0.152 C 
BRANCH  11  12
ATOM     12  C   UNK d   1      -3.029   9.995 -14.249  0.00  0.00     0.292 C 
BRANCH  12  13
ATOM     13  N   UNK d   1      -3.387   8.589 -14.201  0.00  0.00     0.094 N 
ATOM     14  C   UNK d   1      -2.290   7.745 -13.866  0.00  0.00     0.298 C 
ATOM     15  C   UNK d   1      -1.855   6.937 -15.072  0.00  0.00     0.198 C 
ATOM     16  O   UNK d   1      -2.895   6.113 -15.423  0.00  0.00    -0.388 OA
ATOM     17  C   UNK d   1      -4.103   6.723 -15.639  0.00  0.00     0.198 C 
ATOM     18  C   UNK d   1      -4.178   8.171 -15.302  0.00  0.00     0.298 C 
ENDBRANCH  12  13
ENDBRANCH  11  12
ENDBRANCH   9  11
ENDBRANCH   4   7
BRANCH   1  19
ATOM     19  C   UNK d   1       4.071   7.788 -13.611  0.00  0.00     0.160 A 
ATOM     20  C   UNK d   1       3.324   6.760 -13.100  0.00  0.00     0.128 A 
ATOM     21  C   UNK d   1       3.913   5.517 -12.831  0.00  0.00     0.184 A 
ATOM     22  N   UNK d   1       2.032   6.643 -12.752  0.00  0.00    -0.345 N 
ATOM     23  N   UNK d   1       5.217   5.381 -13.090  0.00  0.00    -0.196 NA
ATOM     24  N   UNK d   1       3.001   4.688 -12.339  0.00  0.00    -0.222 NA
ATOM     25  C   UNK d   1       5.955   6.375 -13.587  0.00  0.00     0.227 A 
ATOM     26 Cl   UNK d   1       7.642   6.128 -13.900  0.00  0.00    -0.041 Cl
ATOM     27  N   UNK d   1       5.397   7.561 -13.846  0.00  0.00    -0.198 NA
ATOM     28  C   UNK d   1       1.863   5.394 -12.300  0.00  0.00     0.210 A 
ATOM     29  H   UNK d   1       1.328   7.413 -12.831  0.00  0.00     0.167 HD
ENDBRANCH   1  19
TORSDOF 5
ENDMDL
