MODEL 1
REMARK VINA RESULT:   -11.335      0.000      0.000
REMARK INTER + INTRA:         -14.989
REMARK INTER:                 -14.317
REMARK INTRA:                  -0.672
REMARK UNBOUND:                -0.672
REMARK  5 active torsions:
REMARK  status: ('A' for Active; 'I' for Inactive)
REMARK    1  A    between atoms: C_5  and  C_8 
REMARK    2  A    between atoms: C_8  and  O_32 
REMARK       I    between atoms: N_11  and  C_14 
REMARK    3  A    between atoms: C_14  and  C_16 
REMARK    4  A    between atoms: C_16  and  N_17 
REMARK       I    between atoms: N_17  and  C_18 
REMARK    5  A    between atoms: C_18  and  C_20 
ROOT
ATOM      1  C   UNK d   1      -3.727   9.174 -14.106  0.00  0.00     0.210 C 
ENDROOT
BRANCH   1   2
ATOM      2  C   UNK d   1      -2.429   9.809 -13.832  0.00  0.00     0.171 C 
ATOM      3  N   UNK d   1      -1.299   9.340 -13.176  0.00  0.00    -0.361 N 
ATOM      4  C   UNK d   1      -1.210   8.156 -12.396  0.00  0.00     0.128 C 
ATOM      5  C   UNK d   1      -0.045  10.128 -13.302  0.00  0.00     0.128 C 
ATOM      6  C   UNK d   1      -0.147   7.235 -12.957  0.00  0.00     0.062 C 
ATOM      7  C   UNK d   1       1.159   7.978 -12.688  0.00  0.00     0.088 C 
ATOM      8  C   UNK d   1       1.188   9.293 -13.374  0.00  0.00     0.062 C 
ATOM      9  O   UNK d   1      -2.358  11.032 -14.291  0.00  0.00    -0.175 OA
BRANCH   7  10
ATOM     10  C   UNK d   1       2.295   7.101 -12.906  0.00  0.00    -0.024 A 
ATOM     11  C   UNK d   1       2.204   5.791 -12.417  0.00  0.00     0.012 A 
ATOM     12  C   UNK d   1       3.252   4.880 -12.542  0.00  0.00     0.024 A 
ATOM     13  C   UNK d   1       4.426   5.236 -13.159  0.00  0.00     0.034 A 
ATOM     14 Cl   UNK d   1       5.772   4.077 -13.312  0.00  0.00    -0.084 Cl
ATOM     15  C   UNK d   1       4.530   6.528 -13.647  0.00  0.00     0.024 A 
ATOM     16  C   UNK d   1       3.484   7.422 -13.515  0.00  0.00     0.012 A 
ENDBRANCH   7  10
BRANCH   7  17
ATOM     17  O   UNK d   1       1.095   8.250 -11.284  0.00  0.00    -0.385 OA
ATOM     18  H   UNK d   1       0.254   7.841 -10.961  0.00  0.00     0.211 HD
ENDBRANCH   7  17
ENDBRANCH   1   2
BRANCH   1  19
ATOM     19  N   UNK d   1      -4.803  10.000 -14.440  0.00  0.00    -0.350 N 
ATOM     20  C   UNK d   1      -5.972  10.189 -13.640  0.00  0.00     0.243 C 
ATOM     21  O   UNK d   1      -5.999   9.522 -12.573  0.00  0.00    -0.269 OA
ATOM     22  H   UNK d   1      -4.781  10.610 -15.301  0.00  0.00     0.163 HD
BRANCH  20  23
ATOM     23  C   UNK d   1      -7.018  11.085 -14.050  0.00  0.00     0.105 C 
ATOM     24  C   UNK d   1      -7.840  11.034 -15.046  0.00  0.00     0.064 A 
ATOM     25  N   UNK d   1      -7.842   9.978 -16.009  0.00  0.00    -0.297 N 
ATOM     26  C   UNK d   1      -8.874  12.083 -15.237  0.00  0.00     0.008 A 
ATOM     27  N   UNK d   1      -8.767   9.935 -17.074  0.00  0.00    -0.265 N 
ATOM     28  H   UNK d   1      -7.147   9.195 -15.951  0.00  0.00     0.187 HD
ATOM     29  C   UNK d   1      -9.738  10.944 -17.233  0.00  0.00     0.271 A 
ATOM     30  H   UNK d   1      -8.746   9.145 -17.760  0.00  0.00     0.190 HD
ATOM     31  O   UNK d   1     -10.550  10.866 -18.201  0.00  0.00    -0.266 OA
ATOM     32  C   UNK d   1      -9.772  12.034 -16.278  0.00  0.00     0.046 A 
ATOM     33  C   UNK d   1     -10.758  12.982 -16.461  0.00  0.00     0.018 A 
ATOM     34  C   UNK d   1     -10.836  14.027 -15.544  0.00  0.00     0.001 A 
ATOM     35  C   UNK d   1      -9.966  14.121 -14.492  0.00  0.00     0.001 A 
ATOM     36  C   UNK d   1      -8.989  13.127 -14.364  0.00  0.00     0.015 A 
ENDBRANCH  20  23
ENDBRANCH   1  19
TORSDOF 5
ENDMDL
