MODEL 1
REMARK VINA RESULT:    -9.572      0.000      0.000
REMARK INTER + INTRA:         -12.419
REMARK INTER:                 -12.371
REMARK INTRA:                  -0.048
REMARK UNBOUND:                -0.048
REMARK  5 active torsions:
REMARK  status: ('A' for Active; 'I' for Inactive)
REMARK    1  A    between atoms: C_5  and  C_8 
REMARK    2  A    between atoms: C_11  and  C_13 
REMARK    3  A    between atoms: C_13  and  N_14 
REMARK    4  A    between atoms: C_22  and  C_24 
REMARK    5  A    between atoms: C_24  and  O_26 
ROOT
ATOM      1  N   UNK d   1      -3.745   7.950 -14.465  0.00  0.00    -0.357 N 
ATOM      2  C   UNK d   1      -3.358   9.230 -14.291  0.00  0.00     0.110 A 
ATOM      3  C   UNK d   1      -2.086   9.530 -13.874  0.00  0.00     0.080 A 
ATOM      4  C   UNK d   1      -1.141   8.438 -13.616  0.00  0.00     0.111 A 
ATOM      5  N   UNK d   1       0.015   9.017 -13.225  0.00  0.00    -0.170 NA
ATOM      6  N   UNK d   1      -0.132  10.326 -13.219  0.00  0.00    -0.242 N 
ATOM      7  C   UNK d   1      -1.365  10.690 -13.598  0.00  0.00     0.275 A 
ATOM      8  O   UNK d   1      -1.828  11.852 -13.699  0.00  0.00    -0.266 OA
ATOM      9  C   UNK d   1      -1.582   7.146 -13.808  0.00  0.00     0.086 A 
ATOM     10  C   UNK d   1      -2.872   6.973 -14.226  0.00  0.00     0.111 A 
ATOM     11  H   UNK d   1       0.618  10.991 -12.955  0.00  0.00     0.192 HD
ENDROOT
BRANCH   1  12
ATOM     12  C   UNK d   1      -5.115   7.689 -14.911  0.00  0.00     0.216 C 
BRANCH  12  13
ATOM     13  C   UNK d   1      -5.967   8.860 -14.627  0.00  0.00     0.191 A 
ATOM     14  O   UNK d   1      -5.952   9.533 -13.502  0.00  0.00    -0.194 OA
ATOM     15  N   UNK d   1      -6.817  10.499 -13.577  0.00  0.00    -0.105 NA
ATOM     16  C   UNK d   1      -7.431  10.480 -14.770  0.00  0.00     0.189 A 
ATOM     17  N   UNK d   1      -6.893   9.446 -15.432  0.00  0.00    -0.202 NA
BRANCH  16  18
ATOM     18  C   UNK d   1      -8.460  11.413 -15.209  0.00  0.00     0.014 A 
ATOM     19  C   UNK d   1      -9.024  11.331 -16.460  0.00  0.00     0.017 A 
ATOM     20  C   UNK d   1     -10.002  12.210 -16.886  0.00  0.00     0.025 A 
ATOM     21  C   UNK d   1     -10.448  13.218 -16.051  0.00  0.00     0.034 A 
ATOM     22 Cl   UNK d   1     -11.689  14.347 -16.568  0.00  0.00    -0.084 Cl
ATOM     23  C   UNK d   1      -9.881  13.304 -14.787  0.00  0.00     0.025 A 
ATOM     24  C   UNK d   1      -8.902  12.416 -14.371  0.00  0.00     0.017 A 
ENDBRANCH  16  18
ENDBRANCH  12  13
ENDBRANCH   1  12
BRANCH   9  25
ATOM     25  C   UNK d   1      -0.668   6.031 -13.561  0.00  0.00     0.296 C 
ATOM     26  O   UNK d   1      -0.476   5.165 -14.427  0.00  0.00    -0.259 OA
BRANCH  25  27
ATOM     27  O   UNK d   1       0.005   5.912 -12.357  0.00  0.00    -0.322 OA
ATOM     28  C   UNK d   1       1.396   5.723 -12.255  0.00  0.00     0.213 C 
ENDBRANCH  25  27
ENDBRANCH   9  25
TORSDOF 5
ENDMDL
