/Users/jonathanwahrer/Desktop/Msc/3_Semester/Drug_Design_Praktikum/waehrer_HTS_screening/HTS_experiment/out/docking_results/vina_output/6q9y/1928_docked.pdbqt
 OpenBabel03222220293D

 28 31  0  0  0  0  0  0  0  0999 V2000
   -3.7450    7.9500  -14.4650 N   0  0  0  0  0  0  0  0  0  0  0  0
   -3.3580    9.2300  -14.2910 C   0  0  0  0  0  2  0  0  0  0  0  0
   -2.0860    9.5300  -13.8740 C   0  0  0  0  0  0  0  0  0  0  0  0
   -1.1410    8.4380  -13.6160 C   0  0  0  0  0  0  0  0  0  0  0  0
    0.0150    9.0170  -13.2250 N   0  0  0  0  0  2  0  0  0  0  0  0
   -0.1320   10.3260  -13.2190 N   0  0  0  0  0  0  0  0  0  0  0  0
   -1.3650   10.6900  -13.5980 C   0  0  0  0  0  0  0  0  0  0  0  0
   -1.8280   11.8520  -13.6990 O   0  0  0  0  0  0  0  0  0  0  0  0
   -1.5820    7.1460  -13.8080 C   0  0  0  0  0  0  0  0  0  0  0  0
   -2.8720    6.9730  -14.2260 C   0  0  0  0  0  3  0  0  0  0  0  0
    0.6180   10.9910  -12.9550 H   0  0  0  0  0  0  0  0  0  0  0  0
   -5.1150    7.6890  -14.9110 C   0  0  0  0  0  2  0  0  0  0  0  0
   -5.9670    8.8600  -14.6270 C   0  0  0  0  0  0  0  0  0  0  0  0
   -5.9520    9.5330  -13.5020 O   0  0  0  0  0  0  0  0  0  0  0  0
   -6.8170   10.4990  -13.5770 N   0  0  0  0  0  0  0  0  0  0  0  0
   -7.4310   10.4800  -14.7700 C   0  0  0  0  0  0  0  0  0  0  0  0
   -6.8930    9.4460  -15.4320 N   0  0  0  0  0  0  0  0  0  0  0  0
   -8.4600   11.4130  -15.2090 C   0  0  0  0  0  0  0  0  0  0  0  0
   -9.0240   11.3310  -16.4600 C   0  0  0  0  0  3  0  0  0  0  0  0
  -10.0020   12.2100  -16.8860 C   0  0  0  0  0  3  0  0  0  0  0  0
  -10.4480   13.2180  -16.0510 C   0  0  0  0  0  0  0  0  0  0  0  0
  -11.6890   14.3470  -16.5680 Cl  0  0  0  0  0  0  0  0  0  0  0  0
   -9.8810   13.3040  -14.7870 C   0  0  0  0  0  3  0  0  0  0  0  0
   -8.9020   12.4160  -14.3710 C   0  0  0  0  0  3  0  0  0  0  0  0
   -0.6680    6.0310  -13.5610 C   0  0  0  0  0  0  0  0  0  0  0  0
   -0.4760    5.1650  -14.4270 O   0  0  0  0  0  0  0  0  0  0  0  0
    0.0050    5.9120  -12.3570 O   0  0  0  0  0  0  0  0  0  0  0  0
    1.3960    5.7230  -12.2550 C   0  0  0  0  0  1  0  0  0  0  0  0
  1  2  1  0  0  0  0
  1 10  1  0  0  0  0
  2  3  1  0  0  0  0
  3  4  2  0  0  0  0
  3  7  1  0  0  0  0
  4  5  1  0  0  0  0
  5  6  1  0  0  0  0
  6 11  1  0  0  0  0
  7  6  1  0  0  0  0
  8  7  2  0  0  0  0
  9  4  1  0  0  0  0
  9 25  1  0  0  0  0
 10  9  2  0  0  0  0
 12 13  1  0  0  0  0
 12  1  1  0  0  0  0
 13 14  1  0  0  0  0
 15 14  1  0  0  0  0
 16 15  2  0  0  0  0
 17 16  1  0  0  0  0
 17 13  2  0  0  0  0
 18 16  1  0  0  0  0
 18 24  1  0  0  0  0
 19 18  2  0  0  0  0
 20 19  1  0  0  0  0
 20 21  2  0  0  0  0
 21 23  1  0  0  0  0
 22 21  1  0  0  0  0
 23 24  2  0  0  0  0
 25 27  1  0  0  0  0
 26 25  2  0  0  0  0
 27 28  1  0  0  0  0
M  END
>  <Pose>
1

>  <Score>
-9.572

$$$$
