/Users/jonathanwahrer/Desktop/Msc/3_Semester/Drug_Design_Praktikum/waehrer_HTS_screening/HTS_experiment/out/docking_results/vina_output/6q9y/1930_docked.pdbqt
 OpenBabel03222220303D

 34 37  0  0  1  0  0  0  0  0999 V2000
   -3.1510    9.6520  -14.3150 C   0  0  0  0  0  0  0  0  0  0  0  0
   -3.1860   10.8530  -14.6870 O   0  0  0  0  0  0  0  0  0  0  0  0
   -2.0610    9.1920  -13.5540 N   0  0  0  0  0  0  0  0  0  0  0  0
   -0.9490   10.0620  -13.1670 C   0  0  0  0  0  2  0  0  0  0  0  0
    0.2660    9.5000  -13.8790 C   0  0  2  0  0  3  0  0  0  0  0  0
    0.4630    8.0410  -13.5390 C   0  0  2  0  0  0  0  0  0  0  0  0
   -0.5710    7.5900  -12.5010 C   0  0  0  0  0  2  0  0  0  0  0  0
   -1.9530    7.8200  -13.0890 C   0  0  0  0  0  2  0  0  0  0  0  0
    1.8450    7.7130  -13.0600 C   0  0  0  0  0  1  0  0  0  0  0  0
   -4.2660    8.7510  -14.6950 C   0  0  0  0  0  2  0  0  0  0  0  0
   -5.4430    8.8380  -13.7790 C   0  0  0  0  0  2  0  0  0  0  0  0
   -6.5210    9.7320  -14.2690 C   0  0  0  0  0  0  0  0  0  0  0  0
   -7.1170    9.7640  -15.4720 N   0  0  0  0  0  0  0  0  0  0  0  0
   -8.0520   10.7280  -15.5220 C   0  0  0  0  0  0  0  0  0  0  0  0
   -8.9440   11.1960  -16.4750 C   0  0  0  0  0  3  0  0  0  0  0  0
   -8.0520   11.3420  -14.2870 C   0  0  0  0  0  0  0  0  0  0  0  0
   -9.8100   12.2310  -16.2320 C   0  0  0  0  0  0  0  0  0  0  0  0
  -10.9430   12.8320  -17.4320 Cl  0  0  0  0  0  0  0  0  0  0  0  0
   -9.7840   12.8230  -14.9870 C   0  0  0  0  0  3  0  0  0  0  0  0
   -8.9060   12.3870  -14.0010 C   0  0  0  0  0  3  0  0  0  0  0  0
   -7.1220   10.7250  -13.5500 N   0  0  0  0  0  0  0  0  0  0  0  0
   -6.7450   11.0150  -12.1680 C   0  0  0  0  0  1  0  0  0  0  0  0
    1.4350   10.2980  -13.7700 N   0  0  0  0  0  0  0  0  0  0  0  0
    1.6220   11.1550  -12.7230 C   0  0  0  0  0  3  0  0  0  0  0  0
    2.7560   11.9310  -12.6170 C   0  0  0  0  0  0  0  0  0  0  0  0
    3.7300   11.8460  -13.5870 C   0  0  0  0  0  0  0  0  0  0  0  0
    2.9910   12.8710  -11.4920 C   0  0  0  0  0  1  0  0  0  0  0  0
    4.7960   12.5490  -13.5250 O   0  0  0  0  0  0  0  0  0  0  0  0
    3.5390   11.0020  -14.6150 N   0  0  0  0  0  0  0  0  0  0  0  0
    2.3990   10.2530  -14.6780 C   0  0  0  0  0  0  0  0  0  0  0  0
    4.2690   10.9340  -15.3470 H   0  0  0  0  0  0  0  0  0  0  0  0
    2.2760    9.4840  -15.6570 O   0  0  0  0  0  0  0  0  0  0  0  0
    0.2260    7.1990  -14.6530 O   0  0  0  0  0  0  0  0  0  0  0  0
    0.9430    7.4040  -15.3020 H   0  0  0  0  0  0  0  0  0  0  0  0
  1  3  1  0  0  0  0
  2  1  2  0  0  0  0
  3  4  1  0  0  0  0
  3  8  1  0  0  0  0
  5 23  1  1  0  0  0
  5  6  1  0  0  0  0
  5  4  1  0  0  0  0
  6  9  1  1  0  0  0
  6  7  1  0  0  0  0
  8  7  1  0  0  0  0
 10  1  1  0  0  0  0
 10 11  1  0  0  0  0
 12 11  1  0  0  0  0
 12 21  1  0  0  0  0
 13 12  2  0  0  0  0
 14 13  1  0  0  0  0
 14 16  1  0  0  0  0
 15 17  1  0  0  0  0
 15 14  2  0  0  0  0
 16 20  2  0  0  0  0
 16 21  1  0  0  0  0
 17 19  2  0  0  0  0
 18 17  1  0  0  0  0
 19 20  1  0  0  0  0
 21 22  1  0  0  0  0
 23 24  1  0  0  0  0
 24 25  2  0  0  0  0
 25 27  1  0  0  0  0
 26 28  2  0  0  0  0
 26 25  1  0  0  0  0
 29 26  1  0  0  0  0
 30 29  1  0  0  0  0
 30 23  1  0  0  0  0
 31 29  1  0  0  0  0
 32 30  2  0  0  0  0
 33  6  1  0  0  0  0
 34 33  1  0  0  0  0
M  END
>  <Pose>
1

>  <Score>
-9.425

$$$$
