MODEL 1
REMARK VINA RESULT:    -9.425      0.000      0.000
REMARK INTER + INTRA:         -12.055
REMARK INTER:                 -11.904
REMARK INTRA:                  -0.150
REMARK UNBOUND:                -0.150
REMARK  5 active torsions:
REMARK  status: ('A' for Active; 'I' for Inactive)
REMARK    1  A    between atoms: C_6  and  C_12 
REMARK    2  A    between atoms: C_12  and  C_13 
REMARK    3  A    between atoms: C_13  and  C_14 
REMARK       I    between atoms: C_14  and  N_16 
REMARK    4  A    between atoms: C_18  and  N_24 
REMARK    5  A    between atoms: C_19  and  O_22 
ROOT
ATOM      1  C   UNK d   1      -3.151   9.652 -14.315  0.00  0.00     0.220 C 
ATOM      2  O   UNK d   1      -3.186  10.853 -14.687  0.00  0.00    -0.273 OA
ATOM      3  N   UNK d   1      -2.061   9.192 -13.554  0.00  0.00    -0.350 N 
ATOM      4  C   UNK d   1      -0.949  10.062 -13.167  0.00  0.00     0.154 C 
ATOM      5  C   UNK d   1       0.266   9.500 -13.879  0.00  0.00     0.146 C 
ATOM      6  C   UNK d   1       0.463   8.041 -13.539  0.00  0.00     0.078 C 
ATOM      7  C   UNK d   1      -0.571   7.590 -12.501  0.00  0.00     0.059 C 
ATOM      8  C   UNK d   1      -1.953   7.820 -13.089  0.00  0.00     0.129 C 
ATOM      9  C   UNK d   1       1.845   7.713 -13.060  0.00  0.00     0.048 C 
ENDROOT
BRANCH   1  10
ATOM     10  C   UNK d   1      -4.266   8.751 -14.695  0.00  0.00     0.110 C 
BRANCH  10  11
ATOM     11  C   UNK d   1      -5.443   8.838 -13.779  0.00  0.00     0.088 C 
BRANCH  11  12
ATOM     12  C   UNK d   1      -6.521   9.732 -14.269  0.00  0.00     0.107 A 
ATOM     13  N   UNK d   1      -7.117   9.764 -15.472  0.00  0.00    -0.233 NA
ATOM     14  C   UNK d   1      -8.052  10.728 -15.522  0.00  0.00     0.087 A 
ATOM     15  C   UNK d   1      -8.944  11.196 -16.475  0.00  0.00     0.057 A 
ATOM     16  C   UNK d   1      -8.052  11.342 -14.287  0.00  0.00     0.064 A 
ATOM     17  C   UNK d   1      -9.810  12.231 -16.232  0.00  0.00     0.036 A 
ATOM     18 Cl   UNK d   1     -10.943  12.832 -17.432  0.00  0.00    -0.084 Cl
ATOM     19  C   UNK d   1      -9.784  12.823 -14.987  0.00  0.00     0.026 A 
ATOM     20  C   UNK d   1      -8.906  12.387 -14.001  0.00  0.00     0.034 A 
ATOM     21  N   UNK d   1      -7.122  10.725 -13.550  0.00  0.00    -0.338 N 
ATOM     22  C   UNK d   1      -6.745  11.015 -12.168  0.00  0.00     0.158 C 
ENDBRANCH  11  12
ENDBRANCH  10  11
ENDBRANCH   1  10
BRANCH   5  23
ATOM     23  N   UNK d   1       1.435  10.298 -13.770  0.00  0.00    -0.300 N 
ATOM     24  C   UNK d   1       1.622  11.155 -12.723  0.00  0.00     0.108 A 
ATOM     25  C   UNK d   1       2.756  11.931 -12.617  0.00  0.00     0.022 A 
ATOM     26  C   UNK d   1       3.730  11.846 -13.587  0.00  0.00     0.256 A 
ATOM     27  C   UNK d   1       2.991  12.871 -11.492  0.00  0.00     0.056 C 
ATOM     28  O   UNK d   1       4.796  12.549 -13.525  0.00  0.00    -0.267 OA
ATOM     29  N   UNK d   1       3.539  11.002 -14.615  0.00  0.00    -0.275 N 
ATOM     30  C   UNK d   1       2.399  10.253 -14.678  0.00  0.00     0.329 A 
ATOM     31  H   UNK d   1       4.269  10.934 -15.347  0.00  0.00     0.173 HD
ATOM     32  O   UNK d   1       2.276   9.484 -15.657  0.00  0.00    -0.246 OA
ENDBRANCH   5  23
BRANCH   6  33
ATOM     33  O   UNK d   1       0.226   7.199 -14.653  0.00  0.00    -0.388 OA
ATOM     34  H   UNK d   1       0.943   7.404 -15.302  0.00  0.00     0.210 HD
ENDBRANCH   6  33
TORSDOF 5
ENDMDL
