MODEL 1
REMARK VINA RESULT:    -9.525      0.000      0.000
REMARK INTER + INTRA:         -10.999
REMARK INTER:                 -11.752
REMARK INTRA:                   0.753
REMARK UNBOUND:                 0.753
REMARK  4 active torsions:
REMARK  status: ('A' for Active; 'I' for Inactive)
REMARK    1  A    between atoms: C_6  and  C_11 
REMARK    2  A    between atoms: C_11  and  N_12 
REMARK       I    between atoms: N_12  and  C_13 
REMARK    3  A    between atoms: C_13  and  C_15 
REMARK    4  A    between atoms: C_15  and  N_18 
ROOT
ATOM      1  N   UNK d   1       0.050  15.829 -13.529  0.00  0.00    -0.352 N 
ATOM      2  C   UNK d   1       0.199  14.596 -12.866  0.00  0.00     0.246 C 
ATOM      3  O   UNK d   1      -0.808  13.876 -12.753  0.00  0.00    -0.271 OA
ATOM      4  H   UNK d   1       0.885  16.452 -13.634  0.00  0.00     0.162 HD
ENDROOT
BRANCH   1   5
ATOM      5  C   UNK d   1      -1.217  16.280 -14.075  0.00  0.00     0.201 C 
BRANCH   5   6
ATOM      6  C   UNK d   1      -1.864  17.253 -13.129  0.00  0.00     0.123 A 
ATOM      7  N   UNK d   1      -3.064  17.845 -13.271  0.00  0.00    -0.232 NA
ATOM      8  C   UNK d   1      -3.320  18.657 -12.230  0.00  0.00     0.087 A 
ATOM      9  C   UNK d   1      -4.355  19.486 -11.853  0.00  0.00     0.057 A 
ATOM     10  C   UNK d   1      -2.217  18.576 -11.375  0.00  0.00     0.062 A 
ATOM     11  C   UNK d   1      -4.361  20.234 -10.688  0.00  0.00     0.036 A 
ATOM     12 Cl   UNK d   1      -5.712  21.278 -10.253  0.00  0.00    -0.084 Cl
ATOM     13  C   UNK d   1      -3.250  20.134  -9.856  0.00  0.00     0.026 A 
ATOM     14  C   UNK d   1      -2.210  19.314 -10.214  0.00  0.00     0.034 A 
ATOM     15  N   UNK d   1      -1.369  17.713 -11.968  0.00  0.00    -0.341 N 
ATOM     16  H   UNK d   1      -0.441  17.434 -11.577  0.00  0.00     0.167 HD
ENDBRANCH   5   6
ENDBRANCH   1   5
BRANCH   2  17
ATOM     17  C   UNK d   1       1.483  14.137 -12.309  0.00  0.00     0.110 A 
ATOM     18  C   UNK d   1       2.538  15.162 -12.165  0.00  0.00     0.044 A 
ATOM     19  C   UNK d   1       1.848  14.764 -10.921  0.00  0.00     0.044 A 
BRANCH  17  20
ATOM     20  N   UNK d   1       1.818  12.745 -12.350  0.00  0.00    -0.392 N 
ATOM     21  C   UNK d   1       3.126  12.401 -11.954  0.00  0.00     0.144 C 
ATOM     22  C   UNK d   1       3.968  12.255 -13.215  0.00  0.00     0.187 C 
ATOM     23  O   UNK d   1       3.570  11.145 -13.922  0.00  0.00    -0.388 OA
ATOM     24  C   UNK d   1       2.241  10.823 -13.797  0.00  0.00     0.187 C 
ATOM     25  C   UNK d   1       1.376  12.024 -13.472  0.00  0.00     0.144 C 
ENDBRANCH  17  20
ENDBRANCH   2  17
TORSDOF 4
ENDMDL
