/Users/jonathanwahrer/Desktop/Msc/3_Semester/Drug_Design_Praktikum/waehrer_HTS_screening/HTS_experiment/out/docking_results/vina_output/6q9y/1936_docked.pdbqt
 OpenBabel03222220303D

 25 28  0  0  0  0  0  0  0  0999 V2000
    0.0500   15.8290  -13.5290 N   0  0  0  0  0  0  0  0  0  0  0  0
    0.1990   14.5960  -12.8660 C   0  0  0  0  0  0  0  0  0  0  0  0
   -0.8080   13.8760  -12.7530 O   0  0  0  0  0  0  0  0  0  0  0  0
    0.8850   16.4520  -13.6340 H   0  0  0  0  0  0  0  0  0  0  0  0
   -1.2170   16.2800  -14.0750 C   0  0  0  0  0  2  0  0  0  0  0  0
   -1.8640   17.2530  -13.1290 C   0  0  0  0  0  0  0  0  0  0  0  0
   -3.0640   17.8450  -13.2710 N   0  0  0  0  0  0  0  0  0  0  0  0
   -3.3200   18.6570  -12.2300 C   0  0  0  0  0  0  0  0  0  0  0  0
   -4.3550   19.4860  -11.8530 C   0  0  0  0  0  3  0  0  0  0  0  0
   -2.2170   18.5760  -11.3750 C   0  0  0  0  0  0  0  0  0  0  0  0
   -4.3610   20.2340  -10.6880 C   0  0  0  0  0  0  0  0  0  0  0  0
   -5.7120   21.2780  -10.2530 Cl  0  0  0  0  0  0  0  0  0  0  0  0
   -3.2500   20.1340   -9.8560 C   0  0  0  0  0  3  0  0  0  0  0  0
   -2.2100   19.3140  -10.2140 C   0  0  0  0  0  3  0  0  0  0  0  0
   -1.3690   17.7130  -11.9680 N   0  0  0  0  0  0  0  0  0  0  0  0
   -0.4410   17.4340  -11.5770 H   0  0  0  0  0  0  0  0  0  0  0  0
    1.4830   14.1370  -12.3090 C   0  0  0  0  0  0  0  0  0  0  0  0
    2.5380   15.1620  -12.1650 C   0  0  0  0  0  2  0  0  0  0  0  0
    1.8480   14.7640  -10.9210 C   0  0  0  0  0  2  0  0  0  0  0  0
    1.8180   12.7450  -12.3500 N   0  0  0  0  0  0  0  0  0  0  0  0
    3.1260   12.4010  -11.9540 C   0  0  0  0  0  2  0  0  0  0  0  0
    3.9680   12.2550  -13.2150 C   0  0  0  0  0  2  0  0  0  0  0  0
    3.5700   11.1450  -13.9220 O   0  0  0  0  0  0  0  0  0  0  0  0
    2.2410   10.8230  -13.7970 C   0  0  0  0  0  2  0  0  0  0  0  0
    1.3760   12.0240  -13.4720 C   0  0  0  0  0  2  0  0  0  0  0  0
  1  2  1  0  0  0  0
  2  3  2  0  0  0  0
  2 17  1  0  0  0  0
  4  1  1  0  0  0  0
  5  1  1  0  0  0  0
  5  6  1  0  0  0  0
  6 15  1  0  0  0  0
  7  6  2  0  0  0  0
  7  8  1  0  0  0  0
  8  9  2  0  0  0  0
  8 10  1  0  0  0  0
  9 11  1  0  0  0  0
 10 14  2  0  0  0  0
 11 12  1  0  0  0  0
 11 13  2  0  0  0  0
 14 13  1  0  0  0  0
 15 16  1  0  0  0  0
 15 10  1  0  0  0  0
 17 18  1  0  0  0  0
 17 19  1  0  0  0  0
 18 19  1  0  0  0  0
 20 17  1  0  0  0  0
 20 21  1  0  0  0  0
 22 21  1  0  0  0  0
 23 24  1  0  0  0  0
 23 22  1  0  0  0  0
 24 25  1  0  0  0  0
 25 20  1  0  0  0  0
M  END
>  <Pose>
1

>  <Score>
-9.525

$$$$
