MODEL 1
REMARK VINA RESULT:    -8.985      0.000      0.000
REMARK INTER + INTRA:          -8.271
REMARK INTER:                 -11.611
REMARK INTRA:                   3.340
REMARK UNBOUND:                 3.340
REMARK  5 active torsions:
REMARK  status: ('A' for Active; 'I' for Inactive)
REMARK    1  A    between atoms: C_3  and  C_8 
REMARK    2  A    between atoms: C_8  and  N_9 
REMARK       I    between atoms: N_9  and  C_10 
REMARK    3  A    between atoms: C_10  and  C_12 
REMARK    4  A    between atoms: C_12  and  N_13 
REMARK       I    between atoms: N_16  and  C_19 
REMARK    5  A    between atoms: C_19  and  C_21 
ROOT
ATOM      1  N   UNK d   1       2.086  13.939 -12.622  0.00  0.00     0.100 N 
ATOM      2  C   UNK d   1       3.203  13.434 -11.969  0.00  0.00     0.293 C 
ATOM      3  C   UNK d   1       2.948  11.884 -11.738  0.00  0.00     0.156 C 
ATOM      4  N   UNK d   1       2.105  11.583 -12.865  0.00  0.00    -0.346 N 
ATOM      5  C   UNK d   1       0.689  11.955 -12.579  0.00  0.00     0.156 C 
ATOM      6  C   UNK d   1       0.830  13.350 -12.036  0.00  0.00     0.293 C 
ATOM      7  C   UNK d   1       2.506  10.960 -14.009  0.00  0.00     0.251 C 
ATOM      8  O   UNK d   1       1.822  11.171 -15.069  0.00  0.00    -0.270 OA
ENDROOT
BRANCH   1   9
ATOM      9  C   UNK d   1       1.834  15.351 -12.777  0.00  0.00     0.374 C 
BRANCH   9  10
ATOM     10  C   UNK d   1       0.369  15.493 -13.204  0.00  0.00     0.246 C 
ATOM     11  N   UNK d   1      -0.444  16.339 -12.445  0.00  0.00    -0.355 N 
ATOM     12  H   UNK d   1      -0.029  16.615 -11.485  0.00  0.00     0.162 HD
ATOM     13  O   UNK d   1      -0.030  14.896 -14.169  0.00  0.00    -0.272 OA
BRANCH  11  14
ATOM     14  C   UNK d   1      -1.759  16.772 -12.750  0.00  0.00     0.162 C 
BRANCH  14  15
ATOM     15  C   UNK d   1      -2.162  17.985 -11.991  0.00  0.00    -0.019 A 
ATOM     16  C   UNK d   1      -3.332  18.634 -12.367  0.00  0.00     0.042 A 
ATOM     17 Cl   UNK d   1      -4.100  18.156 -13.862  0.00  0.00    -0.084 Cl
ATOM     18  C   UNK d   1      -3.859  19.652 -11.642  0.00  0.00     0.024 A 
ATOM     19  C   UNK d   1      -3.298  20.120 -10.471  0.00  0.00     0.002 A 
ATOM     20  C   UNK d   1      -2.111  19.460 -10.092  0.00  0.00     0.001 A 
ATOM     21  C   UNK d   1      -1.562  18.426 -10.841  0.00  0.00     0.010 A 
ENDBRANCH  14  15
ENDBRANCH  11  14
ENDBRANCH   9  10
ENDBRANCH   1   9
BRANCH   7  22
ATOM     22  C   UNK d   1       3.656  10.020 -14.191  0.00  0.00     0.245 C 
ATOM     23  O   UNK d   1       3.419   8.974 -13.193  0.00  0.00    -0.331 OA
ATOM     24  C   UNK d   1       2.022   8.718 -13.068  0.00  0.00     0.103 A 
ATOM     25  C   UNK d   1       1.261   8.820 -14.202  0.00  0.00     0.102 A 
ATOM     26  C   UNK d   1       1.438   8.372 -11.855  0.00  0.00     0.040 A 
ATOM     27  C   UNK d   1      -0.112   8.596 -14.178  0.00  0.00     0.039 A 
ATOM     28  O   UNK d   1       1.879   9.156 -15.411  0.00  0.00    -0.345 OA
ATOM     29  C   UNK d   1      -0.661   8.264 -12.945  0.00  0.00     0.003 A 
ATOM     30  C   UNK d   1       0.077   8.145 -11.788  0.00  0.00     0.003 A 
ATOM     31  C   UNK d   1       3.321   9.269 -15.508  0.00  0.00     0.218 C 
ENDBRANCH   7  22
TORSDOF 5
ENDMDL
