/Users/jonathanwahrer/Desktop/Msc/3_Semester/Drug_Design_Praktikum/waehrer_HTS_screening/HTS_experiment/out/docking_results/vina_output/6q9y/1939_docked.pdbqt
 OpenBabel03222220313D

 28 31  0  0  0  0  0  0  0  0999 V2000
    1.6260    8.1540  -12.7230 N   0  0  0  0  0  0  0  0  0  0  0  0
    2.2290    6.9280  -12.6620 C   0  0  0  0  0  0  0  0  0  0  0  0
    3.4740    6.9920  -13.2260 C   0  0  0  0  0  0  0  0  0  0  0  0
    3.5960    8.2540  -13.6160 N   0  0  0  0  0  0  0  0  0  0  0  0
    2.4760    8.9900  -13.3200 C   0  0  0  0  0  0  0  0  0  0  0  0
    4.2740    5.9120  -13.2990 N   0  0  0  0  0  0  0  0  0  0  0  0
    3.8450    4.7220  -12.8040 C   0  0  0  0  0  0  0  0  0  0  0  0
    4.6230    3.7450  -12.8930 O   0  0  0  0  0  0  0  0  0  0  0  0
    2.6300    4.6080  -12.2400 N   0  0  0  0  0  0  0  0  0  0  0  0
    1.8410    5.6910  -12.1740 C   0  0  0  0  0  0  0  0  0  0  0  0
    0.7200    5.5340  -11.6420 O   0  0  0  0  0  0  0  0  0  0  0  0
    5.5800    6.0700  -13.9140 C   0  0  0  0  0  1  0  0  0  0  0  0
    2.3500    3.6740  -11.8760 H   0  0  0  0  0  0  0  0  0  0  0  0
    0.3040    8.3950  -12.2090 C   0  0  0  0  0  2  0  0  0  0  0  0
   -0.8160    8.0960  -13.0970 C   0  0  0  0  0  0  0  0  0  0  0  0
   -0.8990    7.0010  -13.8920 C   0  0  0  0  0  3  0  0  0  0  0  0
   -1.9690    6.7840  -14.7650 C   0  0  0  0  0  3  0  0  0  0  0  0
   -2.9870    7.6870  -14.8470 C   0  0  0  0  0  0  0  0  0  0  0  0
   -4.3030    7.3710  -15.9550 Cl  0  0  0  0  0  0  0  0  0  0  0  0
   -2.9420    8.8130  -14.0570 C   0  0  0  0  0  3  0  0  0  0  0  0
   -1.8790    9.0060  -13.2060 C   0  0  0  0  0  3  0  0  0  0  0  0
    2.3610   10.3590  -13.6480 N   0  0  0  0  0  0  0  0  0  0  0  0
    1.0210   10.9270  -13.7240 C   0  0  0  0  0  2  0  0  0  0  0  0
    1.2080   12.3550  -13.1780 C   0  0  0  0  0  2  0  0  0  0  0  0
    2.2300   12.4040  -12.1560 N   0  0  0  0  0  0  0  0  0  0  0  0
    3.5630   12.1250  -12.6450 C   0  0  0  0  0  2  0  0  0  0  0  0
    2.2300   13.3680  -11.7820 H   0  0  0  0  0  0  0  0  0  0  0  0
    3.3860   11.3010  -13.9120 C   0  0  0  0  0  2  0  0  0  0  0  0
  1  2  1  0  0  0  0
  1 14  1  0  0  0  0
  2 10  1  0  0  0  0
  3  2  2  0  0  0  0
  4  5  2  0  0  0  0
  4  3  1  0  0  0  0
  5  1  1  0  0  0  0
  6  3  1  0  0  0  0
  6  7  1  0  0  0  0
  7  9  1  0  0  0  0
  8  7  2  0  0  0  0
  9 10  1  0  0  0  0
  9 13  1  0  0  0  0
 10 11  2  0  0  0  0
 12  6  1  0  0  0  0
 15 14  1  0  0  0  0
 16 15  2  0  0  0  0
 17 16  1  0  0  0  0
 18 17  2  0  0  0  0
 18 20  1  0  0  0  0
 19 18  1  0  0  0  0
 20 21  2  0  0  0  0
 21 15  1  0  0  0  0
 22  5  1  0  0  0  0
 23 22  1  0  0  0  0
 23 24  1  0  0  0  0
 24 25  1  0  0  0  0
 25 27  1  0  0  0  0
 26 25  1  0  0  0  0
 28 22  1  0  0  0  0
 28 26  1  0  0  0  0
M  END
>  <Pose>
1

>  <Score>
-8.070

$$$$
