MODEL 1
REMARK VINA RESULT:    -8.070      0.000      0.000
REMARK INTER + INTRA:          -9.249
REMARK INTER:                  -9.485
REMARK INTRA:                   0.237
REMARK UNBOUND:                 0.237
REMARK  3 active torsions:
REMARK  status: ('A' for Active; 'I' for Inactive)
REMARK    1  A    between atoms: C_5  and  C_8 
REMARK    2  A    between atoms: C_8  and  N_9 
REMARK    3  A    between atoms: C_13  and  N_14 
ROOT
ATOM      1  N   UNK d   1       1.626   8.154 -12.723  0.00  0.00    -0.168 N 
ATOM      2  C   UNK d   1       2.229   6.928 -12.662  0.00  0.00     0.167 A 
ATOM      3  C   UNK d   1       3.474   6.992 -13.226  0.00  0.00     0.185 A 
ATOM      4  N   UNK d   1       3.596   8.254 -13.616  0.00  0.00    -0.044 NA
ATOM      5  C   UNK d   1       2.476   8.990 -13.320  0.00  0.00     0.707 A 
ATOM      6  N   UNK d   1       4.274   5.912 -13.299  0.00  0.00    -0.286 N 
ATOM      7  C   UNK d   1       3.845   4.722 -12.804  0.00  0.00     0.330 A 
ATOM      8  O   UNK d   1       4.623   3.745 -12.893  0.00  0.00    -0.246 OA
ATOM      9  N   UNK d   1       2.630   4.608 -12.240  0.00  0.00    -0.273 N 
ATOM     10  C   UNK d   1       1.841   5.691 -12.174  0.00  0.00     0.280 A 
ATOM     11  O   UNK d   1       0.720   5.534 -11.642  0.00  0.00    -0.265 OA
ATOM     12  C   UNK d   1       5.580   6.070 -13.914  0.00  0.00     0.163 C 
ATOM     13  H   UNK d   1       2.350   3.674 -11.876  0.00  0.00     0.173 HD
ENDROOT
BRANCH   1  14
ATOM     14  C   UNK d   1       0.304   8.395 -12.209  0.00  0.00     0.186 C 
BRANCH  14  15
ATOM     15  C   UNK d   1      -0.816   8.096 -13.097  0.00  0.00    -0.039 A 
ATOM     16  C   UNK d   1      -0.899   7.001 -13.892  0.00  0.00     0.010 A 
ATOM     17  C   UNK d   1      -1.969   6.784 -14.765  0.00  0.00     0.024 A 
ATOM     18  C   UNK d   1      -2.987   7.687 -14.847  0.00  0.00     0.034 A 
ATOM     19 Cl   UNK d   1      -4.303   7.371 -15.955  0.00  0.00    -0.084 Cl
ATOM     20  C   UNK d   1      -2.942   8.813 -14.057  0.00  0.00     0.024 A 
ATOM     21  C   UNK d   1      -1.879   9.006 -13.206  0.00  0.00     0.010 A 
ENDBRANCH  14  15
ENDBRANCH   1  14
BRANCH   5  22
ATOM     22  N   UNK d   1       2.361  10.359 -13.648  0.00  0.00    -0.212 N 
ATOM     23  C   UNK d   1       1.021  10.927 -13.724  0.00  0.00     0.171 C 
ATOM     24  C   UNK d   1       1.208  12.355 -13.178  0.00  0.00     0.290 C 
ATOM     25  N   UNK d   1       2.230  12.404 -12.156  0.00  0.00     0.086 N 
ATOM     26  C   UNK d   1       3.563  12.125 -12.645  0.00  0.00     0.290 C 
ATOM     27  H   UNK d   1       2.230  13.368 -11.782  0.00  0.00     0.316 HD
ATOM     28  C   UNK d   1       3.386  11.301 -13.912  0.00  0.00     0.171 C 
ENDBRANCH   5  22
TORSDOF 3
ENDMDL
