MODEL 1
REMARK VINA RESULT:    -6.998      0.000      0.000
REMARK INTER + INTRA:          -9.492
REMARK INTER:                  -9.043
REMARK INTRA:                  -0.449
REMARK UNBOUND:                -0.449
REMARK  5 active torsions:
REMARK  status: ('A' for Active; 'I' for Inactive)
REMARK    1  A    between atoms: C_5  and  C_8 
REMARK    2  A    between atoms: N_9  and  C_22 
REMARK    3  A    between atoms: C_15  and  C_17 
REMARK    4  A    between atoms: C_22  and  C_23 
REMARK    5  A    between atoms: C_23  and  N_24 
ROOT
ATOM      1  C   UNK d   1       2.125   8.575 -12.623  0.00  0.00     0.161 C 
ATOM      2  N   UNK d   1       2.493   9.701 -13.491  0.00  0.00    -0.331 N 
ATOM      3  C   UNK d   1       2.207   9.269 -14.809  0.00  0.00     0.295 C 
ATOM      4  O   UNK d   1       2.782   9.641 -15.859  0.00  0.00    -0.264 OA
ATOM      5  C   UNK d   1       1.103   8.295 -14.711  0.00  0.00     0.251 C 
ATOM      6  O   UNK d   1       0.546   7.670 -15.641  0.00  0.00    -0.282 OA
ATOM      7  C   UNK d   1       0.806   8.218 -13.287  0.00  0.00     0.064 C 
ATOM      8  C   UNK d   1      -0.322   7.926 -12.739  0.00  0.00     0.153 C 
ATOM      9  O   UNK d   1      -0.464   7.905 -11.352  0.00  0.00    -0.188 OA
ENDROOT
BRANCH   2  10
ATOM     10  C   UNK d   1       3.043  10.977 -13.057  0.00  0.00     0.155 C 
BRANCH  10  11
ATOM     11  C   UNK d   1       2.141  12.148 -13.291  0.00  0.00     0.255 C 
BRANCH  11  12
ATOM     12  N   UNK d   1       1.590  12.760 -12.131  0.00  0.00    -0.066 N 
ATOM     13  C   UNK d   1       2.318  13.853 -11.572  0.00  0.00     0.261 C 
ATOM     14  C   UNK d   1       2.412  15.053 -12.487  0.00  0.00     0.195 C 
ATOM     15  O   UNK d   1       1.146  15.495 -12.856  0.00  0.00    -0.388 OA
ATOM     16  C   UNK d   1       0.354  14.463 -13.349  0.00  0.00     0.195 C 
ATOM     17  C   UNK d   1       0.241  13.296 -12.403  0.00  0.00     0.261 C 
ATOM     18  H   UNK d   1       1.496  12.031 -11.390  0.00  0.00     0.280 HD
ENDBRANCH  11  12
ENDBRANCH  10  11
ENDBRANCH   2  10
BRANCH   1  19
ATOM     19  C   UNK d   1       3.011   7.411 -12.875  0.00  0.00    -0.030 A 
ATOM     20  C   UNK d   1       4.231   7.537 -13.490  0.00  0.00     0.011 A 
ATOM     21  C   UNK d   1       5.067   6.462 -13.719  0.00  0.00     0.024 A 
ATOM     22  C   UNK d   1       4.677   5.202 -13.320  0.00  0.00     0.034 A 
ATOM     23 Cl   UNK d   1       5.672   3.789 -13.567  0.00  0.00    -0.084 Cl
ATOM     24  C   UNK d   1       3.461   5.052 -12.702  0.00  0.00     0.024 A 
ATOM     25  C   UNK d   1       2.632   6.129 -12.476  0.00  0.00     0.011 A 
ENDBRANCH   1  19
BRANCH   8  26
ATOM     26  C   UNK d   1      -1.488   7.605 -13.555  0.00  0.00     0.112 A 
ATOM     27  O   UNK d   1      -2.397   8.342 -14.086  0.00  0.00    -0.320 OA
ATOM     28  C   UNK d   1      -3.261   7.621 -14.742  0.00  0.00     0.142 A 
ATOM     29  C   UNK d   1      -2.909   6.298 -14.647  0.00  0.00     0.027 A 
ATOM     30  C   UNK d   1      -1.773   6.274 -13.888  0.00  0.00     0.042 A 
ENDBRANCH   8  26
TORSDOF 5
ENDMDL
