/Users/jonathanwahrer/Desktop/Msc/3_Semester/Drug_Design_Praktikum/waehrer_HTS_screening/HTS_experiment/out/docking_results/vina_output/6q9y/1941_docked.pdbqt
 OpenBabel03222220313D

 22 25  0  0  1  0  0  0  0  0999 V2000
    6.1090    5.8920  -13.1000 N   0  0  0  0  0  0  0  0  0  0  0  0
    7.3040    6.3720  -12.4670 C   0  0  0  0  0  0  0  0  0  0  0  0
    7.6410    7.6060  -12.5110 O   0  0  0  0  0  0  0  0  0  0  0  0
    7.9980    5.2510  -11.8130 C   0  0  1  0  0  3  0  0  0  0  0  0
    7.4270    4.0430  -12.5170 C   0  0  2  0  0  3  0  0  0  0  0  0
    8.5380    3.3390  -13.2650 C   0  0  2  0  0  3  0  0  0  0  0  0
    9.4650    2.7740  -12.1790 C   0  0  0  0  0  2  0  0  0  0  0  0
   10.0250    3.9750  -11.4740 C   0  0  0  0  0  0  0  0  0  0  0  0
   10.8580    3.8460  -10.6170 O   0  0  0  0  0  0  0  0  0  0  0  0
    9.4840    5.3110  -11.9030 C   0  0  1  0  0  3  0  0  0  0  0  0
    9.9260    5.4810  -13.3610 C   0  0  0  0  0  2  0  0  0  0  0  0
    9.3550    4.2950  -14.0900 C   0  0  0  0  0  0  0  0  0  0  0  0
    9.5630    4.1550  -15.2630 O   0  0  0  0  0  0  0  0  0  0  0  0
    6.3330    4.5140  -13.3650 C   0  0  0  0  0  0  0  0  0  0  0  0
    5.6990    3.8180  -14.1900 O   0  0  0  0  0  0  0  0  0  0  0  0
    4.9280    6.6240  -13.4060 C   0  0  0  0  0  0  0  0  0  0  0  0
    3.7310    6.2940  -12.7980 C   0  0  0  0  0  3  0  0  0  0  0  0
    2.5630    6.9730  -13.0600 C   0  0  0  0  0  3  0  0  0  0  0  0
    2.5380    8.0210  -13.9480 C   0  0  0  0  0  0  0  0  0  0  0  0
    1.0500    8.8960  -14.2890 Cl  0  0  0  0  0  0  0  0  0  0  0  0
    3.7260    8.3690  -14.5680 C   0  0  0  0  0  3  0  0  0  0  0  0
    4.8830    7.6770  -14.2930 C   0  0  0  0  0  3  0  0  0  0  0  0
  1  2  1  0  0  0  0
  3  2  2  0  0  0  0
  4  2  1  6  0  0  0
  5 14  1  6  0  0  0
  5  4  1  0  0  0  0
  6  5  1  0  0  0  0
  6  7  1  1  0  0  0
  7  8  1  0  0  0  0
  8  9  2  0  0  0  0
 10 11  1  6  0  0  0
 10  4  1  0  0  0  0
 10  8  1  0  0  0  0
 12 11  1  0  0  0  0
 12  6  1  0  0  0  0
 13 12  2  0  0  0  0
 14  1  1  0  0  0  0
 15 14  2  0  0  0  0
 16  1  1  0  0  0  0
 16 17  1  0  0  0  0
 18 17  2  0  0  0  0
 19 18  1  0  0  0  0
 20 19  1  0  0  0  0
 21 22  1  0  0  0  0
 21 19  2  0  0  0  0
 22 16  2  0  0  0  0
M  END
>  <Pose>
1

>  <Score>
-6.802

$$$$
