MODEL 1
REMARK VINA RESULT:    -6.802      0.000      0.000
REMARK INTER + INTRA:          -7.539
REMARK INTER:                  -7.199
REMARK INTRA:                  -0.340
REMARK UNBOUND:                -0.340
REMARK  1 active torsions:
REMARK  status: ('A' for Active; 'I' for Inactive)
REMARK    1  A    between atoms: C_5  and  N_8 
ROOT
ATOM      1  N   UNK d   1       6.109   5.892 -13.100  0.00  0.00    -0.252 N 
ATOM      2  C   UNK d   1       7.304   6.372 -12.467  0.00  0.00     0.237 C 
ATOM      3  O   UNK d   1       7.641   7.606 -12.511  0.00  0.00    -0.272 OA
ATOM      4  C   UNK d   1       7.998   5.251 -11.813  0.00  0.00     0.104 C 
ATOM      5  C   UNK d   1       7.427   4.043 -12.517  0.00  0.00     0.104 C 
ATOM      6  C   UNK d   1       8.538   3.339 -13.265  0.00  0.00     0.076 C 
ATOM      7  C   UNK d   1       9.465   2.774 -12.179  0.00  0.00     0.091 C 
ATOM      8  C   UNK d   1      10.025   3.975 -11.474  0.00  0.00     0.133 C 
ATOM      9  O   UNK d   1      10.858   3.846 -10.617  0.00  0.00    -0.298 OA
ATOM     10  C   UNK d   1       9.484   5.311 -11.903  0.00  0.00     0.076 C 
ATOM     11  C   UNK d   1       9.926   5.481 -13.361  0.00  0.00     0.091 C 
ATOM     12  C   UNK d   1       9.355   4.295 -14.090  0.00  0.00     0.133 C 
ATOM     13  O   UNK d   1       9.563   4.155 -15.263  0.00  0.00    -0.298 OA
ATOM     14  C   UNK d   1       6.333   4.514 -13.365  0.00  0.00     0.237 C 
ATOM     15  O   UNK d   1       5.699   3.818 -14.190  0.00  0.00    -0.272 OA
ENDROOT
BRANCH   1  16
ATOM     16  C   UNK d   1       4.928   6.624 -13.406  0.00  0.00     0.045 A 
ATOM     17  C   UNK d   1       3.731   6.294 -12.798  0.00  0.00     0.032 A 
ATOM     18  C   UNK d   1       2.563   6.973 -13.060  0.00  0.00     0.026 A 
ATOM     19  C   UNK d   1       2.538   8.021 -13.948  0.00  0.00     0.034 A 
ATOM     20 Cl   UNK d   1       1.050   8.896 -14.289  0.00  0.00    -0.084 Cl
ATOM     21  C   UNK d   1       3.726   8.369 -14.568  0.00  0.00     0.026 A 
ATOM     22  C   UNK d   1       4.883   7.677 -14.293  0.00  0.00     0.032 A 
ENDBRANCH   1  16
TORSDOF 1
ENDMDL
