/Users/jonathanwahrer/Desktop/Msc/3_Semester/Drug_Design_Praktikum/waehrer_HTS_screening/HTS_experiment/out/docking_results/vina_output/6q9y/1945_docked.pdbqt
 OpenBabel03222220313D

 24 27  0  0  0  0  0  0  0  0999 V2000
   -2.1160   11.3750  -13.7560 Cl  0  0  0  0  0  0  0  0  0  0  0  0
   -0.9940   10.0530  -13.5030 C   0  0  0  0  0  0  0  0  0  0  0  0
    0.3580   10.1970  -13.7140 C   0  0  0  0  0  3  0  0  0  0  0  0
    1.2420    9.1340  -13.5090 C   0  0  0  0  0  0  0  0  0  0  0  0
    0.7210    7.9210  -13.0830 C   0  0  0  0  0  0  0  0  0  0  0  0
   -0.6270    7.7620  -12.8680 C   0  0  0  0  0  3  0  0  0  0  0  0
   -1.4840    8.8120  -13.0750 C   0  0  0  0  0  3  0  0  0  0  0  0
    1.6150    6.7720  -12.8530 C   0  0  0  0  0  0  0  0  0  0  0  0
    1.3990    5.5610  -12.4650 N   0  0  0  0  0  0  0  0  0  0  0  0
    2.6070    4.7860  -12.3840 C   0  0  0  0  0  3  0  0  0  0  0  0
    3.6840    5.7390  -12.8010 C   0  0  0  0  0  3  0  0  0  0  0  0
    2.9960    6.9700  -13.0820 N   0  0  0  0  0  0  0  0  0  0  0  0
    3.5000    8.2260  -13.5180 C   0  0  0  0  0  0  0  0  0  0  0  0
    4.7300    8.4240  -13.7280 O   0  0  0  0  0  0  0  0  0  0  0  0
    2.6290    9.3500  -13.7440 N   0  0  0  0  0  0  0  0  0  0  0  0
    3.1670   10.6270  -14.1900 C   0  0  0  0  0  2  0  0  0  0  0  0
    3.4680   11.5110  -13.0410 C   0  0  0  0  0  0  0  0  0  0  0  0
    4.4860   11.2590  -12.3510 O   0  0  0  0  0  0  0  0  0  0  0  0
    2.6660   12.6220  -12.6870 N   0  0  0  0  0  0  0  0  0  0  0  0
    1.8260   12.8180  -13.2690 H   0  0  0  0  0  0  0  0  0  0  0  0
    2.9820   13.4680  -11.5620 C   0  0  0  0  0  2  0  0  0  0  0  0
    1.8340   14.3990  -11.2770 C   0  0  0  0  0  3  0  0  0  0  0  0
    0.8530   14.7020  -12.3540 C   0  0  0  0  0  2  0  0  0  0  0  0
    1.8480   15.7300  -11.9700 C   0  0  0  0  0  2  0  0  0  0  0  0
  1  2  1  0  0  0  0
  2  7  1  0  0  0  0
  3  4  1  0  0  0  0
  3  2  2  0  0  0  0
  4  5  2  0  0  0  0
  5  6  1  0  0  0  0
  5  8  1  0  0  0  0
  7  6  2  0  0  0  0
  8  9  2  0  0  0  0
  9 10  1  0  0  0  0
 11 10  2  0  0  0  0
 12  8  1  0  0  0  0
 12 11  1  0  0  0  0
 13 12  1  0  0  0  0
 14 13  2  0  0  0  0
 15 13  1  0  0  0  0
 15  4  1  0  0  0  0
 16 15  1  0  0  0  0
 16 17  1  0  0  0  0
 17 19  1  0  0  0  0
 17 18  2  0  0  0  0
 19 21  1  0  0  0  0
 20 19  1  0  0  0  0
 21 22  1  0  0  0  0
 23 24  1  0  0  0  0
 23 22  1  0  0  0  0
 24 22  1  0  0  0  0
M  END
>  <Pose>
1

>  <Score>
-7.820

$$$$
