MODEL 1
REMARK VINA RESULT:    -7.820      0.000      0.000
REMARK INTER + INTRA:          -9.874
REMARK INTER:                  -9.649
REMARK INTRA:                  -0.225
REMARK UNBOUND:                -0.225
REMARK  4 active torsions:
REMARK  status: ('A' for Active; 'I' for Inactive)
REMARK    1  A    between atoms: N_15  and  C_16 
REMARK    2  A    between atoms: C_16  and  C_17 
REMARK       I    between atoms: C_17  and  N_19 
REMARK    3  A    between atoms: N_19  and  C_20 
REMARK    4  A    between atoms: C_20  and  C_21 
ROOT
ATOM      1 Cl   UNK d   1      -2.116  11.375 -13.756  0.00  0.00    -0.084 Cl
ATOM      2  C   UNK d   1      -0.994  10.053 -13.503  0.00  0.00     0.036 A 
ATOM      3  C   UNK d   1       0.358  10.197 -13.714  0.00  0.00     0.054 A 
ATOM      4  C   UNK d   1       1.242   9.134 -13.509  0.00  0.00     0.055 A 
ATOM      5  C   UNK d   1       0.721   7.921 -13.083  0.00  0.00     0.037 A 
ATOM      6  C   UNK d   1      -0.627   7.762 -12.868  0.00  0.00     0.019 A 
ATOM      7  C   UNK d   1      -1.484   8.812 -13.075  0.00  0.00     0.025 A 
ATOM      8  C   UNK d   1       1.615   6.772 -12.853  0.00  0.00     0.141 A 
ATOM      9  N   UNK d   1       1.399   5.561 -12.465  0.00  0.00    -0.270 NA
ATOM     10  C   UNK d   1       2.607   4.786 -12.384  0.00  0.00     0.171 A 
ATOM     11  C   UNK d   1       3.684   5.739 -12.801  0.00  0.00     0.157 A 
ATOM     12  N   UNK d   1       2.996   6.970 -13.082  0.00  0.00    -0.281 N 
ATOM     13  C   UNK d   1       3.500   8.226 -13.518  0.00  0.00     0.331 A 
ATOM     14  O   UNK d   1       4.730   8.424 -13.728  0.00  0.00    -0.246 OA
ATOM     15  N   UNK d   1       2.629   9.350 -13.744  0.00  0.00    -0.290 N 
ENDROOT
BRANCH  15  16
ATOM     16  C   UNK d   1       3.167  10.627 -14.190  0.00  0.00     0.236 C 
BRANCH  16  17
ATOM     17  C   UNK d   1       3.468  11.511 -13.041  0.00  0.00     0.236 C 
ATOM     18  O   UNK d   1       4.486  11.259 -12.351  0.00  0.00    -0.272 OA
ATOM     19  N   UNK d   1       2.666  12.622 -12.687  0.00  0.00    -0.359 N 
ATOM     20  H   UNK d   1       1.826  12.818 -13.269  0.00  0.00     0.162 HD
BRANCH  19  21
ATOM     21  C   UNK d   1       2.982  13.468 -11.562  0.00  0.00     0.127 C 
BRANCH  21  22
ATOM     22  C   UNK d   1       1.834  14.399 -11.277  0.00  0.00     0.003 A 
ATOM     23  C   UNK d   1       0.853  14.702 -12.354  0.00  0.00     0.007 A 
ATOM     24  C   UNK d   1       1.848  15.730 -11.970  0.00  0.00     0.007 A 
ENDBRANCH  21  22
ENDBRANCH  19  21
ENDBRANCH  16  17
ENDBRANCH  15  16
TORSDOF 4
ENDMDL
