MODEL 1
REMARK VINA RESULT:    -7.049      0.000      0.000
REMARK INTER + INTRA:         -11.803
REMARK INTER:                 -10.346
REMARK INTRA:                  -1.457
REMARK UNBOUND:                -1.457
REMARK  8 active torsions:
REMARK  status: ('A' for Active; 'I' for Inactive)
REMARK    1  A    between atoms: C_5  and  C_8 
REMARK    2  A    between atoms: C_10  and  C_24 
REMARK    3  A    between atoms: N_11  and  C_16 
REMARK    4  A    between atoms: C_16  and  C_17 
REMARK    5  A    between atoms: C_17  and  N_18 
REMARK    6  A    between atoms: C_27  and  O_30 
REMARK    7  A    between atoms: O_30  and  C_31 
REMARK    8  A    between atoms: C_31  and  C_32 
ROOT
ATOM      1  C   UNK d   1       2.234   9.838 -12.100  0.00  0.00     0.130 C 
ATOM      2  C   UNK d   1       2.932   9.035 -12.885  0.00  0.00     0.062 C 
ATOM      3  C   UNK d   1       2.986   7.532 -12.770  0.00  0.00     0.161 C 
ATOM      4  N   UNK d   1       4.087   7.123 -13.593  0.00  0.00    -0.331 N 
ATOM      5  C   UNK d   1       4.534   8.200 -14.404  0.00  0.00     0.295 C 
ATOM      6  O   UNK d   1       5.373   8.150 -15.315  0.00  0.00    -0.264 OA
ATOM      7  C   UNK d   1       3.804   9.408 -13.953  0.00  0.00     0.250 C 
ATOM      8  O   UNK d   1       3.955  10.550 -14.447  0.00  0.00    -0.282 OA
ATOM      9  O   UNK d   1       1.491   9.210 -11.073  0.00  0.00    -0.190 OA
ENDROOT
BRANCH   3  10
ATOM     10  C   UNK d   1       1.667   7.027 -13.239  0.00  0.00    -0.030 A 
ATOM     11  C   UNK d   1       1.076   5.970 -12.609  0.00  0.00     0.012 A 
ATOM     12  C   UNK d   1      -0.140   5.521 -13.038  0.00  0.00     0.037 A 
ATOM     13  C   UNK d   1      -0.797   6.106 -14.099  0.00  0.00     0.068 A 
ATOM     14  C   UNK d   1      -0.200   7.176 -14.740  0.00  0.00     0.037 A 
ATOM     15  C   UNK d   1       1.035   7.628 -14.299  0.00  0.00     0.012 A 
BRANCH  13  16
ATOM     16  O   UNK d   1      -2.035   5.642 -14.531  0.00  0.00    -0.351 OA
BRANCH  16  17
ATOM     17  C   UNK d   1      -2.743   6.416 -15.511  0.00  0.00     0.175 C 
BRANCH  17  18
ATOM     18  C   UNK d   1      -4.003   6.987 -14.866  0.00  0.00     0.022 C 
ATOM     19  C   UNK d   1      -3.801   8.492 -14.755  0.00  0.00     0.007 C 
ENDBRANCH  17  18
ENDBRANCH  16  17
ENDBRANCH  13  16
ENDBRANCH   3  10
BRANCH   4  20
ATOM     20  C   UNK d   1       4.686   5.793 -13.596  0.00  0.00     0.155 C 
BRANCH  20  21
ATOM     21  C   UNK d   1       5.920   5.794 -12.761  0.00  0.00     0.255 C 
BRANCH  21  22
ATOM     22  N   UNK d   1       7.130   5.933 -13.587  0.00  0.00    -0.066 N 
ATOM     23  C   UNK d   1       7.817   4.678 -13.578  0.00  0.00     0.261 C 
ATOM     24  C   UNK d   1       9.259   4.815 -14.062  0.00  0.00     0.195 C 
ATOM     25  O   UNK d   1       9.869   5.753 -13.210  0.00  0.00    -0.388 OA
ATOM     26  C   UNK d   1       9.326   6.986 -13.504  0.00  0.00     0.195 C 
ATOM     27  C   UNK d   1       7.892   7.021 -13.014  0.00  0.00     0.261 C 
ATOM     28  H   UNK d   1       6.871   6.179 -14.578  0.00  0.00     0.280 HD
ENDBRANCH  21  22
ENDBRANCH  20  21
ENDBRANCH   4  20
BRANCH   1  29
ATOM     29  C   UNK d   1       2.215  11.275 -12.260  0.00  0.00     0.001 A 
ATOM     30  C   UNK d   1       3.227  12.050 -11.678  0.00  0.00     0.016 A 
ATOM     31  C   UNK d   1       3.246  13.427 -11.757  0.00  0.00     0.024 A 
ATOM     32  C   UNK d   1       2.253  14.105 -12.422  0.00  0.00     0.034 A 
ATOM     33 Cl   UNK d   1       2.218  15.848 -12.560  0.00  0.00    -0.084 Cl
ATOM     34  C   UNK d   1       1.251  13.379 -12.999  0.00  0.00     0.024 A 
ATOM     35  C   UNK d   1       1.234  11.980 -12.917  0.00  0.00     0.016 A 
ENDBRANCH   1  29
TORSDOF 8
ENDMDL
