/Users/jonathanwahrer/Desktop/Msc/3_Semester/Drug_Design_Praktikum/waehrer_HTS_screening/HTS_experiment/out/docking_results/vina_output/6q9y/1957_docked.pdbqt
 OpenBabel03222220323D

 36 40  0  0  1  0  0  0  0  0999 V2000
   -0.2580    8.3720  -14.2260 C   0  0  2  0  0  3  0  0  0  0  0  0
    0.9470    7.6240  -14.5630 N   0  0  0  0  0  0  0  0  0  0  0  0
    2.0640    8.3600  -14.0020 C   0  0  1  0  0  0  0  0  0  0  0  0
    1.4720    8.9520  -12.7560 C   0  0  2  0  0  3  0  0  0  0  0  0
    0.0630    9.3000  -13.1160 C   0  0  1  0  0  3  0  0  0  0  0  0
    0.0890   10.7300  -13.5300 C   0  0  0  0  0  0  0  0  0  0  0  0
   -0.8140   11.3460  -14.1450 O   0  0  0  0  0  0  0  0  0  0  0  0
    1.3560   11.2610  -13.0830 N   0  0  0  0  0  0  0  0  0  0  0  0
    2.0440   10.2540  -12.3700 C   0  0  0  0  0  0  0  0  0  0  0  0
    2.9800   10.4110  -11.5490 O   0  0  0  0  0  0  0  0  0  0  0  0
    3.2150    7.4760  -13.6960 C   0  0  0  0  0  0  0  0  0  0  0  0
    4.2620    7.9080  -14.4750 C   0  0  0  0  0  0  0  0  0  0  0  0
    5.4810    7.2500  -14.3840 C   0  0  0  0  0  3  0  0  0  0  0  0
    5.6090    6.1880  -13.5200 C   0  0  0  0  0  3  0  0  0  0  0  0
    4.5600    5.7450  -12.7320 C   0  0  0  0  0  3  0  0  0  0  0  0
    3.3550    6.4080  -12.8330 C   0  0  0  0  0  3  0  0  0  0  0  0
    3.8720    9.0270  -15.2910 N   0  0  0  0  0  0  0  0  0  0  0  0
    2.5130    9.3070  -15.0070 C   0  0  0  0  0  0  0  0  0  0  0  0
    1.8650   10.2150  -15.5530 O   0  0  0  0  0  0  0  0  0  0  0  0
    1.0320    7.5120  -15.5790 H   0  0  0  0  0  0  0  0  0  0  0  0
    4.5230    9.5050  -15.9540 H   0  0  0  0  0  0  0  0  0  0  0  0
   -1.3010    7.3390  -13.8960 C   0  0  1  0  0  3  0  0  0  0  0  0
   -2.6780    7.7520  -14.2910 C   0  0  0  0  0  0  0  0  0  0  0  0
   -3.1780    8.9950  -13.9070 C   0  0  0  0  0  3  0  0  0  0  0  0
   -4.4480    9.3900  -14.2400 C   0  0  0  0  0  3  0  0  0  0  0  0
   -5.2910    8.5770  -14.9720 C   0  0  0  0  0  0  0  0  0  0  0  0
   -6.9190    9.0710  -15.4060 Cl  0  0  0  0  0  0  0  0  0  0  0  0
   -4.7760    7.3550  -15.3400 C   0  0  0  0  0  3  0  0  0  0  0  0
   -3.5070    6.9350  -15.0190 C   0  0  0  0  0  3  0  0  0  0  0  0
   -1.0410    6.0970  -14.4150 O   0  0  0  0  0  0  0  0  0  0  0  0
   -0.8240    5.4890  -13.6630 H   0  0  0  0  0  0  0  0  0  0  0  0
    1.8300   12.5890  -13.3380 C   0  0  0  0  0  2  0  0  0  0  0  0
    1.3480   13.6410  -12.4120 C   0  0  0  0  0  2  0  0  0  0  0  0
    2.2630   14.0320  -11.3050 C   0  0  0  0  0  2  0  0  0  0  0  0
    2.1330   15.3610  -10.9260 O   0  0  0  0  0  0  0  0  0  0  0  0
    1.1170   15.9680  -11.6930 C   0  0  0  0  0  1  0  0  0  0  0  0
  1 22  1  1  0  0  0
  1  5  1  0  0  0  0
  2  1  1  0  0  0  0
  2  3  1  0  0  0  0
  3 18  1  6  0  0  0
  3 11  1  0  0  0  0
  3  4  1  0  0  0  0
  4  9  1  6  0  0  0
  5  6  1  6  0  0  0
  5  4  1  0  0  0  0
  6  8  1  0  0  0  0
  7  6  2  0  0  0  0
  8  9  1  0  0  0  0
  9 10  2  0  0  0  0
 11 16  1  0  0  0  0
 12 13  1  0  0  0  0
 12 11  2  0  0  0  0
 13 14  2  0  0  0  0
 14 15  1  0  0  0  0
 16 15  2  0  0  0  0
 17 18  1  0  0  0  0
 17 12  1  0  0  0  0
 19 18  2  0  0  0  0
 20  2  1  0  0  0  0
 21 17  1  0  0  0  0
 22 30  1  6  0  0  0
 23 24  1  0  0  0  0
 23 22  1  0  0  0  0
 25 24  2  0  0  0  0
 26 25  1  0  0  0  0
 27 26  1  0  0  0  0
 28 29  1  0  0  0  0
 28 26  2  0  0  0  0
 29 23  2  0  0  0  0
 30 31  1  0  0  0  0
 32  8  1  0  0  0  0
 32 33  1  0  0  0  0
 33 34  1  0  0  0  0
 34 35  1  0  0  0  0
 36 35  1  0  0  0  0
M  END
>  <Pose>
1

>  <Score>
-8.185

$$$$
