MODEL 1
REMARK VINA RESULT:    -8.185      0.000      0.000
REMARK INTER + INTRA:         -12.231
REMARK INTER:                 -11.295
REMARK INTRA:                  -0.936
REMARK UNBOUND:                -0.936
REMARK  7 active torsions:
REMARK  status: ('A' for Active; 'I' for Inactive)
REMARK    1  A    between atoms: C_5  and  C_8 
REMARK    2  A    between atoms: C_8  and  O_9 
REMARK    3  A    between atoms: C_8  and  C_10 
REMARK    4  A    between atoms: N_17  and  C_20 
REMARK    5  A    between atoms: C_20  and  C_21 
REMARK    6  A    between atoms: C_21  and  C_22 
REMARK    7  A    between atoms: C_22  and  O_23 
ROOT
ATOM      1  C   UNK d   1      -0.258   8.372 -14.226  0.00  0.00     0.269 C 
ATOM      2  N   UNK d   1       0.947   7.624 -14.563  0.00  0.00     0.116 N 
ATOM      3  C   UNK d   1       2.064   8.360 -14.002  0.00  0.00     0.279 A 
ATOM      4  C   UNK d   1       1.472   8.952 -12.756  0.00  0.00     0.147 C 
ATOM      5  C   UNK d   1       0.063   9.300 -13.116  0.00  0.00     0.131 C 
ATOM      6  C   UNK d   1       0.089  10.730 -13.530  0.00  0.00     0.233 C 
ATOM      7  O   UNK d   1      -0.814  11.346 -14.145  0.00  0.00    -0.272 OA
ATOM      8  N   UNK d   1       1.356  11.261 -13.083  0.00  0.00    -0.287 N 
ATOM      9  C   UNK d   1       2.044  10.254 -12.370  0.00  0.00     0.234 C 
ATOM     10  O   UNK d   1       2.980  10.411 -11.549  0.00  0.00    -0.272 OA
ATOM     11  C   UNK d   1       3.215   7.476 -13.696  0.00  0.00     0.017 A 
ATOM     12  C   UNK d   1       4.262   7.908 -14.475  0.00  0.00     0.044 A 
ATOM     13  C   UNK d   1       5.481   7.250 -14.384  0.00  0.00     0.030 A 
ATOM     14  C   UNK d   1       5.609   6.188 -13.520  0.00  0.00     0.002 A 
ATOM     15  C   UNK d   1       4.560   5.745 -12.732  0.00  0.00     0.001 A 
ATOM     16  C   UNK d   1       3.355   6.408 -12.833  0.00  0.00     0.012 A 
ATOM     17  N   UNK d   1       3.872   9.027 -15.291  0.00  0.00    -0.324 N 
ATOM     18  C   UNK d   1       2.513   9.307 -15.007  0.00  0.00     0.267 A 
ATOM     19  O   UNK d   1       1.865  10.215 -15.553  0.00  0.00    -0.270 OA
ATOM     20  H   UNK d   1       1.032   7.512 -15.579  0.00  0.00     0.318 HD
ATOM     21  H   UNK d   1       4.523   9.505 -15.954  0.00  0.00     0.169 HD
ENDROOT
BRANCH   1  22
ATOM     22  C   UNK d   1      -1.301   7.339 -13.896  0.00  0.00     0.185 C 
BRANCH  22  23
ATOM     23  C   UNK d   1      -2.678   7.752 -14.291  0.00  0.00    -0.028 A 
ATOM     24  C   UNK d   1      -3.178   8.995 -13.907  0.00  0.00     0.011 A 
ATOM     25  C   UNK d   1      -4.448   9.390 -14.240  0.00  0.00     0.024 A 
ATOM     26  C   UNK d   1      -5.291   8.577 -14.972  0.00  0.00     0.034 A 
ATOM     27 Cl   UNK d   1      -6.919   9.071 -15.406  0.00  0.00    -0.084 Cl
ATOM     28  C   UNK d   1      -4.776   7.355 -15.340  0.00  0.00     0.024 A 
ATOM     29  C   UNK d   1      -3.507   6.935 -15.019  0.00  0.00     0.011 A 
ENDBRANCH  22  23
BRANCH  22  30
ATOM     30  O   UNK d   1      -1.041   6.097 -14.415  0.00  0.00    -0.389 OA
ATOM     31  H   UNK d   1      -0.824   5.489 -13.663  0.00  0.00     0.210 HD
ENDBRANCH  22  30
ENDBRANCH   1  22
BRANCH   8  32
ATOM     32  C   UNK d   1       1.830  12.589 -13.338  0.00  0.00     0.137 C 
BRANCH  32  33
ATOM     33  C   UNK d   1       1.348  13.641 -12.412  0.00  0.00     0.046 C 
BRANCH  33  34
ATOM     34  C   UNK d   1       2.263  14.032 -11.305  0.00  0.00     0.168 C 
BRANCH  34  35
ATOM     35  O   UNK d   1       2.133  15.361 -10.926  0.00  0.00    -0.396 OA
ATOM     36  C   UNK d   1       1.117  15.968 -11.693  0.00  0.00     0.201 C 
ENDBRANCH  34  35
ENDBRANCH  33  34
ENDBRANCH  32  33
ENDBRANCH   8  32
TORSDOF 7
ENDMDL
