MODEL 1
REMARK VINA RESULT:    -8.364      0.000      0.000
REMARK INTER + INTRA:         -10.524
REMARK INTER:                 -10.076
REMARK INTRA:                  -0.449
REMARK UNBOUND:                -0.449
REMARK  4 active torsions:
REMARK  status: ('A' for Active; 'I' for Inactive)
REMARK    1  A    between atoms: C_5  and  C_8 
REMARK    2  A    between atoms: C_8  and  C_9 
REMARK       I    between atoms: C_9  and  N_11 
REMARK    3  A    between atoms: C_17  and  N_21 
REMARK    4  A    between atoms: C_19  and  O_20 
ROOT
ATOM      1  C   UNK d   1       3.367  11.580 -12.904  0.00  0.00     0.224 C 
ATOM      2  O   UNK d   1       4.477  12.119 -13.243  0.00  0.00    -0.273 OA
ATOM      3  N   UNK d   1       2.880  10.427 -13.536  0.00  0.00    -0.346 N 
ATOM      4  C   UNK d   1       1.642   9.820 -13.162  0.00  0.00     0.131 C 
ATOM      5  C   UNK d   1       1.565   8.345 -13.440  0.00  0.00     0.065 C 
ATOM      6  C   UNK d   1       2.927   7.761 -13.478  0.00  0.00     0.024 A 
ATOM      7  C   UNK d   1       3.979   8.456 -14.045  0.00  0.00     0.082 A 
ATOM      8  N   UNK d   1       5.211   7.935 -14.089  0.00  0.00    -0.065 NA
ATOM      9  C   UNK d   1       5.506   6.715 -13.592  0.00  0.00     0.727 A 
ATOM     10  N   UNK d   1       4.478   6.030 -13.036  0.00  0.00    -0.038 NA
ATOM     11  C   UNK d   1       3.225   6.511 -12.968  0.00  0.00     0.189 A 
ATOM     12  C   UNK d   1       3.643   9.823 -14.593  0.00  0.00     0.186 C 
ENDROOT
BRANCH   1  13
ATOM     13  C   UNK d   1       2.612  12.246 -11.795  0.00  0.00     0.141 C 
BRANCH  13  14
ATOM     14  C   UNK d   1       1.714  13.290 -12.313  0.00  0.00    -0.049 A 
ATOM     15  C   UNK d   1       0.457  13.033 -12.819  0.00  0.00     0.009 A 
ATOM     16  C   UNK d   1      -0.360  14.033 -13.299  0.00  0.00     0.024 A 
ATOM     17  C   UNK d   1       0.073  15.355 -13.287  0.00  0.00     0.034 A 
ATOM     18 Cl   UNK d   1      -0.953  16.636 -13.893  0.00  0.00    -0.084 Cl
ATOM     19  C   UNK d   1       1.335  15.597 -12.778  0.00  0.00     0.024 A 
ATOM     20  C   UNK d   1       2.150  14.597 -12.298  0.00  0.00     0.009 A 
ENDBRANCH  13  14
ENDBRANCH   1  13
BRANCH  11  21
ATOM     21  O   UNK d   1       2.194   5.782 -12.391  0.00  0.00    -0.344 OA
ATOM     22  H   UNK d   1       1.215   5.923 -12.653  0.00  0.00     0.219 HD
ENDBRANCH  11  21
BRANCH   9  23
ATOM     23  N   UNK d   1       6.817   6.214 -13.662  0.00  0.00    -0.210 N 
ATOM     24  C   UNK d   1       7.135   4.921 -13.133  0.00  0.00     0.167 C 
ATOM     25  C   UNK d   1       8.408   4.462 -13.859  0.00  0.00     0.188 C 
ATOM     26  O   UNK d   1       9.460   5.302 -13.596  0.00  0.00    -0.388 OA
ATOM     27  C   UNK d   1       9.207   6.642 -13.713  0.00  0.00     0.188 C 
ATOM     28  C   UNK d   1       7.854   6.997 -14.266  0.00  0.00     0.167 C 
ENDBRANCH   9  23
TORSDOF 4
ENDMDL
