MODEL 1
REMARK VINA RESULT:    -8.976      0.000      0.000
REMARK INTER + INTRA:         -11.720
REMARK INTER:                 -11.075
REMARK INTRA:                  -0.645
REMARK UNBOUND:                -0.645
REMARK  4 active torsions:
REMARK  status: ('A' for Active; 'I' for Inactive)
REMARK    1  A    between atoms: C_5  and  C_8 
REMARK    2  A    between atoms: C_8  and  C_9 
REMARK       I    between atoms: C_9  and  N_11 
REMARK    3  A    between atoms: N_14  and  C_17 
REMARK    4  A    between atoms: C_21  and  N_23 
ROOT
ATOM      1  C   UNK d   1       0.455   8.067 -12.994  0.00  0.00     0.224 C 
ATOM      2  O   UNK d   1       0.388   7.861 -11.753  0.00  0.00    -0.273 OA
ATOM      3  N   UNK d   1       1.401   8.987 -13.473  0.00  0.00    -0.349 N 
ATOM      4  C   UNK d   1       2.301   9.702 -12.551  0.00  0.00     0.145 C 
ATOM      5  C   UNK d   1       3.664   9.818 -13.217  0.00  0.00     0.143 C 
ATOM      6  N   UNK d   1       3.779   8.697 -14.127  0.00  0.00    -0.376 N 
ATOM      7  C   UNK d   1       2.965   8.785 -15.328  0.00  0.00     0.143 C 
ATOM      8  C   UNK d   1       1.594   9.319 -14.877  0.00  0.00     0.145 C 
ENDROOT
BRANCH   6   9
ATOM      9  C   UNK d   1       4.617   7.586 -13.853  0.00  0.00     0.053 A 
ATOM     10  C   UNK d   1       4.063   6.372 -13.489  0.00  0.00     0.170 A 
ATOM     11  N   UNK d   1       4.893   5.324 -13.217  0.00  0.00    -0.158 NA
ATOM     12  N   UNK d   1       6.207   5.412 -13.284  0.00  0.00    -0.132 NA
ATOM     13  C   UNK d   1       6.823   6.583 -13.638  0.00  0.00     0.150 A 
ATOM     14  C   UNK d   1       5.991   7.627 -13.908  0.00  0.00     0.083 A 
BRANCH  13  15
ATOM     15  N   UNK d   1       8.234   6.609 -13.687  0.00  0.00    -0.360 N 
ATOM     16  C   UNK d   1       8.939   6.525 -14.953  0.00  0.00     0.151 C 
ATOM     17  C   UNK d   1      10.111   5.548 -14.848  0.00  0.00     0.187 C 
ATOM     18  O   UNK d   1      10.861   5.773 -13.711  0.00  0.00    -0.388 OA
ATOM     19  C   UNK d   1      10.050   5.543 -12.610  0.00  0.00     0.187 C 
ATOM     20  C   UNK d   1       9.054   6.711 -12.507  0.00  0.00     0.151 C 
ENDBRANCH  13  15
ENDBRANCH   6   9
BRANCH   1  21
ATOM     21  C   UNK d   1      -0.476   7.318 -13.859  0.00  0.00     0.141 C 
BRANCH  21  22
ATOM     22  C   UNK d   1      -1.797   7.995 -13.954  0.00  0.00    -0.049 A 
ATOM     23  C   UNK d   1      -2.864   7.324 -14.545  0.00  0.00     0.009 A 
ATOM     24  C   UNK d   1      -4.108   7.918 -14.650  0.00  0.00     0.024 A 
ATOM     25  C   UNK d   1      -4.320   9.209 -14.163  0.00  0.00     0.034 A 
ATOM     26 Cl   UNK d   1      -5.879   9.963 -14.291  0.00  0.00    -0.084 Cl
ATOM     27  C   UNK d   1      -3.255   9.858 -13.583  0.00  0.00     0.024 A 
ATOM     28  C   UNK d   1      -1.999   9.260 -13.475  0.00  0.00     0.009 A 
ENDBRANCH  21  22
ENDBRANCH   1  21
TORSDOF 4
ENDMDL
