/Users/jonathanwahrer/Desktop/Msc/3_Semester/Drug_Design_Praktikum/waehrer_HTS_screening/HTS_experiment/out/docking_results/vina_output/6q9y/1966_docked.pdbqt
 OpenBabel03222220323D

 27 30  0  0  0  0  0  0  0  0999 V2000
   -0.5780   10.7930  -13.5470 C   0  0  0  0  0  0  0  0  0  0  0  0
   -1.5850   10.0300  -13.8130 O   0  0  0  0  0  0  0  0  0  0  0  0
   -0.6860   12.1070  -13.1670 N   0  0  0  0  0  0  0  0  0  0  0  0
   -0.7940   13.4140  -12.7920 C   0  0  0  0  0  2  0  0  0  0  0  0
   -2.0480   12.0360  -13.2590 H   0  0  0  0  0  0  0  0  0  0  0  0
    0.6970   10.0430  -13.7090 C   0  0  0  0  0  0  0  0  0  0  0  0
    1.0550    8.8260  -13.1850 C   0  0  0  0  0  0  0  0  0  0  0  0
    0.3120    8.0270  -12.3810 F   0  0  0  0  0  0  0  0  0  0  0  0
    2.3200    8.4840  -13.5800 N   0  0  0  0  0  0  0  0  0  0  0  0
    2.7370    9.5000  -14.3520 C   0  0  0  0  0  0  0  0  0  0  0  0
    3.0920    7.4140  -13.3300 C   0  0  0  0  0  3  0  0  0  0  0  0
    1.7690   10.4280  -14.4280 N   0  0  0  0  0  0  0  0  0  0  0  0
    3.9990    9.4070  -14.8850 C   0  0  0  0  0  3  0  0  0  0  0  0
    4.8330    8.3130  -14.6510 C   0  0  0  0  0  3  0  0  0  0  0  0
    4.3730    7.2950  -13.8590 C   0  0  0  0  0  0  0  0  0  0  0  0
    5.3700    5.8800  -13.5250 Cl  0  0  0  0  0  0  0  0  0  0  0  0
    0.5090   14.1280  -12.5330 C   0  0  0  0  0  0  0  0  0  0  0  0
    0.6750   15.4520  -12.4750 N   0  0  0  0  0  0  0  0  0  0  0  0
    1.9520   15.6880  -12.2270 N   0  0  0  0  0  0  0  0  0  0  0  0
    2.6070   14.5520  -12.1230 N   0  0  0  0  0  0  0  0  0  0  0  0
    1.7050   13.5890  -12.3140 N   0  0  0  0  0  0  0  0  0  0  0  0
   -0.4010   16.3760  -12.6510 C   0  0  0  0  0  0  0  0  0  0  0  0
   -0.7240   17.2140  -11.5890 C   0  0  0  0  0  3  0  0  0  0  0  0
   -1.7700   18.1220  -11.6880 C   0  0  0  0  0  3  0  0  0  0  0  0
   -2.5220   18.2210  -12.8420 C   0  0  0  0  0  3  0  0  0  0  0  0
   -2.1960   17.3880  -13.8900 C   0  0  0  0  0  3  0  0  0  0  0  0
   -1.1550   16.4820  -13.7940 C   0  0  0  0  0  3  0  0  0  0  0  0
  1  3  1  0  0  0  0
  2  1  2  0  0  0  0
  3  4  1  0  0  0  0
  4 17  1  0  0  0  0
  5  3  1  0  0  0  0
  6  1  1  0  0  0  0
  6  7  2  0  0  0  0
  7  8  1  0  0  0  0
  9 11  1  0  0  0  0
  9  7  1  0  0  0  0
 10  9  1  0  0  0  0
 12 10  2  0  0  0  0
 12  6  1  0  0  0  0
 13 14  2  0  0  0  0
 13 10  1  0  0  0  0
 14 15  1  0  0  0  0
 15 16  1  0  0  0  0
 15 11  2  0  0  0  0
 17 18  1  0  0  0  0
 17 21  2  0  0  0  0
 18 19  1  0  0  0  0
 19 20  2  0  0  0  0
 21 20  1  0  0  0  0
 22 18  1  0  0  0  0
 22 23  1  0  0  0  0
 24 23  2  0  0  0  0
 25 24  1  0  0  0  0
 26 27  1  0  0  0  0
 26 25  2  0  0  0  0
 27 22  2  0  0  0  0
M  END
>  <Pose>
1

>  <Score>
-9.668

$$$$
