MODEL 1
REMARK VINA RESULT:    -9.668      0.000      0.000
REMARK INTER + INTRA:         -11.801
REMARK INTER:                 -11.364
REMARK INTRA:                  -0.437
REMARK UNBOUND:                -0.437
REMARK  3 active torsions:
REMARK  status: ('A' for Active; 'I' for Inactive)
REMARK    1  A    between atoms: C_6  and  C_7 
REMARK       I    between atoms: C_7  and  N_9 
REMARK    2  A    between atoms: C_10  and  C_11 
REMARK    3  A    between atoms: N_12  and  C_16 
ROOT
ATOM      1  C   UNK d   1      -0.578  10.793 -13.547  0.00  0.00     0.275 C 
ATOM      2  O   UNK d   1      -1.585  10.030 -13.813  0.00  0.00    -0.266 OA
ATOM      3  N   UNK d   1      -0.686  12.107 -13.167  0.00  0.00    -0.348 N 
ATOM      4  C   UNK d   1      -0.794  13.414 -12.792  0.00  0.00     0.205 C 
ATOM      5  H   UNK d   1      -2.048  12.036 -13.259  0.00  0.00     0.163 HD
ENDROOT
BRANCH   1   6
ATOM      6  C   UNK d   1       0.697  10.043 -13.709  0.00  0.00     0.183 A 
ATOM      7  C   UNK d   1       1.055   8.826 -13.185  0.00  0.00     0.231 A 
ATOM      8  F   UNK d   1       0.312   8.027 -12.381  0.00  0.00    -0.183 F 
ATOM      9  N   UNK d   1       2.320   8.484 -13.580  0.00  0.00    -0.279 N 
ATOM     10  C   UNK d   1       2.737   9.500 -14.352  0.00  0.00     0.137 A 
ATOM     11  C   UNK d   1       3.092   7.414 -13.330  0.00  0.00     0.125 A 
ATOM     12  N   UNK d   1       1.769  10.428 -14.428  0.00  0.00    -0.220 NA
ATOM     13  C   UNK d   1       3.999   9.407 -14.885  0.00  0.00     0.053 A 
ATOM     14  C   UNK d   1       4.833   8.313 -14.651  0.00  0.00     0.029 A 
ATOM     15  C   UNK d   1       4.373   7.295 -13.859  0.00  0.00     0.050 A 
ATOM     16 Cl   UNK d   1       5.370   5.880 -13.525  0.00  0.00    -0.083 Cl
ENDBRANCH   1   6
BRANCH   4  17
ATOM     17  C   UNK d   1       0.509  14.128 -12.533  0.00  0.00     0.171 A 
ATOM     18  N   UNK d   1       0.675  15.452 -12.475  0.00  0.00    -0.197 N 
ATOM     19  N   UNK d   1       1.952  15.688 -12.227  0.00  0.00    -0.039 NA
ATOM     20  N   UNK d   1       2.607  14.552 -12.123  0.00  0.00    -0.023 NA
ATOM     21  N   UNK d   1       1.705  13.589 -12.314  0.00  0.00    -0.112 NA
BRANCH  18  22
ATOM     22  C   UNK d   1      -0.401  16.376 -12.651  0.00  0.00     0.062 A 
ATOM     23  C   UNK d   1      -0.724  17.214 -11.589  0.00  0.00     0.032 A 
ATOM     24  C   UNK d   1      -1.770  18.122 -11.688  0.00  0.00     0.002 A 
ATOM     25  C   UNK d   1      -2.522  18.221 -12.842  0.00  0.00     0.000 A 
ATOM     26  C   UNK d   1      -2.196  17.388 -13.890  0.00  0.00     0.002 A 
ATOM     27  C   UNK d   1      -1.155  16.482 -13.794  0.00  0.00     0.032 A 
ENDBRANCH  18  22
ENDBRANCH   4  17
TORSDOF 3
ENDMDL
