MODEL 1
REMARK VINA RESULT:    -8.490      0.000      0.000
REMARK INTER + INTRA:         -10.774
REMARK INTER:                  -9.979
REMARK INTRA:                  -0.795
REMARK UNBOUND:                -0.795
REMARK  3 active torsions:
REMARK  status: ('A' for Active; 'I' for Inactive)
REMARK    1  A    between atoms: C_4  and  N_8 
REMARK    2  A    between atoms: C_11  and  C_13 
REMARK    3  A    between atoms: N_18  and  C_21 
ROOT
ATOM      1  C   UNK d   1       2.908  12.088 -12.609  0.00  0.00     0.209 C 
ATOM      2  O   UNK d   1       2.985  11.883 -11.235  0.00  0.00    -0.170 OA
ATOM      3  N   UNK d   1       2.714  10.919 -13.266  0.00  0.00    -0.354 N 
ATOM      4  C   UNK d   1       2.477  10.626 -14.649  0.00  0.00     0.145 C 
ATOM      5  C   UNK d   1       1.713   9.291 -14.762  0.00  0.00     0.161 C 
ATOM      6  N   UNK d   1       0.874   9.264 -13.555  0.00  0.00    -0.211 N 
ATOM      7  C   UNK d   1       1.497   9.053 -12.291  0.00  0.00     0.161 C 
ATOM      8  C   UNK d   1       2.842   9.695 -12.413  0.00  0.00     0.145 C 
ENDROOT
BRANCH   1   9
ATOM      9  C   UNK d   1       3.078  13.526 -12.713  0.00  0.00     0.151 A 
ATOM     10  N   UNK d   1       3.222  14.729 -12.799  0.00  0.00    -0.126 NA
ATOM     11  N   UNK d   1       2.504  15.673 -12.800  0.00  0.00    -0.060 NA
ATOM     12  N   UNK d   1       1.291  15.183 -12.658  0.00  0.00    -0.224 N 
ATOM     13  C   UNK d   1       1.432  13.886 -12.598  0.00  0.00     0.158 A 
BRANCH  12  14
ATOM     14  C   UNK d   1       0.139  16.056 -12.612  0.00  0.00     0.061 A 
ATOM     15  C   UNK d   1      -0.135  16.923 -11.611  0.00  0.00     0.055 A 
ATOM     16  C   UNK d   1      -1.260  17.736 -11.646  0.00  0.00     0.036 A 
ATOM     17 Cl   UNK d   1      -1.685  18.863 -10.397  0.00  0.00    -0.084 Cl
ATOM     18  C   UNK d   1      -2.159  17.660 -12.759  0.00  0.00     0.024 A 
ATOM     19  C   UNK d   1      -1.867  16.791 -13.753  0.00  0.00     0.004 A 
ATOM     20  C   UNK d   1      -0.755  16.024 -13.663  0.00  0.00     0.032 A 
ENDBRANCH  12  14
ENDBRANCH   1   9
BRANCH   6  21
ATOM     21  C   UNK d   1      -0.481   9.560 -13.656  0.00  0.00     0.724 A 
ATOM     22  N   UNK d   1      -1.428   8.544 -13.834  0.00  0.00    -0.075 NA
ATOM     23  C   UNK d   1      -2.702   8.704 -13.913  0.00  0.00     0.138 A 
ATOM     24  C   UNK d   1      -3.298   9.971 -13.813  0.00  0.00     0.040 A 
ATOM     25  C   UNK d   1      -2.365  10.986 -13.643  0.00  0.00     0.138 A 
ATOM     26  N   UNK d   1      -1.107  10.763 -13.577  0.00  0.00    -0.075 NA
ENDBRANCH   6  21
TORSDOF 3
ENDMDL
