MODEL 1
REMARK VINA RESULT:    -7.415      0.000      0.000
REMARK INTER + INTRA:          -8.636
REMARK INTER:                  -8.499
REMARK INTRA:                  -0.136
REMARK UNBOUND:                -0.136
REMARK  3 active torsions:
REMARK  status: ('A' for Active; 'I' for Inactive)
REMARK    1  A    between atoms: C_4  and  N_8 
REMARK    2  A    between atoms: C_12  and  C_20 
REMARK    3  A    between atoms: C_20  and  O_21 
ROOT
ATOM      1  N   UNK d   1      -1.588   8.791 -13.561  0.00  0.00    -0.252 N 
ATOM      2  C   UNK d   1      -0.833  10.016 -13.511  0.00  0.00     0.239 C 
ATOM      3  O   UNK d   1      -1.202  11.101 -14.021  0.00  0.00    -0.272 OA
ATOM      4  C   UNK d   1       0.413   9.798 -12.781  0.00  0.00     0.135 C 
ATOM      5  C   UNK d   1       1.649   9.780 -13.619  0.00  0.00     0.113 C 
ATOM      6  O   UNK d   1       2.483   8.965 -12.813  0.00  0.00    -0.363 OA
ATOM      7  C   UNK d   1       1.665   7.806 -12.852  0.00  0.00     0.159 C 
ATOM      8  C   UNK d   1       0.374   8.344 -12.285  0.00  0.00     0.128 C 
ATOM      9  C   UNK d   1      -0.776   7.772 -12.988  0.00  0.00     0.239 C 
ATOM     10  O   UNK d   1      -1.035   6.548 -13.083  0.00  0.00    -0.272 OA
ATOM     11  C   UNK d   1       1.486   7.650 -14.311  0.00  0.00     0.005 C 
ATOM     12  C   UNK d   1       1.512   8.909 -14.807  0.00  0.00     0.012 C 
ENDROOT
BRANCH   1  13
ATOM     13  C   UNK d   1      -2.896   8.583 -14.079  0.00  0.00     0.046 A 
ATOM     14  C   UNK d   1      -3.951   9.431 -13.783  0.00  0.00     0.054 A 
ATOM     15  C   UNK d   1      -5.219   9.229 -14.287  0.00  0.00     0.036 A 
ATOM     16 Cl   UNK d   1      -6.541  10.309 -13.903  0.00  0.00    -0.084 Cl
ATOM     17  C   UNK d   1      -5.489   8.160 -15.117  0.00  0.00     0.024 A 
ATOM     18  C   UNK d   1      -4.444   7.310 -15.418  0.00  0.00     0.004 A 
ATOM     19  C   UNK d   1      -3.168   7.515 -14.910  0.00  0.00     0.030 A 
ENDBRANCH   1  13
BRANCH   5  20
ATOM     20  C   UNK d   1       2.259  11.111 -13.883  0.00  0.00     0.207 C 
BRANCH  20  21
ATOM     21  O   UNK d   1       1.652  12.064 -13.075  0.00  0.00    -0.398 OA
ATOM     22  H   UNK d   1       1.696  11.791 -12.130  0.00  0.00     0.209 HD
ENDBRANCH  20  21
ENDBRANCH   5  20
TORSDOF 3
ENDMDL
