MODEL 1
REMARK VINA RESULT:    -7.813      0.000      0.000
REMARK INTER + INTRA:          -7.249
REMARK INTER:                  -8.269
REMARK INTRA:                   1.021
REMARK UNBOUND:                 1.021
REMARK  1 active torsions:
REMARK  status: ('A' for Active; 'I' for Inactive)
REMARK       I    between atoms: N_10  and  C_13 
REMARK    1  A    between atoms: C_13  and  C_15 
ROOT
ATOM      1 Cl   UNK d   1       3.362   4.381 -12.220  0.00  0.00    -0.083 Cl
ATOM      2  C   UNK d   1       2.114   5.607 -12.438  0.00  0.00     0.050 A 
ATOM      3  C   UNK d   1       2.401   6.861 -12.937  0.00  0.00     0.125 A 
ATOM      4  N   UNK d   1       1.456   7.816 -13.112  0.00  0.00    -0.271 N 
ATOM      5  C   UNK d   1       0.165   7.596 -12.805  0.00  0.00     0.137 A 
ATOM      6  N   UNK d   1      -0.797   8.542 -12.973  0.00  0.00    -0.234 NA
ATOM      7  C   UNK d   1      -0.526   9.767 -13.459  0.00  0.00     0.051 A 
ATOM      8  C   UNK d   1       0.805  10.011 -13.782  0.00  0.00     0.053 A 
ATOM      9  C   UNK d   1       1.107  11.363 -14.319  0.00  0.00     0.172 C 
ATOM     10  N   UNK d   1       0.389  12.295 -13.441  0.00  0.00    -0.347 N 
ATOM     11  C   UNK d   1      -1.043  12.193 -13.394  0.00  0.00     0.132 C 
ATOM     12  C   UNK d   1      -1.567  10.809 -13.650  0.00  0.00     0.080 C 
ATOM     13  C   UNK d   1       1.094  13.245 -12.670  0.00  0.00     0.224 C 
ATOM     14  O   UNK d   1       2.367  13.243 -12.772  0.00  0.00    -0.273 OA
ATOM     15  C   UNK d   1       1.758   9.033 -13.601  0.00  0.00     0.263 A 
ATOM     16  O   UNK d   1       2.970   9.281 -13.905  0.00  0.00    -0.267 OA
ATOM     17  C   UNK d   1      -0.144   6.343 -12.301  0.00  0.00     0.053 A 
ATOM     18  C   UNK d   1       0.799   5.354 -12.114  0.00  0.00     0.029 A 
ENDROOT
BRANCH  13  19
ATOM     19  C   UNK d   1       0.421  14.215 -11.777  0.00  0.00     0.082 C 
ATOM     20  C   UNK d   1      -0.431  15.203 -12.544  0.00  0.00     0.040 C 
ATOM     21  C   UNK d   1       0.388  15.594 -13.767  0.00  0.00     0.168 C 
ATOM     22  O   UNK d   1       1.736  15.702 -13.428  0.00  0.00    -0.391 OA
ATOM     23  C   UNK d   1       1.898  16.129 -12.103  0.00  0.00     0.168 C 
ATOM     24  C   UNK d   1       1.513  15.057 -11.100  0.00  0.00     0.040 C 
ENDBRANCH  13  19
TORSDOF 1
ENDMDL
