/Users/jonathanwahrer/Desktop/Msc/3_Semester/Drug_Design_Praktikum/waehrer_HTS_screening/HTS_experiment/out/docking_results/vina_output/6q9y/1974_docked.pdbqt
 OpenBabel03222220333D

 26 29  0  0  0  0  0  0  0  0999 V2000
   -1.7250    5.6190  -15.0540 F   0  0  0  0  0  0  0  0  0  0  0  0
   -2.5730    6.6410  -14.7880 C   0  0  0  0  0  0  0  0  0  0  0  0
   -2.0420    7.8350  -14.3230 C   0  0  0  0  0  0  0  0  0  0  0  0
   -2.8430    8.9170  -14.0310 C   0  0  0  0  0  0  0  0  0  0  0  0
   -4.2080    8.7740  -14.2160 C   0  0  0  0  0  0  0  0  0  0  0  0
   -4.7360    7.5910  -14.6770 C   0  0  0  0  0  3  0  0  0  0  0  0
   -3.9310    6.5140  -14.9670 C   0  0  0  0  0  3  0  0  0  0  0  0
   -5.2330   10.1490  -13.8450 Cl  0  0  0  0  0  0  0  0  0  0  0  0
   -2.0590   10.0420  -13.5650 C   0  0  0  0  0  0  0  0  0  0  0  0
   -2.4560   11.1760  -13.2140 O   0  0  0  0  0  0  0  0  0  0  0  0
   -0.6760    9.5840  -13.5840 C   0  0  0  0  0  0  0  0  0  0  0  0
    0.3320   10.2790  -13.2440 O   0  0  0  0  0  0  0  0  0  0  0  0
   -0.6860    8.2430  -14.0470 N   0  0  0  0  0  0  0  0  0  0  0  0
    0.4610    7.3770  -14.2280 C   0  0  0  0  0  2  0  0  0  0  0  0
    1.1990    7.1380  -13.0060 N   0  0  0  0  0  0  0  0  0  0  0  0
    1.2800    5.7470  -12.7200 C   0  0  0  0  0  2  0  0  0  0  0  0
    2.6140    5.2580  -12.2770 C   0  0  0  0  0  2  0  0  0  0  0  0
    3.7160    5.8730  -12.9690 N   0  0  0  0  0  0  0  0  0  0  0  0
    3.4780    7.1030  -13.6880 C   0  0  0  0  0  2  0  0  0  0  0  0
    2.4220    7.8630  -12.9140 C   0  0  0  0  0  2  0  0  0  0  0  0
    5.0160    5.3190  -12.9670 C   0  0  0  0  0  0  0  0  0  0  0  0
    6.1030    6.0840  -12.7720 N   0  0  0  0  0  0  0  0  0  0  0  0
    7.3520    5.5800  -12.7670 C   0  0  0  0  0  3  0  0  0  0  0  0
    7.5620    4.2290  -12.9670 C   0  0  0  0  0  3  0  0  0  0  0  0
    6.4790    3.4590  -13.1630 N   0  0  0  0  0  0  0  0  0  0  0  0
    5.2300    3.9610  -13.1680 C   0  0  0  0  0  3  0  0  0  0  0  0
  1  2  1  0  0  0  0
  2  3  1  0  0  0  0
  3 13  1  0  0  0  0
  3  4  2  0  0  0  0
  4  9  1  0  0  0  0
  5  4  1  0  0  0  0
  5  8  1  0  0  0  0
  6  5  2  0  0  0  0
  7  2  2  0  0  0  0
  7  6  1  0  0  0  0
  9 10  2  0  0  0  0
 11  9  1  0  0  0  0
 11 12  2  0  0  0  0
 13 11  1  0  0  0  0
 14 13  1  0  0  0  0
 14 15  1  0  0  0  0
 15 20  1  0  0  0  0
 15 16  1  0  0  0  0
 16 17  1  0  0  0  0
 18 21  1  0  0  0  0
 18 17  1  0  0  0  0
 19 18  1  0  0  0  0
 19 20  1  0  0  0  0
 21 22  1  0  0  0  0
 22 23  2  0  0  0  0
 24 23  1  0  0  0  0
 25 24  2  0  0  0  0
 26 25  1  0  0  0  0
 26 21  2  0  0  0  0
M  END
>  <Pose>
1

>  <Score>
-7.905

$$$$
