MODEL 1
REMARK VINA RESULT:    -9.465      0.000      0.000
REMARK INTER + INTRA:          -9.942
REMARK INTER:                 -10.848
REMARK INTRA:                   0.906
REMARK UNBOUND:                 0.906
REMARK  3 active torsions:
REMARK  status: ('A' for Active; 'I' for Inactive)
REMARK    1  A    between atoms: C_7  and  C_8 
REMARK    2  A    between atoms: C_8  and  C_9 
REMARK       I    between atoms: C_9  and  N_11 
REMARK    3  A    between atoms: C_19  and  O_20 
ROOT
ATOM      1  C   UNK d   1      -0.692  17.005 -12.409  0.00  0.00     0.224 C 
ATOM      2  O   UNK d   1      -0.554  17.764 -11.388  0.00  0.00    -0.273 OA
ATOM      3  N   UNK d   1       0.074  15.821 -12.570  0.00  0.00    -0.346 N 
ATOM      4  C   UNK d   1      -0.125  15.015 -13.722  0.00  0.00     0.131 C 
ATOM      5  C   UNK d   1      -0.279  13.560 -13.263  0.00  0.00     0.065 C 
ATOM      6  C   UNK d   1       1.075  13.259 -12.656  0.00  0.00     0.022 A 
ATOM      7  C   UNK d   1       1.684  14.206 -11.859  0.00  0.00     0.064 A 
ATOM      8  N   UNK d   1       2.909  13.919 -11.333  0.00  0.00    -0.244 NA
ATOM      9  C   UNK d   1       3.542  12.757 -11.559  0.00  0.00     0.236 A 
ATOM     10  N   UNK d   1       2.934  11.846 -12.339  0.00  0.00    -0.217 NA
ATOM     11  C   UNK d   1       1.706  12.073 -12.895  0.00  0.00     0.171 A 
ATOM     12  C   UNK d   1       1.029  15.495 -11.565  0.00  0.00     0.185 C 
ENDROOT
BRANCH   1  13
ATOM     13  C   UNK d   1      -1.702  17.418 -13.436  0.00  0.00     0.143 C 
BRANCH  13  14
ATOM     14  C   UNK d   1      -2.763  18.263 -12.809  0.00  0.00    -0.025 A 
ATOM     15  C   UNK d   1      -4.077  18.243 -13.234  0.00  0.00     0.043 A 
ATOM     16 Cl   UNK d   1      -4.484  17.183 -14.557  0.00  0.00    -0.084 Cl
ATOM     17  C   UNK d   1      -5.032  19.040 -12.622  0.00  0.00     0.064 A 
ATOM     18  C   UNK d   1      -4.726  19.886 -11.572  0.00  0.00     0.103 A 
ATOM     19  C   UNK d   1      -3.415  19.917 -11.136  0.00  0.00     0.102 A 
ATOM     20  O   UNK d   1      -5.633  20.694 -10.934  0.00  0.00    -0.346 OA
ATOM     21  C   UNK d   1      -2.476  19.116 -11.757  0.00  0.00     0.049 A 
ATOM     22  O   UNK d   1      -3.111  20.761 -10.088  0.00  0.00    -0.346 OA
ATOM     23  C   UNK d   1      -4.052  21.301  -9.184  0.00  0.00     0.202 C 
ATOM     24  C   UNK d   1      -5.463  21.235  -9.652  0.00  0.00     0.202 C 
ENDBRANCH  13  14
ENDBRANCH   1  13
BRANCH  11  25
ATOM     25  O   UNK d   1       1.079  11.137 -13.697  0.00  0.00    -0.344 OA
ATOM     26  H   UNK d   1       1.640  10.648 -14.385  0.00  0.00     0.219 HD
ENDBRANCH  11  25
TORSDOF 3
ENDMDL
