/Users/jonathanwahrer/Desktop/Msc/3_Semester/Drug_Design_Praktikum/waehrer_HTS_screening/HTS_experiment/out/docking_results/vina_output/6q9y/1976_docked.pdbqt
 OpenBabel03222220333D

 26 29  0  0  0  0  0  0  0  0999 V2000
   -0.6920   17.0050  -12.4090 C   0  0  0  0  0  0  0  0  0  0  0  0
   -0.5540   17.7640  -11.3880 O   0  0  0  0  0  0  0  0  0  0  0  0
    0.0740   15.8210  -12.5700 N   0  0  0  0  0  0  0  0  0  0  0  0
   -0.1250   15.0150  -13.7220 C   0  0  0  0  0  2  0  0  0  0  0  0
   -0.2790   13.5600  -13.2630 C   0  0  0  0  0  2  0  0  0  0  0  0
    1.0750   13.2590  -12.6560 C   0  0  0  0  0  0  0  0  0  0  0  0
    1.6840   14.2060  -11.8590 C   0  0  0  0  0  0  0  0  0  0  0  0
    2.9090   13.9190  -11.3330 N   0  0  0  0  0  0  0  0  0  0  0  0
    3.5420   12.7570  -11.5590 C   0  0  0  0  0  3  0  0  0  0  0  0
    2.9340   11.8460  -12.3390 N   0  0  0  0  0  0  0  0  0  0  0  0
    1.7060   12.0730  -12.8950 C   0  0  0  0  0  0  0  0  0  0  0  0
    1.0290   15.4950  -11.5650 C   0  0  0  0  0  2  0  0  0  0  0  0
   -1.7020   17.4180  -13.4360 C   0  0  0  0  0  2  0  0  0  0  0  0
   -2.7630   18.2630  -12.8090 C   0  0  0  0  0  0  0  0  0  0  0  0
   -4.0770   18.2430  -13.2340 C   0  0  0  0  0  0  0  0  0  0  0  0
   -4.4840   17.1830  -14.5570 Cl  0  0  0  0  0  0  0  0  0  0  0  0
   -5.0320   19.0400  -12.6220 C   0  0  0  0  0  3  0  0  0  0  0  0
   -4.7260   19.8860  -11.5720 C   0  0  0  0  0  0  0  0  0  0  0  0
   -3.4150   19.9170  -11.1360 C   0  0  0  0  0  0  0  0  0  0  0  0
   -5.6330   20.6940  -10.9340 O   0  0  0  0  0  0  0  0  0  0  0  0
   -2.4760   19.1160  -11.7570 C   0  0  0  0  0  3  0  0  0  0  0  0
   -3.1110   20.7610  -10.0880 O   0  0  0  0  0  0  0  0  0  0  0  0
   -4.0520   21.3010   -9.1840 C   0  0  0  0  0  2  0  0  0  0  0  0
   -5.4630   21.2350   -9.6520 C   0  0  0  0  0  2  0  0  0  0  0  0
    1.0790   11.1370  -13.6970 O   0  0  0  0  0  0  0  0  0  0  0  0
    1.6400   10.6480  -14.3850 H   0  0  0  0  0  0  0  0  0  0  0  0
  1  2  2  0  0  0  0
  3  1  1  0  0  0  0
  3 12  1  0  0  0  0
  4  5  1  0  0  0  0
  4  3  1  0  0  0  0
  5  6  1  0  0  0  0
  6  7  2  0  0  0  0
  7 12  1  0  0  0  0
  7  8  1  0  0  0  0
  9  8  2  0  0  0  0
 10  9  1  0  0  0  0
 11  6  1  0  0  0  0
 11 10  2  0  0  0  0
 13 14  1  0  0  0  0
 13  1  1  0  0  0  0
 14 21  1  0  0  0  0
 15 14  2  0  0  0  0
 15 17  1  0  0  0  0
 16 15  1  0  0  0  0
 17 18  2  0  0  0  0
 18 19  1  0  0  0  0
 18 20  1  0  0  0  0
 19 22  1  0  0  0  0
 20 24  1  0  0  0  0
 21 19  2  0  0  0  0
 22 23  1  0  0  0  0
 24 23  1  0  0  0  0
 25 11  1  0  0  0  0
 26 25  1  0  0  0  0
M  END
>  <Pose>
1

>  <Score>
-9.465

$$$$
