MODEL 1
REMARK VINA RESULT:    -8.340      0.000      0.000
REMARK INTER + INTRA:         -10.244
REMARK INTER:                  -9.803
REMARK INTRA:                  -0.441
REMARK UNBOUND:                -0.441
REMARK  3 active torsions:
REMARK  status: ('A' for Active; 'I' for Inactive)
REMARK    1  A    between atoms: N_15  and  C_19 
REMARK    2  A    between atoms: C_19  and  C_20 
REMARK    3  A    between atoms: C_20  and  C_21 
REMARK       I    between atoms: C_21  and  N_23 
ROOT
ATOM      1 Cl   UNK d   1       2.804   4.902 -12.066  0.00  0.00    -0.084 Cl
ATOM      2  C   UNK d   1       1.561   6.056 -12.499  0.00  0.00     0.036 A 
ATOM      3  C   UNK d   1       1.799   7.413 -12.580  0.00  0.00     0.055 A 
ATOM      4  C   UNK d   1       0.829   8.334 -12.919  0.00  0.00     0.077 A 
ATOM      5  C   UNK d   1      -0.439   7.856 -13.188  0.00  0.00     0.038 A 
ATOM      6  C   UNK d   1      -0.690   6.502 -13.112  0.00  0.00     0.019 A 
ATOM      7  C   UNK d   1       0.281   5.581 -12.772  0.00  0.00     0.025 A 
ATOM      8  C   UNK d   1      -1.495   8.824 -13.555  0.00  0.00     0.153 A 
ATOM      9  N   UNK d   1      -2.716   8.654 -13.845  0.00  0.00    -0.270 NA
ATOM     10  C   UNK d   1      -3.417   9.884 -14.149  0.00  0.00     0.172 A 
ATOM     11  C   UNK d   1      -2.388  10.957 -14.001  0.00  0.00     0.171 A 
ATOM     12  N   UNK d   1      -1.201  10.213 -13.625  0.00  0.00    -0.160 N 
ATOM     13  C   UNK d   1       0.135  10.623 -13.332  0.00  0.00     0.736 A 
ATOM     14  N   UNK d   1       0.694  11.847 -13.318  0.00  0.00     0.024 NA
ATOM     15  N   UNK d   1       1.972  11.778 -12.989  0.00  0.00    -0.203 N 
ATOM     16  C   UNK d   1       2.214  10.459 -12.791  0.00  0.00     0.364 A 
ATOM     17  O   UNK d   1       3.334  10.011 -12.462  0.00  0.00    -0.244 OA
ATOM     18  N   UNK d   1       1.103   9.732 -12.996  0.00  0.00    -0.090 N 
ENDROOT
BRANCH  15  19
ATOM     19  C   UNK d   1       2.910  12.878 -12.867  0.00  0.00     0.166 C 
BRANCH  19  20
ATOM     20  C   UNK d   1       2.716  13.556 -11.503  0.00  0.00     0.124 C 
BRANCH  20  21
ATOM     21  C   UNK d   1       1.786  14.706 -11.633  0.00  0.00     0.216 C 
ATOM     22  O   UNK d   1       2.148  15.908 -11.690  0.00  0.00    -0.274 OA
ATOM     23  N   UNK d   1       0.396  14.430 -11.696  0.00  0.00    -0.370 N 
ATOM     24  H   UNK d   1      -0.066  13.684 -11.144  0.00  0.00     0.159 HD
ATOM     25  H   UNK d   1      -0.185  15.011 -12.334  0.00  0.00     0.159 HD
ENDBRANCH  20  21
ENDBRANCH  19  20
ENDBRANCH  15  19
TORSDOF 3
ENDMDL
