/Users/jonathanwahrer/Desktop/Msc/3_Semester/Drug_Design_Praktikum/waehrer_HTS_screening/HTS_experiment/out/docking_results/vina_output/6q9y/1986_docked.pdbqt
 OpenBabel03222220333D

 30 33  0  0  0  0  0  0  0  0999 V2000
    2.7120   13.7970  -12.8800 Cl  0  0  0  0  0  0  0  0  0  0  0  0
    1.1690   12.9660  -12.9790 C   0  0  0  0  0  0  0  0  0  0  0  0
    1.0670   11.7270  -13.5800 C   0  0  0  0  0  2  0  0  0  0  0  0
   -0.1640   11.0640  -13.6600 C   0  0  0  0  0  0  0  0  0  0  0  0
   -1.2470   11.7050  -13.1150 C   0  0  0  0  0  0  0  0  0  0  0  0
   -1.1390   12.9630  -12.5070 C   0  0  0  0  0  3  0  0  0  0  0  0
    0.0770   13.6080  -12.4330 C   0  0  0  0  0  3  0  0  0  0  0  0
   -2.4820   11.0670  -13.1810 O   0  0  0  0  0  0  0  0  0  0  0  0
   -2.6650    9.8250  -13.7670 C   0  0  0  0  0  0  0  0  0  0  0  0
   -1.5690    9.1780  -14.3170 C   0  0  0  0  0  0  0  0  0  0  0  0
   -0.2150    9.7420  -14.3160 C   0  0  0  0  0  0  0  0  0  0  0  0
   -1.8020    7.9430  -14.8870 C   0  0  0  0  0  0  0  0  0  0  0  0
   -0.8340    7.3010  -15.4080 O   0  0  0  0  0  0  0  0  0  0  0  0
   -3.0030    7.3460  -14.9390 N   0  0  0  0  0  0  0  0  0  0  0  0
   -4.0440    8.0160  -14.3880 C   0  0  0  0  0  0  0  0  0  0  0  0
   -5.1630    7.4380  -14.4480 O   0  0  0  0  0  0  0  0  0  0  0  0
   -3.8650    9.2230  -13.8210 N   0  0  0  0  0  0  0  0  0  0  0  0
   -5.0280    9.8760  -13.2550 C   0  0  0  0  0  1  0  0  0  0  0  0
   -3.1940    6.0320  -15.5550 C   0  0  0  0  0  1  0  0  0  0  0  0
    0.7090    8.8080  -13.5940 C   0  0  0  0  0  3  0  0  0  0  0  0
    1.9210    8.4480  -14.1420 C   0  0  0  0  0  0  0  0  0  0  0  0
    2.7500    7.5980  -13.4780 N   0  0  0  0  0  0  0  0  0  0  0  0
    2.2840    8.9550  -15.3590 O   0  0  0  0  0  0  0  0  0  0  0  0
    2.3940    7.0930  -12.2710 C   0  0  0  0  0  0  0  0  0  0  0  0
    4.0200    7.2580  -14.1110 C   0  0  0  0  0  1  0  0  0  0  0  0
    3.1880    6.3050  -11.6840 O   0  0  0  0  0  0  0  0  0  0  0  0
    1.2190    7.4240  -11.7110 N   0  0  0  0  0  0  0  0  0  0  0  0
    0.3950    8.2660  -12.3640 C   0  0  0  0  0  0  0  0  0  0  0  0
    0.8670    6.8620  -10.4110 C   0  0  0  0  0  1  0  0  0  0  0  0
   -0.6860    8.5620  -11.8340 O   0  0  0  0  0  0  0  0  0  0  0  0
  2  1  1  0  0  0  0
  2  7  2  0  0  0  0
  3  2  1  0  0  0  0
  4  3  1  0  0  0  0
  4  5  1  0  0  0  0
  5  6  2  0  0  0  0
  6  7  1  0  0  0  0
  8  5  1  0  0  0  0
  9  8  1  0  0  0  0
 10 11  1  0  0  0  0
 10  9  2  0  0  0  0
 11  4  2  0  0  0  0
 11 20  1  0  0  0  0
 12 10  1  0  0  0  0
 13 12  2  0  0  0  0
 14 12  1  0  0  0  0
 14 15  1  0  0  0  0
 15 17  1  0  0  0  0
 16 15  2  0  0  0  0
 17  9  1  0  0  0  0
 17 18  1  0  0  0  0
 19 14  1  0  0  0  0
 20 28  1  0  0  0  0
 21 20  1  0  0  0  0
 21 22  1  0  0  0  0
 22 24  1  0  0  0  0
 23 21  2  0  0  0  0
 24 27  1  0  0  0  0
 24 26  2  0  0  0  0
 25 22  1  0  0  0  0
 27 29  1  0  0  0  0
 28 30  2  0  0  0  0
 28 27  1  0  0  0  0
M  END
>  <Pose>
1

>  <Score>
-4.158

$$$$
