MODEL 1
REMARK VINA RESULT:    -4.158      0.000      0.000
REMARK INTER + INTRA:          -3.966
REMARK INTER:                  -4.401
REMARK INTRA:                   0.435
REMARK UNBOUND:                 0.435
REMARK  1 active torsions:
REMARK  status: ('A' for Active; 'I' for Inactive)
REMARK    1  A    between atoms: C_11  and  C_12 
ROOT
ATOM      1 Cl   UNK d   1       2.712  13.797 -12.880  0.00  0.00    -0.084 Cl
ATOM      2  C   UNK d   1       1.169  12.966 -12.979  0.00  0.00     0.034 A 
ATOM      3  C   UNK d   1       1.067  11.727 -13.580  0.00  0.00     0.034 A 
ATOM      4  C   UNK d   1      -0.164  11.064 -13.660  0.00  0.00    -0.009 A 
ATOM      5  C   UNK d   1      -1.247  11.705 -13.115  0.00  0.00     0.085 A 
ATOM      6  C   UNK d   1      -1.139  12.963 -12.507  0.00  0.00     0.039 A 
ATOM      7  C   UNK d   1       0.077  13.608 -12.433  0.00  0.00     0.026 A 
ATOM      8  O   UNK d   1      -2.482  11.067 -13.181  0.00  0.00    -0.292 OA
ATOM      9  C   UNK d   1      -2.665   9.825 -13.767  0.00  0.00     0.166 A 
ATOM     10  C   UNK d   1      -1.569   9.178 -14.317  0.00  0.00     0.075 A 
ATOM     11  C   UNK d   1      -0.215   9.742 -14.316  0.00  0.00     0.107 A 
ATOM     12  C   UNK d   1      -1.802   7.943 -14.887  0.00  0.00     0.262 A 
ATOM     13  O   UNK d   1      -0.834   7.301 -15.408  0.00  0.00    -0.267 OA
ATOM     14  N   UNK d   1      -3.003   7.346 -14.939  0.00  0.00    -0.270 N 
ATOM     15  C   UNK d   1      -4.044   8.016 -14.388  0.00  0.00     0.332 A 
ATOM     16  O   UNK d   1      -5.163   7.438 -14.448  0.00  0.00    -0.246 OA
ATOM     17  N   UNK d   1      -3.865   9.223 -13.821  0.00  0.00    -0.283 N 
ATOM     18  C   UNK d   1      -5.028   9.876 -13.255  0.00  0.00     0.163 C 
ATOM     19  C   UNK d   1      -3.194   6.032 -15.555  0.00  0.00     0.164 C 
ENDROOT
BRANCH  11  20
ATOM     20  C   UNK d   1       0.709   8.808 -13.594  0.00  0.00     0.078 A 
ATOM     21  C   UNK d   1       1.921   8.448 -14.142  0.00  0.00     0.197 A 
ATOM     22  N   UNK d   1       2.750   7.598 -13.478  0.00  0.00    -0.281 N 
ATOM     23  O   UNK d   1       2.284   8.955 -15.359  0.00  0.00    -0.171 OA
ATOM     24  C   UNK d   1       2.394   7.093 -12.271  0.00  0.00     0.332 A 
ATOM     25  C   UNK d   1       4.020   7.258 -14.111  0.00  0.00     0.163 C 
ATOM     26  O   UNK d   1       3.188   6.305 -11.684  0.00  0.00    -0.246 OA
ATOM     27  N   UNK d   1       1.219   7.424 -11.711  0.00  0.00    -0.270 N 
ATOM     28  C   UNK d   1       0.395   8.266 -12.364  0.00  0.00     0.262 A 
ATOM     29  C   UNK d   1       0.867   6.862 -10.411  0.00  0.00     0.164 C 
ATOM     30  O   UNK d   1      -0.686   8.562 -11.834  0.00  0.00    -0.267 OA
ENDBRANCH  11  20
TORSDOF 1
ENDMDL
