MODEL 1
REMARK VINA RESULT:    -7.992      0.000      0.000
REMARK INTER + INTRA:         -10.028
REMARK INTER:                  -9.394
REMARK INTRA:                  -0.634
REMARK UNBOUND:                -0.634
REMARK  3 active torsions:
REMARK  status: ('A' for Active; 'I' for Inactive)
REMARK       I    between atoms: N_11  and  C_13 
REMARK    1  A    between atoms: C_13  and  C_15 
REMARK    2  A    between atoms: C_15  and  N_16 
REMARK    3  A    between atoms: C_19  and  C_22 
REMARK       I    between atoms: C_22  and  N_24 
ROOT
ATOM      1 Cl   UNK d   1       5.471   6.173 -13.765  0.00  0.00    -0.084 Cl
ATOM      2  C   UNK d   1       4.213   7.373 -13.935  0.00  0.00     0.034 A 
ATOM      3  C   UNK d   1       3.110   7.364 -13.111  0.00  0.00     0.035 A 
ATOM      4  C   UNK d   1       2.132   8.313 -13.259  0.00  0.00    -0.005 A 
ATOM      5  C   UNK d   1       2.262   9.292 -14.251  0.00  0.00     0.078 A 
ATOM      6  C   UNK d   1       3.369   9.308 -15.085  0.00  0.00     0.039 A 
ATOM      7  C   UNK d   1       4.322   8.343 -14.906  0.00  0.00     0.026 A 
ATOM      8  O   UNK d   1       1.367  10.314 -14.528  0.00  0.00    -0.338 OA
ATOM      9  C   UNK d   1       0.415  10.885 -13.662  0.00  0.00     0.088 C 
ATOM     10  C   UNK d   1      -0.648   9.914 -13.264  0.00  0.00     0.164 C 
ATOM     11  N   UNK d   1      -0.192   8.587 -12.980  0.00  0.00    -0.344 N 
ATOM     12  C   UNK d   1       1.007   8.174 -12.299  0.00  0.00     0.167 C 
ATOM     13  C   UNK d   1      -1.011   7.491 -13.418  0.00  0.00     0.248 C 
ATOM     14  O   UNK d   1      -0.598   6.334 -13.156  0.00  0.00    -0.271 OA
ATOM     15  C   UNK d   1       1.122  11.503 -12.466  0.00  0.00     0.066 C 
ATOM     16  C   UNK d   1       1.441  12.962 -12.741  0.00  0.00     0.170 C 
ATOM     17  O   UNK d   1       0.305  13.742 -12.841  0.00  0.00    -0.391 OA
ATOM     18  C   UNK d   1      -0.775  12.991 -13.290  0.00  0.00     0.170 C 
ATOM     19  C   UNK d   1      -0.287  12.046 -14.371  0.00  0.00     0.066 C 
ENDROOT
BRANCH  13  20
ATOM     20  C   UNK d   1      -2.266   7.708 -14.135  0.00  0.00     0.374 C 
BRANCH  20  21
ATOM     21  N   UNK d   1      -2.915   6.575 -14.687  0.00  0.00     0.097 N 
ATOM     22  C   UNK d   1      -3.393   6.829 -16.048  0.00  0.00     0.273 C 
ATOM     23  C   UNK d   1      -4.373   7.941 -15.998  0.00  0.00     0.044 C 
ATOM     24  C   UNK d   1      -5.417   7.863 -14.935  0.00  0.00     0.081 C 
ATOM     25  C   UNK d   1      -5.214   6.872 -13.858  0.00  0.00     0.044 C 
ATOM     26  C   UNK d   1      -4.002   6.023 -13.916  0.00  0.00     0.273 C 
BRANCH  24  27
ATOM     27  C   UNK d   1      -5.725   9.201 -14.375  0.00  0.00     0.219 C 
ATOM     28  O   UNK d   1      -5.071   9.622 -13.399  0.00  0.00    -0.273 OA
ATOM     29  N   UNK d   1      -6.752   9.986 -14.943  0.00  0.00    -0.370 N 
ATOM     30  H   UNK d   1      -6.428  10.811 -15.528  0.00  0.00     0.159 HD
ATOM     31  H   UNK d   1      -7.763   9.835 -14.844  0.00  0.00     0.159 HD
ENDBRANCH  24  27
ENDBRANCH  20  21
ENDBRANCH  13  20
TORSDOF 3
ENDMDL
