MODEL 1
REMARK VINA RESULT:    -9.111      0.000      0.000
REMARK INTER + INTRA:          -9.296
REMARK INTER:                 -10.709
REMARK INTRA:                   1.413
REMARK UNBOUND:                 1.413
REMARK  3 active torsions:
REMARK  status: ('A' for Active; 'I' for Inactive)
REMARK    1  A    between atoms: S_1  and  N_4 
REMARK    2  A    between atoms: S_1  and  C_23 
REMARK       I    between atoms: N_7  and  C_10 
REMARK    3  A    between atoms: C_10  and  C_12 
ROOT
ATOM      1  N   UNK d   1       1.107  13.627 -12.424  0.00  0.00    -0.303 N 
ATOM      2  C   UNK d   1       2.168  13.079 -13.212  0.00  0.00     0.155 C 
ATOM      3  C   UNK d   1       2.099  11.581 -13.348  0.00  0.00     0.146 C 
ATOM      4  N   UNK d   1       0.739  11.100 -13.440  0.00  0.00    -0.345 N 
ATOM      5  C   UNK d   1      -0.412  11.963 -13.438  0.00  0.00     0.146 C 
ATOM      6  C   UNK d   1      -0.207  13.308 -12.854  0.00  0.00     0.155 C 
ATOM      7  C   UNK d   1       0.530   9.697 -13.540  0.00  0.00     0.260 C 
ATOM      8  O   UNK d   1      -0.646   9.209 -13.625  0.00  0.00    -0.267 OA
ENDROOT
BRANCH   7   9
ATOM      9  C   UNK d   1       1.660   8.768 -13.548  0.00  0.00     0.118 A 
ATOM     10  C   UNK d   1       2.880   9.065 -14.120  0.00  0.00     0.141 A 
ATOM     11  N   UNK d   1       3.876   8.160 -14.088  0.00  0.00    -0.242 NA
ATOM     12  C   UNK d   1       3.756   6.948 -13.517  0.00  0.00     0.136 A 
ATOM     13  N   UNK d   1       2.573   6.643 -12.954  0.00  0.00    -0.273 N 
ATOM     14  C   UNK d   1       4.807   6.039 -13.504  0.00  0.00     0.051 A 
ATOM     15  C   UNK d   1       2.433   5.433 -12.376  0.00  0.00     0.102 A 
ATOM     16  C   UNK d   1       1.552   7.521 -12.965  0.00  0.00     0.270 A 
ATOM     17  C   UNK d   1       3.458   4.509 -12.348  0.00  0.00     0.018 A 
ATOM     18  C   UNK d   1       4.685   4.792 -12.917  0.00  0.00     0.005 A 
ATOM     19  O   UNK d   1       0.448   7.236 -12.440  0.00  0.00    -0.266 OA
ENDBRANCH   7   9
BRANCH   1  20
ATOM     20  S   UNK d   1       1.344  15.232 -11.939  0.00  0.00     0.267 S 
ATOM     21  O   UNK d   1       1.460  15.336 -10.467  0.00  0.00    -0.200 OA
ATOM     22  O   UNK d   1       2.605  15.754 -12.589  0.00  0.00    -0.200 OA
BRANCH  20  23
ATOM     23  C   UNK d   1      -0.024  16.205 -12.506  0.00  0.00     0.121 A 
ATOM     24  S   UNK d   1      -0.933  17.384 -11.677  0.00  0.00    -0.064 SA
ATOM     25  C   UNK d   1      -2.021  17.810 -12.919  0.00  0.00     0.075 A 
ATOM     26  C   UNK d   1      -1.635  17.007 -13.956  0.00  0.00     0.033 A 
ATOM     27 Cl   UNK d   1      -3.342  18.996 -12.912  0.00  0.00    -0.076 Cl
ATOM     28  C   UNK d   1      -0.607  16.179 -13.747  0.00  0.00     0.035 A 
ENDBRANCH  20  23
ENDBRANCH   1  20
TORSDOF 3
ENDMDL
