MODEL 1
REMARK VINA RESULT:    -9.300      0.000      0.000
REMARK INTER + INTRA:         -10.208
REMARK INTER:                 -10.931
REMARK INTRA:                   0.723
REMARK UNBOUND:                 0.723
REMARK  3 active torsions:
REMARK  status: ('A' for Active; 'I' for Inactive)
REMARK    1  A    between atoms: S_1  and  N_4 
REMARK    2  A    between atoms: S_1  and  C_16 
REMARK       I    between atoms: N_7  and  C_10 
REMARK    3  A    between atoms: C_10  and  C_12 
ROOT
ATOM      1  S   UNK d   1       1.903  10.966 -13.136  0.00  0.00     0.262 S 
ATOM      2  O   UNK d   1       2.631  11.015 -14.471  0.00  0.00    -0.200 OA
ATOM      3  O   UNK d   1       2.938  10.386 -12.174  0.00  0.00    -0.200 OA
ENDROOT
BRANCH   1   4
ATOM      4  N   UNK d   1       0.577   9.946 -13.196  0.00  0.00    -0.304 N 
ATOM      5  C   UNK d   1       0.803   8.574 -13.326  0.00  0.00     0.155 C 
ATOM      6  C   UNK d   1      -0.464   7.737 -13.097  0.00  0.00     0.146 C 
ATOM      7  N   UNK d   1      -1.622   8.371 -13.651  0.00  0.00    -0.349 N 
ATOM      8  C   UNK d   1      -1.795   9.790 -13.426  0.00  0.00     0.146 C 
ATOM      9  C   UNK d   1      -2.554   7.630 -14.388  0.00  0.00     0.224 C 
ATOM     10  C   UNK d   1      -0.541  10.465 -13.947  0.00  0.00     0.155 C 
ATOM     11  O   UNK d   1      -2.382   6.398 -14.571  0.00  0.00    -0.273 OA
BRANCH   9  12
ATOM     12  C   UNK d   1      -3.779   8.249 -14.986  0.00  0.00     0.078 C 
ATOM     13  C   UNK d   1      -4.972   8.246 -14.061  0.00  0.00     0.014 C 
ATOM     14  C   UNK d   1      -5.357   6.900 -14.669  0.00  0.00     0.002 C 
ATOM     15  C   UNK d   1      -4.510   7.284 -15.885  0.00  0.00     0.014 C 
ENDBRANCH   9  12
ENDBRANCH   1   4
BRANCH   1  16
ATOM     16  C   UNK d   1       1.606  12.611 -12.617  0.00  0.00     0.104 A 
ATOM     17  C   UNK d   1       0.347  13.186 -12.880  0.00  0.00     0.066 A 
ATOM     18  C   UNK d   1       0.073  14.494 -12.549  0.00  0.00     0.098 A 
ATOM     19  C   UNK d   1       1.000  15.315 -11.950  0.00  0.00     0.070 A 
ATOM     20  O   UNK d   1      -1.183  15.039 -12.820  0.00  0.00    -0.335 OA
ATOM     21  C   UNK d   1       2.228  14.759 -11.690  0.00  0.00     0.058 A 
ATOM     22  N   UNK d   1       0.656  16.653 -11.638  0.00  0.00    -0.323 N 
ATOM     23  C   UNK d   1       2.527  13.428 -12.017  0.00  0.00     0.059 A 
ATOM     24 Cl   UNK d   1       4.088  12.773 -11.585  0.00  0.00    -0.083 Cl
ATOM     25  C   UNK d   1      -0.627  17.194 -11.924  0.00  0.00     0.251 C 
ATOM     26  H   UNK d   1       1.365  17.272 -11.182  0.00  0.00     0.169 HD
ATOM     27  O   UNK d   1      -1.075  18.258 -11.453  0.00  0.00    -0.270 OA
ATOM     28  C   UNK d   1      -1.476  16.408 -12.858  0.00  0.00     0.217 C 
ATOM     29  C   UNK d   1      -1.297  16.892 -14.280  0.00  0.00     0.050 C 
ENDBRANCH   1  16
TORSDOF 3
ENDMDL
