MODEL 1
REMARK VINA RESULT:    -8.774      0.000      0.000
REMARK INTER + INTRA:          -9.823
REMARK INTER:                  -9.800
REMARK INTRA:                  -0.024
REMARK UNBOUND:                -0.024
REMARK  2 active torsions:
REMARK  status: ('A' for Active; 'I' for Inactive)
REMARK    1  A    between atoms: C_4  and  N_8 
REMARK    2  A    between atoms: C_14  and  C_18 
ROOT
ATOM      1  N   UNK d   1       2.152  11.836 -12.984  0.00  0.00    -0.246 N 
ATOM      2  C   UNK d   1       3.446  11.247 -13.034  0.00  0.00     0.268 C 
ATOM      3  O   UNK d   1       4.420  11.631 -12.364  0.00  0.00    -0.269 OA
ATOM      4  C   UNK d   1       3.434  10.131 -13.995  0.00  0.00     0.285 C 
ATOM      5  O   UNK d   1       4.186   9.036 -13.713  0.00  0.00    -0.260 OA
ATOM      6  N   UNK d   1       3.408   8.003 -14.204  0.00  0.00    -0.264 N 
ATOM      7  C   UNK d   1       2.040   8.304 -13.919  0.00  0.00     0.083 C 
ATOM      8  C   UNK d   1       2.038   9.625 -13.780  0.00  0.00     0.080 C 
ATOM      9  C   UNK d   1       1.248  10.805 -13.461  0.00  0.00     0.266 C 
ATOM     10  O   UNK d   1      -0.001  10.866 -13.597  0.00  0.00    -0.267 OA
ATOM     11  H   UNK d   1       3.791   7.179 -14.695  0.00  0.00     0.194 HD
ENDROOT
BRANCH   1  12
ATOM     12  C   UNK d   1       1.725  13.126 -12.563  0.00  0.00     0.047 A 
ATOM     13  C   UNK d   1       0.611  13.738 -13.088  0.00  0.00     0.054 A 
ATOM     14  C   UNK d   1       0.268  15.000 -12.612  0.00  0.00     0.036 A 
ATOM     15 Cl   UNK d   1      -1.145  15.838 -13.248  0.00  0.00    -0.084 Cl
ATOM     16  C   UNK d   1       1.033  15.612 -11.641  0.00  0.00     0.024 A 
ATOM     17  C   UNK d   1       2.153  14.993 -11.112  0.00  0.00     0.004 A 
ATOM     18  C   UNK d   1       2.495  13.758 -11.573  0.00  0.00     0.030 A 
ENDBRANCH   1  12
BRANCH   7  19
ATOM     19  C   UNK d   1       0.907   7.403 -13.852  0.00  0.00     0.036 A 
ATOM     20  C   UNK d   1      -0.191   7.537 -14.706  0.00  0.00     0.127 A 
ATOM     21  N   UNK d   1      -1.098   6.590 -14.426  0.00  0.00    -0.284 N 
ATOM     22  N   UNK d   1      -0.624   5.851 -13.421  0.00  0.00    -0.177 NA
ATOM     23  C   UNK d   1      -2.393   6.342 -15.052  0.00  0.00     0.179 C 
ATOM     24  C   UNK d   1       0.589   6.335 -13.065  0.00  0.00     0.065 A 
ATOM     25  C   UNK d   1       1.443   5.802 -11.974  0.00  0.00     0.073 C 
ENDBRANCH   7  19
TORSDOF 2
ENDMDL
