MODEL 1
REMARK VINA RESULT:    -7.774      0.000      0.000
REMARK INTER + INTRA:          -7.722
REMARK INTER:                  -8.683
REMARK INTRA:                   0.961
REMARK UNBOUND:                 0.961
REMARK  2 active torsions:
REMARK  status: ('A' for Active; 'I' for Inactive)
REMARK    1  A    between atoms: C_4  and  C_10 
REMARK    2  A    between atoms: C_5  and  O_8 
ROOT
ATOM      1  C   UNK d   1      -0.198   7.301 -12.900  0.00  0.00     0.188 A 
ATOM      2  N   UNK d   1       1.091   7.005 -13.045  0.00  0.00    -0.107 N 
ATOM      3  C   UNK d   1       1.345   5.767 -12.529  0.00  0.00     0.735 A 
ATOM      4  N   UNK d   1       0.152   5.324 -12.069  0.00  0.00     0.045 NA
ATOM      5  N   UNK d   1      -0.772   6.222 -12.282  0.00  0.00    -0.114 NA
ATOM      6  N   UNK d   1       2.642   5.453 -12.670  0.00  0.00    -0.174 N 
ATOM      7  C   UNK d   1       3.265   6.458 -13.274  0.00  0.00     0.165 A 
ATOM      8  C   UNK d   1       2.288   7.439 -13.513  0.00  0.00     0.170 A 
ATOM      9  N   UNK d   1       2.633   8.576 -14.131  0.00  0.00    -0.286 N 
ATOM     10  C   UNK d   1       3.932   8.734 -14.501  0.00  0.00     0.332 A 
ATOM     11  O   UNK d   1       4.231   9.823 -15.083  0.00  0.00    -0.246 OA
ATOM     12  N   UNK d   1       4.894   7.838 -14.296  0.00  0.00    -0.269 N 
ATOM     13  C   UNK d   1       4.555   6.703 -13.684  0.00  0.00     0.282 A 
ATOM     14  O   UNK d   1       5.426   5.821 -13.465  0.00  0.00    -0.265 OA
ATOM     15  C   UNK d   1       6.281   8.087 -14.728  0.00  0.00     0.164 C 
ATOM     16  C   UNK d   1       1.680   9.602 -14.440  0.00  0.00     0.163 C 
ATOM     17  C   UNK d   1       3.283   4.226 -12.243  0.00  0.00     0.176 C 
ENDROOT
BRANCH   1  18
ATOM     18  C   UNK d   1      -1.002   8.461 -13.268  0.00  0.00     0.047 A 
ATOM     19  C   UNK d   1      -0.558   9.751 -12.989  0.00  0.00     0.037 A 
ATOM     20  C   UNK d   1      -1.285  10.831 -13.407  0.00  0.00     0.012 A 
ATOM     21 Br   UNK d   1      -0.687  12.615 -13.030  0.00  0.00    -0.051 Br
ATOM     22  C   UNK d   1      -2.471  10.720 -14.111  0.00  0.00     0.022 A 
ATOM     23  C   UNK d   1      -2.901   9.431 -14.382  0.00  0.00     0.039 A 
ATOM     24  C   UNK d   1      -2.184   8.347 -13.970  0.00  0.00     0.082 A 
BRANCH  24  25
ATOM     25  O   UNK d   1      -2.612   7.028 -14.240  0.00  0.00    -0.355 OA
ATOM     26  C   UNK d   1      -2.924   6.623 -15.560  0.00  0.00     0.210 C 
ENDBRANCH  24  25
ENDBRANCH   1  18
TORSDOF 2
ENDMDL
