/Users/jonathanwahrer/Desktop/Msc/3_Semester/Drug_Design_Praktikum/waehrer_HTS_screening/HTS_experiment/out/docking_results/vina_output/6q9y/2017_docked.pdbqt
 OpenBabel03222220343D

 24 27  0  0  0  0  0  0  0  0999 V2000
   -5.3370   20.9340  -10.4210 Cl  0  0  0  0  0  0  0  0  0  0  0  0
   -4.0330   19.8620  -10.9040 C   0  0  0  0  0  0  0  0  0  0  0  0
   -4.0740   19.1280  -12.0730 C   0  0  0  0  0  2  0  0  0  0  0  0
   -3.0590   18.3010  -12.4380 N   0  0  0  0  0  0  0  0  0  0  0  0
   -1.9530   18.1430  -11.6910 C   0  0  0  0  0  0  0  0  0  0  0  0
   -0.9420   17.3260  -12.0430 N   0  0  0  0  0  0  0  0  0  0  0  0
   -0.9740   16.6070  -13.1790 C   0  0  0  0  0  0  0  0  0  0  0  0
   -2.1190   16.7650  -13.9620 C   0  0  0  0  0  2  0  0  0  0  0  0
   -3.1480   17.6040  -13.5910 C   0  0  0  0  0  0  0  0  0  0  0  0
   -4.1900   17.7450  -14.3080 O   0  0  0  0  0  0  0  0  0  0  0  0
   -1.8850   18.8700  -10.5100 C   0  0  0  0  0  3  0  0  0  0  0  0
   -2.9060   19.7150  -10.1230 C   0  0  0  0  0  3  0  0  0  0  0  0
    0.1150   15.6930  -13.6110 C   0  0  0  0  0  2  0  0  0  0  0  0
    0.5920   14.9720  -12.4890 N   0  0  0  0  0  0  0  0  0  0  0  0
    1.8610   15.3190  -11.9700 C   0  0  0  0  0  2  0  0  0  0  0  0
    2.6000   14.1720  -11.3000 C   0  0  0  0  0  2  0  0  0  0  0  0
    2.5490   13.0380  -12.2600 C   0  0  0  0  0  0  0  0  0  0  0  0
    1.3100   12.7640  -12.8000 C   0  0  0  0  0  0  0  0  0  0  0  0
    3.6830   12.3250  -12.5750 C   0  0  0  0  0  3  0  0  0  0  0  0
    1.2140   11.7500  -13.6730 N   0  0  0  0  0  0  0  0  0  0  0  0
    0.1750   13.6160  -12.3690 C   0  0  0  0  0  2  0  0  0  0  0  0
    2.3200   11.0170  -14.0100 C   0  0  0  0  0  0  0  0  0  0  0  0
    3.5200   11.3160  -13.4590 N   0  0  0  0  0  0  0  0  0  0  0  0
    2.2260    9.8920  -14.9760 C   0  0  0  0  0  1  0  0  0  0  0  0
  2  1  1  0  0  0  0
  2 12  2  0  0  0  0
  3  2  1  0  0  0  0
  4  3  1  0  0  0  0
  4  5  1  0  0  0  0
  5 11  2  0  0  0  0
  6  5  1  0  0  0  0
  7  6  2  0  0  0  0
  8  9  1  0  0  0  0
  8  7  1  0  0  0  0
  9  4  1  0  0  0  0
 10  9  2  0  0  0  0
 11 12  1  0  0  0  0
 13  7  1  0  0  0  0
 13 14  1  0  0  0  0
 14 21  1  0  0  0  0
 14 15  1  0  0  0  0
 15 16  1  0  0  0  0
 17 16  1  0  0  0  0
 18 21  1  0  0  0  0
 18 17  2  0  0  0  0
 19 17  1  0  0  0  0
 20 18  1  0  0  0  0
 22 20  2  0  0  0  0
 22 23  1  0  0  0  0
 23 19  2  0  0  0  0
 24 22  1  0  0  0  0
M  END
>  <Pose>
1

>  <Score>
-10.475

$$$$
