MODEL 1
REMARK VINA RESULT:    -7.203      0.000      0.000
REMARK INTER + INTRA:          -6.441
REMARK INTER:                  -8.045
REMARK INTRA:                   1.605
REMARK UNBOUND:                 1.605
REMARK  2 active torsions:
REMARK  status: ('A' for Active; 'I' for Inactive)
REMARK    1  A    between atoms: C_4  and  C_10 
REMARK    2  A    between atoms: C_5  and  O_8 
ROOT
ATOM      1  C   UNK d   1       1.811   9.553 -14.644  0.00  0.00     0.048 C 
ATOM      2  C   UNK d   1       2.652   8.358 -14.116  0.00  0.00     0.178 C 
ATOM      3  C   UNK d   1       2.183   8.411 -12.649  0.00  0.00     0.233 C 
ATOM      4  O   UNK d   1       1.806   7.438 -12.022  0.00  0.00    -0.273 OA
ATOM      5  N   UNK d   1       2.260   9.763 -12.140  0.00  0.00    -0.334 N 
ATOM      6  C   UNK d   1       3.152  10.645 -12.915  0.00  0.00     0.105 C 
ATOM      7  N   UNK d   1       4.356   9.824 -13.100  0.00  0.00    -0.334 N 
ATOM      8  C   UNK d   1       4.100   8.702 -13.968  0.00  0.00     0.233 C 
ATOM      9  O   UNK d   1       4.995   8.061 -14.549  0.00  0.00    -0.273 OA
ATOM     10  C   UNK d   1       2.525  10.758 -14.332  0.00  0.00     0.064 C 
ATOM     11  C   UNK d   1       3.414  11.960 -12.326  0.00  0.00     0.063 C 
ATOM     12  H   UNK d   1       1.735  10.098 -11.328  0.00  0.00     0.165 HD
ATOM     13  H   UNK d   1       5.257  10.036 -12.657  0.00  0.00     0.165 HD
ENDROOT
BRANCH   1  14
ATOM     14  C   UNK d   1       0.478   9.259 -14.131  0.00  0.00    -0.018 A 
ATOM     15  C   UNK d   1       0.016   7.946 -14.286  0.00  0.00     0.029 A 
ATOM     16  C   UNK d   1      -1.279   7.585 -13.909  0.00  0.00     0.011 A 
ATOM     17 Br   UNK d   1      -1.875   5.794 -14.146  0.00  0.00    -0.051 Br
ATOM     18  C   UNK d   1      -2.138   8.492 -13.376  0.00  0.00     0.022 A 
ATOM     19  C   UNK d   1      -1.704   9.778 -13.219  0.00  0.00     0.038 A 
ATOM     20  C   UNK d   1      -0.424  10.156 -13.585  0.00  0.00     0.074 A 
BRANCH  20  21
ATOM     21  O   UNK d   1       0.045  11.430 -13.430  0.00  0.00    -0.355 OA
ATOM     22  C   UNK d   1      -0.851  12.481 -13.189  0.00  0.00     0.210 C 
ENDBRANCH  20  21
ENDBRANCH   1  14
TORSDOF 2
ENDMDL
