MODEL 1
REMARK VINA RESULT:    -5.295      0.000      0.000
REMARK INTER + INTRA:          -6.635
REMARK INTER:                  -6.687
REMARK INTRA:                   0.052
REMARK UNBOUND:                 0.052
REMARK  5 active torsions:
REMARK  status: ('A' for Active; 'I' for Inactive)
REMARK    1  A    between atoms: C_11  and  C_23 
REMARK    2  A    between atoms: N_16  and  C_19 
REMARK    3  A    between atoms: C_19  and  C_20 
REMARK    4  A    between atoms: C_20  and  O_21 
REMARK    5  A    between atoms: C_23  and  O_24 
ROOT
ATOM      1 Cl   UNK d   1      -2.611   3.817 -12.889  0.00  0.00    -0.082 Cl
ATOM      2  C   UNK d   1      -2.310   5.473 -13.410  0.00  0.00     0.061 A 
ATOM      3  C   UNK d   1      -1.132   6.102 -12.967  0.00  0.00     0.066 A 
ATOM      4  C   UNK d   1      -0.900   7.381 -13.377  0.00  0.00     0.020 A 
ATOM      5  C   UNK d   1      -1.788   8.060 -14.199  0.00  0.00     0.019 A 
ATOM      6  C   UNK d   1      -2.933   7.420 -14.615  0.00  0.00    -0.060 A 
ATOM      7  C   UNK d   1      -3.204   6.126 -14.229  0.00  0.00     0.033 A 
ATOM      8  C   UNK d   1      -3.878   8.180 -15.505  0.00  0.00     0.048 C 
ATOM      9  C   UNK d   1       0.458   7.762 -12.880  0.00  0.00     0.279 C 
ATOM     10  N   UNK d   1       0.588   9.100 -12.459  0.00  0.00     0.116 N 
ATOM     11  C   UNK d   1       0.964   9.864 -13.614  0.00  0.00     0.264 C 
ATOM     12  C   UNK d   1       1.310   8.944 -14.713  0.00  0.00     0.130 C 
ATOM     13  C   UNK d   1       1.481   7.621 -13.962  0.00  0.00     0.147 C 
ATOM     14  C   UNK d   1       2.850   7.745 -13.496  0.00  0.00     0.235 C 
ATOM     15  O   UNK d   1       3.432   7.418 -12.438  0.00  0.00    -0.272 OA
ATOM     16  N   UNK d   1       3.554   8.395 -14.587  0.00  0.00    -0.286 N 
ATOM     17  C   UNK d   1       2.605   9.115 -15.360  0.00  0.00     0.233 C 
ATOM     18  O   UNK d   1       2.861   9.758 -16.387  0.00  0.00    -0.272 OA
ATOM     19  C   UNK d   1       0.735   6.759 -11.854  0.00  0.00     0.267 C 
ATOM     20  O   UNK d   1       1.584   6.741 -10.908  0.00  0.00    -0.270 OA
ATOM     21  N   UNK d   1      -0.145   5.675 -12.036  0.00  0.00    -0.323 N 
ATOM     22  H   UNK d   1      -0.282   9.478 -12.013  0.00  0.00     0.318 HD
ATOM     23  H   UNK d   1      -0.131   4.718 -11.601  0.00  0.00     0.169 HD
ENDROOT
BRANCH  11  24
ATOM     24  C   UNK d   1       2.003  10.920 -13.290  0.00  0.00     0.148 C 
ATOM     25  C   UNK d   1       2.614  10.620 -11.961  0.00  0.00     0.041 C 
BRANCH  24  26
ATOM     26  O   UNK d   1       1.607  12.208 -13.498  0.00  0.00    -0.394 OA
ATOM     27  H   UNK d   1       1.341  12.696 -12.678  0.00  0.00     0.210 HD
ENDBRANCH  24  26
ENDBRANCH  11  24
BRANCH  16  28
ATOM     28  C   UNK d   1       4.960   8.345 -14.889  0.00  0.00     0.161 C 
BRANCH  28  29
ATOM     29  C   UNK d   1       5.710   7.218 -14.283  0.00  0.00     0.187 C 
BRANCH  29  30
ATOM     30  O   UNK d   1       7.056   7.357 -14.129  0.00  0.00    -0.394 OA
ATOM     31  C   UNK d   1       7.522   7.201 -12.840  0.00  0.00     0.201 C 
ENDBRANCH  29  30
ENDBRANCH  28  29
ENDBRANCH  16  28
TORSDOF 5
ENDMDL
