MODEL 1
REMARK VINA RESULT:    -9.171      0.000      0.000
REMARK INTER + INTRA:         -12.472
REMARK INTER:                 -11.852
REMARK INTRA:                  -0.621
REMARK UNBOUND:                -0.621
REMARK  5 active torsions:
REMARK  status: ('A' for Active; 'I' for Inactive)
REMARK    1  A    between atoms: C_4  and  C_10 
REMARK    2  A    between atoms: C_5  and  O_8 
REMARK    3  A    between atoms: C_18  and  C_19 
REMARK    4  A    between atoms: C_19  and  N_20 
REMARK    5  A    between atoms: N_23  and  C_26 
ROOT
ATOM      1  C   UNK d   1      -0.756  12.268 -13.545  0.00  0.00     0.055 C 
ATOM      2  C   UNK d   1      -0.862  10.980 -13.504  0.00  0.00     0.128 A 
ATOM      3  O   UNK d   1       0.054  10.100 -12.998  0.00  0.00    -0.305 OA
ATOM      4  C   UNK d   1      -0.438   8.803 -13.134  0.00  0.00     0.101 A 
ATOM      5  C   UNK d   1      -1.661   8.778 -13.724  0.00  0.00     0.051 A 
ATOM      6  C   UNK d   1      -2.338   7.572 -13.937  0.00  0.00     0.021 A 
ATOM      7  C   UNK d   1      -1.808   6.363 -13.568  0.00  0.00     0.041 A 
ATOM      8  C   UNK d   1      -0.539   6.440 -12.967  0.00  0.00     0.118 A 
ATOM      9  C   UNK d   1       0.139   7.589 -12.743  0.00  0.00     0.039 A 
ATOM     10  O   UNK d   1      -0.031   5.170 -12.623  0.00  0.00    -0.191 OA
ATOM     11  C   UNK d   1      -1.989  10.183 -13.991  0.00  0.00     0.218 A 
ATOM     12  O   UNK d   1      -3.047  10.615 -14.535  0.00  0.00    -0.284 OA
ENDROOT
BRANCH   1  13
ATOM     13  C   UNK d   1       0.358  13.073 -13.063  0.00  0.00     0.001 A 
ATOM     14  C   UNK d   1       1.586  12.499 -12.856  0.00  0.00     0.033 A 
ATOM     15  C   UNK d   1       2.657  13.260 -12.353  0.00  0.00     0.011 A 
ATOM     16 Br   UNK d   1       4.374  12.507 -12.060  0.00  0.00    -0.051 Br
ATOM     17  C   UNK d   1       2.460  14.593 -12.068  0.00  0.00     0.022 A 
ATOM     18  C   UNK d   1       1.244  15.161 -12.269  0.00  0.00     0.039 A 
ATOM     19  C   UNK d   1       0.175  14.405 -12.772  0.00  0.00     0.078 A 
BRANCH  19  20
ATOM     20  O   UNK d   1      -1.058  14.913 -12.993  0.00  0.00    -0.355 OA
ATOM     21  C   UNK d   1      -1.413  16.246 -13.121  0.00  0.00     0.210 C 
ENDBRANCH  19  20
ENDBRANCH   1  13
BRANCH   9  22
ATOM     22  C   UNK d   1       1.491   7.669 -12.159  0.00  0.00     0.279 C 
BRANCH  22  23
ATOM     23  N   UNK d   1       2.513   7.465 -13.158  0.00  0.00    -0.064 N 
ATOM     24  C   UNK d   1       3.147   6.177 -12.938  0.00  0.00     0.254 C 
ATOM     25  C   UNK d   1       4.601   6.155 -13.152  0.00  0.00     0.144 C 
ATOM     26  N   UNK d   1       5.109   7.060 -14.132  0.00  0.00    -0.410 N 
ATOM     27  C   UNK d   1       4.243   8.014 -14.659  0.00  0.00     0.144 C 
ATOM     28  C   UNK d   1       3.298   8.534 -13.543  0.00  0.00     0.254 C 
ATOM     29  H   UNK d   1       1.876   7.258 -14.057  0.00  0.00     0.280 HD
BRANCH  26  30
ATOM     30  C   UNK d   1       6.485   7.374 -14.057  0.00  0.00     0.112 C 
ATOM     31  C   UNK d   1       7.197   6.862 -12.855  0.00  0.00     0.026 C 
ENDBRANCH  26  30
ENDBRANCH  22  23
ENDBRANCH   9  22
TORSDOF 5
ENDMDL
