MODEL 1
REMARK VINA RESULT:    -9.469      0.000      0.000
REMARK INTER + INTRA:         -12.737
REMARK INTER:                 -12.237
REMARK INTRA:                  -0.499
REMARK UNBOUND:                -0.499
REMARK  5 active torsions:
REMARK  status: ('A' for Active; 'I' for Inactive)
REMARK    1  A    between atoms: S_1  and  N_4 
REMARK    2  A    between atoms: S_1  and  C_24 
REMARK       I    between atoms: N_7  and  C_10 
REMARK    3  A    between atoms: C_10  and  C_12 
REMARK    4  A    between atoms: C_12  and  S_13 
REMARK    5  A    between atoms: S_13  and  C_14 
ROOT
ATOM      1  N   UNK d   1       2.227  10.179 -13.717  0.00  0.00    -0.203 NA
ATOM      2  C   UNK d   1       2.623  10.674 -12.414  0.00  0.00     0.127 C 
ATOM      3  C   UNK d   1       2.688  12.196 -12.422  0.00  0.00     0.141 C 
ATOM      4  N   UNK d   1       1.353  12.697 -12.748  0.00  0.00    -0.349 N 
ATOM      5  C   UNK d   1       0.431  11.703 -13.212  0.00  0.00     0.141 C 
ATOM      6  C   UNK d   1       1.122  10.895 -14.278  0.00  0.00     0.127 C 
ATOM      7  C   UNK d   1       1.072  14.056 -12.578  0.00  0.00     0.229 C 
ATOM      8  O   UNK d   1       2.008  14.835 -12.128  0.00  0.00    -0.273 OA
ENDROOT
BRANCH   7   9
ATOM      9  C   UNK d   1      -0.182  14.769 -12.841  0.00  0.00     0.183 C 
BRANCH   9  10
ATOM     10  S   UNK d   1      -0.085  16.543 -12.635  0.00  0.00    -0.100 SA
BRANCH  10  11
ATOM     11  C   UNK d   1      -1.660  17.376 -12.715  0.00  0.00     0.110 A 
ATOM     12  N   UNK d   1      -2.487  17.189 -13.735  0.00  0.00    -0.234 NA
ATOM     13  C   UNK d   1      -3.684  17.774 -13.834  0.00  0.00     0.236 A 
ATOM     14  N   UNK d   1      -4.077  18.614 -12.826  0.00  0.00    -0.222 NA
ATOM     15  C   UNK d   1      -3.267  18.823 -11.784  0.00  0.00     0.161 A 
ATOM     16  N   UNK d   1      -3.420  19.590 -10.665  0.00  0.00    -0.256 N 
ATOM     17  C   UNK d   1      -2.029  18.215 -11.686  0.00  0.00     0.066 A 
ATOM     18  N   UNK d   1      -2.339  19.461  -9.923  0.00  0.00    -0.182 NA
ATOM     19  C   UNK d   1      -4.569  20.388 -10.352  0.00  0.00     0.182 C 
ATOM     20  C   UNK d   1      -1.470  18.634 -10.508  0.00  0.00     0.157 A 
ENDBRANCH  10  11
ENDBRANCH   9  10
ENDBRANCH   7   9
BRANCH   1  21
ATOM     21  S   UNK d   1       1.893   8.495 -13.630  0.00  0.00     0.243 S 
ATOM     22  O   UNK d   1       1.122   8.267 -12.351  0.00  0.00    -0.206 OA
ATOM     23  O   UNK d   1       1.024   8.035 -14.752  0.00  0.00    -0.206 OA
BRANCH  21  24
ATOM     24  C   UNK d   1       3.395   7.600 -13.593  0.00  0.00     0.074 A 
ATOM     25  C   UNK d   1       4.591   8.073 -14.085  0.00  0.00     0.026 A 
ATOM     26  C   UNK d   1       5.737   7.317 -14.035  0.00  0.00     0.025 A 
ATOM     27  C   UNK d   1       5.708   6.040 -13.475  0.00  0.00     0.034 A 
ATOM     28  C   UNK d   1       4.500   5.547 -12.971  0.00  0.00     0.025 A 
ATOM     29 Cl   UNK d   1       7.171   5.093 -13.417  0.00  0.00    -0.084 Cl
ATOM     30  C   UNK d   1       3.364   6.324 -13.033  0.00  0.00     0.026 A 
ENDBRANCH  21  24
ENDBRANCH   1  21
TORSDOF 5
ENDMDL
