MODEL 1
REMARK VINA RESULT:    -8.341      0.000      0.000
REMARK INTER + INTRA:         -11.240
REMARK INTER:                 -10.778
REMARK INTRA:                  -0.462
REMARK UNBOUND:                -0.462
REMARK  5 active torsions:
REMARK  status: ('A' for Active; 'I' for Inactive)
REMARK    1  A    between atoms: C_3  and  N_18 
REMARK    2  A    between atoms: C_5  and  N_8 
REMARK    3  A    between atoms: N_8  and  C_9 
REMARK    4  A    between atoms: C_9  and  C_10 
REMARK       I    between atoms: C_10  and  N_12 
REMARK    5  A    between atoms: C_22  and  C_23 
ROOT
ATOM      1 Cl   UNK d   1      -0.690   5.566 -14.280  0.00  0.00    -0.082 Cl
ATOM      2  C   UNK d   1      -1.765   6.929 -14.262  0.00  0.00     0.063 A 
ATOM      3  C   UNK d   1      -1.462   8.064 -13.555  0.00  0.00     0.086 A 
ATOM      4  C   UNK d   1      -2.357   9.110 -13.580  0.00  0.00     0.062 A 
ATOM      5  C   UNK d   1      -3.543   9.077 -14.280  0.00  0.00     0.030 A 
ATOM      6  C   UNK d   1      -3.832   7.930 -14.984  0.00  0.00     0.031 A 
ATOM      7  C   UNK d   1      -2.943   6.877 -14.965  0.00  0.00     0.028 A 
ENDROOT
BRANCH   5   8
ATOM      8  N   UNK d   1      -4.466  10.195 -14.288  0.00  0.00    -0.382 N 
ATOM      9  H   UNK d   1      -4.169  11.128 -14.590  0.00  0.00     0.160 HD
BRANCH   8  10
ATOM     10  C   UNK d   1      -5.793   9.924 -13.857  0.00  0.00     0.207 C 
BRANCH  10  11
ATOM     11  C   UNK d   1      -6.872  10.000 -14.837  0.00  0.00     0.171 C 
ATOM     12  O   UNK d   1      -6.709   9.157 -15.827  0.00  0.00    -0.175 OA
ATOM     13  N   UNK d   1      -8.001  10.777 -14.908  0.00  0.00    -0.358 N 
ATOM     14  C   UNK d   1      -8.461  11.695 -13.916  0.00  0.00     0.151 C 
ATOM     15  C   UNK d   1      -8.849  10.732 -16.119  0.00  0.00     0.151 C 
ATOM     16  C   UNK d   1      -8.548  13.081 -14.547  0.00  0.00     0.187 C 
ATOM     17  O   UNK d   1      -9.537  12.958 -15.548  0.00  0.00    -0.388 OA
ATOM     18  C   UNK d   1      -9.025  12.187 -16.569  0.00  0.00     0.187 C 
ENDBRANCH  10  11
ENDBRANCH   8  10
ENDBRANCH   5   8
BRANCH   3  19
ATOM     19  N   UNK d   1      -0.282   8.193 -12.802  0.00  0.00    -0.196 N 
ATOM     20  N   UNK d   1      -0.076   7.626 -11.631  0.00  0.00    -0.039 NA
ATOM     21  N   UNK d   1       1.129   7.927 -11.186  0.00  0.00    -0.023 NA
ATOM     22  N   UNK d   1       1.681   8.698 -12.101  0.00  0.00    -0.113 NA
ATOM     23  C   UNK d   1       0.804   8.878 -13.134  0.00  0.00     0.158 A 
BRANCH  23  24
ATOM     24  C   UNK d   1       1.123   9.698 -14.302  0.00  0.00     0.059 A 
ATOM     25  C   UNK d   1       2.377  10.407 -14.527  0.00  0.00     0.013 A 
ATOM     26  C   UNK d   1       2.175   9.074 -15.266  0.00  0.00     0.013 A 
ENDBRANCH  23  24
ENDBRANCH   3  19
TORSDOF 5
ENDMDL
