MODEL 1
REMARK VINA RESULT:    -8.305      0.000      0.000
REMARK INTER + INTRA:         -11.754
REMARK INTER:                 -11.218
REMARK INTRA:                  -0.535
REMARK UNBOUND:                -0.535
REMARK  8 active torsions:
REMARK  status: ('A' for Active; 'I' for Inactive)
REMARK    1  A    between atoms: C_5  and  C_8 
REMARK    2  A    between atoms: C_15  and  O_17 
REMARK    3  A    between atoms: O_17  and  C_18 
REMARK    4  A    between atoms: C_20  and  C_27 
REMARK    5  A    between atoms: C_21  and  O_26 
REMARK    6  A    between atoms: C_22  and  O_25 
REMARK    7  A    between atoms: C_23  and  O_24 
REMARK    8  A    between atoms: C_27  and  O_28 
ROOT
ATOM      1  C   UNK d   1       5.136   5.735 -13.255  0.00  0.00     0.048 A 
ATOM      2  C   UNK d   1       3.880   5.469 -12.717  0.00  0.00     0.159 A 
ATOM      3  O   UNK d   1       2.888   6.326 -12.784  0.00  0.00    -0.321 OA
ATOM      4  C   UNK d   1       2.999   7.500 -13.359  0.00  0.00     0.091 A 
ATOM      5  C   UNK d   1       4.205   7.852 -13.919  0.00  0.00     0.049 A 
ATOM      6  C   UNK d   1       4.275   9.089 -14.511  0.00  0.00     0.021 A 
ATOM      7  C   UNK d   1       3.219   9.963 -14.562  0.00  0.00     0.038 A 
ATOM      8  C   UNK d   1       1.975   9.622 -13.995  0.00  0.00     0.074 A 
ATOM      9  C   UNK d   1       1.912   8.382 -13.404  0.00  0.00     0.075 A 
ATOM     10  C   UNK d   1       5.267   6.975 -13.867  0.00  0.00     0.197 A 
ATOM     11  O   UNK d   1       6.372   7.297 -14.380  0.00  0.00    -0.286 OA
ENDROOT
BRANCH   8  12
ATOM     12  O   UNK d   1       0.937  10.528 -14.068  0.00  0.00    -0.318 OA
BRANCH  12  13
ATOM     13  C   UNK d   1       0.953  11.819 -13.629  0.00  0.00     0.298 C 
ATOM     14  O   UNK d   1       1.717  11.999 -12.445  0.00  0.00    -0.348 OA
ATOM     15  C   UNK d   1       2.070  13.331 -12.434  0.00  0.00     0.179 C 
ATOM     16  C   UNK d   1       0.916  14.278 -12.318  0.00  0.00     0.180 C 
ATOM     17  C   UNK d   1      -0.245  13.884 -13.198  0.00  0.00     0.183 C 
ATOM     18  C   UNK d   1      -0.412  12.380 -13.272  0.00  0.00     0.205 C 
BRANCH  15  19
ATOM     19  C   UNK d   1       3.106  13.658 -11.389  0.00  0.00     0.198 C 
BRANCH  19  20
ATOM     20  O   UNK d   1       2.710  14.714 -10.572  0.00  0.00    -0.398 OA
ATOM     21  H   UNK d   1       3.061  14.486  -9.655  0.00  0.00     0.209 HD
ENDBRANCH  19  20
ENDBRANCH  15  19
BRANCH  16  22
ATOM     22  O   UNK d   1       1.359  15.529 -12.777  0.00  0.00    -0.390 OA
ATOM     23  H   UNK d   1       2.233  15.760 -12.374  0.00  0.00     0.210 HD
ENDBRANCH  16  22
BRANCH  17  24
ATOM     24  O   UNK d   1      -1.398  14.524 -12.761  0.00  0.00    -0.390 OA
ATOM     25  H   UNK d   1      -1.518  14.451 -11.765  0.00  0.00     0.210 HD
ENDBRANCH  17  24
BRANCH  18  26
ATOM     26  O   UNK d   1      -1.355  12.101 -14.254  0.00  0.00    -0.388 OA
ATOM     27  H   UNK d   1      -1.089  12.494 -15.118  0.00  0.00     0.210 HD
ENDBRANCH  18  26
ENDBRANCH  12  13
ENDBRANCH   8  12
BRANCH   1  28
ATOM     28  C   UNK d   1       6.216   4.774 -13.169  0.00  0.00    -0.020 A 
ATOM     29  C   UNK d   1       6.123   3.488 -13.661  0.00  0.00     0.014 A 
ATOM     30  C   UNK d   1       7.199   2.615 -13.546  0.00  0.00     0.020 A 
ATOM     31  C   UNK d   1       8.382   2.985 -12.949  0.00  0.00     0.011 A 
ATOM     32 Br   UNK d   1       9.854   1.772 -12.799  0.00  0.00    -0.051 Br
ATOM     33  C   UNK d   1       8.476   4.277 -12.454  0.00  0.00     0.020 A 
ATOM     34  C   UNK d   1       7.407   5.143 -12.569  0.00  0.00     0.014 A 
ENDBRANCH   1  28
TORSDOF 8
ENDMDL
