MODEL 1
REMARK VINA RESULT:    -8.806      0.000      0.000
REMARK INTER + INTRA:         -12.047
REMARK INTER:                 -11.379
REMARK INTRA:                  -0.668
REMARK UNBOUND:                -0.668
REMARK  5 active torsions:
REMARK  status: ('A' for Active; 'I' for Inactive)
REMARK    1  A    between atoms: S_1  and  N_4 
REMARK    2  A    between atoms: S_1  and  C_22 
REMARK    3  A    between atoms: N_7  and  C_10 
REMARK    4  A    between atoms: C_10  and  C_11 
REMARK    5  A    between atoms: C_11  and  N_12 
ROOT
ATOM      1  N   UNK d   1       1.153  15.857 -12.108  0.00  0.00    -0.203 NA
ATOM      2  C   UNK d   1       2.228  15.889 -13.032  0.00  0.00     0.138 C 
ATOM      3  C   UNK d   1       3.333  14.888 -12.846  0.00  0.00     0.288 C 
ATOM      4  N   UNK d   1       2.791  13.688 -12.301  0.00  0.00     0.092 N 
ATOM      5  C   UNK d   1       2.326  14.028 -10.956  0.00  0.00     0.288 C 
ATOM      6  C   UNK d   1       1.134  14.900 -11.083  0.00  0.00     0.138 C 
ENDROOT
BRANCH   4   7
ATOM      7  C   UNK d   1       3.680  12.577 -12.273  0.00  0.00     0.294 C 
BRANCH   7   8
ATOM      8  C   UNK d   1       3.430  11.633 -13.399  0.00  0.00     0.186 C 
BRANCH   8   9
ATOM      9  N   UNK d   1       2.071  11.134 -13.410  0.00  0.00    -0.216 N 
ATOM     10  N   UNK d   1       0.957  11.829 -13.633  0.00  0.00    -0.149 NA
ATOM     11  C   UNK d   1      -0.115  11.026 -13.576  0.00  0.00     0.158 A 
ATOM     12  N   UNK d   1       0.331   9.792 -13.310  0.00  0.00    -0.256 N 
ATOM     13  C   UNK d   1      -1.479  11.199 -13.725  0.00  0.00     0.053 A 
ATOM     14  C   UNK d   1      -0.524   8.747 -13.189  0.00  0.00     0.103 A 
ATOM     15  C   UNK d   1       1.690   9.871 -13.208  0.00  0.00     0.350 A 
ATOM     16  C   UNK d   1      -1.885   8.894 -13.332  0.00  0.00     0.018 A 
ATOM     17  C   UNK d   1      -2.372  10.157 -13.607  0.00  0.00     0.005 A 
ATOM     18  O   UNK d   1       2.388   8.860 -12.959  0.00  0.00    -0.244 OA
ENDBRANCH   8   9
ENDBRANCH   7   8
ENDBRANCH   4   7
BRANCH   1  19
ATOM     19  S   UNK d   1      -0.337  15.822 -12.973  0.00  0.00     0.250 S 
ATOM     20  O   UNK d   1      -0.037  15.971 -14.448  0.00  0.00    -0.205 OA
ATOM     21  O   UNK d   1      -1.055  14.538 -12.783  0.00  0.00    -0.205 OA
BRANCH  19  22
ATOM     22  C   UNK d   1      -1.396  17.127 -12.418  0.00  0.00     0.116 A 
ATOM     23  S   UNK d   1      -1.253  18.123 -11.042  0.00  0.00    -0.070 SA
ATOM     24  C   UNK d   1      -2.643  19.082 -11.250  0.00  0.00     0.052 A 
ATOM     25  C   UNK d   1      -3.189  18.591 -12.405  0.00  0.00     0.028 A 
ATOM     26 Br   UNK d   1      -3.315  20.516 -10.151  0.00  0.00    -0.043 Br
ATOM     27  C   UNK d   1      -2.546  17.583 -13.007  0.00  0.00     0.034 A 
ENDBRANCH  19  22
ENDBRANCH   1  19
TORSDOF 5
ENDMDL
