/Users/jonathanwahrer/Desktop/Msc/3_Semester/Drug_Design_Praktikum/waehrer_HTS_screening/HTS_experiment/out/docking_results/vina_output/6q9y/2087_docked.pdbqt
 OpenBabel03222220373D

 32 35  0  0  0  0  0  0  0  0999 V2000
    2.2250    8.2610  -14.1990 N   0  0  0  0  0  0  0  0  0  0  0  0
    3.5770    8.0240  -14.2050 C   0  0  0  0  0  0  0  0  0  0  0  0
    3.8400    6.8390  -13.5480 C   0  0  0  0  0  0  0  0  0  0  0  0
    2.6470    6.3820  -13.1540 N   0  0  0  0  0  0  0  0  0  0  0  0
    1.6580    7.2470  -13.5460 C   0  0  0  0  0  0  0  0  0  0  0  0
    5.1020    6.3860  -13.4110 N   0  0  0  0  0  0  0  0  0  0  0  0
    6.0980    7.1180  -13.9300 C   0  0  0  0  0  0  0  0  0  0  0  0
    7.2700    6.6850  -13.7970 O   0  0  0  0  0  0  0  0  0  0  0  0
    5.8830    8.2710  -14.5720 N   0  0  0  0  0  0  0  0  0  0  0  0
    4.6170    8.7620  -14.7300 C   0  0  0  0  0  0  0  0  0  0  0  0
    4.4490    9.8480  -15.3340 O   0  0  0  0  0  0  0  0  0  0  0  0
    5.3330    5.1320  -12.7180 C   0  0  0  0  0  1  0  0  0  0  0  0
    6.6770    8.8340  -14.9700 H   0  0  0  0  0  0  0  0  0  0  0  0
    0.3190    7.0520  -13.1730 N   0  0  0  0  0  0  0  0  0  0  0  0
   -0.6080    6.0600  -13.5860 C   0  0  0  0  0  2  0  0  0  0  0  0
   -2.0570    6.5540  -13.5160 C   0  0  0  0  0  2  0  0  0  0  0  0
   -2.2290    7.9460  -13.5940 N   0  0  0  0  0  0  0  0  0  0  0  0
   -1.4020    8.7510  -12.7840 C   0  0  0  0  0  2  0  0  0  0  0  0
   -0.2340    8.0090  -12.1750 C   0  0  0  0  0  2  0  0  0  0  0  0
   -2.8570    8.5200  -14.7120 C   0  0  0  0  0  2  0  0  0  0  0  0
   -4.2160    8.0610  -15.0360 C   0  0  0  0  0  0  0  0  0  0  0  0
   -4.4750    7.3740  -16.0600 O   0  0  0  0  0  0  0  0  0  0  0  0
   -5.2650    8.3850  -14.2030 O   0  0  0  0  0  0  0  0  0  0  0  0
   -5.6070    9.7090  -13.8970 C   0  0  0  0  0  1  0  0  0  0  0  0
    1.6050    9.4000  -14.8280 C   0  0  0  0  0  2  0  0  0  0  0  0
    1.7060   10.6340  -13.9500 C   0  0  0  0  0  0  0  0  0  0  0  0
    0.6710   11.5210  -14.0040 C   0  0  0  0  0  3  0  0  0  0  0  0
    0.7050   12.6520  -13.1880 C   0  0  0  0  0  3  0  0  0  0  0  0
    1.7710   12.8660  -12.3420 C   0  0  0  0  0  0  0  0  0  0  0  0
    1.8400   14.4040  -11.2170 Br  0  0  0  0  0  0  0  0  0  0  0  0
    2.8050   11.9450  -12.3140 C   0  0  0  0  0  3  0  0  0  0  0  0
    2.7690   10.8320  -13.1170 C   0  0  0  0  0  3  0  0  0  0  0  0
  1  5  1  0  0  0  0
  2  1  1  0  0  0  0
  2  3  2  0  0  0  0
  3  6  1  0  0  0  0
  3  4  1  0  0  0  0
  5 14  1  0  0  0  0
  5  4  2  0  0  0  0
  6 12  1  0  0  0  0
  7  8  2  0  0  0  0
  7  6  1  0  0  0  0
  9  7  1  0  0  0  0
 10  9  1  0  0  0  0
 10  2  1  0  0  0  0
 11 10  2  0  0  0  0
 13  9  1  0  0  0  0
 14 19  1  0  0  0  0
 15 16  1  0  0  0  0
 15 14  1  0  0  0  0
 17 16  1  0  0  0  0
 17 18  1  0  0  0  0
 18 19  1  0  0  0  0
 20 17  1  0  0  0  0
 21 20  1  0  0  0  0
 21 23  1  0  0  0  0
 22 21  2  0  0  0  0
 23 24  1  0  0  0  0
 25  1  1  0  0  0  0
 25 26  1  0  0  0  0
 26 32  1  0  0  0  0
 27 26  2  0  0  0  0
 27 28  1  0  0  0  0
 28 29  2  0  0  0  0
 29 31  1  0  0  0  0
 29 30  1  0  0  0  0
 32 31  2  0  0  0  0
M  END
>  <Pose>
1

>  <Score>
-7.417

$$$$
