MODEL 1
REMARK VINA RESULT:    -7.925      0.000      0.000
REMARK INTER + INTRA:          -9.173
REMARK INTER:                  -9.314
REMARK INTRA:                   0.141
REMARK UNBOUND:                 0.141
REMARK  3 active torsions:
REMARK  status: ('A' for Active; 'I' for Inactive)
REMARK    1  A    between atoms: C_5  and  C_8 
REMARK    2  A    between atoms: C_8  and  N_9 
REMARK    3  A    between atoms: C_13  and  N_14 
ROOT
ATOM      1  N   UNK d   1       1.669   8.176 -12.839  0.00  0.00    -0.168 N 
ATOM      2  C   UNK d   1       2.227   6.965 -12.695  0.00  0.00     0.167 A 
ATOM      3  C   UNK d   1       3.477   6.976 -13.273  0.00  0.00     0.185 A 
ATOM      4  N   UNK d   1       3.641   8.199 -13.753  0.00  0.00    -0.044 NA
ATOM      5  C   UNK d   1       2.560   8.952 -13.504  0.00  0.00     0.707 A 
ATOM      6  N   UNK d   1       4.307   5.904 -13.288  0.00  0.00    -0.286 N 
ATOM      7  C   UNK d   1       3.862   4.783 -12.698  0.00  0.00     0.330 A 
ATOM      8  O   UNK d   1       4.643   3.799 -12.723  0.00  0.00    -0.246 OA
ATOM      9  N   UNK d   1       2.654   4.710 -12.113  0.00  0.00    -0.273 N 
ATOM     10  C   UNK d   1       1.822   5.767 -12.093  0.00  0.00     0.280 A 
ATOM     11  O   UNK d   1       0.704   5.733 -11.561  0.00  0.00    -0.265 OA
ATOM     12  C   UNK d   1       5.603   6.010 -13.924  0.00  0.00     0.163 C 
ATOM     13  H   UNK d   1       2.317   3.836 -11.655  0.00  0.00     0.173 HD
ENDROOT
BRANCH   1  14
ATOM     14  C   UNK d   1       0.362   8.583 -12.385  0.00  0.00     0.186 C 
BRANCH  14  15
ATOM     15  C   UNK d   1      -0.777   8.273 -13.225  0.00  0.00    -0.039 A 
ATOM     16  C   UNK d   1      -0.956   7.143 -13.961  0.00  0.00     0.010 A 
ATOM     17  C   UNK d   1      -2.099   6.892 -14.719  0.00  0.00     0.019 A 
ATOM     18  C   UNK d   1      -3.121   7.836 -14.735  0.00  0.00     0.011 A 
ATOM     19 Br   UNK d   1      -4.724   7.567 -15.731  0.00  0.00    -0.051 Br
ATOM     20  C   UNK d   1      -2.984   8.993 -14.005  0.00  0.00     0.019 A 
ATOM     21  C   UNK d   1      -1.838   9.199 -13.273  0.00  0.00     0.010 A 
ENDBRANCH  14  15
ENDBRANCH   1  14
BRANCH   5  22
ATOM     22  N   UNK d   1       2.364  10.324 -13.870  0.00  0.00    -0.213 N 
ATOM     23  C   UNK d   1       3.478  11.028 -14.467  0.00  0.00     0.160 C 
ATOM     24  C   UNK d   1       3.894  12.136 -13.511  0.00  0.00     0.136 C 
ATOM     25  N   UNK d   1       2.845  12.535 -12.633  0.00  0.00    -0.414 N 
ATOM     26  C   UNK d   1       1.521  12.426 -13.149  0.00  0.00     0.136 C 
ATOM     27  C   UNK d   1       3.021  12.298 -11.251  0.00  0.00     0.143 C 
ATOM     28  C   UNK d   1       1.146  11.064 -13.674  0.00  0.00     0.160 C 
ENDBRANCH   5  22
TORSDOF 3
ENDMDL
