/Users/jonathanwahrer/Desktop/Msc/3_Semester/Drug_Design_Praktikum/waehrer_HTS_screening/HTS_experiment/out/docking_results/vina_output/6q9y/2091_docked.pdbqt
 OpenBabel03222220373D

 28 31  0  0  0  0  0  0  0  0999 V2000
    1.6690    8.1760  -12.8390 N   0  0  0  0  0  0  0  0  0  0  0  0
    2.2270    6.9650  -12.6950 C   0  0  0  0  0  0  0  0  0  0  0  0
    3.4770    6.9760  -13.2730 C   0  0  0  0  0  0  0  0  0  0  0  0
    3.6410    8.1990  -13.7530 N   0  0  0  0  0  0  0  0  0  0  0  0
    2.5600    8.9520  -13.5040 C   0  0  0  0  0  0  0  0  0  0  0  0
    4.3070    5.9040  -13.2880 N   0  0  0  0  0  0  0  0  0  0  0  0
    3.8620    4.7830  -12.6980 C   0  0  0  0  0  0  0  0  0  0  0  0
    4.6430    3.7990  -12.7230 O   0  0  0  0  0  0  0  0  0  0  0  0
    2.6540    4.7100  -12.1130 N   0  0  0  0  0  0  0  0  0  0  0  0
    1.8220    5.7670  -12.0930 C   0  0  0  0  0  0  0  0  0  0  0  0
    0.7040    5.7330  -11.5610 O   0  0  0  0  0  0  0  0  0  0  0  0
    5.6030    6.0100  -13.9240 C   0  0  0  0  0  1  0  0  0  0  0  0
    2.3170    3.8360  -11.6550 H   0  0  0  0  0  0  0  0  0  0  0  0
    0.3620    8.5830  -12.3850 C   0  0  0  0  0  2  0  0  0  0  0  0
   -0.7770    8.2730  -13.2250 C   0  0  0  0  0  0  0  0  0  0  0  0
   -0.9560    7.1430  -13.9610 C   0  0  0  0  0  3  0  0  0  0  0  0
   -2.0990    6.8920  -14.7190 C   0  0  0  0  0  3  0  0  0  0  0  0
   -3.1210    7.8360  -14.7350 C   0  0  0  0  0  0  0  0  0  0  0  0
   -4.7240    7.5670  -15.7310 Br  0  0  0  0  0  0  0  0  0  0  0  0
   -2.9840    8.9930  -14.0050 C   0  0  0  0  0  3  0  0  0  0  0  0
   -1.8380    9.1990  -13.2730 C   0  0  0  0  0  3  0  0  0  0  0  0
    2.3640   10.3240  -13.8700 N   0  0  0  0  0  0  0  0  0  0  0  0
    3.4780   11.0280  -14.4670 C   0  0  0  0  0  2  0  0  0  0  0  0
    3.8940   12.1360  -13.5110 C   0  0  0  0  0  2  0  0  0  0  0  0
    2.8450   12.5350  -12.6330 N   0  0  0  0  0  0  0  0  0  0  0  0
    1.5210   12.4260  -13.1490 C   0  0  0  0  0  2  0  0  0  0  0  0
    3.0210   12.2980  -11.2510 C   0  0  0  0  0  1  0  0  0  0  0  0
    1.1460   11.0640  -13.6740 C   0  0  0  0  0  2  0  0  0  0  0  0
  1  2  1  0  0  0  0
  1 14  1  0  0  0  0
  2 10  1  0  0  0  0
  3  2  2  0  0  0  0
  4  5  2  0  0  0  0
  4  3  1  0  0  0  0
  5  1  1  0  0  0  0
  6  3  1  0  0  0  0
  6  7  1  0  0  0  0
  7  9  1  0  0  0  0
  8  7  2  0  0  0  0
  9 10  1  0  0  0  0
  9 13  1  0  0  0  0
 10 11  2  0  0  0  0
 12  6  1  0  0  0  0
 15 14  1  0  0  0  0
 16 15  2  0  0  0  0
 17 16  1  0  0  0  0
 18 17  2  0  0  0  0
 18 20  1  0  0  0  0
 19 18  1  0  0  0  0
 20 21  2  0  0  0  0
 21 15  1  0  0  0  0
 22 28  1  0  0  0  0
 22  5  1  0  0  0  0
 23 22  1  0  0  0  0
 23 24  1  0  0  0  0
 24 25  1  0  0  0  0
 25 27  1  0  0  0  0
 26 25  1  0  0  0  0
 28 26  1  0  0  0  0
M  END
>  <Pose>
1

>  <Score>
-7.925

$$$$
