/Users/jonathanwahrer/Desktop/Msc/3_Semester/Drug_Design_Praktikum/waehrer_HTS_screening/HTS_experiment/out/docking_results/vina_output/6q9y/2103_docked.pdbqt
 OpenBabel03222220373D

 29 32  0  0  0  0  0  0  0  0999 V2000
   -2.1680    9.4170  -13.5350 C   0  0  0  0  0  0  0  0  0  0  0  0
   -1.8400    8.0670  -13.9160 C   0  0  0  0  0  0  0  0  0  0  0  0
   -0.5620    7.7360  -14.1820 C   0  0  0  0  0  0  0  0  0  0  0  0
    0.4690    8.6900  -14.0950 C   0  0  0  0  0  0  0  0  0  0  0  0
    0.1740    9.9820  -13.7350 C   0  0  0  0  0  0  0  0  0  0  0  0
   -1.1550   10.3390  -13.4580 C   0  0  0  0  0  0  0  0  0  0  0  0
   -1.5060   11.7520  -13.1600 C   0  0  0  0  0  2  0  0  0  0  0  0
   -0.4370   12.7510  -13.5900 C   0  0  0  0  0  2  0  0  0  0  0  0
    0.8840   12.3240  -13.1910 N   0  0  0  0  0  0  0  0  0  0  0  0
    1.2200   10.9910  -13.6000 C   0  0  0  0  0  0  0  0  0  0  0  0
    2.4270   10.7650  -13.8230 O   0  0  0  0  0  0  0  0  0  0  0  0
    1.7890   13.1710  -12.4430 C   0  0  0  0  0  1  0  0  0  0  0  0
   -0.5490    6.3750  -14.5220 O   0  0  0  0  0  0  0  0  0  0  0  0
   -1.7990    5.7930  -14.2190 C   0  0  0  0  0  2  0  0  0  0  0  0
   -2.6320    6.9270  -14.0830 O   0  0  0  0  0  0  0  0  0  0  0  0
   -3.5850    9.5630  -13.2810 C   0  0  0  0  0  2  0  0  0  0  0  0
   -4.5470    9.9470  -14.2190 N   0  0  0  0  0  0  0  0  0  0  0  0
   -5.9320   10.0350  -13.7110 C   0  0  0  0  0  0  0  0  0  0  0  0
   -6.1420    9.7710  -12.5160 O   0  0  0  0  0  0  0  0  0  0  0  0
   -4.4930   10.2260  -15.2090 H   0  0  0  0  0  0  0  0  0  0  0  0
   -7.0140   10.4200  -14.5860 C   0  0  0  0  0  0  0  0  0  0  0  0
   -7.2870    9.6050  -15.6790 C   0  0  0  0  0  3  0  0  0  0  0  0
   -8.2710    9.8960  -16.5420 N   0  0  0  0  0  0  0  0  0  0  0  0
   -9.0120   10.9870  -16.3550 C   0  0  0  0  0  3  0  0  0  0  0  0
   -8.7890   11.8180  -15.3040 C   0  0  0  0  0  0  0  0  0  0  0  0
   -9.8630   13.3780  -15.0550 Br  0  0  0  0  0  0  0  0  0  0  0  0
   -7.7740   11.5500  -14.3860 C   0  0  0  0  0  3  0  0  0  0  0  0
    1.7200    8.2800  -14.3750 O   0  0  0  0  0  0  0  0  0  0  0  0
    2.5520    8.4030  -13.9100 H   0  0  0  0  0  0  0  0  0  0  0  0
  1  6  1  0  0  0  0
  1 16  1  0  0  0  0
  2  1  2  0  0  0  0
  3  4  2  0  0  0  0
  3  2  1  0  0  0  0
  4  5  1  0  0  0  0
  5 10  1  0  0  0  0
  5  6  2  0  0  0  0
  6  7  1  0  0  0  0
  8  9  1  0  0  0  0
  8  7  1  0  0  0  0
  9 12  1  0  0  0  0
 10  9  1  0  0  0  0
 11 10  2  0  0  0  0
 13 14  1  0  0  0  0
 13  3  1  0  0  0  0
 14 15  1  0  0  0  0
 15  2  1  0  0  0  0
 17 18  1  0  0  0  0
 17 16  1  0  0  0  0
 18 19  2  0  0  0  0
 20 17  1  0  0  0  0
 21 27  1  0  0  0  0
 21 18  1  0  0  0  0
 22 21  2  0  0  0  0
 23 24  2  0  0  0  0
 23 22  1  0  0  0  0
 24 25  1  0  0  0  0
 25 26  1  0  0  0  0
 25 27  2  0  0  0  0
 28  4  1  0  0  0  0
 28 29  1  0  0  0  0
M  END
>  <Pose>
1

>  <Score>
-9.455

$$$$
