MODEL 1
REMARK VINA RESULT:    -9.455      0.000      0.000
REMARK INTER + INTRA:         -11.857
REMARK INTER:                 -11.389
REMARK INTRA:                  -0.468
REMARK UNBOUND:                -0.468
REMARK  4 active torsions:
REMARK  status: ('A' for Active; 'I' for Inactive)
REMARK    1  A    between atoms: C_6  and  C_8 
REMARK       I    between atoms: C_8  and  N_10 
REMARK    2  A    between atoms: N_10  and  C_11 
REMARK    3  A    between atoms: C_11  and  C_12 
REMARK    4  A    between atoms: C_15  and  O_24 
ROOT
ATOM      1  C   UNK d   1      -2.168   9.417 -13.535  0.00  0.00     0.003 A 
ATOM      2  C   UNK d   1      -1.840   8.067 -13.916  0.00  0.00     0.116 A 
ATOM      3  C   UNK d   1      -0.562   7.736 -14.182  0.00  0.00     0.139 A 
ATOM      4  C   UNK d   1       0.469   8.690 -14.095  0.00  0.00     0.118 A 
ATOM      5  C   UNK d   1       0.174   9.982 -13.735  0.00  0.00     0.075 A 
ATOM      6  C   UNK d   1      -1.155  10.339 -13.458  0.00  0.00    -0.027 A 
ATOM      7  C   UNK d   1      -1.506  11.752 -13.160  0.00  0.00     0.060 C 
ATOM      8  C   UNK d   1      -0.437  12.751 -13.590  0.00  0.00     0.130 C 
ATOM      9  N   UNK d   1       0.884  12.324 -13.191  0.00  0.00    -0.352 N 
ATOM     10  C   UNK d   1       1.220  10.991 -13.600  0.00  0.00     0.256 C 
ATOM     11  O   UNK d   1       2.427  10.765 -13.823  0.00  0.00    -0.267 OA
ATOM     12  C   UNK d   1       1.789  13.171 -12.443  0.00  0.00     0.152 C 
ATOM     13  O   UNK d   1      -0.549   6.375 -14.522  0.00  0.00    -0.320 OA
ATOM     14  C   UNK d   1      -1.799   5.793 -14.219  0.00  0.00     0.352 C 
ATOM     15  O   UNK d   1      -2.632   6.927 -14.083  0.00  0.00    -0.322 OA
ENDROOT
BRANCH   1  16
ATOM     16  C   UNK d   1      -3.585   9.563 -13.281  0.00  0.00     0.165 C 
BRANCH  16  17
ATOM     17  N   UNK d   1      -4.547   9.947 -14.219  0.00  0.00    -0.352 N 
ATOM     18  C   UNK d   1      -5.932  10.035 -13.711  0.00  0.00     0.253 C 
ATOM     19  O   UNK d   1      -6.142   9.771 -12.516  0.00  0.00    -0.268 OA
ATOM     20  H   UNK d   1      -4.493  10.226 -15.209  0.00  0.00     0.163 HD
BRANCH  18  21
ATOM     21  C   UNK d   1      -7.014  10.420 -14.586  0.00  0.00     0.050 A 
ATOM     22  C   UNK d   1      -7.287   9.605 -15.679  0.00  0.00     0.133 A 
ATOM     23  N   UNK d   1      -8.271   9.896 -16.542  0.00  0.00    -0.271 NA
ATOM     24  C   UNK d   1      -9.012  10.987 -16.355  0.00  0.00     0.135 A 
ATOM     25  C   UNK d   1      -8.789  11.818 -15.304  0.00  0.00     0.029 A 
ATOM     26 Br   UNK d   1      -9.863  13.378 -15.055  0.00  0.00    -0.050 Br
ATOM     27  C   UNK d   1      -7.774  11.550 -14.386  0.00  0.00     0.039 A 
ENDBRANCH  18  21
ENDBRANCH  16  17
ENDBRANCH   1  16
BRANCH   4  28
ATOM     28  O   UNK d   1       1.720   8.280 -14.375  0.00  0.00    -0.357 OA
ATOM     29  H   UNK d   1       2.552   8.403 -13.910  0.00  0.00     0.217 HD
ENDBRANCH   4  28
TORSDOF 4
ENDMDL
