/Users/jonathanwahrer/Desktop/Msc/3_Semester/Drug_Design_Praktikum/waehrer_HTS_screening/HTS_experiment/out/docking_results/vina_output/6q9y/2105_docked.pdbqt
 OpenBabel03222220373D

 29 32  0  0  1  0  0  0  0  0999 V2000
    5.3130    7.6320  -13.1340 Cl  0  0  0  0  0  0  0  0  0  0  0  0
    3.9220    8.0870  -14.0970 C   0  0  0  0  0  0  0  0  0  0  0  0
    2.6530    8.1540  -13.5240 C   0  0  0  0  0  0  0  0  0  0  0  0
    1.5450    8.5030  -14.2390 C   0  0  0  0  0  0  0  0  0  0  0  0
    1.7420    8.7950  -15.5820 C   0  0  0  0  0  3  0  0  0  0  0  0
    2.9880    8.7360  -16.1660 C   0  0  0  0  0  3  0  0  0  0  0  0
    4.0940    8.3800  -15.4270 C   0  0  0  0  0  3  0  0  0  0  0  0
    0.3690    8.4780  -13.3460 C   0  0  2  0  0  0  0  0  0  0  0  0
   -0.6180    7.4380  -13.8140 C   0  0  0  0  0  0  0  0  0  0  0  0
   -1.8650    7.7030  -14.0900 C   0  0  0  0  0  0  0  0  0  0  0  0
   -2.3970    9.0200  -13.9700 N   0  0  0  0  0  0  0  0  0  0  0  0
   -1.5370   10.0580  -13.5360 C   0  0  0  0  0  0  0  0  0  0  0  0
   -0.2800    9.8030  -13.2540 C   0  0  0  0  0  0  0  0  0  0  0  0
    0.5700   10.9000  -12.8120 C   0  0  0  0  0  0  0  0  0  0  0  0
    1.2580   11.7620  -12.4630 N   0  0  0  0  0  0  0  0  0  0  0  0
   -2.5350    6.4570  -14.5140 C   0  0  0  0  0  0  0  0  0  0  0  0
   -1.5750    5.4760  -14.4560 O   0  0  0  0  0  0  0  0  0  0  0  0
   -0.3830    6.0170  -14.0330 C   0  0  0  0  0  0  0  0  0  0  0  0
    0.7350    5.4170  -13.8570 O   0  0  0  0  0  0  0  0  0  0  0  0
   -3.1320    6.6620  -15.8890 C   0  0  0  0  0  1  0  0  0  0  0  0
   -3.6680    6.0770  -13.5780 C   0  0  0  0  0  1  0  0  0  0  0  0
    0.9140    8.0740  -12.0290 C   0  0  0  0  0  0  0  0  0  0  0  0
    0.2510    7.9180  -10.9420 O   0  0  0  0  0  0  0  0  0  0  0  0
    2.3040    7.8850  -12.1770 N   0  0  0  0  0  0  0  0  0  0  0  0
   -3.3920    9.2380  -14.1900 H   0  0  0  0  0  0  0  0  0  0  0  0
    2.9490    7.5910  -11.3810 H   0  0  0  0  0  0  0  0  0  0  0  0
   -1.9990   11.4050  -13.3900 N   0  0  0  0  0  0  0  0  0  0  0  0
   -1.8210   11.9310  -12.5250 H   0  0  0  0  0  0  0  0  0  0  0  0
   -2.5120   11.8330  -14.1700 H   0  0  0  0  0  0  0  0  0  0  0  0
  2  3  1  0  0  0  0
  2  1  1  0  0  0  0
  3 24  1  0  0  0  0
  4  3  2  0  0  0  0
  5  4  1  0  0  0  0
  6  5  2  0  0  0  0
  6  7  1  0  0  0  0
  7  2  2  0  0  0  0
  8  4  1  6  0  0  0
  8 13  1  0  0  0  0
  8 22  1  0  0  0  0
  9  8  1  0  0  0  0
 10 11  1  0  0  0  0
 10  9  2  0  0  0  0
 11 12  1  0  0  0  0
 12 27  1  0  0  0  0
 12 13  2  0  0  0  0
 13 14  1  0  0  0  0
 14 15  3  0  0  0  0
 16 17  1  0  0  0  0
 16 10  1  0  0  0  0
 16 21  1  0  0  0  0
 17 18  1  0  0  0  0
 18 19  2  0  0  0  0
 18  9  1  0  0  0  0
 20 16  1  0  0  0  0
 22 23  2  0  0  0  0
 24 22  1  0  0  0  0
 24 26  1  0  0  0  0
 25 11  1  0  0  0  0
 27 28  1  0  0  0  0
 29 27  1  0  0  0  0
M  END
>  <Pose>
1

>  <Score>
-4.824

$$$$
