MODEL 1
REMARK VINA RESULT:    -4.824      0.000      0.000
REMARK INTER + INTRA:          -4.965
REMARK INTER:                  -4.965
REMARK INTRA:                   0.000
REMARK UNBOUND:                 0.000
REMARK  1 active torsions:
REMARK  status: ('A' for Active; 'I' for Inactive)
REMARK    1  A    between atoms: C_12  and  N_16 
ROOT
ATOM      1 Cl   UNK d   1       5.313   7.632 -13.134  0.00  0.00    -0.082 Cl
ATOM      2  C   UNK d   1       3.922   8.087 -14.097  0.00  0.00     0.061 A 
ATOM      3  C   UNK d   1       2.653   8.154 -13.524  0.00  0.00     0.065 A 
ATOM      4  C   UNK d   1       1.545   8.503 -14.239  0.00  0.00    -0.002 A 
ATOM      5  C   UNK d   1       1.742   8.795 -15.582  0.00  0.00     0.011 A 
ATOM      6  C   UNK d   1       2.988   8.736 -16.166  0.00  0.00     0.002 A 
ATOM      7  C   UNK d   1       4.094   8.380 -15.427  0.00  0.00     0.026 A 
ATOM      8  C   UNK d   1       0.369   8.478 -13.346  0.00  0.00     0.146 A 
ATOM      9  C   UNK d   1      -0.618   7.438 -13.814  0.00  0.00     0.071 A 
ATOM     10  C   UNK d   1      -1.865   7.703 -14.090  0.00  0.00     0.060 A 
ATOM     11  N   UNK d   1      -2.397   9.020 -13.970  0.00  0.00    -0.342 N 
ATOM     12  C   UNK d   1      -1.537  10.058 -13.536  0.00  0.00     0.118 A 
ATOM     13  C   UNK d   1      -0.280   9.803 -13.254  0.00  0.00     0.093 A 
ATOM     14  C   UNK d   1       0.570  10.900 -12.812  0.00  0.00     0.101 C 
ATOM     15  N   UNK d   1       1.258  11.762 -12.463  0.00  0.00    -0.191 NA
ATOM     16  C   UNK d   1      -2.535   6.457 -14.514  0.00  0.00     0.106 A 
ATOM     17  O   UNK d   1      -1.575   5.476 -14.456  0.00  0.00    -0.301 OA
ATOM     18  C   UNK d   1      -0.383   6.017 -14.033  0.00  0.00     0.294 A 
ATOM     19  O   UNK d   1       0.735   5.417 -13.857  0.00  0.00    -0.259 OA
ATOM     20  C   UNK d   1      -3.132   6.662 -15.889  0.00  0.00     0.053 C 
ATOM     21  C   UNK d   1      -3.668   6.077 -13.578  0.00  0.00     0.053 C 
ATOM     22  C   UNK d   1       0.914   8.074 -12.029  0.00  0.00     0.246 A 
ATOM     23  O   UNK d   1       0.251   7.918 -10.942  0.00  0.00    -0.271 OA
ATOM     24  N   UNK d   1       2.304   7.885 -12.177  0.00  0.00    -0.324 N 
ATOM     25  H   UNK d   1      -3.392   9.238 -14.190  0.00  0.00     0.167 HD
ATOM     26  H   UNK d   1       2.949   7.591 -11.381  0.00  0.00     0.169 HD
ENDROOT
BRANCH  12  27
ATOM     27  N   UNK d   1      -1.999  11.405 -13.390  0.00  0.00    -0.384 N 
ATOM     28  H   UNK d   1      -1.821  11.931 -12.525  0.00  0.00     0.157 HD
ATOM     29  H   UNK d   1      -2.512  11.833 -14.170  0.00  0.00     0.157 HD
ENDBRANCH  12  27
TORSDOF 1
ENDMDL
