/Users/jonathanwahrer/Desktop/Msc/3_Semester/Drug_Design_Praktikum/waehrer_HTS_screening/HTS_experiment/out/docking_results/vina_output/6q9y/2109_docked.pdbqt
 OpenBabel03222220373D

 21 24  0  0  1  0  0  0  0  0999 V2000
    0.8580    8.5750  -13.5290 N   0  0  0  0  0  0  0  0  0  0  0  0
    1.9270    8.6890  -14.4800 C   0  0  0  0  0  0  0  0  0  0  0  0
    1.8080    8.7100  -15.7300 O   0  0  0  0  0  0  0  0  0  0  0  0
    3.2240    8.7800  -13.7720 C   0  0  1  0  0  3  0  0  0  0  0  0
    3.9910    9.8590  -14.1960 O   0  0  0  0  0  0  0  0  0  0  0  0
    3.3690   10.9700  -13.8380 N   0  0  1  0  0  0  0  0  0  0  0  0
    2.5220   10.7500  -12.7500 C   0  0  1  0  0  3  0  0  0  0  0  0
    2.7670    9.2800  -12.4050 C   0  0  1  0  0  3  0  0  0  0  0  0
    1.4890    8.5440  -12.2490 C   0  0  0  0  0  0  0  0  0  0  0  0
    0.9990    7.9820  -11.2240 O   0  0  0  0  0  0  0  0  0  0  0  0
    2.6040   11.6330  -11.5790 C   0  0  0  0  0  2  0  0  0  0  0  0
    3.5450   12.7710  -11.6310 C   0  0  0  0  0  2  0  0  0  0  0  0
    3.6160   13.2810  -13.0530 C   0  0  0  0  0  2  0  0  0  0  0  0
    4.1400   12.1420  -13.8890 C   0  0  0  0  0  2  0  0  0  0  0  0
   -0.5460    8.5050  -13.7850 C   0  0  0  0  0  0  0  0  0  0  0  0
   -1.1690    7.3800  -14.2800 C   0  0  0  0  0  3  0  0  0  0  0  0
   -2.5310    7.3220  -14.5260 C   0  0  0  0  0  3  0  0  0  0  0  0
   -3.3290    8.4190  -14.2760 C   0  0  0  0  0  0  0  0  0  0  0  0
   -5.0560    8.3570  -14.5840 Cl  0  0  0  0  0  0  0  0  0  0  0  0
   -2.7160    9.5510  -13.7810 C   0  0  0  0  0  3  0  0  0  0  0  0
   -1.3570    9.6030  -13.5370 C   0  0  0  0  0  3  0  0  0  0  0  0
  1  9  1  0  0  0  0
  2  1  1  0  0  0  0
  3  2  2  0  0  0  0
  4  2  1  6  0  0  0
  4  8  1  0  0  0  0
  5  6  1  0  0  0  0
  5  4  1  0  0  0  0
  6 14  1  1  0  0  0
  6  7  1  0  0  0  0
  7  8  1  0  0  0  0
  7 11  1  1  0  0  0
  8  9  1  6  0  0  0
  9 10  2  0  0  0  0
 12 11  1  0  0  0  0
 13 12  1  0  0  0  0
 14 13  1  0  0  0  0
 15 21  1  0  0  0  0
 15  1  1  0  0  0  0
 16 15  2  0  0  0  0
 17 16  1  0  0  0  0
 17 18  2  0  0  0  0
 18 20  1  0  0  0  0
 19 18  1  0  0  0  0
 20 21  2  0  0  0  0
M  END
>  <Pose>
1

>  <Score>
-7.350

$$$$
