MODEL 1
REMARK VINA RESULT:    -7.350      0.000      0.000
REMARK INTER + INTRA:          -8.228
REMARK INTER:                  -7.779
REMARK INTRA:                  -0.449
REMARK UNBOUND:                -0.449
REMARK  1 active torsions:
REMARK  status: ('A' for Active; 'I' for Inactive)
REMARK    1  A    between atoms: C_5  and  N_8 
ROOT
ATOM      1  N   UNK d   1       0.858   8.575 -13.529  0.00  0.00    -0.250 N 
ATOM      2  C   UNK d   1       1.927   8.689 -14.480  0.00  0.00     0.263 C 
ATOM      3  O   UNK d   1       1.808   8.710 -15.730  0.00  0.00    -0.270 OA
ATOM      4  C   UNK d   1       3.224   8.780 -13.772  0.00  0.00     0.259 C 
ATOM      5  O   UNK d   1       3.991   9.859 -14.196  0.00  0.00    -0.266 OA
ATOM      6  N   UNK d   1       3.369  10.970 -13.838  0.00  0.00    -0.288 N 
ATOM      7  C   UNK d   1       2.522  10.750 -12.750  0.00  0.00     0.125 C 
ATOM      8  C   UNK d   1       2.767   9.280 -12.405  0.00  0.00     0.144 C 
ATOM      9  C   UNK d   1       1.489   8.544 -12.249  0.00  0.00     0.240 C 
ATOM     10  O   UNK d   1       0.999   7.982 -11.224  0.00  0.00    -0.272 OA
ATOM     11  C   UNK d   1       2.604  11.633 -11.579  0.00  0.00     0.028 C 
ATOM     12  C   UNK d   1       3.545  12.771 -11.631  0.00  0.00     0.004 C 
ATOM     13  C   UNK d   1       3.616  13.281 -13.053  0.00  0.00     0.022 C 
ATOM     14  C   UNK d   1       4.140  12.142 -13.889  0.00  0.00     0.150 C 
ENDROOT
BRANCH   1  15
ATOM     15  C   UNK d   1      -0.546   8.505 -13.785  0.00  0.00     0.045 A 
ATOM     16  C   UNK d   1      -1.169   7.380 -14.280  0.00  0.00     0.032 A 
ATOM     17  C   UNK d   1      -2.531   7.322 -14.526  0.00  0.00     0.026 A 
ATOM     18  C   UNK d   1      -3.329   8.419 -14.276  0.00  0.00     0.034 A 
ATOM     19 Cl   UNK d   1      -5.056   8.357 -14.584  0.00  0.00    -0.084 Cl
ATOM     20  C   UNK d   1      -2.716   9.551 -13.781  0.00  0.00     0.026 A 
ATOM     21  C   UNK d   1      -1.357   9.603 -13.537  0.00  0.00     0.032 A 
ENDBRANCH   1  15
TORSDOF 1
ENDMDL
