MODEL 1
REMARK VINA RESULT:    -8.405      0.000      0.000
REMARK INTER + INTRA:         -12.449
REMARK INTER:                 -11.354
REMARK INTRA:                  -1.095
REMARK UNBOUND:                -1.095
REMARK  7 active torsions:
REMARK  status: ('A' for Active; 'I' for Inactive)
REMARK    1  A    between atoms: C_3  and  O_30 
REMARK    2  A    between atoms: C_5  and  O_29 
REMARK    3  A    between atoms: C_6  and  C_8 
REMARK    4  A    between atoms: N_9  and  N_10 
REMARK    5  A    between atoms: N_10  and  C_11 
REMARK    6  A    between atoms: C_13  and  N_23 
REMARK    7  A    between atoms: C_15  and  N_17 
ROOT
ATOM      1  C   UNK d   1       2.111   9.752 -14.739  0.00  0.00     0.774 A 
ATOM      2  N   UNK d   1       2.004  10.968 -14.226  0.00  0.00     0.133 NA
ATOM      3  C   UNK d   1       0.983  11.378 -13.455  0.00  0.00     0.756 A 
ATOM      4  N   UNK d   1       0.014  10.471 -13.199  0.00  0.00     0.131 NA
ATOM      5  C   UNK d   1       0.068   9.207 -13.696  0.00  0.00     0.756 A 
ATOM      6  N   UNK d   1       1.130   8.865 -14.467  0.00  0.00     0.133 NA
ENDROOT
BRANCH   1   7
ATOM      7  N   UNK d   1       3.214   9.418 -15.572  0.00  0.00    -0.105 N 
ATOM      8  H   UNK d   1       3.384   9.963 -16.425  0.00  0.00     0.208 HD
BRANCH   7   9
ATOM      9  N   UNK d   1       4.052   8.367 -15.241  0.00  0.00    -0.171 NA
ATOM     10  C   UNK d   1       4.861   8.375 -14.238  0.00  0.00     0.153 C 
BRANCH  10  11
ATOM     11  C   UNK d   1       5.722   7.250 -13.935  0.00  0.00     0.018 A 
ATOM     12  C   UNK d   1       5.188   6.101 -13.354  0.00  0.00     0.080 A 
ATOM     13  C   UNK d   1       5.953   5.012 -13.024  0.00  0.00     0.075 A 
ATOM     14  C   UNK d   1       7.315   4.997 -13.259  0.00  0.00     0.085 A 
ATOM     15  C   UNK d   1       7.868   6.128 -13.838  0.00  0.00     0.045 A 
ATOM     16 Br   UNK d   1       9.738   6.138 -14.181  0.00  0.00    -0.048 Br
ATOM     17  C   UNK d   1       7.081   7.217 -14.162  0.00  0.00     0.037 A 
BRANCH  12  18
ATOM     18  O   UNK d   1       3.810   6.108 -13.115  0.00  0.00    -0.360 OA
ATOM     19  H   UNK d   1       3.256   6.858 -13.518  0.00  0.00     0.217 HD
ENDBRANCH  12  18
BRANCH  14  20
ATOM     20  O   UNK d   1       8.083   3.885 -12.921  0.00  0.00    -0.359 OA
ATOM     21  H   UNK d   1       8.383   3.188 -13.586  0.00  0.00     0.217 HD
ENDBRANCH  14  20
ENDBRANCH  10  11
ENDBRANCH   7   9
ENDBRANCH   1   7
BRANCH   3  22
ATOM     22  N   UNK d   1       0.908  12.712 -12.924  0.00  0.00    -0.209 N 
ATOM     23  C   UNK d   1       2.063  13.362 -12.371  0.00  0.00     0.167 C 
ATOM     24  C   UNK d   1       1.940  14.808 -12.089  0.00  0.00     0.188 C 
ATOM     25  O   UNK d   1       0.635  15.280 -12.048  0.00  0.00    -0.388 OA
ATOM     26  C   UNK d   1      -0.107  14.862 -13.144  0.00  0.00     0.188 C 
ATOM     27  C   UNK d   1      -0.357  13.385 -12.962  0.00  0.00     0.167 C 
ENDBRANCH   3  22
BRANCH   5  28
ATOM     28  N   UNK d   1      -0.957   8.276 -13.435  0.00  0.00    -0.209 N 
ATOM     29  C   UNK d   1      -2.319   8.528 -13.831  0.00  0.00     0.167 C 
ATOM     30  C   UNK d   1      -2.741   7.294 -14.641  0.00  0.00     0.188 C 
ATOM     31  O   UNK d   1      -2.494   6.161 -13.893  0.00  0.00    -0.388 OA
ATOM     32  C   UNK d   1      -1.122   5.944 -13.773  0.00  0.00     0.188 C 
ATOM     33  C   UNK d   1      -0.651   7.029 -12.780  0.00  0.00     0.167 C 
ENDBRANCH   5  28
TORSDOF 7
ENDMDL
