MODEL 1
REMARK VINA RESULT:    -5.165      0.000      0.000
REMARK INTER + INTRA:          -6.903
REMARK INTER:                  -5.920
REMARK INTRA:                  -0.983
REMARK UNBOUND:                -0.983
REMARK  3 active torsions:
REMARK  status: ('A' for Active; 'I' for Inactive)
REMARK    1  A    between atoms: C_7  and  C_9 
REMARK       I    between atoms: C_9  and  N_11 
REMARK    2  A    between atoms: C_14  and  N_19 
REMARK    3  A    between atoms: C_15  and  O_18 
REMARK       I    between atoms: N_22  and  C_25 
ROOT
ATOM      1  C   UNK d   1       1.924   5.858 -11.872  0.00  0.00     0.203 C 
ATOM      2  O   UNK d   1       2.445   6.750 -11.019  0.00  0.00    -0.170 OA
ATOM      3  N   UNK d   1       0.558   5.976 -12.015  0.00  0.00    -0.358 N 
ATOM      4  C   UNK d   1       0.023   7.107 -11.206  0.00  0.00     0.127 C 
ATOM      5  C   UNK d   1       0.041   8.368 -12.049  0.00  0.00     0.058 C 
ATOM      6  C   UNK d   1       0.066   7.962 -13.473  0.00  0.00     0.253 C 
ATOM      7  C   UNK d   1      -1.127   7.134 -13.821  0.00  0.00     0.153 C 
ATOM      8  C   UNK d   1      -0.585   5.740 -14.184  0.00  0.00     0.054 C 
ATOM      9  C   UNK d   1      -0.241   5.117 -12.818  0.00  0.00     0.127 C 
ENDROOT
BRANCH   1  10
ATOM     10  C   UNK d   1       2.912   4.982 -12.442  0.00  0.00     0.088 A 
ATOM     11  N   UNK d   1       2.823   3.707 -12.826  0.00  0.00    -0.352 N 
ATOM     12  C   UNK d   1       4.028   3.251 -13.285  0.00  0.00     0.043 A 
ATOM     13  H   UNK d   1       1.998   3.093 -12.825  0.00  0.00     0.166 HD
ATOM     14  C   UNK d   1       4.904   4.276 -13.186  0.00  0.00    -0.005 A 
ATOM     15  C   UNK d   1       4.447   2.043 -13.773  0.00  0.00     0.032 A 
ATOM     16  C   UNK d   1       6.245   4.155 -13.567  0.00  0.00     0.037 A 
ATOM     17  C   UNK d   1       4.233   5.364 -12.664  0.00  0.00     0.048 A 
ATOM     18  C   UNK d   1       6.645   2.950 -14.049  0.00  0.00     0.035 A 
ATOM     19 Cl   UNK d   1       8.330   2.758 -14.538  0.00  0.00    -0.084 Cl
ATOM     20  C   UNK d   1       5.769   1.889 -14.160  0.00  0.00     0.026 A 
ENDBRANCH   1  10
BRANCH   6  21
ATOM     21  N   UNK d   1       0.274   8.974 -14.459  0.00  0.00     0.098 N 
ATOM     22  C   UNK d   1       1.439   8.789 -15.286  0.00  0.00     0.293 C 
ATOM     23  C   UNK d   1       2.693   8.864 -14.501  0.00  0.00     0.156 C 
ATOM     24  N   UNK d   1       2.676  10.158 -13.810  0.00  0.00    -0.349 N 
ATOM     25  C   UNK d   1       1.535  10.995 -14.074  0.00  0.00     0.156 C 
ATOM     26  C   UNK d   1       3.759  10.525 -12.954  0.00  0.00     0.215 C 
ATOM     27  C   UNK d   1       0.206  10.312 -13.937  0.00  0.00     0.293 C 
ATOM     28  O   UNK d   1       3.728  11.613 -12.365  0.00  0.00    -0.274 OA
ATOM     29  C   UNK d   1       4.902   9.570 -12.803  0.00  0.00     0.117 C 
ENDBRANCH   6  21
BRANCH   7  30
ATOM     30  O   UNK d   1      -1.899   7.658 -14.856  0.00  0.00    -0.393 OA
ATOM     31  H   UNK d   1      -2.588   6.948 -15.067  0.00  0.00     0.210 HD
ENDBRANCH   7  30
TORSDOF 3
ENDMDL
