/Users/jonathanwahrer/Desktop/Msc/3_Semester/Drug_Design_Praktikum/waehrer_HTS_screening/HTS_experiment/out/docking_results/vina_output/6q9y/2121_docked.pdbqt
 OpenBabel03222220383D

 31 34  0  0  1  0  0  0  0  0999 V2000
    1.9240    5.8580  -11.8720 C   0  0  0  0  0  0  0  0  0  0  0  0
    2.4450    6.7500  -11.0190 O   0  0  0  0  0  0  0  0  0  0  0  0
    0.5580    5.9760  -12.0150 N   0  0  0  0  0  0  0  0  0  0  0  0
    0.0230    7.1070  -11.2060 C   0  0  0  0  0  2  0  0  0  0  0  0
    0.0410    8.3680  -12.0490 C   0  0  0  0  0  2  0  0  0  0  0  0
    0.0660    7.9620  -13.4730 C   0  0  1  0  0  3  0  0  0  0  0  0
   -1.1270    7.1340  -13.8210 C   0  0  2  0  0  3  0  0  0  0  0  0
   -0.5850    5.7400  -14.1840 C   0  0  0  0  0  2  0  0  0  0  0  0
   -0.2410    5.1170  -12.8180 C   0  0  0  0  0  2  0  0  0  0  0  0
    2.9120    4.9820  -12.4420 C   0  0  0  0  0  0  0  0  0  0  0  0
    2.8230    3.7070  -12.8260 N   0  0  0  0  0  0  0  0  0  0  0  0
    4.0280    3.2510  -13.2850 C   0  0  0  0  0  0  0  0  0  0  0  0
    1.9980    3.0930  -12.8250 H   0  0  0  0  0  0  0  0  0  0  0  0
    4.9040    4.2760  -13.1860 C   0  0  0  0  0  0  0  0  0  0  0  0
    4.4470    2.0430  -13.7730 C   0  0  0  0  0  3  0  0  0  0  0  0
    6.2450    4.1550  -13.5670 C   0  0  0  0  0  3  0  0  0  0  0  0
    4.2330    5.3640  -12.6640 C   0  0  0  0  0  3  0  0  0  0  0  0
    6.6450    2.9500  -14.0490 C   0  0  0  0  0  0  0  0  0  0  0  0
    8.3300    2.7580  -14.5380 Cl  0  0  0  0  0  0  0  0  0  0  0  0
    5.7690    1.8890  -14.1600 C   0  0  0  0  0  3  0  0  0  0  0  0
    0.2740    8.9740  -14.4590 N   0  0  0  0  0  0  0  0  0  0  0  0
    1.4390    8.7890  -15.2860 C   0  0  0  0  0  2  0  0  0  0  0  0
    2.6930    8.8640  -14.5010 C   0  0  0  0  0  2  0  0  0  0  0  0
    2.6760   10.1580  -13.8100 N   0  0  0  0  0  0  0  0  0  0  0  0
    1.5350   10.9950  -14.0740 C   0  0  0  0  0  2  0  0  0  0  0  0
    3.7590   10.5250  -12.9540 C   0  0  0  0  0  0  0  0  0  0  0  0
    0.2060   10.3120  -13.9370 C   0  0  0  0  0  2  0  0  0  0  0  0
    3.7280   11.6130  -12.3650 O   0  0  0  0  0  0  0  0  0  0  0  0
    4.9020    9.5700  -12.8030 C   0  0  0  0  0  1  0  0  0  0  0  0
   -1.8990    7.6580  -14.8560 O   0  0  0  0  0  0  0  0  0  0  0  0
   -2.5880    6.9480  -15.0670 H   0  0  0  0  0  0  0  0  0  0  0  0
  1  2  2  0  0  0  0
  3  1  1  0  0  0  0
  3  4  1  0  0  0  0
  5  4  1  0  0  0  0
  6 21  1  6  0  0  0
  6  5  1  0  0  0  0
  7 30  1  6  0  0  0
  7  6  1  0  0  0  0
  8  7  1  0  0  0  0
  8  9  1  0  0  0  0
  9  3  1  0  0  0  0
 10  1  1  0  0  0  0
 11 13  1  0  0  0  0
 11 10  1  0  0  0  0
 12 14  1  0  0  0  0
 12 11  1  0  0  0  0
 14 17  1  0  0  0  0
 15 12  2  0  0  0  0
 16 14  2  0  0  0  0
 17 10  2  0  0  0  0
 18 16  1  0  0  0  0
 19 18  1  0  0  0  0
 20 18  2  0  0  0  0
 20 15  1  0  0  0  0
 21 27  1  0  0  0  0
 22 23  1  0  0  0  0
 22 21  1  0  0  0  0
 23 24  1  0  0  0  0
 24 26  1  0  0  0  0
 25 27  1  0  0  0  0
 25 24  1  0  0  0  0
 26 29  1  0  0  0  0
 26 28  2  0  0  0  0
 31 30  1  0  0  0  0
M  END
>  <Pose>
1

>  <Score>
-5.165

$$$$
