MODEL 1
REMARK VINA RESULT:    -8.833      0.000      0.000
REMARK INTER + INTRA:         -12.466
REMARK INTER:                 -11.931
REMARK INTRA:                  -0.535
REMARK UNBOUND:                -0.535
REMARK  6 active torsions:
REMARK  status: ('A' for Active; 'I' for Inactive)
REMARK    1  A    between atoms: N_11  and  C_12 
REMARK    2  A    between atoms: C_12  and  C_13 
REMARK    3  A    between atoms: C_16  and  C_18 
REMARK       I    between atoms: C_18  and  N_20 
REMARK    4  A    between atoms: N_20  and  C_21 
REMARK    5  A    between atoms: C_21  and  C_22 
REMARK    6  A    between atoms: C_22  and  N_23 
ROOT
ATOM      1  C   UNK d   1       3.156  11.564 -13.264  0.00  0.00     0.174 A 
ATOM      2  N   UNK d   1       3.726  11.689 -12.053  0.00  0.00    -0.109 NA
ATOM      3  O   UNK d   1       3.236  12.718 -11.422  0.00  0.00    -0.186 OA
ATOM      4  C   UNK d   1       2.345  13.273 -12.219  0.00  0.00     0.264 A 
ATOM      5  N   UNK d   1       2.283  12.576 -13.357  0.00  0.00    -0.198 NA
ENDROOT
BRANCH   1   6
ATOM      6  C   UNK d   1       3.447  10.484 -14.246  0.00  0.00     0.217 C 
BRANCH   6   7
ATOM      7  N   UNK d   1       2.804   9.263 -13.853  0.00  0.00    -0.283 N 
ATOM      8  C   UNK d   1       1.515   9.003 -13.619  0.00  0.00     0.075 A 
ATOM      9  C   UNK d   1       0.376   9.795 -13.672  0.00  0.00     0.056 A 
ATOM     10  C   UNK d   1       1.372   7.660 -13.262  0.00  0.00     0.108 A 
ATOM     11  C   UNK d   1      -0.850   9.211 -13.368  0.00  0.00     0.036 A 
ATOM     12 Cl   UNK d   1      -2.294  10.208 -13.432  0.00  0.00    -0.084 Cl
ATOM     13  C   UNK d   1      -0.957   7.877 -13.018  0.00  0.00     0.026 A 
ATOM     14  C   UNK d   1       0.161   7.103 -12.967  0.00  0.00     0.041 A 
ATOM     15  O   UNK d   1       2.580   7.189 -13.301  0.00  0.00    -0.259 OA
ATOM     16  C   UNK d   1       3.451   8.102 -13.646  0.00  0.00     0.373 A 
ATOM     17  O   UNK d   1       4.688   7.885 -13.753  0.00  0.00    -0.237 OA
ENDBRANCH   6   7
ENDBRANCH   1   6
BRANCH   4  18
ATOM     18  C   UNK d   1       1.576  14.494 -11.803  0.00  0.00     0.297 C 
ATOM     19  O   UNK d   1       2.180  15.105 -10.855  0.00  0.00    -0.264 OA
ATOM     20  N   UNK d   1       0.420  14.812 -12.413  0.00  0.00    -0.352 N 
ATOM     21  H   UNK d   1       0.342  15.951 -11.652  0.00  0.00     0.162 HD
BRANCH  20  22
ATOM     22  C   UNK d   1      -0.769  15.154 -13.030  0.00  0.00     0.142 C 
BRANCH  22  23
ATOM     23  C   UNK d   1      -0.900  16.656 -13.311  0.00  0.00     0.136 C 
BRANCH  23  24
ATOM     24  N   UNK d   1      -1.925  17.307 -12.597  0.00  0.00    -0.407 N 
ATOM     25  C   UNK d   1      -2.945  17.759 -13.460  0.00  0.00     0.143 C 
ATOM     26  C   UNK d   1      -3.693  18.934 -12.926  0.00  0.00     0.187 C 
ATOM     27  O   UNK d   1      -3.912  18.752 -11.585  0.00  0.00    -0.388 OA
ATOM     28  C   UNK d   1      -2.762  18.774 -10.819  0.00  0.00     0.187 C 
ATOM     29  C   UNK d   1      -1.606  18.059 -11.454  0.00  0.00     0.143 C 
ENDBRANCH  23  24
ENDBRANCH  22  23
ENDBRANCH  20  22
ENDBRANCH   4  18
TORSDOF 6
ENDMDL
