/Users/jonathanwahrer/Desktop/Msc/3_Semester/Drug_Design_Praktikum/waehrer_HTS_screening/HTS_experiment/out/docking_results/vina_output/6q9y/2122_docked.pdbqt
 OpenBabel03222220383D

 29 32  0  0  0  0  0  0  0  0999 V2000
    3.1560   11.5640  -13.2640 C   0  0  0  0  0  0  0  0  0  0  0  0
    3.7260   11.6890  -12.0530 N   0  0  0  0  0  0  0  0  0  0  0  0
    3.2360   12.7180  -11.4220 O   0  0  0  0  0  0  0  0  0  0  0  0
    2.3450   13.2730  -12.2190 C   0  0  0  0  0  0  0  0  0  0  0  0
    2.2830   12.5760  -13.3570 N   0  0  0  0  0  0  0  0  0  0  0  0
    3.4470   10.4840  -14.2460 C   0  0  0  0  0  2  0  0  0  0  0  0
    2.8040    9.2630  -13.8530 N   0  0  0  0  0  0  0  0  0  0  0  0
    1.5150    9.0030  -13.6190 C   0  0  0  0  0  0  0  0  0  0  0  0
    0.3760    9.7950  -13.6720 C   0  0  0  0  0  3  0  0  0  0  0  0
    1.3720    7.6600  -13.2620 C   0  0  0  0  0  0  0  0  0  0  0  0
   -0.8500    9.2110  -13.3680 C   0  0  0  0  0  0  0  0  0  0  0  0
   -2.2940   10.2080  -13.4320 Cl  0  0  0  0  0  0  0  0  0  0  0  0
   -0.9570    7.8770  -13.0180 C   0  0  0  0  0  3  0  0  0  0  0  0
    0.1610    7.1030  -12.9670 C   0  0  0  0  0  3  0  0  0  0  0  0
    2.5800    7.1890  -13.3010 O   0  0  0  0  0  0  0  0  0  0  0  0
    3.4510    8.1020  -13.6460 C   0  0  0  0  0  0  0  0  0  0  0  0
    4.6880    7.8850  -13.7530 O   0  0  0  0  0  0  0  0  0  0  0  0
    1.5760   14.4940  -11.8030 C   0  0  0  0  0  0  0  0  0  0  0  0
    2.1800   15.1050  -10.8550 O   0  0  0  0  0  0  0  0  0  0  0  0
    0.4200   14.8120  -12.4130 N   0  0  0  0  0  0  0  0  0  0  0  0
    0.3420   15.9510  -11.6520 H   0  0  0  0  0  0  0  0  0  0  0  0
   -0.7690   15.1540  -13.0300 C   0  0  0  0  0  2  0  0  0  0  0  0
   -0.9000   16.6560  -13.3110 C   0  0  0  0  0  2  0  0  0  0  0  0
   -1.9250   17.3070  -12.5970 N   0  0  0  0  0  0  0  0  0  0  0  0
   -2.9450   17.7590  -13.4600 C   0  0  0  0  0  2  0  0  0  0  0  0
   -3.6930   18.9340  -12.9260 C   0  0  0  0  0  2  0  0  0  0  0  0
   -3.9120   18.7520  -11.5850 O   0  0  0  0  0  0  0  0  0  0  0  0
   -2.7620   18.7740  -10.8190 C   0  0  0  0  0  2  0  0  0  0  0  0
   -1.6060   18.0590  -11.4540 C   0  0  0  0  0  2  0  0  0  0  0  0
  1  2  2  0  0  0  0
  2  3  1  0  0  0  0
  4 18  1  0  0  0  0
  4  3  1  0  0  0  0
  5  1  1  0  0  0  0
  5  4  2  0  0  0  0
  6  7  1  0  0  0  0
  6  1  1  0  0  0  0
  7 16  1  0  0  0  0
  7  8  1  0  0  0  0
  8 10  1  0  0  0  0
  9  8  2  0  0  0  0
  9 11  1  0  0  0  0
 10 14  2  0  0  0  0
 11 13  2  0  0  0  0
 12 11  1  0  0  0  0
 13 14  1  0  0  0  0
 15 10  1  0  0  0  0
 16 15  1  0  0  0  0
 17 16  2  0  0  0  0
 18 19  2  0  0  0  0
 20 18  1  0  0  0  0
 20 21  1  0  0  0  0
 22 20  1  0  0  0  0
 23 22  1  0  0  0  0
 23 24  1  0  0  0  0
 24 29  1  0  0  0  0
 25 26  1  0  0  0  0
 25 24  1  0  0  0  0
 26 27  1  0  0  0  0
 27 28  1  0  0  0  0
 29 28  1  0  0  0  0
M  END
>  <Pose>
1

>  <Score>
-8.833

$$$$
