MODEL 1
REMARK VINA RESULT:    -7.888      0.000      0.000
REMARK INTER + INTRA:          -8.527
REMARK INTER:                  -8.810
REMARK INTRA:                   0.283
REMARK UNBOUND:                 0.283
REMARK  2 active torsions:
REMARK  status: ('A' for Active; 'I' for Inactive)
REMARK    1  A    between atoms: C_5  and  N_8 
REMARK    2  A    between atoms: C_12  and  C_21 
ROOT
ATOM      1  N   UNK d   1       3.703   7.282 -13.772  0.00  0.00    -0.252 N 
ATOM      2  C   UNK d   1       2.460   6.893 -13.207  0.00  0.00     0.239 C 
ATOM      3  O   UNK d   1       2.312   6.043 -12.289  0.00  0.00    -0.272 OA
ATOM      4  C   UNK d   1       1.332   7.638 -13.859  0.00  0.00     0.138 C 
ATOM      5  C   UNK d   1       0.528   8.388 -12.850  0.00  0.00     0.142 C 
ATOM      6  O   UNK d   1       0.450   9.706 -13.363  0.00  0.00    -0.355 OA
ATOM      7  C   UNK d   1       1.846   9.888 -13.538  0.00  0.00     0.089 C 
ATOM      8  C   UNK d   1       2.083   8.779 -14.559  0.00  0.00     0.133 C 
ATOM      9  C   UNK d   1       3.473   8.363 -14.666  0.00  0.00     0.239 C 
ATOM     10  O   UNK d   1       4.316   8.893 -15.435  0.00  0.00    -0.272 OA
ATOM     11  C   UNK d   1       2.336   9.519 -12.189  0.00  0.00     0.010 C 
ATOM     12  C   UNK d   1       1.431   8.654 -11.685  0.00  0.00     0.016 C 
ATOM     13  C   UNK d   1       2.228  11.232 -13.998  0.00  0.00     0.051 C 
ENDROOT
BRANCH   1  14
ATOM     14  C   UNK d   1       5.012   6.748 -13.552  0.00  0.00     0.045 A 
ATOM     15  C   UNK d   1       6.146   7.524 -13.517  0.00  0.00     0.032 A 
ATOM     16  C   UNK d   1       7.407   6.997 -13.305  0.00  0.00     0.026 A 
ATOM     17  C   UNK d   1       7.565   5.644 -13.120  0.00  0.00     0.034 A 
ATOM     18 Cl   UNK d   1       9.157   4.927 -12.851  0.00  0.00    -0.084 Cl
ATOM     19  C   UNK d   1       6.438   4.854 -13.154  0.00  0.00     0.026 A 
ATOM     20  C   UNK d   1       5.168   5.387 -13.366  0.00  0.00     0.032 A 
ENDBRANCH   1  14
BRANCH   5  21
ATOM     21  C   UNK d   1      -0.780   7.830 -12.486  0.00  0.00     0.298 C 
ATOM     22  O   UNK d   1      -1.755   8.806 -12.705  0.00  0.00    -0.356 OA
ATOM     23  C   UNK d   1      -2.178   8.705 -14.006  0.00  0.00     0.197 C 
ATOM     24  C   UNK d   1      -1.929   7.255 -14.325  0.00  0.00     0.197 C 
ATOM     25  O   UNK d   1      -1.093   6.774 -13.342  0.00  0.00    -0.356 OA
ENDBRANCH   5  21
TORSDOF 2
ENDMDL
