/Users/jonathanwahrer/Desktop/Msc/3_Semester/Drug_Design_Praktikum/waehrer_HTS_screening/HTS_experiment/out/docking_results/vina_output/6q9y/2136_docked.pdbqt
 OpenBabel03222220393D

 33 37  0  0  1  0  0  0  0  0999 V2000
   -2.2210    6.6410  -14.2270 Cl  0  0  0  0  0  0  0  0  0  0  0  0
   -0.6160    6.4480  -13.5540 C   0  0  0  0  0  0  0  0  0  0  0  0
    0.4400    7.2680  -13.8960 C   0  0  0  0  0  0  0  0  0  0  0  0
    1.7020    7.0860  -13.3430 C   0  0  0  0  0  0  0  0  0  0  0  0
    1.8390    6.0600  -12.4490 C   0  0  0  0  0  3  0  0  0  0  0  0
    0.7990    5.2330  -12.0950 C   0  0  0  0  0  3  0  0  0  0  0  0
   -0.4370    5.4150  -12.6400 C   0  0  0  0  0  3  0  0  0  0  0  0
    2.5960    8.1080  -13.9030 C   0  0  2  0  0  0  0  0  0  0  0  0
    3.7360    7.5310  -14.5920 N   0  0  0  0  0  0  0  0  0  0  0  0
    4.6320    8.6840  -14.7100 C   0  0  1  0  0  3  0  0  0  0  0  0
    4.4610    9.4870  -13.4770 C   0  0  2  0  0  3  0  0  0  0  0  0
    3.2560    8.9060  -12.8100 C   0  0  1  0  0  3  0  0  0  0  0  0
    2.4220   10.0040  -12.3140 C   0  0  0  0  0  0  0  0  0  0  0  0
    1.4860    9.8560  -11.4880 O   0  0  0  0  0  0  0  0  0  0  0  0
    2.8890   11.1910  -12.9420 N   0  0  0  0  0  0  0  0  0  0  0  0
    3.9970   10.8920  -13.7820 C   0  0  0  0  0  0  0  0  0  0  0  0
    4.5500   11.6200  -14.6500 O   0  0  0  0  0  0  0  0  0  0  0  0
    1.7860    8.9110  -14.8320 C   0  0  0  0  0  0  0  0  0  0  0  0
    2.1320    9.8780  -15.5270 O   0  0  0  0  0  0  0  0  0  0  0  0
    0.4750    8.3650  -14.7970 N   0  0  0  0  0  0  0  0  0  0  0  0
    3.4730    7.1590  -15.5450 H   0  0  0  0  0  0  0  0  0  0  0  0
   -0.3630    8.7020  -15.3430 H   0  0  0  0  0  0  0  0  0  0  0  0
    6.0560    8.2490  -14.8880 C   0  0  0  0  0  2  0  0  0  0  0  0
    6.5140    7.2370  -13.9220 C   0  0  0  0  0  0  0  0  0  0  0  0
    7.6760    7.5100  -13.2040 C   0  0  0  0  0  3  0  0  0  0  0  0
    8.1170    6.5970  -12.2810 C   0  0  0  0  0  3  0  0  0  0  0  0
    7.4620    5.4150  -12.0280 C   0  0  0  0  0  3  0  0  0  0  0  0
    6.3160    5.1830  -12.7580 C   0  0  0  0  0  3  0  0  0  0  0  0
    5.8280    6.0670  -13.6970 C   0  0  0  0  0  3  0  0  0  0  0  0
    2.3070   12.5160  -12.7450 C   0  0  0  0  0  2  0  0  0  0  0  0
    3.1340   13.2370  -11.6910 C   0  0  0  0  0  2  0  0  0  0  0  0
    2.3420   14.0900  -10.9400 O   0  0  0  0  0  0  0  0  0  0  0  0
    1.9890   15.1850  -11.7050 C   0  0  0  0  0  1  0  0  0  0  0  0
  1  2  1  0  0  0  0
  2  7  1  0  0  0  0
  3  2  2  0  0  0  0
  3  4  1  0  0  0  0
  4  5  2  0  0  0  0
  5  6  1  0  0  0  0
  7  6  2  0  0  0  0
  8 18  1  6  0  0  0
  8  4  1  0  0  0  0
  8 12  1  0  0  0  0
  9  8  1  0  0  0  0
 10 23  1  1  0  0  0
 10  9  1  0  0  0  0
 10 11  1  0  0  0  0
 11 16  1  6  0  0  0
 11 12  1  0  0  0  0
 12 13  1  6  0  0  0
 13 14  2  0  0  0  0
 15 30  1  0  0  0  0
 15 13  1  0  0  0  0
 16 15  1  0  0  0  0
 17 16  2  0  0  0  0
 18 20  1  0  0  0  0
 19 18  2  0  0  0  0
 20  3  1  0  0  0  0
 21  9  1  0  0  0  0
 22 20  1  0  0  0  0
 23 24  1  0  0  0  0
 24 29  2  0  0  0  0
 24 25  1  0  0  0  0
 25 26  2  0  0  0  0
 26 27  1  0  0  0  0
 28 27  2  0  0  0  0
 29 28  1  0  0  0  0
 30 31  1  0  0  0  0
 31 32  1  0  0  0  0
 33 32  1  0  0  0  0
M  END
>  <Pose>
1

>  <Score>
-6.263

$$$$
