MODEL 1
REMARK VINA RESULT:    -6.263      0.000      0.000
REMARK INTER + INTRA:          -8.557
REMARK INTER:                  -8.093
REMARK INTRA:                  -0.464
REMARK UNBOUND:                -0.464
REMARK  5 active torsions:
REMARK  status: ('A' for Active; 'I' for Inactive)
REMARK    1  A    between atoms: C_10  and  C_22 
REMARK    2  A    between atoms: N_15  and  C_18 
REMARK    3  A    between atoms: C_18  and  C_19 
REMARK    4  A    between atoms: C_19  and  O_20 
REMARK    5  A    between atoms: C_22  and  C_23 
ROOT
ATOM      1 Cl   UNK d   1      -2.221   6.641 -14.227  0.00  0.00    -0.082 Cl
ATOM      2  C   UNK d   1      -0.616   6.448 -13.554  0.00  0.00     0.061 A 
ATOM      3  C   UNK d   1       0.440   7.268 -13.896  0.00  0.00     0.066 A 
ATOM      4  C   UNK d   1       1.702   7.086 -13.343  0.00  0.00     0.019 A 
ATOM      5  C   UNK d   1       1.839   6.060 -12.449  0.00  0.00     0.013 A 
ATOM      6  C   UNK d   1       0.799   5.233 -12.095  0.00  0.00     0.002 A 
ATOM      7  C   UNK d   1      -0.437   5.415 -12.640  0.00  0.00     0.026 A 
ATOM      8  C   UNK d   1       2.596   8.108 -13.903  0.00  0.00     0.279 A 
ATOM      9  N   UNK d   1       3.736   7.531 -14.592  0.00  0.00     0.114 N 
ATOM     10  C   UNK d   1       4.632   8.684 -14.710  0.00  0.00     0.240 C 
ATOM     11  C   UNK d   1       4.461   9.487 -13.477  0.00  0.00     0.128 C 
ATOM     12  C   UNK d   1       3.256   8.906 -12.810  0.00  0.00     0.147 C 
ATOM     13  C   UNK d   1       2.422  10.004 -12.314  0.00  0.00     0.235 C 
ATOM     14  O   UNK d   1       1.486   9.856 -11.488  0.00  0.00    -0.272 OA
ATOM     15  N   UNK d   1       2.889  11.191 -12.942  0.00  0.00    -0.286 N 
ATOM     16  C   UNK d   1       3.997  10.892 -13.782  0.00  0.00     0.233 C 
ATOM     17  O   UNK d   1       4.550  11.620 -14.650  0.00  0.00    -0.272 OA
ATOM     18  C   UNK d   1       1.786   8.911 -14.832  0.00  0.00     0.267 A 
ATOM     19  O   UNK d   1       2.132   9.878 -15.527  0.00  0.00    -0.270 OA
ATOM     20  N   UNK d   1       0.475   8.365 -14.797  0.00  0.00    -0.323 N 
ATOM     21  H   UNK d   1       3.473   7.159 -15.545  0.00  0.00     0.318 HD
ATOM     22  H   UNK d   1      -0.363   8.702 -15.343  0.00  0.00     0.169 HD
ENDROOT
BRANCH  10  23
ATOM     23  C   UNK d   1       6.056   8.249 -14.888  0.00  0.00     0.075 C 
BRANCH  23  24
ATOM     24  C   UNK d   1       6.514   7.237 -13.922  0.00  0.00    -0.056 A 
ATOM     25  C   UNK d   1       7.676   7.510 -13.204  0.00  0.00     0.007 A 
ATOM     26  C   UNK d   1       8.117   6.597 -12.281  0.00  0.00     0.001 A 
ATOM     27  C   UNK d   1       7.462   5.415 -12.028  0.00  0.00     0.000 A 
ATOM     28  C   UNK d   1       6.316   5.183 -12.758  0.00  0.00     0.001 A 
ATOM     29  C   UNK d   1       5.828   6.067 -13.697  0.00  0.00     0.007 A 
ENDBRANCH  23  24
ENDBRANCH  10  23
BRANCH  15  30
ATOM     30  C   UNK d   1       2.307  12.516 -12.745  0.00  0.00     0.161 C 
BRANCH  30  31
ATOM     31  C   UNK d   1       3.134  13.237 -11.691  0.00  0.00     0.187 C 
BRANCH  31  32
ATOM     32  O   UNK d   1       2.342  14.090 -10.940  0.00  0.00    -0.394 OA
ATOM     33  C   UNK d   1       1.989  15.185 -11.705  0.00  0.00     0.201 C 
ENDBRANCH  31  32
ENDBRANCH  30  31
ENDBRANCH  15  30
TORSDOF 5
ENDMDL
