MODEL 1
REMARK VINA RESULT:    -7.714      0.000      0.000
REMARK INTER + INTRA:          -9.954
REMARK INTER:                  -9.292
REMARK INTRA:                  -0.662
REMARK UNBOUND:                -0.662
REMARK  4 active torsions:
REMARK  status: ('A' for Active; 'I' for Inactive)
REMARK    1  A    between atoms: C_5  and  C_8 
REMARK    2  A    between atoms: C_8  and  N_9 
REMARK    3  A    between atoms: N_12  and  C_15 
REMARK    4  A    between atoms: C_17  and  N_24 
ROOT
ATOM      1  N   UNK d   1      -0.836   7.127 -12.802  0.00  0.00    -0.405 N 
ATOM      2  C   UNK d   1      -0.468   5.768 -12.846  0.00  0.00     0.137 C 
ATOM      3  C   UNK d   1       1.003   5.476 -12.970  0.00  0.00     0.144 C 
ATOM      4  N   UNK d   1       1.703   6.687 -12.467  0.00  0.00    -0.360 N 
ATOM      5  C   UNK d   1       1.085   7.278 -11.342  0.00  0.00     0.144 C 
ATOM      6  C   UNK d   1      -0.186   7.946 -11.819  0.00  0.00     0.137 C 
ENDROOT
BRANCH   4   7
ATOM      7  C   UNK d   1       2.884   7.059 -13.144  0.00  0.00     0.176 A 
ATOM      8  N   UNK d   1       3.993   6.267 -13.034  0.00  0.00    -0.043 NA
ATOM      9  C   UNK d   1       5.171   6.522 -13.588  0.00  0.00     0.724 A 
ATOM     10  N   UNK d   1       5.306   7.640 -14.321  0.00  0.00    -0.041 NA
ATOM     11  C   UNK d   1       4.243   8.462 -14.467  0.00  0.00     0.200 A 
ATOM     12  N   UNK d   1       4.079   9.618 -15.137  0.00  0.00    -0.222 NA
ATOM     13  C   UNK d   1       3.001   8.200 -13.885  0.00  0.00     0.129 A 
ATOM     14  C   UNK d   1       2.825  10.042 -14.983  0.00  0.00     0.210 A 
ATOM     15  N   UNK d   1       2.140   9.177 -14.213  0.00  0.00    -0.344 N 
ATOM     16  H   UNK d   1       1.136   9.289 -13.959  0.00  0.00     0.167 HD
BRANCH   9  17
ATOM     17  N   UNK d   1       6.303   5.640 -13.431  0.00  0.00    -0.231 N 
ATOM     18  H   UNK d   1       7.268   5.952 -13.607  0.00  0.00     0.174 HD
ATOM     19  H   UNK d   1       6.152   4.657 -13.130  0.00  0.00     0.174 HD
ENDBRANCH   9  17
ENDBRANCH   4   7
BRANCH   1  20
ATOM     20  C   UNK d   1      -1.177   7.761 -14.017  0.00  0.00     0.155 C 
BRANCH  20  21
ATOM     21  C   UNK d   1      -2.512   8.351 -14.090  0.00  0.00    -0.041 A 
ATOM     22  C   UNK d   1      -3.570   7.632 -14.586  0.00  0.00     0.010 A 
ATOM     23  C   UNK d   1      -4.863   8.134 -14.684  0.00  0.00     0.024 A 
ATOM     24  C   UNK d   1      -5.070   9.427 -14.252  0.00  0.00     0.034 A 
ATOM     25 Cl   UNK d   1      -6.672  10.129 -14.344  0.00  0.00    -0.084 Cl
ATOM     26  C   UNK d   1      -4.010  10.151 -13.755  0.00  0.00     0.024 A 
ATOM     27  C   UNK d   1      -2.739   9.636 -13.667  0.00  0.00     0.010 A 
ENDBRANCH  20  21
ENDBRANCH   1  20
TORSDOF 4
ENDMDL
