/Users/jonathanwahrer/Desktop/Msc/3_Semester/Drug_Design_Praktikum/waehrer_HTS_screening/HTS_experiment/out/docking_results/vina_output/6q9y/2170_docked.pdbqt
 OpenBabel03222220403D

 32 36  0  0  0  0  0  0  0  0999 V2000
    0.2540   10.4860  -13.2150 N   0  0  0  0  0  0  0  0  0  0  0  0
   -0.9370   10.0620  -13.5800 N   0  0  0  0  0  0  0  0  0  0  0  0
   -1.7900   11.0790  -13.7700 C   0  0  0  0  0  0  0  0  0  0  0  0
   -2.9990   10.6260  -14.1400 N   0  0  0  0  0  0  0  0  0  0  0  0
   -2.9620    9.2770  -14.1990 C   0  0  0  0  0  0  0  0  0  0  0  0
   -1.6520    8.9360  -13.8430 C   0  0  0  0  0  0  0  0  0  0  0  0
   -1.3840    7.5830  -13.8280 C   0  0  0  0  0  0  0  0  0  0  0  0
   -0.2110    7.2250  -13.5080 O   0  0  0  0  0  0  0  0  0  0  0  0
   -2.3030    6.6290  -14.1350 N   0  0  0  0  0  0  0  0  0  0  0  0
   -3.5360    7.0390  -14.4680 C   0  0  0  0  0  0  0  0  0  0  0  0
   -4.3820    6.1290  -14.7520 O   0  0  0  0  0  0  0  0  0  0  0  0
   -3.8710    8.3360  -14.5020 N   0  0  0  0  0  0  0  0  0  0  0  0
   -5.2110    8.7100  -14.8660 C   0  0  0  0  0  1  0  0  0  0  0  0
   -1.9400    5.2300  -14.0970 C   0  0  0  0  0  1  0  0  0  0  0  0
   -1.0720   12.1990  -13.5010 N   0  0  0  0  0  0  0  0  0  0  0  0
    0.1760   11.8510  -13.1600 C   0  0  0  0  0  0  0  0  0  0  0  0
    1.4550    9.7440  -12.9070 C   0  0  0  0  0  2  0  0  0  0  0  0
    2.1700    9.2540  -14.0980 C   0  0  0  0  0  0  0  0  0  0  0  0
    1.9040    9.6480  -15.2560 O   0  0  0  0  0  0  0  0  0  0  0  0
    3.2280    8.2700  -13.9050 C   0  0  0  0  0  0  0  0  0  0  0  0
    4.5060    8.4570  -14.3860 C   0  0  0  0  0  3  0  0  0  0  0  0
    5.5050    7.5230  -14.1990 C   0  0  0  0  0  3  0  0  0  0  0  0
    5.2510    6.3440  -13.5110 C   0  0  0  0  0  0  0  0  0  0  0  0
    6.5030    5.1400  -13.2600 Cl  0  0  0  0  0  0  0  0  0  0  0  0
    3.9770    6.1380  -13.0240 C   0  0  0  0  0  3  0  0  0  0  0  0
    2.9860    7.0770  -13.2140 C   0  0  0  0  0  3  0  0  0  0  0  0
    1.2620   12.6990  -12.7990 N   0  0  0  0  0  0  0  0  0  0  0  0
    2.6430   12.2600  -12.9020 C   0  0  0  0  0  2  0  0  0  0  0  0
    3.3870   12.8020  -11.7050 C   0  0  0  0  0  2  0  0  0  0  0  0
    3.2430   14.1980  -11.6420 O   0  0  0  0  0  0  0  0  0  0  0  0
    1.9530   14.5650  -11.3260 C   0  0  0  0  0  2  0  0  0  0  0  0
    0.9890   14.0300  -12.3260 C   0  0  0  0  0  2  0  0  0  0  0  0
  1 16  1  0  0  0  0
  1 17  1  0  0  0  0
  2  1  1  0  0  0  0
  3  2  1  0  0  0  0
  3 15  1  0  0  0  0
  4  3  2  0  0  0  0
  5  4  1  0  0  0  0
  5  6  2  0  0  0  0
  6  7  1  0  0  0  0
  6  2  1  0  0  0  0
  7  8  2  0  0  0  0
  9 14  1  0  0  0  0
  9  7  1  0  0  0  0
 10  9  1  0  0  0  0
 11 10  2  0  0  0  0
 12 10  1  0  0  0  0
 12  5  1  0  0  0  0
 13 12  1  0  0  0  0
 15 16  2  0  0  0  0
 16 27  1  0  0  0  0
 18 20  1  0  0  0  0
 18 17  1  0  0  0  0
 19 18  2  0  0  0  0
 20 26  1  0  0  0  0
 21 22  1  0  0  0  0
 21 20  2  0  0  0  0
 22 23  2  0  0  0  0
 23 24  1  0  0  0  0
 23 25  1  0  0  0  0
 26 25  2  0  0  0  0
 27 32  1  0  0  0  0
 28 27  1  0  0  0  0
 28 29  1  0  0  0  0
 29 30  1  0  0  0  0
 30 31  1  0  0  0  0
 32 31  1  0  0  0  0
M  END
>  <Pose>
1

>  <Score>
-9.202

$$$$
