/Users/jonathanwahrer/Desktop/Msc/3_Semester/Drug_Design_Praktikum/waehrer_HTS_screening/HTS_experiment/out/docking_results/vina_output/6q9y/2177_docked.pdbqt
 OpenBabel03222220403D

 31 35  0  0  0  0  0  0  0  0999 V2000
    1.3390    6.7300  -12.7650 N   0  0  0  0  0  0  0  0  0  0  0  0
    1.3130    7.5320  -11.5650 C   0  0  0  0  0  2  0  0  0  0  0  0
    1.8660    8.8940  -11.8960 C   0  0  0  0  0  2  0  0  0  0  0  0
    1.3470    9.4370  -13.1360 N   0  0  0  0  0  0  0  0  0  0  0  0
    1.3480    8.6000  -14.3190 C   0  0  0  0  0  2  0  0  0  0  0  0
    0.7360    7.2700  -13.9620 C   0  0  0  0  0  2  0  0  0  0  0  0
    1.9520    5.4500  -12.6960 C   0  0  0  0  0  3  0  0  0  0  0  0
    3.2310    5.2150  -12.8780 C   0  0  0  0  0  0  0  0  0  0  0  0
    4.1690    6.2460  -13.1700 N   0  0  0  0  0  0  0  0  0  0  0  0
    3.7230    3.8870  -12.7830 N   0  0  0  0  0  0  0  0  0  0  0  0
    5.5570    6.0290  -13.3720 C   0  0  0  0  0  0  0  0  0  0  0  0
    3.7920    7.2150  -13.2360 H   0  0  0  0  0  0  0  0  0  0  0  0
    6.0440    4.7410  -13.2830 C   0  0  0  0  0  0  0  0  0  0  0  0
    6.4680    7.0240  -13.6560 C   0  0  0  0  0  3  0  0  0  0  0  0
    7.3780    4.4700  -13.4680 C   0  0  0  0  0  3  0  0  0  0  0  0
    5.0960    3.6490  -12.9800 C   0  0  0  0  0  0  0  0  0  0  0  0
    8.2740    5.4770  -13.7510 C   0  0  0  0  0  0  0  0  0  0  0  0
    9.9810    5.0850  -13.9820 Cl  0  0  0  0  0  0  0  0  0  0  0  0
    7.8070    6.7680  -13.8440 C   0  0  0  0  0  3  0  0  0  0  0  0
    5.6080    2.4840  -12.9110 O   0  0  0  0  0  0  0  0  0  0  0  0
    3.0970    3.0770  -12.5720 H   0  0  0  0  0  0  0  0  0  0  0  0
    0.8470   10.7750  -13.1740 C   0  0  0  0  0  0  0  0  0  0  0  0
   -0.4220   10.9830  -13.5760 N   0  0  0  0  0  0  0  0  0  0  0  0
   -0.9390   12.2430  -13.6270 C   0  0  0  0  0  3  0  0  0  0  0  0
   -0.1890   13.3110  -13.2780 N   0  0  0  0  0  0  0  0  0  0  0  0
    1.0770   13.1680  -12.8710 C   0  0  0  0  0  0  0  0  0  0  0  0
    2.0250   14.0360  -12.4750 N   0  0  0  0  0  0  0  0  0  0  0  0
    1.5900   11.8710  -12.8240 C   0  0  0  0  0  0  0  0  0  0  0  0
    3.1060   13.3350  -12.1830 N   0  0  0  0  0  0  0  0  0  0  0  0
    1.9130   15.4950  -12.3740 C   0  0  0  0  0  1  0  0  0  0  0  0
    2.8710   12.0080  -12.3860 C   0  0  0  0  0  3  0  0  0  0  0  0
  1  7  1  0  0  0  0
  1  2  1  0  0  0  0
  3  2  1  0  0  0  0
  4  3  1  0  0  0  0
  5  6  1  0  0  0  0
  5  4  1  0  0  0  0
  6  1  1  0  0  0  0
  8 10  1  0  0  0  0
  8  7  2  0  0  0  0
  9  8  1  0  0  0  0
 10 21  1  0  0  0  0
 11 13  1  0  0  0  0
 11  9  1  0  0  0  0
 12  9  1  0  0  0  0
 13 16  1  0  0  0  0
 14 11  2  0  0  0  0
 15 13  2  0  0  0  0
 16 20  2  0  0  0  0
 16 10  1  0  0  0  0
 17 15  1  0  0  0  0
 18 17  1  0  0  0  0
 19 17  2  0  0  0  0
 19 14  1  0  0  0  0
 22  4  1  0  0  0  0
 22 28  1  0  0  0  0
 23 22  2  0  0  0  0
 24 23  1  0  0  0  0
 24 25  2  0  0  0  0
 25 26  1  0  0  0  0
 26 28  2  0  0  0  0
 26 27  1  0  0  0  0
 27 30  1  0  0  0  0
 27 29  1  0  0  0  0
 28 31  1  0  0  0  0
 31 29  2  0  0  0  0
M  END
>  <Pose>
1

>  <Score>
-9.214

$$$$
