MODEL 1
REMARK VINA RESULT:    -9.214      0.000      0.000
REMARK INTER + INTRA:         -10.797
REMARK INTER:                 -10.292
REMARK INTRA:                  -0.506
REMARK UNBOUND:                -0.506
REMARK  2 active torsions:
REMARK  status: ('A' for Active; 'I' for Inactive)
REMARK    1  A    between atoms: C_10  and  N_11 
REMARK    2  A    between atoms: N_14  and  C_17 
ROOT
ATOM      1  N   UNK d   1       1.339   6.730 -12.765  0.00  0.00    -0.384 N 
ATOM      2  C   UNK d   1       1.313   7.532 -11.565  0.00  0.00     0.142 C 
ATOM      3  C   UNK d   1       1.866   8.894 -11.896  0.00  0.00     0.144 C 
ATOM      4  N   UNK d   1       1.347   9.437 -13.136  0.00  0.00    -0.362 N 
ATOM      5  C   UNK d   1       1.348   8.600 -14.319  0.00  0.00     0.144 C 
ATOM      6  C   UNK d   1       0.736   7.270 -13.962  0.00  0.00     0.142 C 
ENDROOT
BRANCH   1   7
ATOM      7  C   UNK d   1       1.952   5.450 -12.696  0.00  0.00     0.134 C 
ATOM      8  C   UNK d   1       3.231   5.215 -12.878  0.00  0.00     0.124 A 
ATOM      9  N   UNK d   1       4.169   6.246 -13.170  0.00  0.00    -0.340 N 
ATOM     10  N   UNK d   1       3.723   3.887 -12.783  0.00  0.00    -0.308 N 
ATOM     11  C   UNK d   1       5.557   6.029 -13.372  0.00  0.00     0.049 A 
ATOM     12  H   UNK d   1       3.792   7.215 -13.236  0.00  0.00     0.167 HD
ATOM     13  C   UNK d   1       6.044   4.741 -13.283  0.00  0.00     0.060 A 
ATOM     14  C   UNK d   1       6.468   7.024 -13.656  0.00  0.00     0.032 A 
ATOM     15  C   UNK d   1       7.378   4.470 -13.468  0.00  0.00     0.043 A 
ATOM     16  C   UNK d   1       5.096   3.649 -12.980  0.00  0.00     0.259 A 
ATOM     17  C   UNK d   1       8.274   5.477 -13.751  0.00  0.00     0.035 A 
ATOM     18 Cl   UNK d   1       9.981   5.085 -13.982  0.00  0.00    -0.084 Cl
ATOM     19  C   UNK d   1       7.807   6.768 -13.844  0.00  0.00     0.026 A 
ATOM     20  O   UNK d   1       5.608   2.484 -12.911  0.00  0.00    -0.267 OA
ATOM     21  H   UNK d   1       3.097   3.077 -12.572  0.00  0.00     0.170 HD
ENDBRANCH   1   7
BRANCH   4  22
ATOM     22  C   UNK d   1       0.847  10.775 -13.174  0.00  0.00     0.142 A 
ATOM     23  N   UNK d   1      -0.422  10.983 -13.576  0.00  0.00    -0.224 NA
ATOM     24  C   UNK d   1      -0.939  12.243 -13.627  0.00  0.00     0.237 A 
ATOM     25  N   UNK d   1      -0.189  13.311 -13.278  0.00  0.00    -0.222 NA
ATOM     26  C   UNK d   1       1.077  13.168 -12.871  0.00  0.00     0.162 A 
ATOM     27  N   UNK d   1       2.025  14.036 -12.475  0.00  0.00    -0.256 N 
ATOM     28  C   UNK d   1       1.590  11.871 -12.824  0.00  0.00     0.076 A 
ATOM     29  N   UNK d   1       3.106  13.335 -12.183  0.00  0.00    -0.182 NA
ATOM     30  C   UNK d   1       1.913  15.495 -12.374  0.00  0.00     0.182 C 
ATOM     31  C   UNK d   1       2.871  12.008 -12.386  0.00  0.00     0.158 A 
ENDBRANCH   4  22
TORSDOF 2
ENDMDL
