MODEL 1
REMARK VINA RESULT:    -9.088      0.000      0.000
REMARK INTER + INTRA:         -11.802
REMARK INTER:                 -11.213
REMARK INTRA:                  -0.589
REMARK UNBOUND:                -0.589
REMARK  4 active torsions:
REMARK  status: ('A' for Active; 'I' for Inactive)
REMARK    1  A    between atoms: C_13  and  C_14 
REMARK    2  A    between atoms: C_14  and  N_15 
REMARK    3  A    between atoms: N_18  and  C_21 
REMARK    4  A    between atoms: C_24  and  O_27 
ROOT
ATOM      1  N   UNK d   1      -4.385   8.817 -14.307  0.00  0.00    -0.064 N 
ATOM      2  C   UNK d   1      -5.208   9.067 -15.389  0.00  0.00     0.255 C 
ATOM      3  C   UNK d   1      -6.705   8.781 -15.019  0.00  0.00     0.150 C 
ATOM      4  N   UNK d   1      -6.924   9.985 -14.083  0.00  0.00    -0.378 N 
ATOM      5  C   UNK d   1      -6.205   9.861 -12.911  0.00  0.00     0.150 C 
ATOM      6  C   UNK d   1      -5.256   8.657 -13.107  0.00  0.00     0.255 C 
ATOM      7  H   UNK d   1      -4.007   7.821 -14.418  0.00  0.00     0.280 HD
ENDROOT
BRANCH   1   8
ATOM      8  C   UNK d   1      -3.292   9.596 -13.918  0.00  0.00     0.274 C 
BRANCH   8   9
ATOM      9  C   UNK d   1      -1.920   9.065 -13.867  0.00  0.00    -0.014 A 
ATOM     10  C   UNK d   1      -0.947  10.074 -13.577  0.00  0.00     0.008 A 
ATOM     11  C   UNK d   1      -1.329  11.367 -13.499  0.00  0.00     0.041 A 
ATOM     12  C   UNK d   1       0.361   9.712 -13.410  0.00  0.00     0.093 A 
ATOM     13  C   UNK d   1      -0.419  12.359 -13.250  0.00  0.00     0.071 A 
ATOM     14 Cl   UNK d   1      -0.830  14.077 -13.197  0.00  0.00    -0.081 Cl
ATOM     15  C   UNK d   1       0.932  12.046 -13.063  0.00  0.00     0.131 A 
ATOM     16  C   UNK d   1       1.304  10.734 -13.149  0.00  0.00     0.080 A 
ATOM     17  O   UNK d   1       1.895  13.040 -12.777  0.00  0.00    -0.190 OA
ATOM     18  O   UNK d   1       0.770   8.479 -13.504  0.00  0.00    -0.275 OA
ATOM     19  C   UNK d   1      -0.096   7.508 -13.773  0.00  0.00     0.288 A 
ATOM     20  O   UNK d   1       0.315   6.344 -13.857  0.00  0.00    -0.260 OA
ATOM     21  C   UNK d   1      -1.463   7.797 -13.960  0.00  0.00     0.092 A 
ENDBRANCH   8   9
ENDBRANCH   1   8
BRANCH   4  22
ATOM     22  C   UNK d   1      -7.751  10.973 -14.661  0.00  0.00     0.030 A 
ATOM     23  C   UNK d   1      -8.292  10.947 -15.899  0.00  0.00     0.032 A 
ATOM     24  C   UNK d   1      -9.307  11.865 -16.294  0.00  0.00     0.039 A 
ATOM     25  C   UNK d   1      -9.784  12.819 -15.435  0.00  0.00     0.068 A 
ATOM     26  C   UNK d   1      -9.228  12.859 -14.160  0.00  0.00     0.039 A 
ATOM     27  C   UNK d   1      -8.237  11.963 -13.787  0.00  0.00     0.032 A 
BRANCH  25  28
ATOM     28  O   UNK d   1     -10.774  13.693 -15.866  0.00  0.00    -0.356 OA
ATOM     29  C   UNK d   1     -11.315  13.598 -17.193  0.00  0.00     0.210 C 
ENDBRANCH  25  28
ENDBRANCH   4  22
TORSDOF 4
ENDMDL
