/Users/jonathanwahrer/Desktop/Msc/3_Semester/Drug_Design_Praktikum/waehrer_HTS_screening/HTS_experiment/out/docking_results/vina_output/6q9y/2184_docked.pdbqt
 OpenBabel03222220403D

 29 32  0  0  0  0  0  0  0  0999 V2000
   -4.3850    8.8170  -14.3070 N   0  0  0  0  0  4  0  0  0  0  0  0
   -5.2080    9.0670  -15.3890 C   0  0  0  0  0  2  0  0  0  0  0  0
   -6.7050    8.7810  -15.0190 C   0  0  0  0  0  2  0  0  0  0  0  0
   -6.9240    9.9850  -14.0830 N   0  0  0  0  0  0  0  0  0  0  0  0
   -6.2050    9.8610  -12.9110 C   0  0  0  0  0  2  0  0  0  0  0  0
   -5.2560    8.6570  -13.1070 C   0  0  0  0  0  2  0  0  0  0  0  0
   -4.0070    7.8210  -14.4180 H   0  0  0  0  0  0  0  0  0  0  0  0
   -3.2920    9.5960  -13.9180 C   0  0  0  0  0  2  0  0  0  0  0  0
   -1.9200    9.0650  -13.8670 C   0  0  0  0  0  0  0  0  0  0  0  0
   -0.9470   10.0740  -13.5770 C   0  0  0  0  0  0  0  0  0  0  0  0
   -1.3290   11.3670  -13.4990 C   0  0  0  0  0  3  0  0  0  0  0  0
    0.3610    9.7120  -13.4100 C   0  0  0  0  0  0  0  0  0  0  0  0
   -0.4190   12.3590  -13.2500 C   0  0  0  0  0  0  0  0  0  0  0  0
   -0.8300   14.0770  -13.1970 Cl  0  0  0  0  0  0  0  0  0  0  0  0
    0.9320   12.0460  -13.0630 C   0  0  0  0  0  0  0  0  0  0  0  0
    1.3040   10.7340  -13.1490 C   0  0  0  0  0  3  0  0  0  0  0  0
    1.8950   13.0400  -12.7770 O   0  0  0  0  0  1  0  0  0  0  0  0
    0.7700    8.4790  -13.5040 O   0  0  0  0  0  0  0  0  0  0  0  0
   -0.0960    7.5080  -13.7730 C   0  0  0  0  0  0  0  0  0  0  0  0
    0.3150    6.3440  -13.8570 O   0  0  0  0  0  0  0  0  0  0  0  0
   -1.4630    7.7970  -13.9600 C   0  0  0  0  0  3  0  0  0  0  0  0
   -7.7510   10.9730  -14.6610 C   0  0  0  0  0  0  0  0  0  0  0  0
   -8.2920   10.9470  -15.8990 C   0  0  0  0  0  3  0  0  0  0  0  0
   -9.3070   11.8650  -16.2940 C   0  0  0  0  0  3  0  0  0  0  0  0
   -9.7840   12.8190  -15.4350 C   0  0  0  0  0  0  0  0  0  0  0  0
   -9.2280   12.8590  -14.1600 C   0  0  0  0  0  3  0  0  0  0  0  0
   -8.2370   11.9630  -13.7870 C   0  0  0  0  0  3  0  0  0  0  0  0
  -10.7740   13.6930  -15.8660 O   0  0  0  0  0  0  0  0  0  0  0  0
  -11.3150   13.5980  -17.1930 C   0  0  0  0  0  1  0  0  0  0  0  0
  1  8  1  0  0  0  0
  1  6  1  0  0  0  0
  2  3  1  0  0  0  0
  2  1  1  0  0  0  0
  3  4  1  0  0  0  0
  4  5  1  0  0  0  0
  6  5  1  0  0  0  0
  7  1  1  0  0  0  0
  8  9  1  0  0  0  0
  9 10  1  0  0  0  0
 10 11  2  0  0  0  0
 10 12  1  0  0  0  0
 11 13  1  0  0  0  0
 12 16  2  0  0  0  0
 13 14  1  0  0  0  0
 13 15  2  0  0  0  0
 15 17  1  0  0  0  0
 16 15  1  0  0  0  0
 18 12  1  0  0  0  0
 19 18  1  0  0  0  0
 20 19  2  0  0  0  0
 21  9  2  0  0  0  0
 21 19  1  0  0  0  0
 22  4  1  0  0  0  0
 22 27  1  0  0  0  0
 23 22  2  0  0  0  0
 24 23  1  0  0  0  0
 24 25  2  0  0  0  0
 25 26  1  0  0  0  0
 26 27  2  0  0  0  0
 28 25  1  0  0  0  0
 29 28  1  0  0  0  0
M  END
>  <Pose>
1

>  <Score>
-9.088

$$$$
