MODEL 1
REMARK VINA RESULT:    -9.795      0.000      0.000
REMARK INTER + INTRA:         -12.276
REMARK INTER:                 -12.371
REMARK INTRA:                   0.095
REMARK UNBOUND:                 0.095
REMARK  5 active torsions:
REMARK  status: ('A' for Active; 'I' for Inactive)
REMARK    1  A    between atoms: S_1  and  N_4 
REMARK    2  A    between atoms: C_6  and  C_10 
REMARK    3  A    between atoms: N_13  and  C_20 
REMARK    4  A    between atoms: C_17  and  O_19 
REMARK    5  A    between atoms: C_20  and  C_21 
ROOT
ATOM      1  C   UNK d   1       0.355  12.552 -13.509  0.00  0.00     0.137 A 
ATOM      2  N   UNK d   1      -0.295  13.714 -13.496  0.00  0.00    -0.211 NA
ATOM      3  C   UNK d   1       0.140  14.764 -12.777  0.00  0.00     0.184 A 
ATOM      4  N   UNK d   1      -0.319  16.032 -12.589  0.00  0.00    -0.227 N 
ATOM      5  N   UNK d   1       0.529  16.616 -11.769  0.00  0.00    -0.063 NA
ATOM      6  N   UNK d   1       1.504  15.799 -11.419  0.00  0.00    -0.124 NA
ATOM      7  C   UNK d   1       1.301  14.625 -12.028  0.00  0.00     0.180 A 
ATOM      8  C   UNK d   1       1.987  13.422 -12.032  0.00  0.00     0.199 A 
ATOM      9  N   UNK d   1       1.470  12.439 -12.780  0.00  0.00    -0.207 NA
ENDROOT
BRANCH   1  10
ATOM     10  C   UNK d   1      -0.092  11.373 -14.298  0.00  0.00     0.076 C 
ATOM     11  C   UNK d   1       0.589  10.116 -13.982  0.00  0.00     0.147 C 
ATOM     12  N   UNK d   1      -0.065   9.096 -13.295  0.00  0.00    -0.310 N 
ATOM     13  C   UNK d   1      -1.288   9.309 -12.674  0.00  0.00     0.135 C 
ATOM     14  C   UNK d   1      -1.879  10.683 -12.800  0.00  0.00     0.021 C 
ATOM     15  C   UNK d   1      -1.585  11.236 -14.149  0.00  0.00     0.015 C 
BRANCH  12  16
ATOM     16  S   UNK d   1       0.959   7.915 -12.639  0.00  0.00     0.224 S 
ATOM     17  O   UNK d   1       1.068   7.987 -11.157  0.00  0.00    -0.206 OA
ATOM     18  O   UNK d   1       2.323   8.066 -13.282  0.00  0.00    -0.206 OA
ATOM     19  C   UNK d   1       0.406   6.263 -13.089  0.00  0.00     0.186 C 
ENDBRANCH  12  16
ENDBRANCH   1  10
BRANCH   8  20
ATOM     20  O   UNK d   1       3.149  13.264 -11.290  0.00  0.00    -0.343 OA
ATOM     21  H   UNK d   1       3.933  13.880 -11.440  0.00  0.00     0.219 HD
ENDBRANCH   8  20
BRANCH   4  22
ATOM     22  C   UNK d   1      -1.491  16.604 -13.174  0.00  0.00     0.195 C 
BRANCH  22  23
ATOM     23  C   UNK d   1      -2.096  17.684 -12.356  0.00  0.00    -0.017 A 
ATOM     24  C   UNK d   1      -3.257  18.267 -12.798  0.00  0.00     0.042 A 
ATOM     25  C   UNK d   1      -3.891  19.287 -12.092  0.00  0.00     0.024 A 
ATOM     26 Cl   UNK d   1      -3.995  17.736 -14.295  0.00  0.00    -0.084 Cl
ATOM     27  C   UNK d   1      -3.351  19.742 -10.908  0.00  0.00     0.002 A 
ATOM     28  C   UNK d   1      -2.187  19.161 -10.458  0.00  0.00     0.001 A 
ATOM     29  C   UNK d   1      -1.561  18.141 -11.173  0.00  0.00     0.010 A 
ENDBRANCH  22  23
ENDBRANCH   4  22
TORSDOF 5
ENDMDL
