MODEL 1
REMARK VINA RESULT:    -8.197      0.000      0.000
REMARK INTER + INTRA:         -10.149
REMARK INTER:                 -10.593
REMARK INTRA:                   0.443
REMARK UNBOUND:                 0.443
REMARK  5 active torsions:
REMARK  status: ('A' for Active; 'I' for Inactive)
REMARK    1  A    between atoms: S_1  and  N_4 
REMARK    2  A    between atoms: S_1  and  C_22 
REMARK    3  A    between atoms: C_6  and  C_10 
REMARK       I    between atoms: C_10  and  N_12 
REMARK    4  A    between atoms: N_15  and  C_18 
REMARK    5  A    between atoms: C_18  and  C_19 
ROOT
ATOM      1  N   UNK d   1       2.518   8.602 -13.167  0.00  0.00    -0.202 NA
ATOM      2  C   UNK d   1       2.679   9.882 -12.447  0.00  0.00     0.149 C 
ATOM      3  C   UNK d   1       2.928  10.931 -13.466  0.00  0.00     0.227 C 
ATOM      4  O   UNK d   1       3.841  10.701 -14.427  0.00  0.00    -0.374 OA
ATOM      5  C   UNK d   1       4.267   9.453 -14.672  0.00  0.00     0.184 C 
ATOM      6  C   UNK d   1       3.777   8.371 -13.773  0.00  0.00     0.134 C 
ENDROOT
BRANCH   3   7
ATOM      7  C   UNK d   1       3.298  12.175 -12.730  0.00  0.00     0.250 C 
ATOM      8  O   UNK d   1       4.520  12.351 -12.478  0.00  0.00    -0.270 OA
ATOM      9  N   UNK d   1       2.386  13.158 -12.301  0.00  0.00    -0.347 N 
ATOM     10  C   UNK d   1       0.953  13.092 -12.518  0.00  0.00     0.156 C 
ATOM     11  C   UNK d   1       2.832  14.360 -11.582  0.00  0.00     0.156 C 
ATOM     12  C   UNK d   1       0.336  14.276 -11.800  0.00  0.00     0.292 C 
ATOM     13  N   UNK d   1       0.812  15.549 -12.308  0.00  0.00     0.091 N 
ATOM     14  C   UNK d   1       2.238  15.530 -12.377  0.00  0.00     0.292 C 
BRANCH  13  15
ATOM     15  C   UNK d   1       0.145  15.818 -13.541  0.00  0.00     0.277 C 
BRANCH  15  16
ATOM     16  C   UNK d   1      -1.315  16.145 -13.384  0.00  0.00     0.014 A 
ATOM     17  C   UNK d   1      -1.740  17.383 -14.172  0.00  0.00     0.007 A 
ATOM     18  C   UNK d   1      -1.786  17.337 -12.677  0.00  0.00     0.007 A 
ENDBRANCH  15  16
ENDBRANCH  13  15
ENDBRANCH   3   7
BRANCH   1  19
ATOM     19  S   UNK d   1       1.129   8.598 -14.119  0.00  0.00     0.245 S 
ATOM     20  O   UNK d   1       0.327   9.858 -13.763  0.00  0.00    -0.206 OA
ATOM     21  O   UNK d   1       1.409   8.749 -15.594  0.00  0.00    -0.206 OA
BRANCH  19  22
ATOM     22  C   UNK d   1       0.065   7.265 -13.803  0.00  0.00     0.096 A 
ATOM     23  C   UNK d   1       0.192   6.484 -12.676  0.00  0.00     0.056 A 
ATOM     24  C   UNK d   1      -0.614   5.385 -12.446  0.00  0.00     0.025 A 
ATOM     25 Cl   UNK d   1       1.357   6.909 -11.408  0.00  0.00    -0.083 Cl
ATOM     26  C   UNK d   1      -1.580   5.051 -13.361  0.00  0.00     0.002 A 
ATOM     27  C   UNK d   1      -1.725   5.828 -14.501  0.00  0.00     0.002 A 
ATOM     28  C   UNK d   1      -0.923   6.912 -14.724  0.00  0.00     0.026 A 
ENDBRANCH  19  22
ENDBRANCH   1  19
TORSDOF 5
ENDMDL
