MODEL 1
REMARK VINA RESULT:    -7.977      0.000      0.000
REMARK INTER + INTRA:         -10.978
REMARK INTER:                 -11.008
REMARK INTRA:                   0.030
REMARK UNBOUND:                 0.030
REMARK  7 active torsions:
REMARK  status: ('A' for Active; 'I' for Inactive)
REMARK    1  A    between atoms: C_4  and  C_10 
REMARK    2  A    between atoms: C_5  and  O_8 
REMARK    3  A    between atoms: C_18  and  C_19 
REMARK    4  A    between atoms: C_19  and  N_20 
REMARK    5  A    between atoms: N_23  and  C_26 
REMARK    6  A    between atoms: C_26  and  C_27 
REMARK    7  A    between atoms: C_27  and  O_28 
ROOT
ATOM      1  C   UNK d   1      -1.236  12.744 -13.618  0.00  0.00     0.055 C 
ATOM      2  C   UNK d   1      -1.159  11.409 -13.550  0.00  0.00     0.128 A 
ATOM      3  O   UNK d   1      -0.066  10.717 -13.040  0.00  0.00    -0.305 OA
ATOM      4  C   UNK d   1      -0.338   9.343 -13.095  0.00  0.00     0.101 A 
ATOM      5  C   UNK d   1      -1.564   9.077 -13.624  0.00  0.00     0.051 A 
ATOM      6  C   UNK d   1      -2.041   7.793 -13.748  0.00  0.00     0.021 A 
ATOM      7  C   UNK d   1      -1.261   6.722 -13.325  0.00  0.00     0.041 A 
ATOM      8  C   UNK d   1      -0.004   7.002 -12.786  0.00  0.00     0.118 A 
ATOM      9  C   UNK d   1       0.463   8.271 -12.668  0.00  0.00     0.039 A 
ATOM     10  O   UNK d   1       0.716   5.876 -12.387  0.00  0.00    -0.191 OA
ATOM     11  C   UNK d   1      -2.138  10.418 -13.943  0.00  0.00     0.218 A 
ATOM     12  O   UNK d   1      -3.242  10.644 -14.455  0.00  0.00    -0.284 OA
ENDROOT
BRANCH   9  13
ATOM     13  C   UNK d   1       1.847   8.628 -12.289  0.00  0.00     0.279 C 
BRANCH  13  14
ATOM     14  N   UNK d   1       2.727   8.684 -13.360  0.00  0.00    -0.064 N 
ATOM     15  C   UNK d   1       3.704   9.810 -13.228  0.00  0.00     0.254 C 
ATOM     16  C   UNK d   1       5.077   9.149 -13.512  0.00  0.00     0.144 C 
ATOM     17  N   UNK d   1       4.869   7.877 -14.129  0.00  0.00    -0.407 N 
ATOM     18  C   UNK d   1       3.954   7.861 -15.202  0.00  0.00     0.144 C 
ATOM     19  C   UNK d   1       2.551   8.428 -14.711  0.00  0.00     0.254 C 
ATOM     20  H   UNK d   1       3.436   7.852 -13.013  0.00  0.00     0.280 HD
BRANCH  17  21
ATOM     21  C   UNK d   1       5.540   6.776 -13.644  0.00  0.00     0.143 C 
BRANCH  21  22
ATOM     22  C   UNK d   1       4.813   5.495 -13.390  0.00  0.00     0.183 C 
BRANCH  22  23
ATOM     23  O   UNK d   1       3.641   5.718 -12.650  0.00  0.00    -0.399 OA
ATOM     24  H   UNK d   1       3.285   4.826 -12.329  0.00  0.00     0.209 HD
ENDBRANCH  22  23
ENDBRANCH  21  22
ENDBRANCH  17  21
ENDBRANCH  13  14
ENDBRANCH   9  13
BRANCH   1  25
ATOM     25  C   UNK d   1      -0.062  13.463 -13.092  0.00  0.00     0.001 A 
ATOM     26  C   UNK d   1       1.069  12.778 -12.824  0.00  0.00     0.033 A 
ATOM     27  C   UNK d   1       2.147  13.459 -12.235  0.00  0.00     0.011 A 
ATOM     28 Br   UNK d   1       3.758  12.519 -11.846  0.00  0.00    -0.051 Br
ATOM     29  C   UNK d   1       2.077  14.795 -11.925  0.00  0.00     0.022 A 
ATOM     30  C   UNK d   1       0.903  15.463 -12.208  0.00  0.00     0.039 A 
ATOM     31  C   UNK d   1      -0.185  14.803 -12.799  0.00  0.00     0.078 A 
BRANCH  31  32
ATOM     32  O   UNK d   1      -1.367  15.472 -13.083  0.00  0.00    -0.355 OA
ATOM     33  C   UNK d   1      -1.566  16.842 -13.049  0.00  0.00     0.210 C 
ENDBRANCH  31  32
ENDBRANCH   1  25
TORSDOF 7
ENDMDL
