MODEL 1
REMARK VINA RESULT:    -3.299      0.000      0.000
REMARK INTER + INTRA:          -2.730
REMARK INTER:                  -3.492
REMARK INTRA:                   0.762
REMARK UNBOUND:                 0.762
REMARK  1 active torsions:
REMARK  status: ('A' for Active; 'I' for Inactive)
REMARK    1  A    between atoms: C_9  and  C_21 
ROOT
ATOM      1 Cl   UNK d   1      -1.145  13.936 -12.353  0.00  0.00    -0.081 Cl
ATOM      2  C   UNK d   1       0.160  12.903 -12.894  0.00  0.00     0.070 A 
ATOM      3  C   UNK d   1      -0.164  11.626 -13.375  0.00  0.00     0.107 A 
ATOM      4  C   UNK d   1       0.836  10.793 -13.806  0.00  0.00    -0.007 A 
ATOM      5  C   UNK d   1       2.146  11.280 -13.738  0.00  0.00     0.035 A 
ATOM      6  C   UNK d   1       2.452  12.536 -13.264  0.00  0.00     0.036 A 
ATOM      7  C   UNK d   1       1.446  13.379 -12.828  0.00  0.00     0.050 A 
ATOM      8 Cl   UNK d   1       4.108  13.125 -13.189  0.00  0.00    -0.084 Cl
ATOM      9  C   UNK d   1       0.589   9.439 -14.324  0.00  0.00     0.107 A 
ATOM     10  C   UNK d   1      -0.849   9.122 -14.313  0.00  0.00     0.075 A 
ATOM     11  C   UNK d   1      -1.826   9.963 -13.882  0.00  0.00     0.167 A 
ATOM     12  N   UNK d   1      -3.146   9.619 -13.892  0.00  0.00    -0.283 N 
ATOM     13  C   UNK d   1      -3.463   8.409 -14.347  0.00  0.00     0.332 A 
ATOM     14  O   UNK d   1      -4.680   8.043 -14.376  0.00  0.00    -0.246 OA
ATOM     15  N   UNK d   1      -2.527   7.543 -14.785  0.00  0.00    -0.270 N 
ATOM     16  C   UNK d   1      -1.230   7.870 -14.780  0.00  0.00     0.262 A 
ATOM     17  O   UNK d   1      -0.356   7.063 -15.188  0.00  0.00    -0.267 OA
ATOM     18  C   UNK d   1      -2.938   6.234 -15.272  0.00  0.00     0.164 C 
ATOM     19  C   UNK d   1      -4.161  10.538 -13.425  0.00  0.00     0.163 C 
ATOM     20  O   UNK d   1      -1.479  11.203 -13.418  0.00  0.00    -0.290 OA
ENDROOT
BRANCH   9  21
ATOM     21  C   UNK d   1       1.385   8.412 -13.574  0.00  0.00     0.078 A 
ATOM     22  C   UNK d   1       2.569   7.912 -14.059  0.00  0.00     0.197 A 
ATOM     23  N   UNK d   1       3.297   6.986 -13.416  0.00  0.00    -0.281 N 
ATOM     24  O   UNK d   1       3.037   8.384 -15.268  0.00  0.00    -0.171 OA
ATOM     25  C   UNK d   1       2.839   6.526 -12.235  0.00  0.00     0.332 A 
ATOM     26  C   UNK d   1       4.546   6.481 -13.953  0.00  0.00     0.163 C 
ATOM     27  O   UNK d   1       3.533   5.652 -11.638  0.00  0.00    -0.246 OA
ATOM     28  N   UNK d   1       1.684   6.987 -11.723  0.00  0.00    -0.270 N 
ATOM     29  C   UNK d   1       0.944   7.913 -12.349  0.00  0.00     0.262 A 
ATOM     30  C   UNK d   1       1.235   6.461 -10.455  0.00  0.00     0.164 C 
ATOM     31  O   UNK d   1      -0.136   8.362 -11.896  0.00  0.00    -0.267 OA
ENDBRANCH   9  21
TORSDOF 1
ENDMDL
