MODEL 1
REMARK VINA RESULT:    -6.456      0.000      0.000
REMARK INTER + INTRA:          -8.414
REMARK INTER:                  -7.966
REMARK INTRA:                  -0.447
REMARK UNBOUND:                -0.447
REMARK  4 active torsions:
REMARK  status: ('A' for Active; 'I' for Inactive)
REMARK    1  A    between atoms: C_13  and  C_27 
REMARK    2  A    between atoms: N_18  and  C_21 
REMARK    3  A    between atoms: C_21  and  C_22 
REMARK    4  A    between atoms: C_27  and  C_28 
REMARK       I    between atoms: C_28  and  N_30 
ROOT
ATOM      1 Cl   UNK d   1      -0.692  15.478 -13.790  0.00  0.00    -0.084 Cl
ATOM      2  C   UNK d   1       0.533  14.387 -13.178  0.00  0.00     0.034 A 
ATOM      3  C   UNK d   1       0.499  13.041 -13.419  0.00  0.00     0.036 A 
ATOM      4  C   UNK d   1       1.498  12.206 -12.911  0.00  0.00     0.019 A 
ATOM      5  C   UNK d   1       2.495  12.776 -12.176  0.00  0.00     0.044 A 
ATOM      6  C   UNK d   1       2.532  14.158 -11.927  0.00  0.00     0.032 A 
ATOM      7  C   UNK d   1       1.555  14.973 -12.424  0.00  0.00     0.026 A 
ATOM      8  N   UNK d   1       3.395  11.754 -11.760  0.00  0.00    -0.324 N 
ATOM      9  C   UNK d   1       2.953  10.510 -12.246  0.00  0.00     0.267 A 
ATOM     10  O   UNK d   1       3.552   9.408 -12.034  0.00  0.00    -0.270 OA
ATOM     11  C   UNK d   1       1.722  10.754 -13.006  0.00  0.00     0.279 A 
ATOM     12  N   UNK d   1       0.569  10.116 -12.411  0.00  0.00     0.114 N 
ATOM     13  C   UNK d   1       0.051   9.119 -13.294  0.00  0.00     0.245 C 
ATOM     14  C   UNK d   1       1.052   8.986 -14.372  0.00  0.00     0.128 C 
ATOM     15  C   UNK d   1       1.816  10.279 -14.436  0.00  0.00     0.147 C 
ATOM     16  C   UNK d   1       3.178   9.831 -14.802  0.00  0.00     0.235 C 
ATOM     17  O   UNK d   1       4.115  10.505 -15.298  0.00  0.00    -0.272 OA
ATOM     18  N   UNK d   1       3.326   8.427 -14.503  0.00  0.00    -0.285 N 
ATOM     19  C   UNK d   1       2.098   8.001 -13.925  0.00  0.00     0.233 C 
ATOM     20  O   UNK d   1       1.959   6.993 -13.193  0.00  0.00    -0.272 OA
ATOM     21  H   UNK d   1       4.273  11.886 -11.173  0.00  0.00     0.169 HD
ATOM     22  H   UNK d   1      -0.204  10.785 -12.199  0.00  0.00     0.318 HD
ENDROOT
BRANCH  13  23
ATOM     23  C   UNK d   1      -1.344   9.426 -13.769  0.00  0.00     0.139 C 
BRANCH  23  24
ATOM     24  C   UNK d   1      -2.179   8.265 -14.007  0.00  0.00     0.217 C 
ATOM     25  O   UNK d   1      -3.355   8.407 -14.405  0.00  0.00    -0.274 OA
ATOM     26  N   UNK d   1      -1.686   6.958 -13.796  0.00  0.00    -0.370 N 
ATOM     27  H   UNK d   1      -1.768   6.249 -14.562  0.00  0.00     0.159 HD
ATOM     28  H   UNK d   1      -1.238   6.637 -12.918  0.00  0.00     0.159 HD
ENDBRANCH  23  24
ENDBRANCH  13  23
BRANCH  18  29
ATOM     29  C   UNK d   1       4.508   7.628 -14.750  0.00  0.00     0.166 C 
BRANCH  29  30
ATOM     30  C   UNK d   1       5.334   7.394 -13.515  0.00  0.00     0.140 C 
ATOM     31  O   UNK d   1       4.996   6.165 -12.954  0.00  0.00    -0.384 OA
ATOM     32  C   UNK d   1       5.846   5.225 -13.490  0.00  0.00     0.168 C 
ATOM     33  C   UNK d   1       7.138   5.918 -13.862  0.00  0.00     0.029 C 
ATOM     34  C   UNK d   1       6.804   7.392 -13.743  0.00  0.00     0.035 C 
ENDBRANCH  29  30
ENDBRANCH  18  29
TORSDOF 4
ENDMDL
