MODEL 1
REMARK VINA RESULT:    -8.145      0.000      0.000
REMARK INTER + INTRA:         -11.375
REMARK INTER:                 -10.525
REMARK INTRA:                  -0.849
REMARK UNBOUND:                -0.849
REMARK  5 active torsions:
REMARK  status: ('A' for Active; 'I' for Inactive)
REMARK    1  A    between atoms: C_5  and  O_8 
REMARK    2  A    between atoms: O_8  and  C_9 
REMARK    3  A    between atoms: C_9  and  C_10 
REMARK       I    between atoms: C_10  and  N_12 
REMARK    4  A    between atoms: N_15  and  C_18 
REMARK    5  A    between atoms: C_20  and  N_24 
ROOT
ATOM      1  C   UNK d   1       2.231   6.957 -12.996  0.00  0.00     0.177 C 
ATOM      2  O   UNK d   1       3.237   6.529 -12.284  0.00  0.00    -0.175 OA
ATOM      3  N   UNK d   1       2.554   7.770 -14.070  0.00  0.00    -0.358 N 
ATOM      4  C   UNK d   1       3.999   8.083 -14.292  0.00  0.00     0.144 C 
ATOM      5  C   UNK d   1       4.051   9.542 -14.671  0.00  0.00     0.144 C 
ATOM      6  N   UNK d   1       2.872  10.281 -14.256  0.00  0.00    -0.362 N 
ATOM      7  C   UNK d   1       1.610   9.875 -14.816  0.00  0.00     0.144 C 
ATOM      8  C   UNK d   1       1.692   8.376 -15.051  0.00  0.00     0.144 C 
ENDROOT
BRANCH   6   9
ATOM      9  C   UNK d   1       2.989  11.346 -13.338  0.00  0.00     0.146 A 
ATOM     10  N   UNK d   1       1.982  12.247 -13.168  0.00  0.00    -0.045 NA
ATOM     11  C   UNK d   1       2.044  13.260 -12.316  0.00  0.00     0.726 A 
ATOM     12  N   UNK d   1       3.180  13.391 -11.583  0.00  0.00    -0.075 NA
ATOM     13  C   UNK d   1       4.199  12.558 -11.692  0.00  0.00     0.140 A 
ATOM     14  C   UNK d   1       4.128  11.497 -12.588  0.00  0.00     0.071 A 
BRANCH  11  15
ATOM     15  N   UNK d   1       1.005  14.206 -12.128  0.00  0.00    -0.210 N 
ATOM     16  C   UNK d   1      -0.278  14.019 -12.797  0.00  0.00     0.167 C 
ATOM     17  C   UNK d   1      -0.540  15.335 -13.535  0.00  0.00     0.188 C 
ATOM     18  O   UNK d   1      -0.601  16.371 -12.642  0.00  0.00    -0.388 OA
ATOM     19  C   UNK d   1       0.564  16.612 -11.953  0.00  0.00     0.188 C 
ATOM     20  C   UNK d   1       1.138  15.376 -11.297  0.00  0.00     0.167 C 
ENDBRANCH  11  15
ENDBRANCH   6   9
BRANCH   1  21
ATOM     21  C   UNK d   1       0.918   6.484 -12.516  0.00  0.00     0.262 C 
BRANCH  21  22
ATOM     22  O   UNK d   1      -0.207   6.792 -13.054  0.00  0.00    -0.343 OA
BRANCH  22  23
ATOM     23  C   UNK d   1      -1.343   7.133 -13.571  0.00  0.00     0.069 A 
ATOM     24  C   UNK d   1      -1.853   8.449 -13.583  0.00  0.00     0.038 A 
ATOM     25  C   UNK d   1      -3.058   8.744 -14.145  0.00  0.00     0.026 A 
ATOM     26  C   UNK d   1      -3.851   7.785 -14.732  0.00  0.00     0.034 A 
ATOM     27 Cl   UNK d   1      -5.394   8.180 -15.447  0.00  0.00    -0.084 Cl
ATOM     28  C   UNK d   1      -3.371   6.495 -14.730  0.00  0.00     0.026 A 
ATOM     29  C   UNK d   1      -2.170   6.164 -14.177  0.00  0.00     0.038 A 
ENDBRANCH  22  23
ENDBRANCH  21  22
ENDBRANCH   1  21
TORSDOF 5
ENDMDL
