MODEL 1
REMARK VINA RESULT:    -8.640      0.000      0.000
REMARK INTER + INTRA:         -10.358
REMARK INTER:                 -10.155
REMARK INTRA:                  -0.202
REMARK UNBOUND:                -0.202
REMARK  3 active torsions:
REMARK  status: ('A' for Active; 'I' for Inactive)
REMARK    1  A    between atoms: C_5  and  N_8 
REMARK    2  A    between atoms: C_16  and  N_17 
REMARK       I    between atoms: N_20  and  C_23 
REMARK    3  A    between atoms: C_23  and  C_25 
ROOT
ATOM      1  N   UNK d   1       4.765   6.381 -13.171  0.00  0.00    -0.195 N 
ATOM      2  N   UNK d   1       3.713   5.741 -12.691  0.00  0.00    -0.058 NA
ATOM      3  N   UNK d   1       2.586   6.357 -12.992  0.00  0.00    -0.124 NA
ATOM      4  C   UNK d   1       2.865   7.461 -13.706  0.00  0.00     0.174 A 
ATOM      5  C   UNK d   1       4.241   7.459 -13.808  0.00  0.00     0.188 A 
ATOM      6  N   UNK d   1       4.823   8.473 -14.487  0.00  0.00    -0.220 NA
ATOM      7  C   UNK d   1       4.051   9.432 -15.031  0.00  0.00     0.237 A 
ATOM      8  N   UNK d   1       2.699   9.429 -14.927  0.00  0.00    -0.222 NA
ATOM      9  C   UNK d   1       2.069   8.443 -14.261  0.00  0.00     0.162 A 
ENDROOT
BRANCH   9  10
ATOM     10  N   UNK d   1       0.647   8.423 -14.143  0.00  0.00    -0.361 N 
ATOM     11  C   UNK d   1      -0.023   7.217 -14.593  0.00  0.00     0.144 C 
ATOM     12  C   UNK d   1      -1.375   7.055 -13.903  0.00  0.00     0.144 C 
ATOM     13  N   UNK d   1      -2.008   8.309 -13.700  0.00  0.00    -0.360 N 
ATOM     14  C   UNK d   1      -1.235   9.212 -12.794  0.00  0.00     0.144 C 
ATOM     15  C   UNK d   1      -3.206   8.730 -14.252  0.00  0.00     0.157 C 
ATOM     16  C   UNK d   1       0.001   9.575 -13.596  0.00  0.00     0.144 C 
ATOM     17  O   UNK d   1      -3.567   9.950 -13.892  0.00  0.00    -0.177 OA
BRANCH  15  18
ATOM     18  C   UNK d   1      -4.156   8.100 -15.156  0.00  0.00     0.063 A 
ATOM     19  C   UNK d   1      -4.971   6.968 -14.657  0.00  0.00     0.013 A 
ATOM     20  C   UNK d   1      -5.608   8.242 -15.162  0.00  0.00     0.013 A 
ENDBRANCH  15  18
ENDBRANCH   9  10
BRANCH   1  21
ATOM     21  C   UNK d   1       6.131   6.016 -13.045  0.00  0.00     0.062 A 
ATOM     22  C   UNK d   1       7.151   6.903 -12.791  0.00  0.00     0.033 A 
ATOM     23  C   UNK d   1       8.460   6.491 -12.681  0.00  0.00     0.026 A 
ATOM     24  C   UNK d   1       8.777   5.164 -12.823  0.00  0.00     0.034 A 
ATOM     25 Cl   UNK d   1      10.430   4.651 -12.681  0.00  0.00    -0.084 Cl
ATOM     26  C   UNK d   1       7.788   4.259 -13.075  0.00  0.00     0.026 A 
ATOM     27  C   UNK d   1       6.480   4.691 -13.184  0.00  0.00     0.033 A 
ENDBRANCH   1  21
TORSDOF 3
ENDMDL
