/Users/jonathanwahrer/Desktop/Msc/3_Semester/Drug_Design_Praktikum/waehrer_HTS_screening/HTS_experiment/out/docking_results/vina_output/6q9y/2231_docked.pdbqt
 OpenBabel03222220423D

 27 31  0  0  0  0  0  0  0  0999 V2000
    4.7650    6.3810  -13.1710 N   0  0  0  0  0  0  0  0  0  0  0  0
    3.7130    5.7410  -12.6910 N   0  0  0  0  0  0  0  0  0  0  0  0
    2.5860    6.3570  -12.9920 N   0  0  0  0  0  0  0  0  0  0  0  0
    2.8650    7.4610  -13.7060 C   0  0  0  0  0  0  0  0  0  0  0  0
    4.2410    7.4590  -13.8080 C   0  0  0  0  0  0  0  0  0  0  0  0
    4.8230    8.4730  -14.4870 N   0  0  0  0  0  0  0  0  0  0  0  0
    4.0510    9.4320  -15.0310 C   0  0  0  0  0  3  0  0  0  0  0  0
    2.6990    9.4290  -14.9270 N   0  0  0  0  0  0  0  0  0  0  0  0
    2.0690    8.4430  -14.2610 C   0  0  0  0  0  0  0  0  0  0  0  0
    0.6470    8.4230  -14.1430 N   0  0  0  0  0  0  0  0  0  0  0  0
   -0.0230    7.2170  -14.5930 C   0  0  0  0  0  2  0  0  0  0  0  0
   -1.3750    7.0550  -13.9030 C   0  0  0  0  0  2  0  0  0  0  0  0
   -2.0080    8.3090  -13.7000 N   0  0  0  0  0  0  0  0  0  0  0  0
   -1.2350    9.2120  -12.7940 C   0  0  0  0  0  2  0  0  0  0  0  0
   -3.2060    8.7300  -14.2520 C   0  0  0  0  0  0  0  0  0  0  0  0
    0.0010    9.5750  -13.5960 C   0  0  0  0  0  2  0  0  0  0  0  0
   -3.5670    9.9500  -13.8920 O   0  0  0  0  0  0  0  0  0  0  0  0
   -4.1560    8.1000  -15.1560 C   0  0  0  0  0  3  0  0  0  0  0  0
   -4.9710    6.9680  -14.6570 C   0  0  0  0  0  2  0  0  0  0  0  0
   -5.6080    8.2420  -15.1620 C   0  0  0  0  0  2  0  0  0  0  0  0
    6.1310    6.0160  -13.0450 C   0  0  0  0  0  0  0  0  0  0  0  0
    7.1510    6.9030  -12.7910 C   0  0  0  0  0  3  0  0  0  0  0  0
    8.4600    6.4910  -12.6810 C   0  0  0  0  0  3  0  0  0  0  0  0
    8.7770    5.1640  -12.8230 C   0  0  0  0  0  0  0  0  0  0  0  0
   10.4300    4.6510  -12.6810 Cl  0  0  0  0  0  0  0  0  0  0  0  0
    7.7880    4.2590  -13.0750 C   0  0  0  0  0  3  0  0  0  0  0  0
    6.4800    4.6910  -13.1840 C   0  0  0  0  0  3  0  0  0  0  0  0
  1 21  1  0  0  0  0
  1  2  1  0  0  0  0
  3  2  2  0  0  0  0
  4  3  1  0  0  0  0
  5  4  1  0  0  0  0
  5  1  1  0  0  0  0
  6  5  2  0  0  0  0
  7  8  2  0  0  0  0
  7  6  1  0  0  0  0
  8  9  1  0  0  0  0
  9 10  1  0  0  0  0
  9  4  2  0  0  0  0
 10 16  1  0  0  0  0
 11 10  1  0  0  0  0
 11 12  1  0  0  0  0
 12 13  1  0  0  0  0
 13 14  1  0  0  0  0
 15 17  2  0  0  0  0
 15 13  1  0  0  0  0
 16 14  1  0  0  0  0
 18 19  1  0  0  0  0
 18 15  1  0  0  0  0
 20 18  1  0  0  0  0
 20 19  1  0  0  0  0
 21 22  1  0  0  0  0
 22 23  2  0  0  0  0
 24 25  1  0  0  0  0
 24 23  1  0  0  0  0
 26 24  2  0  0  0  0
 27 26  1  0  0  0  0
 27 21  2  0  0  0  0
M  END
>  <Pose>
1

>  <Score>
-8.640

$$$$
