/Users/jonathanwahrer/Desktop/Msc/3_Semester/Drug_Design_Praktikum/waehrer_HTS_screening/HTS_experiment/out/docking_results/vina_output/6q9y/2242_docked.pdbqt
 OpenBabel03222220423D

 32 35  0  0  0  0  0  0  0  0999 V2000
    3.7550    7.0460  -13.2230 N   0  0  0  0  0  0  0  0  0  0  0  0
    3.2760    8.0070  -14.1170 C   0  0  0  0  0  0  0  0  0  0  0  0
    3.9050    8.3680  -15.1220 O   0  0  0  0  0  0  0  0  0  0  0  0
    3.1420    6.8010  -12.3830 H   0  0  0  0  0  0  0  0  0  0  0  0
    1.9540    8.6540  -13.8950 C   0  0  0  0  0  0  0  0  0  0  0  0
    1.9200    9.9190  -13.6140 N   0  0  0  0  0  0  0  0  0  0  0  0
    0.7260   10.6010  -13.3910 N   0  0  0  0  0  0  0  0  0  0  0  0
   -0.4900    9.8930  -13.4740 C   0  0  0  0  0  0  0  0  0  0  0  0
   -1.5630   10.5770  -13.3500 O   0  0  0  0  0  0  0  0  0  0  0  0
   -0.5500    8.4330  -13.6940 C   0  0  0  0  0  2  0  0  0  0  0  0
    0.7430    7.9210  -13.9830 N   0  0  0  0  0  0  0  0  0  0  0  0
    0.8290    6.9160  -14.2880 H   0  0  0  0  0  0  0  0  0  0  0  0
    0.7280   12.0140  -13.0740 C   0  0  0  0  0  0  0  0  0  0  0  0
   -0.3820   12.7980  -13.2770 C   0  0  0  0  0  3  0  0  0  0  0  0
   -0.3560   14.1600  -12.9590 C   0  0  0  0  0  3  0  0  0  0  0  0
    0.7810   14.7440  -12.4380 C   0  0  0  0  0  0  0  0  0  0  0  0
    1.8840   13.9460  -12.2420 C   0  0  0  0  0  3  0  0  0  0  0  0
    0.8590   16.1920  -12.0790 C   0  0  0  0  0  1  0  0  0  0  0  0
    1.8520   12.6190  -12.5530 C   0  0  0  0  0  3  0  0  0  0  0  0
    4.9790    6.3760  -13.3410 C   0  0  0  0  0  0  0  0  0  0  0  0
    4.9850    4.9910  -13.1540 C   0  0  0  0  0  0  0  0  0  0  0  0
    3.4910    4.1630  -12.7720 Cl  0  0  0  0  0  0  0  0  0  0  0  0
    6.1310    4.2530  -13.2570 C   0  0  0  0  0  3  0  0  0  0  0  0
    7.3340    4.8300  -13.5520 C   0  0  0  0  0  0  0  0  0  0  0  0
    7.3700    6.1860  -13.7440 C   0  0  0  0  0  0  0  0  0  0  0  0
    8.5470    4.0790  -13.6770 N   0  0  0  0  0  0  0  0  0  0  0  0
    6.1880    6.9400  -13.6360 C   0  0  0  0  0  3  0  0  0  0  0  0
    8.5540    6.8530  -14.0460 O   0  0  0  0  0  0  0  0  0  0  0  0
    9.7150    6.1670  -14.5380 C   0  0  0  0  0  2  0  0  0  0  0  0
    9.7470    4.7750  -13.9980 C   0  0  0  0  0  0  0  0  0  0  0  0
   10.8610    4.2270  -13.8300 O   0  0  0  0  0  0  0  0  0  0  0  0
    8.5510    3.0500  -13.5350 H   0  0  0  0  0  0  0  0  0  0  0  0
  1  4  1  0  0  0  0
  2  5  1  0  0  0  0
  2  1  1  0  0  0  0
  3  2  2  0  0  0  0
  5  6  2  0  0  0  0
  6  7  1  0  0  0  0
  7 13  1  0  0  0  0
  8  7  1  0  0  0  0
  8  9  2  0  0  0  0
 10  8  1  0  0  0  0
 11  5  1  0  0  0  0
 11 10  1  0  0  0  0
 12 11  1  0  0  0  0
 13 19  1  0  0  0  0
 14 13  2  0  0  0  0
 14 15  1  0  0  0  0
 15 16  2  0  0  0  0
 16 17  1  0  0  0  0
 16 18  1  0  0  0  0
 19 17  2  0  0  0  0
 20  1  1  0  0  0  0
 20 21  1  0  0  0  0
 21 22  1  0  0  0  0
 23 21  2  0  0  0  0
 24 23  1  0  0  0  0
 25 27  1  0  0  0  0
 25 24  2  0  0  0  0
 26 24  1  0  0  0  0
 26 32  1  0  0  0  0
 27 20  2  0  0  0  0
 28 25  1  0  0  0  0
 29 28  1  0  0  0  0
 29 30  1  0  0  0  0
 30 31  2  0  0  0  0
 30 26  1  0  0  0  0
M  END
>  <Pose>
1

>  <Score>
-9.460

$$$$
