MODEL 1
REMARK VINA RESULT:    -9.460      0.000      0.000
REMARK INTER + INTRA:         -10.479
REMARK INTER:                 -11.119
REMARK INTRA:                   0.640
REMARK UNBOUND:                 0.640
REMARK  3 active torsions:
REMARK  status: ('A' for Active; 'I' for Inactive)
REMARK    1  A    between atoms: C_7  and  N_8 
REMARK       I    between atoms: N_8  and  C_9 
REMARK    2  A    between atoms: C_9  and  C_11 
REMARK    3  A    between atoms: N_13  and  C_18 
ROOT
ATOM      1  N   UNK d   1       3.755   7.046 -13.223  0.00  0.00    -0.319 N 
ATOM      2  C   UNK d   1       3.276   8.007 -14.117  0.00  0.00     0.293 C 
ATOM      3  O   UNK d   1       3.905   8.368 -15.122  0.00  0.00    -0.264 OA
ATOM      4  H   UNK d   1       3.142   6.801 -12.383  0.00  0.00     0.169 HD
ENDROOT
BRANCH   2   5
ATOM      5  C   UNK d   1       1.954   8.654 -13.895  0.00  0.00     0.213 C 
ATOM      6  N   UNK d   1       1.920   9.919 -13.614  0.00  0.00    -0.141 NA
ATOM      7  N   UNK d   1       0.726  10.601 -13.391  0.00  0.00    -0.198 N 
ATOM      8  C   UNK d   1      -0.490   9.893 -13.474  0.00  0.00     0.262 C 
ATOM      9  O   UNK d   1      -1.563  10.577 -13.350  0.00  0.00    -0.269 OA
ATOM     10  C   UNK d   1      -0.550   8.433 -13.694  0.00  0.00     0.226 C 
ATOM     11  N   UNK d   1       0.743   7.921 -13.983  0.00  0.00    -0.360 N 
ATOM     12  H   UNK d   1       0.829   6.916 -14.288  0.00  0.00     0.161 HD
BRANCH   7  13
ATOM     13  C   UNK d   1       0.728  12.014 -13.074  0.00  0.00     0.062 A 
ATOM     14  C   UNK d   1      -0.382  12.798 -13.277  0.00  0.00     0.032 A 
ATOM     15  C   UNK d   1      -0.356  14.160 -12.959  0.00  0.00     0.009 A 
ATOM     16  C   UNK d   1       0.781  14.744 -12.438  0.00  0.00    -0.062 A 
ATOM     17  C   UNK d   1       1.884  13.946 -12.242  0.00  0.00     0.009 A 
ATOM     18  C   UNK d   1       0.859  16.192 -12.079  0.00  0.00     0.048 C 
ATOM     19  C   UNK d   1       1.852  12.619 -12.553  0.00  0.00     0.032 A 
ENDBRANCH   7  13
ENDBRANCH   2   5
BRANCH   1  20
ATOM     20  C   UNK d   1       4.979   6.376 -13.341  0.00  0.00     0.059 A 
ATOM     21  C   UNK d   1       4.985   4.991 -13.154  0.00  0.00     0.063 A 
ATOM     22 Cl   UNK d   1       3.491   4.163 -12.772  0.00  0.00    -0.082 Cl
ATOM     23  C   UNK d   1       6.131   4.253 -13.257  0.00  0.00     0.058 A 
ATOM     24  C   UNK d   1       7.334   4.830 -13.552  0.00  0.00     0.070 A 
ATOM     25  C   UNK d   1       7.370   6.186 -13.744  0.00  0.00     0.098 A 
ATOM     26  N   UNK d   1       8.547   4.079 -13.677  0.00  0.00    -0.323 N 
ATOM     27  C   UNK d   1       6.188   6.940 -13.636  0.00  0.00     0.070 A 
ATOM     28  O   UNK d   1       8.554   6.853 -14.046  0.00  0.00    -0.340 OA
ATOM     29  C   UNK d   1       9.715   6.167 -14.538  0.00  0.00     0.278 C 
ATOM     30  C   UNK d   1       9.747   4.775 -13.998  0.00  0.00     0.246 C 
ATOM     31  O   UNK d   1      10.861   4.227 -13.830  0.00  0.00    -0.271 OA
ATOM     32  H   UNK d   1       8.551   3.050 -13.535  0.00  0.00     0.169 HD
ENDBRANCH   1  20
TORSDOF 3
ENDMDL
