/Users/jonathanwahrer/Desktop/Msc/3_Semester/Drug_Design_Praktikum/waehrer_HTS_screening/HTS_experiment/out/docking_results/vina_output/6q9y/2266_docked.pdbqt
 OpenBabel03222220423D

 27 30  0  0  1  0  0  0  0  0999 V2000
    0.7840    7.5900  -13.1590 N   0  0  0  0  0  0  0  0  0  0  0  0
    0.5970    8.8830  -12.6330 C   0  0  0  0  0  2  0  0  0  0  0  0
   -0.1460    9.8230  -13.5620 C   0  0  0  0  0  2  0  0  0  0  0  0
   -1.4010    9.1110  -13.9500 C   0  0  1  0  0  3  0  0  0  0  0  0
   -1.2680    7.7930  -14.3380 C   0  0  0  0  0  0  0  0  0  0  0  0
   -2.3500    7.1020  -14.6960 N   0  0  0  0  0  0  0  0  0  0  0  0
   -3.5460    7.7240  -14.6650 C   0  0  2  0  0  3  0  0  0  0  0  0
   -3.7030    9.0060  -14.2900 N   0  0  0  0  0  0  0  0  0  0  0  0
   -5.0020    9.3530  -14.3580 N   0  0  0  0  0  0  0  0  0  0  0  0
   -5.7340    8.3100  -14.7770 C   0  0  0  0  0  3  0  0  0  0  0  0
   -4.8410    7.2840  -14.9730 C   0  0  0  0  0  3  0  0  0  0  0  0
   -2.6270    9.7360  -13.9210 C   0  0  0  0  0  0  0  0  0  0  0  0
   -2.7100   10.9390  -13.5620 O   0  0  0  0  0  0  0  0  0  0  0  0
    0.1010    7.2250  -14.3300 C   0  0  0  0  0  2  0  0  0  0  0  0
   -5.3580   10.3040  -14.1120 H   0  0  0  0  0  0  0  0  0  0  0  0
    1.3420    6.3920  -12.1250 S   0  0  0  0  0  0  0  0  0  0  0  0
    1.5370    6.9100  -10.7070 O   0  0  0  0  0  0  0  0  0  0  0  0
    0.2450    5.3410  -11.9920 O   0  0  0  0  0  0  0  0  0  0  0  0
    2.7980    5.5960  -12.5800 C   0  0  0  0  0  0  0  0  0  0  0  0
    3.8490    6.3050  -13.1560 C   0  0  0  0  0  0  0  0  0  0  0  0
    5.0000    5.6360  -13.5110 C   0  0  0  0  0  3  0  0  0  0  0  0
    5.1510    4.3020  -13.3180 C   0  0  0  0  0  3  0  0  0  0  0  0
    4.1390    3.5780  -12.7540 C   0  0  0  0  0  0  0  0  0  0  0  0
    2.9860    4.2460  -12.3990 C   0  0  0  0  0  3  0  0  0  0  0  0
    4.3090    1.8390  -12.4910 Cl  0  0  0  0  0  0  0  0  0  0  0  0
    3.7780    7.6590  -13.3870 O   0  0  0  0  0  0  0  0  0  0  0  0
    4.1720    8.1630  -14.6430 C   0  0  0  0  0  1  0  0  0  0  0  0
  1  2  1  0  0  0  0
  1 16  1  0  0  0  0
  3  2  1  0  0  0  0
  4 12  1  0  0  0  0
  4  3  1  1  0  0  0
  5 14  1  0  0  0  0
  5  4  1  0  0  0  0
  6  7  1  0  0  0  0
  6  5  2  0  0  0  0
  7 11  1  1  0  0  0
  7  8  1  0  0  0  0
  8 12  1  0  0  0  0
  9  8  1  0  0  0  0
  9 15  1  0  0  0  0
 10  9  1  0  0  0  0
 11 10  2  0  0  0  0
 12 13  2  0  0  0  0
 14  1  1  0  0  0  0
 16 18  2  0  0  0  0
 16 17  2  0  0  0  0
 19 24  1  0  0  0  0
 19 16  1  0  0  0  0
 20 19  2  0  0  0  0
 21 22  2  0  0  0  0
 21 20  1  0  0  0  0
 22 23  1  0  0  0  0
 23 25  1  0  0  0  0
 23 24  2  0  0  0  0
 26 20  1  0  0  0  0
 27 26  1  0  0  0  0
M  END
>  <Pose>
1

>  <Score>
-8.554

$$$$
