MODEL 1
REMARK VINA RESULT:    -7.051      0.000      0.000
REMARK INTER + INTRA:          -9.078
REMARK INTER:                  -8.700
REMARK INTRA:                  -0.378
REMARK UNBOUND:                -0.378
REMARK  4 active torsions:
REMARK  status: ('A' for Active; 'I' for Inactive)
REMARK    1  A    between atoms: C_3  and  O_20 
REMARK    2  A    between atoms: C_5  and  C_8 
REMARK       I    between atoms: C_8  and  N_10 
REMARK    3  A    between atoms: N_10  and  C_11 
REMARK    4  A    between atoms: C_11  and  C_12 
ROOT
ATOM      1  C   UNK d   1      -0.726  15.962 -13.429  0.00  0.00     0.251 C 
ATOM      2  O   UNK d   1      -0.793  16.313 -14.641  0.00  0.00    -0.268 OA
ATOM      3  N   UNK d   1      -1.561  16.557 -12.435  0.00  0.00    -0.355 N 
ATOM      4  H   UNK d   1      -1.471  16.240 -11.470  0.00  0.00     0.162 HD
ENDROOT
BRANCH   1   5
ATOM      5  C   UNK d   1       0.215  14.940 -13.048  0.00  0.00     0.034 A 
ATOM      6  C   UNK d   1      -0.052  13.628 -13.453  0.00  0.00     0.055 A 
ATOM      7  C   UNK d   1       0.769  12.565 -13.149  0.00  0.00     0.090 A 
ATOM      8  C   UNK d   1       1.908  12.803 -12.411  0.00  0.00     0.067 A 
ATOM      9 Cl   UNK d   1       2.974  11.459 -12.009  0.00  0.00    -0.081 Cl
ATOM     10  C   UNK d   1       2.192  14.097 -11.999  0.00  0.00     0.028 A 
ATOM     11  C   UNK d   1       1.346  15.166 -12.317  0.00  0.00     0.019 A 
BRANCH   7  12
ATOM     12  O   UNK d   1       0.477  11.273 -13.565  0.00  0.00    -0.354 OA
ATOM     13  C   UNK d   1      -0.818  10.725 -13.412  0.00  0.00     0.210 C 
ENDBRANCH   7  12
ENDBRANCH   1   5
BRANCH   3  14
ATOM     14  C   UNK d   1      -2.485  17.569 -12.855  0.00  0.00     0.160 C 
BRANCH  14  15
ATOM     15  C   UNK d   1      -2.700  18.709 -11.941  0.00  0.00     0.268 C 
ATOM     16  N   UNK d   1      -2.835  18.418 -10.546  0.00  0.00     0.100 N 
ATOM     17  C   UNK d   1      -2.149  19.535  -9.852  0.00  0.00     0.303 C 
ATOM     18  C   UNK d   1      -4.188  18.492 -10.035  0.00  0.00     0.303 C 
ATOM     19  C   UNK d   1      -2.685  20.789 -10.553  0.00  0.00     0.302 C 
ATOM     20  N   UNK d   1      -3.966  20.553 -11.187  0.00  0.00     0.094 N 
ATOM     21  C   UNK d   1      -3.859  19.619 -12.311  0.00  0.00     0.309 C 
ATOM     22  C   UNK d   1      -4.800  19.877 -10.209  0.00  0.00     0.302 C 
ENDBRANCH  14  15
ENDBRANCH   3  14
TORSDOF 4
ENDMDL
