MODEL 1
REMARK VINA RESULT:    -7.269      0.000      0.000
REMARK INTER + INTRA:          -9.207
REMARK INTER:                  -8.756
REMARK INTRA:                  -0.451
REMARK UNBOUND:                -0.451
REMARK  4 active torsions:
REMARK  status: ('A' for Active; 'I' for Inactive)
REMARK    1  A    between atoms: C_5  and  C_8 
REMARK    2  A    between atoms: C_8  and  O_25 
REMARK    3  A    between atoms: N_9  and  C_17 
REMARK    4  A    between atoms: C_20  and  O_23 
ROOT
ATOM      1  C   UNK d   1       2.487   8.920 -14.999  0.00  0.00     0.283 C 
ATOM      2  N   UNK d   1       1.615   9.652 -14.224  0.00  0.00     0.042 N 
ATOM      3  C   UNK d   1       0.820   8.667 -13.520  0.00  0.00     0.210 C 
ATOM      4  C   UNK d   1       0.382   8.519 -12.312  0.00  0.00     0.030 C 
ATOM      5  C   UNK d   1      -0.434   7.375 -11.866  0.00  0.00     0.032 C 
ATOM      6  C   UNK d   1      -0.726   6.348 -12.900  0.00  0.00     0.023 C 
ATOM      7  C   UNK d   1      -0.614   6.832 -14.307  0.00  0.00     0.125 C 
ATOM      8  N   UNK d   1       0.529   7.697 -14.510  0.00  0.00    -0.356 N 
ATOM      9  C   UNK d   1       1.533   7.828 -15.562  0.00  0.00     0.200 C 
ATOM     10  H   UNK d   1       0.875  10.057 -14.907  0.00  0.00     0.299 HD
ENDROOT
BRANCH   1  11
ATOM     11  C   UNK d   1       3.625   8.194 -14.473  0.00  0.00     0.007 A 
ATOM     12  C   UNK d   1       4.901   8.624 -14.784  0.00  0.00     0.014 A 
ATOM     13  C   UNK d   1       5.993   7.950 -14.322  0.00  0.00     0.024 A 
ATOM     14  C   UNK d   1       5.878   6.815 -13.530  0.00  0.00     0.034 A 
ATOM     15 Cl   UNK d   1       7.258   5.934 -12.926  0.00  0.00    -0.084 Cl
ATOM     16  C   UNK d   1       4.614   6.390 -13.223  0.00  0.00     0.024 A 
ATOM     17  C   UNK d   1       3.504   7.073 -13.691  0.00  0.00     0.014 A 
ENDBRANCH   1  11
BRANCH   1  18
ATOM     18  O   UNK d   1       2.872   9.626 -16.174  0.00  0.00    -0.359 OA
ATOM     19  H   UNK d   1       2.101   9.548 -16.793  0.00  0.00     0.213 HD
ENDBRANCH   1  18
BRANCH   2  20
ATOM     20  C   UNK d   1       1.984  10.724 -13.426  0.00  0.00     0.146 A 
ATOM     21  C   UNK d   1       3.082  10.818 -12.640  0.00  0.00     0.041 A 
ATOM     22  C   UNK d   1       3.325  11.974 -11.901  0.00  0.00     0.039 A 
ATOM     23  C   UNK d   1       2.476  13.068 -11.930  0.00  0.00     0.068 A 
ATOM     24  C   UNK d   1       1.367  12.943 -12.740  0.00  0.00     0.039 A 
ATOM     25  C   UNK d   1       1.100  11.821 -13.478  0.00  0.00     0.041 A 
BRANCH  23  26
ATOM     26  O   UNK d   1       2.755  14.198 -11.179  0.00  0.00    -0.356 OA
ATOM     27  C   UNK d   1       1.850  15.273 -11.190  0.00  0.00     0.210 C 
ENDBRANCH  23  26
ENDBRANCH   2  20
TORSDOF 4
ENDMDL
