MODEL 1
REMARK VINA RESULT:    -9.185      0.000      0.000
REMARK INTER + INTRA:         -12.836
REMARK INTER:                 -12.407
REMARK INTRA:                  -0.429
REMARK UNBOUND:                -0.429
REMARK  6 active torsions:
REMARK  status: ('A' for Active; 'I' for Inactive)
REMARK    1  A    between atoms: N_8  and  C_12 
REMARK    2  A    between atoms: C_12  and  C_13 
REMARK    3  A    between atoms: C_13  and  C_14 
REMARK       I    between atoms: C_14  and  N_16 
REMARK    4  A    between atoms: N_19  and  C_22 
REMARK    5  A    between atoms: C_22  and  C_23 
REMARK       I    between atoms: C_23  and  N_25 
REMARK    6  A    between atoms: N_25  and  C_26 
ROOT
ATOM      1  C   UNK d   1      -0.049  15.161 -13.080  0.00  0.00     0.221 C 
ATOM      2  O   UNK d   1       0.939  15.956 -13.316  0.00  0.00    -0.273 OA
ATOM      3  N   UNK d   1       0.296  13.848 -12.754  0.00  0.00    -0.349 N 
ATOM      4  C   UNK d   1      -0.662  12.731 -12.659  0.00  0.00     0.145 C 
ATOM      5  C   UNK d   1      -0.222  11.939 -13.929  0.00  0.00     0.137 C 
ATOM      6  N   UNK d   1       1.119  11.427 -13.683  0.00  0.00    -0.401 N 
ATOM      7  C   UNK d   1       1.950  12.039 -12.800  0.00  0.00     0.137 C 
ATOM      8  C   UNK d   1       1.639  13.459 -12.421  0.00  0.00     0.145 C 
ENDROOT
BRANCH   1   9
ATOM      9  C   UNK d   1      -1.352  15.774 -13.172  0.00  0.00     0.123 C 
BRANCH   9  10
ATOM     10  C   UNK d   1      -1.524  17.215 -13.333  0.00  0.00     0.144 C 
BRANCH  10  11
ATOM     11  N   UNK d   1      -1.900  17.979 -12.156  0.00  0.00    -0.290 N 
ATOM     12  C   UNK d   1      -2.972  18.719 -11.886  0.00  0.00     0.073 A 
ATOM     13  C   UNK d   1      -2.836  19.321 -10.657  0.00  0.00     0.109 A 
ATOM     14  C   UNK d   1      -4.146  18.937 -12.628  0.00  0.00     0.034 A 
ATOM     15  C   UNK d   1      -3.829  20.150 -10.118  0.00  0.00     0.063 A 
ATOM     16  O   UNK d   1      -1.672  18.928 -10.211  0.00  0.00    -0.259 OA
ATOM     17  C   UNK d   1      -4.975  20.371 -10.831  0.00  0.00     0.036 A 
ATOM     18 Cl   UNK d   1      -6.240  21.385 -10.183  0.00  0.00    -0.084 Cl
ATOM     19  C   UNK d   1      -5.106  19.761 -12.064  0.00  0.00     0.026 A 
ATOM     20  C   UNK d   1      -1.078  18.131 -11.064  0.00  0.00     0.372 A 
ATOM     21  O   UNK d   1       0.056  17.587 -10.925  0.00  0.00    -0.237 OA
ENDBRANCH  10  11
ENDBRANCH   9  10
ENDBRANCH   1   9
BRANCH   6  22
ATOM     22  C   UNK d   1       1.464  10.607 -14.746  0.00  0.00     0.219 C 
BRANCH  22  23
ATOM     23  C   UNK d   1       1.764   9.178 -14.291  0.00  0.00     0.235 C 
ATOM     24  O   UNK d   1       2.837   8.688 -14.813  0.00  0.00    -0.272 OA
ATOM     25  N   UNK d   1       0.964   8.540 -13.445  0.00  0.00    -0.355 N 
ATOM     26  H   UNK d   1       1.845   7.513 -13.325  0.00  0.00     0.162 HD
BRANCH  25  27
ATOM     27  C   UNK d   1       0.111   7.860 -12.545  0.00  0.00     0.084 A 
ATOM     28  C   UNK d   1       0.838   7.250 -11.286  0.00  0.00     0.027 A 
ATOM     29  C   UNK d   1       0.336   6.378 -12.332  0.00  0.00     0.027 A 
ENDBRANCH  25  27
ENDBRANCH  22  23
ENDBRANCH   6  22
TORSDOF 6
ENDMDL
