MODEL 1
REMARK VINA RESULT:    -7.106      0.000      0.000
REMARK INTER + INTRA:          -8.101
REMARK INTER:                  -7.937
REMARK INTRA:                  -0.165
REMARK UNBOUND:                -0.165
REMARK  2 active torsions:
REMARK  status: ('A' for Active; 'I' for Inactive)
REMARK    1  A    between atoms: C_3  and  N_17 
REMARK    2  A    between atoms: N_17  and  C_18 
ROOT
ATOM      1 Cl   UNK d   1      -5.144   7.549 -15.792  0.00  0.00    -0.076 Cl
ATOM      2  C   UNK d   1      -3.758   8.069 -14.860  0.00  0.00     0.135 A 
ATOM      3  C   UNK d   1      -3.748   9.317 -14.273  0.00  0.00     0.126 A 
ATOM      4  C   UNK d   1      -2.626   9.658 -13.551  0.00  0.00     0.291 A 
ATOM      5  O   UNK d   1      -2.513  10.781 -12.970  0.00  0.00    -0.264 OA
ATOM      6  N   UNK d   1      -1.608   8.790 -13.444  0.00  0.00    -0.241 N 
ATOM      7  N   UNK d   1      -1.575   7.589 -13.986  0.00  0.00    -0.242 N 
ATOM      8  C   UNK d   1      -0.451   6.680 -13.843  0.00  0.00     0.134 C 
ATOM      9  C   UNK d   1       0.751   7.117 -14.654  0.00  0.00     0.031 C 
ATOM     10  C   UNK d   1       1.535   8.183 -13.909  0.00  0.00     0.005 C 
ATOM     11  C   UNK d   1       0.691   9.411 -13.657  0.00  0.00     0.031 C 
ATOM     12  C   UNK d   1      -0.420   9.176 -12.667  0.00  0.00     0.134 C 
ATOM     13  C   UNK d   1      -0.063   7.991 -11.843  0.00  0.00    -0.002 C 
ATOM     14  C   UNK d   1      -0.030   6.784 -12.397  0.00  0.00    -0.002 C 
ATOM     15  C   UNK d   1      -2.677   7.227 -14.709  0.00  0.00     0.287 A 
ATOM     16  O   UNK d   1      -2.673   6.068 -15.246  0.00  0.00    -0.265 OA
ENDROOT
BRANCH   3  17
ATOM     17  N   UNK d   1      -4.826  10.240 -14.391  0.00  0.00    -0.380 N 
ATOM     18  H   UNK d   1      -4.558  11.166 -14.843  0.00  0.00     0.160 HD
BRANCH  17  19
ATOM     19  C   UNK d   1      -6.171   9.985 -13.951  0.00  0.00     0.073 C 
ATOM     20  C   UNK d   1      -6.263   9.874 -12.439  0.00  0.00     0.031 C 
ATOM     21  C   UNK d   1      -7.172  10.995 -14.401  0.00  0.00     0.031 C 
ENDBRANCH  17  19
ENDBRANCH   3  17
TORSDOF 2
ENDMDL
