/Users/jonathanwahrer/Desktop/Msc/3_Semester/Drug_Design_Praktikum/waehrer_HTS_screening/HTS_experiment/out/docking_results/vina_output/6q9y/2276_docked.pdbqt
 OpenBabel03222220433D

 21 24  0  0  1  0  0  0  0  0999 V2000
   -5.1730    7.5430  -15.7010 Cl  0  0  0  0  0  0  0  0  0  0  0  0
   -3.7240    8.0380  -14.8480 C   0  0  0  0  0  0  0  0  0  0  0  0
   -3.7080    9.2920  -14.2730 C   0  0  0  0  0  0  0  0  0  0  0  0
   -2.5180    9.6230  -13.6130 C   0  0  0  0  0  0  0  0  0  0  0  0
   -2.4490   10.7440  -13.0740 O   0  0  0  0  0  0  0  0  0  0  0  0
   -1.4900    8.7670  -13.5600 N   0  0  0  0  0  0  0  0  0  0  0  0
   -1.5120    7.5650  -14.1160 N   0  0  0  0  0  0  0  0  0  0  0  0
   -0.3110    6.7570  -13.9600 C   0  0  1  0  0  3  0  0  0  0  0  0
    0.8340    7.5720  -14.5320 C   0  0  1  0  0  3  0  0  0  0  0  0
    0.8440    8.9250  -13.9620 C   0  0  1  0  0  3  0  0  0  0  0  0
   -0.2330    9.0940  -12.8830 C   0  0  2  0  0  3  0  0  0  0  0  0
   -0.0290    7.9570  -11.9210 C   0  0  0  0  0  2  0  0  0  0  0  0
   -0.0670    6.7540  -12.4680 C   0  0  0  0  0  2  0  0  0  0  0  0
    1.9850    7.9400  -13.6730 C   0  0  0  0  0  2  0  0  0  0  0  0
   -2.6180    7.1980  -14.7560 C   0  0  0  0  0  0  0  0  0  0  0  0
   -2.6480    6.0590  -15.2860 O   0  0  0  0  0  0  0  0  0  0  0  0
   -4.7960   10.2110  -14.3160 N   0  0  0  0  0  0  0  0  0  0  0  0
   -4.5630   11.1560  -14.6870 H   0  0  0  0  0  0  0  0  0  0  0  0
   -6.1230    9.9350  -13.9020 C   0  0  0  0  0  3  0  0  0  0  0  0
   -6.3170    9.8730  -12.4090 C   0  0  0  0  0  1  0  0  0  0  0  0
   -7.1360   10.9430  -14.4270 C   0  0  0  0  0  1  0  0  0  0  0  0
  1  2  1  0  0  0  0
  2 15  1  0  0  0  0
  2  3  2  0  0  0  0
  3  4  1  0  0  0  0
  4  6  1  0  0  0  0
  4  5  2  0  0  0  0
  6 11  1  0  0  0  0
  7  8  1  0  0  0  0
  7  6  1  0  0  0  0
  8 13  1  1  0  0  0
  9 10  1  0  0  0  0
  9  8  1  0  0  0  0
  9 14  1  1  0  0  0
 10 14  1  1  0  0  0
 10 11  1  0  0  0  0
 11 12  1  1  0  0  0
 13 12  1  0  0  0  0
 15  7  1  0  0  0  0
 16 15  2  0  0  0  0
 17  3  1  0  0  0  0
 17 19  1  0  0  0  0
 18 17  1  0  0  0  0
 19 20  1  0  0  0  0
 21 19  1  0  0  0  0
M  END
>  <Pose>
1

>  <Score>
-7.841

$$$$
