MODEL 1
REMARK VINA RESULT:    -7.841      0.000      0.000
REMARK INTER + INTRA:          -8.838
REMARK INTER:                  -8.758
REMARK INTRA:                  -0.081
REMARK UNBOUND:                -0.081
REMARK  2 active torsions:
REMARK  status: ('A' for Active; 'I' for Inactive)
REMARK    1  A    between atoms: C_3  and  N_17 
REMARK    2  A    between atoms: N_17  and  C_18 
ROOT
ATOM      1 Cl   UNK d   1      -5.173   7.543 -15.701  0.00  0.00    -0.076 Cl
ATOM      2  C   UNK d   1      -3.724   8.038 -14.848  0.00  0.00     0.135 A 
ATOM      3  C   UNK d   1      -3.708   9.292 -14.273  0.00  0.00     0.126 A 
ATOM      4  C   UNK d   1      -2.518   9.623 -13.613  0.00  0.00     0.291 A 
ATOM      5  O   UNK d   1      -2.449  10.744 -13.074  0.00  0.00    -0.264 OA
ATOM      6  N   UNK d   1      -1.490   8.767 -13.560  0.00  0.00    -0.241 N 
ATOM      7  N   UNK d   1      -1.512   7.565 -14.116  0.00  0.00    -0.241 N 
ATOM      8  C   UNK d   1      -0.311   6.757 -13.960  0.00  0.00     0.139 C 
ATOM      9  C   UNK d   1       0.834   7.572 -14.532  0.00  0.00     0.021 A 
ATOM     10  C   UNK d   1       0.844   8.925 -13.962  0.00  0.00     0.021 A 
ATOM     11  C   UNK d   1      -0.233   9.094 -12.883  0.00  0.00     0.139 C 
ATOM     12  C   UNK d   1      -0.029   7.957 -11.921  0.00  0.00    -0.001 C 
ATOM     13  C   UNK d   1      -0.067   6.754 -12.468  0.00  0.00    -0.001 C 
ATOM     14  C   UNK d   1       1.985   7.940 -13.673  0.00  0.00     0.015 A 
ATOM     15  C   UNK d   1      -2.618   7.198 -14.756  0.00  0.00     0.287 A 
ATOM     16  O   UNK d   1      -2.648   6.059 -15.286  0.00  0.00    -0.265 OA
ENDROOT
BRANCH   3  17
ATOM     17  N   UNK d   1      -4.796  10.211 -14.316  0.00  0.00    -0.380 N 
ATOM     18  H   UNK d   1      -4.563  11.156 -14.687  0.00  0.00     0.160 HD
BRANCH  17  19
ATOM     19  C   UNK d   1      -6.123   9.935 -13.902  0.00  0.00     0.073 C 
ATOM     20  C   UNK d   1      -6.317   9.873 -12.409  0.00  0.00     0.031 C 
ATOM     21  C   UNK d   1      -7.136  10.943 -14.427  0.00  0.00     0.031 C 
ENDBRANCH  17  19
ENDBRANCH   3  17
TORSDOF 2
ENDMDL
