MODEL 1
REMARK VINA RESULT:    -9.660      0.000      0.000
REMARK INTER + INTRA:         -11.635
REMARK INTER:                 -12.484
REMARK INTRA:                   0.849
REMARK UNBOUND:                 0.849
REMARK  5 active torsions:
REMARK  status: ('A' for Active; 'I' for Inactive)
REMARK    1  A    between atoms: C_3  and  N_15 
REMARK    2  A    between atoms: N_6  and  C_9 
REMARK    3  A    between atoms: N_18  and  C_21 
REMARK    4  A    between atoms: C_21  and  C_22 
REMARK       I    between atoms: C_22  and  N_24 
REMARK       I    between atoms: N_24  and  C_25 
REMARK       I    between atoms: C_25  and  N_27 
REMARK    5  A    between atoms: N_27  and  C_28 
ROOT
ATOM      1  N   UNK d   1       1.666   7.067 -12.332  0.00  0.00    -0.375 N 
ATOM      2  C   UNK d   1       0.466   6.352 -12.211  0.00  0.00     0.153 C 
ATOM      3  C   UNK d   1      -0.662   7.236 -12.858  0.00  0.00     0.292 C 
ATOM      4  N   UNK d   1      -0.265   8.330 -13.594  0.00  0.00     0.100 N 
ATOM      5  C   UNK d   1       0.988   8.968 -13.292  0.00  0.00     0.292 C 
ATOM      6  C   UNK d   1       1.489   8.513 -11.882  0.00  0.00     0.153 C 
ENDROOT
BRANCH   1   7
ATOM      7  C   UNK d   1       2.896   6.826 -12.924  0.00  0.00     0.077 A 
ATOM      8  C   UNK d   1       3.629   5.726 -12.828  0.00  0.00     0.131 A 
ATOM      9 Cl   UNK d   1       2.790   4.216 -12.288  0.00  0.00    -0.076 Cl
ATOM     10  C   UNK d   1       4.990   5.665 -13.131  0.00  0.00     0.292 A 
ATOM     11  N   UNK d   1       5.591   6.745 -13.547  0.00  0.00    -0.197 N 
ATOM     12  O   UNK d   1       5.576   4.542 -12.963  0.00  0.00    -0.264 OA
ATOM     13  N   UNK d   1       4.872   7.890 -13.677  0.00  0.00    -0.174 NA
ATOM     14  C   UNK d   1       3.625   8.019 -13.420  0.00  0.00     0.170 A 
BRANCH  11  15
ATOM     15  C   UNK d   1       7.046   6.869 -13.627  0.00  0.00     0.062 A 
ATOM     16  C   UNK d   1       7.843   6.900 -12.529  0.00  0.00     0.032 A 
ATOM     17  C   UNK d   1       9.216   6.895 -12.638  0.00  0.00     0.002 A 
ATOM     18  C   UNK d   1       9.830   6.857 -13.889  0.00  0.00     0.000 A 
ATOM     19  C   UNK d   1       8.986   6.834 -15.000  0.00  0.00     0.002 A 
ATOM     20  C   UNK d   1       7.652   6.840 -14.870  0.00  0.00     0.032 A 
ENDBRANCH  11  15
ENDBRANCH   1   7
BRANCH   4  21
ATOM     21  C   UNK d   1      -1.218   9.490 -13.574  0.00  0.00     0.375 C 
BRANCH  21  22
ATOM     22  C   UNK d   1      -2.541   9.046 -13.986  0.00  0.00     0.254 C 
ATOM     23  O   UNK d   1      -3.100   8.079 -13.967  0.00  0.00    -0.271 OA
ATOM     24  N   UNK d   1      -3.414  10.358 -14.643  0.00  0.00    -0.278 N 
ATOM     25  C   UNK d   1      -4.744   9.653 -14.593  0.00  0.00     0.323 C 
ATOM     26  H   UNK d   1      -2.729  10.715 -14.668  0.00  0.00     0.173 HD
ATOM     27  O   UNK d   1      -4.915   8.473 -14.724  0.00  0.00    -0.247 OA
ATOM     28  N   UNK d   1      -5.803  10.605 -14.346  0.00  0.00    -0.338 N 
ATOM     29  H   UNK d   1      -5.490  11.630 -14.289  0.00  0.00     0.164 HD
BRANCH  28  30
ATOM     30  C   UNK d   1      -7.184  10.339 -14.198  0.00  0.00     0.086 C 
ATOM     31  C   UNK d   1      -8.053  11.331 -13.540  0.00  0.00     0.025 C 
ATOM     32  C   UNK d   1      -8.620  12.243 -14.633  0.00  0.00     0.002 C 
ATOM     33  C   UNK d   1      -8.753  11.272 -15.783  0.00  0.00     0.002 C 
ATOM     34  C   UNK d   1      -7.724  10.239 -15.639  0.00  0.00     0.025 C 
ENDBRANCH  28  30
ENDBRANCH  21  22
ENDBRANCH   4  21
TORSDOF 5
ENDMDL
