MODEL 1
REMARK VINA RESULT:    -8.438      0.000      0.000
REMARK INTER + INTRA:         -11.695
REMARK INTER:                 -11.397
REMARK INTRA:                  -0.298
REMARK UNBOUND:                -0.298
REMARK  6 active torsions:
REMARK  status: ('A' for Active; 'I' for Inactive)
REMARK    1  A    between atoms: C_3  and  N_15 
REMARK    2  A    between atoms: N_6  and  C_9 
REMARK    3  A    between atoms: N_18  and  C_21 
REMARK    4  A    between atoms: C_21  and  C_22 
REMARK       I    between atoms: C_22  and  N_24 
REMARK    5  A    between atoms: N_24  and  C_25 
REMARK    6  A    between atoms: C_25  and  C_26 
ROOT
ATOM      1  N   UNK d   1       2.174  10.872 -13.288  0.00  0.00    -0.375 N 
ATOM      2  C   UNK d   1       2.750  10.447 -14.541  0.00  0.00     0.153 C 
ATOM      3  C   UNK d   1       2.399   9.016 -14.806  0.00  0.00     0.292 C 
ATOM      4  N   UNK d   1       1.382   8.641 -13.855  0.00  0.00     0.100 NA
ATOM      5  C   UNK d   1       1.965   8.571 -12.564  0.00  0.00     0.292 C 
ATOM      6  C   UNK d   1       2.283  10.008 -12.139  0.00  0.00     0.153 C 
ENDROOT
BRANCH   1   7
ATOM      7  C   UNK d   1       1.503  12.113 -13.136  0.00  0.00     0.077 A 
ATOM      8  C   UNK d   1       2.121  13.218 -12.557  0.00  0.00     0.131 A 
ATOM      9 Cl   UNK d   1       3.771  13.013 -12.008  0.00  0.00    -0.076 Cl
ATOM     10  C   UNK d   1       1.448  14.417 -12.428  0.00  0.00     0.292 A 
ATOM     11  N   UNK d   1       0.178  14.565 -12.852  0.00  0.00    -0.197 N 
ATOM     12  O   UNK d   1       2.013  15.416 -11.901  0.00  0.00    -0.264 OA
ATOM     13  N   UNK d   1      -0.390  13.505 -13.400  0.00  0.00    -0.174 NA
ATOM     14  C   UNK d   1       0.205  12.310 -13.556  0.00  0.00     0.170 A 
BRANCH  11  15
ATOM     15  C   UNK d   1      -0.519  15.811 -12.721  0.00  0.00     0.062 A 
ATOM     16  C   UNK d   1      -1.378  16.228 -13.711  0.00  0.00     0.032 A 
ATOM     17  C   UNK d   1      -2.065  17.442 -13.593  0.00  0.00     0.002 A 
ATOM     18  C   UNK d   1      -1.903  18.251 -12.491  0.00  0.00     0.000 A 
ATOM     19  C   UNK d   1      -1.045  17.840 -11.495  0.00  0.00     0.002 A 
ATOM     20  C   UNK d   1      -0.368  16.632 -11.624  0.00  0.00     0.032 A 
ENDBRANCH  11  15
ENDBRANCH   1   7
BRANCH   4  21
ATOM     21  C   UNK d   1       0.496   7.621 -14.254  0.00  0.00     0.374 C 
BRANCH  21  22
ATOM     22  C   UNK d   1      -0.884   7.787 -13.786  0.00  0.00     0.246 C 
ATOM     23  O   UNK d   1      -1.493   6.715 -13.449  0.00  0.00    -0.272 OA
ATOM     24  N   UNK d   1      -1.590   9.009 -13.674  0.00  0.00    -0.357 N 
ATOM     25  H   UNK d   1      -1.087   9.880 -13.939  0.00  0.00     0.162 HD
BRANCH  24  26
ATOM     26  C   UNK d   1      -2.948   9.121 -13.207  0.00  0.00     0.154 C 
BRANCH  26  27
ATOM     27  C   UNK d   1      -3.872   9.244 -14.378  0.00  0.00     0.139 C 
ATOM     28  O   UNK d   1      -3.957   8.037 -15.020  0.00  0.00    -0.384 OA
ATOM     29  C   UNK d   1      -5.253   7.604 -15.081  0.00  0.00     0.168 C 
ATOM     30  C   UNK d   1      -6.051   8.891 -15.069  0.00  0.00     0.029 C 
ATOM     31  C   UNK d   1      -5.284   9.614 -13.949  0.00  0.00     0.035 C 
ENDBRANCH  26  27
ENDBRANCH  24  26
ENDBRANCH  21  22
ENDBRANCH   4  21
TORSDOF 6
ENDMDL
