MODEL 1
REMARK VINA RESULT:    -8.847      0.000      0.000
REMARK INTER + INTRA:         -12.286
REMARK INTER:                 -11.433
REMARK INTRA:                  -0.852
REMARK UNBOUND:                -0.852
REMARK  5 active torsions:
REMARK  status: ('A' for Active; 'I' for Inactive)
REMARK    1  A    between atoms: S_1  and  N_4 
REMARK    2  A    between atoms: S_1  and  C_28 
REMARK    3  A    between atoms: N_7  and  C_10 
REMARK    4  A    between atoms: C_10  and  C_11 
REMARK    5  A    between atoms: C_17  and  C_21 
ROOT
ATOM      1  C   UNK d   1      -1.075   7.568 -14.009  0.00  0.00     0.060 A 
ATOM      2  C   UNK d   1      -1.991   6.726 -14.608  0.00  0.00     0.105 A 
ATOM      3  C   UNK d   1      -3.299   7.050 -14.862  0.00  0.00     0.272 A 
ATOM      4  O   UNK d   1      -4.050   6.187 -15.423  0.00  0.00    -0.266 OA
ATOM      5  N   UNK d   1      -3.766   8.286 -14.512  0.00  0.00    -0.171 N 
ATOM      6  N   UNK d   1      -4.953   8.710 -14.692  0.00  0.00    -0.154 NA
ATOM      7  C   UNK d   1      -5.332   9.901 -14.334  0.00  0.00     0.132 A 
ATOM      8  S   UNK d   1      -3.850  10.489 -13.669  0.00  0.00    -0.028 SA
ATOM      9  C   UNK d   1      -2.879   9.097 -13.933  0.00  0.00     0.199 A 
ATOM     10  N   UNK d   1      -1.591   8.773 -13.684  0.00  0.00    -0.225 NA
ENDROOT
BRANCH   1  11
ATOM     11  C   UNK d   1       0.329   7.167 -13.756  0.00  0.00     0.176 C 
BRANCH  11  12
ATOM     12  N   UNK d   1       1.140   8.341 -13.704  0.00  0.00    -0.404 N 
ATOM     13  C   UNK d   1       1.780   8.723 -14.899  0.00  0.00     0.137 C 
ATOM     14  C   UNK d   1       2.218  10.186 -14.776  0.00  0.00     0.155 C 
ATOM     15  N   UNK d   1       2.932  10.391 -13.593  0.00  0.00    -0.302 N 
ATOM     16  C   UNK d   1       3.211   9.220 -12.873  0.00  0.00     0.155 C 
ATOM     17  C   UNK d   1       1.928   8.492 -12.540  0.00  0.00     0.137 C 
BRANCH  15  18
ATOM     18  S   UNK d   1       2.970  11.875 -12.851  0.00  0.00     0.280 S 
ATOM     19  O   UNK d   1       3.841  12.812 -13.682  0.00  0.00    -0.199 OA
ATOM     20  O   UNK d   1       3.502  11.805 -11.443  0.00  0.00    -0.199 OA
BRANCH  18  21
ATOM     21  C   UNK d   1       1.385  12.613 -12.829  0.00  0.00     0.188 A 
ATOM     22  N   UNK d   1       0.215  12.047 -13.237  0.00  0.00    -0.229 NA
ATOM     23  C   UNK d   1      -0.794  12.905 -13.079  0.00  0.00     0.208 A 
ATOM     24  N   UNK d   1      -0.329  14.052 -12.566  0.00  0.00    -0.358 N 
ATOM     25  C   UNK d   1       1.011  13.869 -12.414  0.00  0.00     0.134 A 
ATOM     26  H   UNK d   1      -0.877  14.897 -12.336  0.00  0.00     0.166 HD
ENDBRANCH  18  21
ENDBRANCH  15  18
ENDBRANCH  11  12
ENDBRANCH   1  11
BRANCH   7  27
ATOM     27  C   UNK d   1      -6.622  10.594 -14.437  0.00  0.00     0.002 A 
ATOM     28  C   UNK d   1      -7.416  10.353 -15.538  0.00  0.00     0.016 A 
ATOM     29  C   UNK d   1      -8.646  10.975 -15.695  0.00  0.00     0.024 A 
ATOM     30  C   UNK d   1      -9.095  11.856 -14.733  0.00  0.00     0.034 A 
ATOM     31  C   UNK d   1      -8.316  12.114 -13.618  0.00  0.00     0.024 A 
ATOM     32 Cl   UNK d   1     -10.630  12.641 -14.915  0.00  0.00    -0.084 Cl
ATOM     33  C   UNK d   1      -7.103  11.473 -13.508  0.00  0.00     0.016 A 
ENDBRANCH   7  27
TORSDOF 5
ENDMDL
