MODEL 1
REMARK VINA RESULT:   -10.494      0.000      0.000
REMARK INTER + INTRA:         -14.056
REMARK INTER:                 -14.175
REMARK INTRA:                   0.119
REMARK UNBOUND:                 0.119
REMARK  6 active torsions:
REMARK  status: ('A' for Active; 'I' for Inactive)
REMARK    1  A    between atoms: S_1  and  N_4 
REMARK    2  A    between atoms: S_1  and  C_22 
REMARK    3  A    between atoms: N_7  and  C_10 
REMARK    4  A    between atoms: C_10  and  C_11 
REMARK    5  A    between atoms: N_13  and  C_14 
REMARK    6  A    between atoms: C_14  and  C_15 
ROOT
ATOM      1  N   UNK d   1       1.591  10.268 -13.804  0.00  0.00    -0.203 NA
ATOM      2  C   UNK d   1       0.343  10.909 -13.515  0.00  0.00     0.127 C 
ATOM      3  C   UNK d   1       0.412  12.448 -13.522  0.00  0.00     0.132 C 
ATOM      4  N   UNK d   1       1.438  12.812 -12.596  0.00  0.00    -0.403 N 
ATOM      5  C   UNK d   1       2.697  12.389 -13.143  0.00  0.00     0.132 C 
ATOM      6  C   UNK d   1       2.686  10.894 -12.983  0.00  0.00     0.127 C 
ENDROOT
BRANCH   1   7
ATOM      7  S   UNK d   1       1.469   8.646 -13.082  0.00  0.00     0.243 S 
ATOM      8  O   UNK d   1       2.679   7.861 -13.554  0.00  0.00    -0.206 OA
ATOM      9  O   UNK d   1       1.507   8.784 -11.602  0.00  0.00    -0.206 OA
BRANCH   7  10
ATOM     10  C   UNK d   1       0.044   7.823 -13.580  0.00  0.00     0.077 A 
ATOM     11  C   UNK d   1      -1.131   8.585 -13.530  0.00  0.00     0.064 A 
ATOM     12  C   UNK d   1      -2.369   8.122 -13.983  0.00  0.00     0.103 A 
ATOM     13  C   UNK d   1      -2.433   6.837 -14.513  0.00  0.00     0.102 A 
ATOM     14  O   UNK d   1      -3.510   8.903 -13.913  0.00  0.00    -0.346 OA
ATOM     15  C   UNK d   1      -1.267   6.095 -14.549  0.00  0.00     0.041 A 
ATOM     16  O   UNK d   1      -3.686   6.446 -14.947  0.00  0.00    -0.346 OA
ATOM     17  C   UNK d   1      -0.041   6.567 -14.098  0.00  0.00     0.028 A 
ATOM     18  C   UNK d   1      -4.502   7.445 -15.616  0.00  0.00     0.202 C 
ATOM     19  C   UNK d   1      -4.454   8.780 -14.948  0.00  0.00     0.202 C 
ENDBRANCH   7  10
ENDBRANCH   1   7
BRANCH   4  20
ATOM     20  C   UNK d   1       1.292  13.960 -11.837  0.00  0.00     0.204 C 
BRANCH  20  21
ATOM     21  C   UNK d   1       0.639  15.111 -12.465  0.00  0.00     0.169 C 
ATOM     22  O   UNK d   1       1.474  15.855 -13.145  0.00  0.00    -0.176 OA
ATOM     23  N   UNK d   1      -0.659  15.535 -12.477  0.00  0.00    -0.366 N 
ATOM     24  H   UNK d   1      -1.457  15.061 -11.938  0.00  0.00     0.161 HD
BRANCH  23  25
ATOM     25  C   UNK d   1      -1.165  16.663 -13.262  0.00  0.00     0.162 C 
BRANCH  25  26
ATOM     26  C   UNK d   1      -1.901  17.579 -12.368  0.00  0.00    -0.019 A 
ATOM     27  C   UNK d   1      -3.143  18.133 -12.756  0.00  0.00     0.042 A 
ATOM     28  C   UNK d   1      -3.778  19.073 -12.038  0.00  0.00     0.024 A 
ATOM     29 Cl   UNK d   1      -3.891  17.530 -14.256  0.00  0.00    -0.084 Cl
ATOM     30  C   UNK d   1      -3.209  19.560 -10.820  0.00  0.00     0.002 A 
ATOM     31  C   UNK d   1      -2.031  19.053 -10.443  0.00  0.00     0.001 A 
ATOM     32  C   UNK d   1      -1.345  18.076 -11.175  0.00  0.00     0.010 A 
ENDBRANCH  25  26
ENDBRANCH  23  25
ENDBRANCH  20  21
ENDBRANCH   4  20
TORSDOF 6
ENDMDL
