/Users/jonathanwahrer/Desktop/Msc/3_Semester/Drug_Design_Praktikum/waehrer_HTS_screening/HTS_experiment/out/docking_results/vina_output/6q9y/2285_docked.pdbqt
 OpenBabel03222220443D

 32 35  0  0  0  0  0  0  0  0999 V2000
    1.5910   10.2680  -13.8040 N   0  0  0  0  0  0  0  0  0  0  0  0
    0.3430   10.9090  -13.5150 C   0  0  0  0  0  2  0  0  0  0  0  0
    0.4120   12.4480  -13.5220 C   0  0  0  0  0  2  0  0  0  0  0  0
    1.4380   12.8120  -12.5960 N   0  0  0  0  0  0  0  0  0  0  0  0
    2.6970   12.3890  -13.1430 C   0  0  0  0  0  2  0  0  0  0  0  0
    2.6860   10.8940  -12.9830 C   0  0  0  0  0  2  0  0  0  0  0  0
    1.4690    8.6460  -13.0820 S   0  0  0  0  0  0  0  0  0  0  0  0
    2.6790    7.8610  -13.5540 O   0  0  0  0  0  0  0  0  0  0  0  0
    1.5070    8.7840  -11.6020 O   0  0  0  0  0  0  0  0  0  0  0  0
    0.0440    7.8230  -13.5800 C   0  0  0  0  0  0  0  0  0  0  0  0
   -1.1310    8.5850  -13.5300 C   0  0  0  0  0  3  0  0  0  0  0  0
   -2.3690    8.1220  -13.9830 C   0  0  0  0  0  0  0  0  0  0  0  0
   -2.4330    6.8370  -14.5130 C   0  0  0  0  0  0  0  0  0  0  0  0
   -3.5100    8.9030  -13.9130 O   0  0  0  0  0  0  0  0  0  0  0  0
   -1.2670    6.0950  -14.5490 C   0  0  0  0  0  3  0  0  0  0  0  0
   -3.6860    6.4460  -14.9470 O   0  0  0  0  0  0  0  0  0  0  0  0
   -0.0410    6.5670  -14.0980 C   0  0  0  0  0  3  0  0  0  0  0  0
   -4.5020    7.4450  -15.6160 C   0  0  0  0  0  2  0  0  0  0  0  0
   -4.4540    8.7800  -14.9480 C   0  0  0  0  0  2  0  0  0  0  0  0
    1.2920   13.9600  -11.8370 C   0  0  0  0  0  2  0  0  0  0  0  0
    0.6390   15.1110  -12.4650 C   0  0  0  0  0  0  0  0  0  0  0  0
    1.4740   15.8550  -13.1450 O   0  0  0  0  0  0  0  0  0  0  0  0
   -0.6590   15.5350  -12.4770 N   0  0  0  0  0  0  0  0  0  0  0  0
   -1.4570   15.0610  -11.9380 H   0  0  0  0  0  0  0  0  0  0  0  0
   -1.1650   16.6630  -13.2620 C   0  0  0  0  0  2  0  0  0  0  0  0
   -1.9010   17.5790  -12.3680 C   0  0  0  0  0  0  0  0  0  0  0  0
   -3.1430   18.1330  -12.7560 C   0  0  0  0  0  0  0  0  0  0  0  0
   -3.7780   19.0730  -12.0380 C   0  0  0  0  0  3  0  0  0  0  0  0
   -3.8910   17.5300  -14.2560 Cl  0  0  0  0  0  0  0  0  0  0  0  0
   -3.2090   19.5600  -10.8200 C   0  0  0  0  0  3  0  0  0  0  0  0
   -2.0310   19.0530  -10.4430 C   0  0  0  0  0  3  0  0  0  0  0  0
   -1.3450   18.0760  -11.1750 C   0  0  0  0  0  3  0  0  0  0  0  0
  1  2  1  0  0  0  0
  1  7  1  0  0  0  0
  1  6  1  0  0  0  0
  3  2  1  0  0  0  0
  3  4  1  0  0  0  0
  4 20  1  0  0  0  0
  5  6  1  0  0  0  0
  5  4  1  0  0  0  0
  7  9  2  0  0  0  0
  8  7  2  0  0  0  0
 10 11  1  0  0  0  0
 10  7  1  0  0  0  0
 12 14  1  0  0  0  0
 12 11  2  0  0  0  0
 13 12  1  0  0  0  0
 15 13  2  0  0  0  0
 15 17  1  0  0  0  0
 16 13  1  0  0  0  0
 17 10  2  0  0  0  0
 18 19  1  0  0  0  0
 18 16  1  0  0  0  0
 19 14  1  0  0  0  0
 21 20  1  0  0  0  0
 22 21  2  0  0  0  0
 23 21  1  0  0  0  0
 23 24  1  0  0  0  0
 25 23  1  0  0  0  0
 25 26  1  0  0  0  0
 26 32  1  0  0  0  0
 27 26  2  0  0  0  0
 27 28  1  0  0  0  0
 28 30  2  0  0  0  0
 29 27  1  0  0  0  0
 30 31  1  0  0  0  0
 32 31  2  0  0  0  0
M  END
>  <Pose>
1

>  <Score>
-10.494

$$$$
