MODEL 1
REMARK VINA RESULT:    -8.589      0.000      0.000
REMARK INTER + INTRA:         -10.698
REMARK INTER:                 -10.597
REMARK INTRA:                  -0.100
REMARK UNBOUND:                -0.100
REMARK  4 active torsions:
REMARK  status: ('A' for Active; 'I' for Inactive)
REMARK    1  A    between atoms: S_1  and  N_4 
REMARK    2  A    between atoms: S_1  and  C_26 
REMARK       I    between atoms: N_7  and  C_10 
REMARK    3  A    between atoms: C_10  and  C_12 
REMARK    4  A    between atoms: C_12  and  N_13 
ROOT
ATOM      1  N   UNK d   1       1.792  10.452 -13.317  0.00  0.00    -0.303 N 
ATOM      2  C   UNK d   1       1.995  10.167 -14.691  0.00  0.00     0.155 C 
ATOM      3  C   UNK d   1       3.162   9.255 -14.967  0.00  0.00     0.146 C 
ATOM      4  N   UNK d   1       3.275   8.199 -13.983  0.00  0.00    -0.348 N 
ATOM      5  C   UNK d   1       2.144   8.033 -13.090  0.00  0.00     0.146 C 
ATOM      6  C   UNK d   1       1.752   9.337 -12.440  0.00  0.00     0.155 C 
ATOM      7  C   UNK d   1       4.432   7.412 -13.938  0.00  0.00     0.238 C 
ATOM      8  O   UNK d   1       5.355   7.636 -14.756  0.00  0.00    -0.272 OA
ENDROOT
BRANCH   7   9
ATOM      9  C   UNK d   1       4.610   6.314 -12.953  0.00  0.00     0.239 C 
BRANCH   9  10
ATOM     10  N   UNK d   1       5.844   5.604 -13.151  0.00  0.00    -0.259 N 
ATOM     11  C   UNK d   1       5.935   4.267 -13.620  0.00  0.00     0.328 C 
ATOM     12  O   UNK d   1       4.934   3.534 -13.922  0.00  0.00    -0.247 OA
ATOM     13  N   UNK d   1       7.286   3.836 -13.713  0.00  0.00    -0.320 N 
ATOM     14  C   UNK d   1       8.096   4.854 -13.071  0.00  0.00     0.118 C 
ATOM     15  C   UNK d   1       7.745   2.598 -14.343  0.00  0.00     0.155 C 
ATOM     16  C   UNK d   1       9.265   5.269 -13.916  0.00  0.00     0.041 C 
ATOM     17  C   UNK d   1       8.501   4.311 -11.721  0.00  0.00     0.041 C 
ATOM     18  C   UNK d   1       7.187   6.021 -12.945  0.00  0.00     0.257 C 
ATOM     19  C   UNK d   1      10.467   4.384 -13.763  0.00  0.00     0.003 C 
ATOM     20  C   UNK d   1      10.861   4.142 -12.336  0.00  0.00     0.000 C 
ATOM     21  C   UNK d   1       9.896   4.769 -11.354  0.00  0.00     0.003 C 
ATOM     22  O   UNK d   1       7.514   7.206 -12.696  0.00  0.00    -0.270 OA
ENDBRANCH   9  10
ENDBRANCH   7   9
BRANCH   1  23
ATOM     23  S   UNK d   1       2.683  11.785 -12.719  0.00  0.00     0.267 S 
ATOM     24  O   UNK d   1       3.899  11.988 -13.569  0.00  0.00    -0.200 OA
ATOM     25  O   UNK d   1       3.133  11.553 -11.307  0.00  0.00    -0.200 OA
BRANCH  23  26
ATOM     26  C   UNK d   1       1.707  13.264 -12.700  0.00  0.00     0.121 A 
ATOM     27  S   UNK d   1       0.079  13.468 -13.141  0.00  0.00    -0.064 SA
ATOM     28  C   UNK d   1      -0.083  15.134 -12.842  0.00  0.00     0.075 A 
ATOM     29  C   UNK d   1       1.160  15.497 -12.397  0.00  0.00     0.033 A 
ATOM     30 Cl   UNK d   1      -1.502  16.183 -13.046  0.00  0.00    -0.076 Cl
ATOM     31  C   UNK d   1       2.093  14.521 -12.323  0.00  0.00     0.035 A 
ENDBRANCH  23  26
ENDBRANCH   1  23
TORSDOF 4
ENDMDL
