MODEL 1
REMARK VINA RESULT:    -8.142      0.000      0.000
REMARK INTER + INTRA:         -11.988
REMARK INTER:                 -11.474
REMARK INTRA:                  -0.514
REMARK UNBOUND:                -0.514
REMARK  7 active torsions:
REMARK  status: ('A' for Active; 'I' for Inactive)
REMARK    1  A    between atoms: S_1  and  N_4 
REMARK    2  A    between atoms: S_1  and  C_27 
REMARK    3  A    between atoms: N_7  and  C_10 
REMARK    4  A    between atoms: C_10  and  C_11 
REMARK       I    between atoms: C_11  and  N_13 
REMARK    5  A    between atoms: N_13  and  C_14 
REMARK    6  A    between atoms: C_14  and  C_15 
REMARK    7  A    between atoms: C_15  and  N_21 
ROOT
ATOM      1  C   UNK d   1       3.744   8.036 -14.501  0.00  0.00     0.374 C 
ENDROOT
BRANCH   1   2
ATOM      2  N   UNK d   1       2.442   8.250 -13.940  0.00  0.00     0.100 N 
ATOM      3  C   UNK d   1       2.451   8.593 -12.563  0.00  0.00     0.293 C 
ATOM      4  C   UNK d   1       1.848   9.927 -12.217  0.00  0.00     0.165 C 
ATOM      5  N   UNK d   1       2.264  10.897 -13.105  0.00  0.00    -0.303 N 
ATOM      6  C   UNK d   1       2.153  10.598 -14.467  0.00  0.00     0.165 C 
ATOM      7  C   UNK d   1       1.666   9.172 -14.705  0.00  0.00     0.293 C 
BRANCH   5   8
ATOM      8  S   UNK d   1       2.881  12.367 -12.636  0.00  0.00     0.260 S 
ATOM      9  O   UNK d   1       3.428  12.376 -11.229  0.00  0.00    -0.200 OA
ATOM     10  O   UNK d   1       4.007  12.874 -13.509  0.00  0.00    -0.200 OA
BRANCH   8  11
ATOM     11  C   UNK d   1       1.609  13.585 -12.661  0.00  0.00     0.079 A 
ATOM     12  C   UNK d   1       1.863  14.885 -12.321  0.00  0.00     0.027 A 
ATOM     13  C   UNK d   1       0.877  15.835 -12.339  0.00  0.00     0.025 A 
ATOM     14  C   UNK d   1      -0.398  15.466 -12.708  0.00  0.00     0.034 A 
ATOM     15  C   UNK d   1      -0.659  14.153 -13.053  0.00  0.00     0.025 A 
ATOM     16 Cl   UNK d   1      -1.639  16.707 -12.721  0.00  0.00    -0.084 Cl
ATOM     17  C   UNK d   1       0.337  13.210 -13.031  0.00  0.00     0.027 A 
ENDBRANCH   8  11
ENDBRANCH   5   8
ENDBRANCH   1   2
BRANCH   1  18
ATOM     18  C   UNK d   1       4.518   7.026 -13.703  0.00  0.00     0.246 C 
ATOM     19  O   UNK d   1       3.886   6.034 -13.281  0.00  0.00    -0.272 OA
ATOM     20  N   UNK d   1       5.902   7.195 -13.444  0.00  0.00    -0.357 N 
ATOM     21  H   UNK d   1       6.375   8.054 -13.832  0.00  0.00     0.162 HD
BRANCH  20  22
ATOM     22  C   UNK d   1       6.561   6.181 -12.673  0.00  0.00     0.164 C 
BRANCH  22  23
ATOM     23  C   UNK d   1       7.763   5.563 -13.275  0.00  0.00     0.175 C 
ATOM     24  C   UNK d   1       8.893   5.583 -12.276  0.00  0.00     0.043 C 
ATOM     25  C   UNK d   1       9.757   6.842 -12.404  0.00  0.00     0.003 C 
ATOM     26  C   UNK d   1      10.516   6.824 -13.715  0.00  0.00     0.000 C 
ATOM     27  C   UNK d   1       9.647   6.105 -14.731  0.00  0.00     0.003 C 
ATOM     28  C   UNK d   1       8.220   6.499 -14.412  0.00  0.00     0.043 C 
BRANCH  23  29
ATOM     29  N   UNK d   1       7.635   4.279 -13.849  0.00  0.00     0.103 N 
ATOM     30  C   UNK d   1       8.604   3.294 -13.524  0.00  0.00     0.299 C 
ATOM     31  C   UNK d   1       8.470   2.199 -14.599  0.00  0.00     0.198 C 
ATOM     32  O   UNK d   1       7.226   1.619 -14.528  0.00  0.00    -0.388 OA
ATOM     33  C   UNK d   1       6.399   2.162 -13.577  0.00  0.00     0.198 C 
ATOM     34  C   UNK d   1       6.326   3.685 -13.681  0.00  0.00     0.299 C 
ENDBRANCH  23  29
ENDBRANCH  22  23
ENDBRANCH  20  22
ENDBRANCH   1  18
TORSDOF 7
ENDMDL
