/Users/jonathanwahrer/Desktop/Msc/3_Semester/Drug_Design_Praktikum/waehrer_HTS_screening/HTS_experiment/out/docking_results/vina_output/6q9y/2301_docked.pdbqt
 OpenBabel03222220453D

 24 27  0  0  1  0  0  0  0  0999 V2000
   -3.9400    7.6090  -15.0700 C   0  0  2  0  0  0  0  0  0  0  0  0
   -3.9640    9.0650  -15.3990 C   0  0  0  0  0  2  0  0  0  0  0  0
   -4.4190    9.8860  -14.1800 C   0  0  0  0  0  2  0  0  0  0  0  0
   -5.8080    9.4420  -13.9920 N   0  0  0  0  0  0  0  0  0  0  0  0
   -5.9440    8.0760  -13.5960 C   0  0  0  0  0  2  0  0  0  0  0  0
   -5.2090    7.1140  -14.4850 C   0  0  0  0  0  2  0  0  0  0  0  0
   -2.7250    7.2980  -14.2990 C   0  0  0  0  0  0  0  0  0  0  0  0
   -1.9020    8.2100  -13.7040 C   0  0  0  0  0  3  0  0  0  0  0  0
   -0.8020    7.7770  -13.0170 C   0  0  0  0  0  3  0  0  0  0  0  0
   -0.4550    6.4400  -12.8770 C   0  0  0  0  0  0  0  0  0  0  0  0
    0.9590    5.9330  -11.9770 Cl  0  0  0  0  0  0  0  0  0  0  0  0
   -1.2870    5.5300  -13.4790 C   0  0  0  0  0  3  0  0  0  0  0  0
   -2.4030    5.9470  -14.1780 C   0  0  0  0  0  3  0  0  0  0  0  0
   -3.7590    6.9410  -16.3080 O   0  0  0  0  0  0  0  0  0  0  0  0
   -3.8750    5.9580  -16.1230 H   0  0  0  0  0  0  0  0  0  0  0  0
   -6.8560   10.3680  -14.2110 C   0  0  0  0  0  0  0  0  0  0  0  0
   -7.5610   10.3120  -15.3540 N   0  0  0  0  0  0  0  0  0  0  0  0
   -8.5640   11.1080  -15.6690 N   0  0  0  0  0  0  0  0  0  0  0  0
   -9.3860   11.2250  -16.7160 N   0  0  0  0  0  0  0  0  0  0  0  0
   -8.9380   12.0570  -14.8130 C   0  0  0  0  0  0  0  0  0  0  0  0
  -10.2380   12.2080  -16.5270 N   0  0  0  0  0  0  0  0  0  0  0  0
   -9.9790   12.7310  -15.3600 N   0  0  0  0  0  0  0  0  0  0  0  0
   -8.2570   12.1760  -13.6130 C   0  0  0  0  0  3  0  0  0  0  0  0
   -7.2100   11.3350  -13.3010 C   0  0  0  0  0  3  0  0  0  0  0  0
  1 14  1  6  0  0  0
  1  6  1  0  0  0  0
  1  7  1  0  0  0  0
  2  1  1  0  0  0  0
  2  3  1  0  0  0  0
  3  4  1  0  0  0  0
  4  5  1  0  0  0  0
  6  5  1  0  0  0  0
  7 13  2  0  0  0  0
  7  8  1  0  0  0  0
  8  9  2  0  0  0  0
  9 10  1  0  0  0  0
 10 11  1  0  0  0  0
 12 10  2  0  0  0  0
 13 12  1  0  0  0  0
 14 15  1  0  0  0  0
 16  4  1  0  0  0  0
 16 24  1  0  0  0  0
 17 16  2  0  0  0  0
 18 17  1  0  0  0  0
 18 20  1  0  0  0  0
 19 21  2  0  0  0  0
 19 18  1  0  0  0  0
 20 23  1  0  0  0  0
 21 22  1  0  0  0  0
 22 20  2  0  0  0  0
 23 24  2  0  0  0  0
M  END
>  <Pose>
1

>  <Score>
-8.942

$$$$
