MODEL 1
REMARK VINA RESULT:    -8.365      0.000      0.000
REMARK INTER + INTRA:         -10.506
REMARK INTER:                  -9.832
REMARK INTRA:                  -0.674
REMARK UNBOUND:                -0.674
REMARK  3 active torsions:
REMARK  status: ('A' for Active; 'I' for Inactive)
REMARK    1  A    between atoms: S_1  and  N_4 
REMARK    2  A    between atoms: S_1  and  C_22 
REMARK       I    between atoms: N_7  and  C_10 
REMARK    3  A    between atoms: C_10  and  C_12 
ROOT
ATOM      1  N   UNK d   1      -4.816   9.510 -14.394  0.00  0.00    -0.304 N 
ATOM      2  C   UNK d   1      -4.626   8.138 -14.677  0.00  0.00     0.155 C 
ATOM      3  C   UNK d   1      -3.192   7.721 -14.866  0.00  0.00     0.146 C 
ATOM      4  N   UNK d   1      -2.301   8.311 -13.907  0.00  0.00    -0.347 N 
ATOM      5  C   UNK d   1      -2.824   9.389 -13.105  0.00  0.00     0.146 C 
ATOM      6  C   UNK d   1      -3.663  10.260 -14.036  0.00  0.00     0.155 C 
ATOM      7  C   UNK d   1      -0.983   7.839 -13.784  0.00  0.00     0.243 C 
ATOM      8  O   UNK d   1      -0.633   6.898 -14.551  0.00  0.00    -0.271 OA
ENDROOT
BRANCH   7   9
ATOM      9  C   UNK d   1       0.013   8.376 -12.817  0.00  0.00     0.190 C 
ATOM     10  N   UNK d   1       0.804   9.403 -13.389  0.00  0.00    -0.320 N 
ATOM     11  C   UNK d   1       2.007   8.993 -14.038  0.00  0.00     0.081 C 
ATOM     12  C   UNK d   1       0.775  10.841 -13.540  0.00  0.00     0.222 C 
ATOM     13  S   UNK d   1       2.491   7.533 -13.096  0.00  0.00    -0.135 SA
ATOM     14  C   UNK d   1       2.976  10.101 -13.675  0.00  0.00     0.051 C 
ATOM     15  C   UNK d   1       1.923   8.771 -15.496  0.00  0.00     0.051 C 
ATOM     16  C   UNK d   1       0.884   7.302 -12.237  0.00  0.00     0.111 C 
ATOM     17  C   UNK d   1       2.084  11.310 -13.985  0.00  0.00     0.106 C 
ATOM     18  O   UNK d   1      -0.211  11.610 -13.328  0.00  0.00    -0.273 OA
ENDBRANCH   7   9
BRANCH   1  19
ATOM     19  S   UNK d   1      -6.239   9.901 -13.556  0.00  0.00     0.260 S 
ATOM     20  O   UNK d   1      -6.764   8.716 -12.808  0.00  0.00    -0.200 OA
ATOM     21  O   UNK d   1      -5.909  10.953 -12.525  0.00  0.00    -0.200 OA
BRANCH  19  22
ATOM     22  C   UNK d   1      -7.482  10.590 -14.595  0.00  0.00     0.079 A 
ATOM     23  C   UNK d   1      -8.157  11.730 -14.217  0.00  0.00     0.027 A 
ATOM     24  C   UNK d   1      -9.134  12.293 -15.004  0.00  0.00     0.025 A 
ATOM     25  C   UNK d   1      -9.486  11.736 -16.221  0.00  0.00     0.034 A 
ATOM     26  C   UNK d   1      -8.790  10.592 -16.573  0.00  0.00     0.025 A 
ATOM     27 Cl   UNK d   1     -10.725  12.426 -17.248  0.00  0.00    -0.084 Cl
ATOM     28  C   UNK d   1      -7.812  10.019 -15.798  0.00  0.00     0.027 A 
ENDBRANCH  19  22
ENDBRANCH   1  19
TORSDOF 3
ENDMDL
