MODEL 1
REMARK VINA RESULT:   -10.452      0.000      0.000
REMARK INTER + INTRA:         -13.706
REMARK INTER:                 -13.507
REMARK INTRA:                  -0.199
REMARK UNBOUND:                -0.199
REMARK  5 active torsions:
REMARK  status: ('A' for Active; 'I' for Inactive)
REMARK    1  A    between atoms: C_3  and  C_13 
REMARK    2  A    between atoms: C_5  and  C_8 
REMARK       I    between atoms: C_13  and  N_15 
REMARK    3  A    between atoms: N_15  and  C_16 
REMARK    4  A    between atoms: C_16  and  C_17 
REMARK    5  A    between atoms: C_17  and  C_18 
ROOT
ATOM      1  C   UNK d   1       0.073  14.254 -12.842  0.00  0.00     0.253 C 
ATOM      2  O   UNK d   1       0.660  14.673 -11.818  0.00  0.00    -0.268 OA
ATOM      3  N   UNK d   1      -0.571  15.163 -13.682  0.00  0.00    -0.356 N 
ATOM      4  H   UNK d   1      -1.036  14.698 -14.541  0.00  0.00     0.162 HD
ENDROOT
BRANCH   1   5
ATOM      5  C   UNK d   1       0.106  12.800 -13.089  0.00  0.00     0.054 A 
ATOM      6  C   UNK d   1       1.279  12.077 -13.032  0.00  0.00     0.049 A 
ATOM      7 Cl   UNK d   1       2.755  12.950 -12.650  0.00  0.00    -0.083 Cl
ATOM      8  C   UNK d   1       1.309  10.704 -13.266  0.00  0.00     0.026 A 
ATOM      9  C   UNK d   1       0.137  10.059 -13.562  0.00  0.00     0.017 A 
ATOM     10  C   UNK d   1      -1.079  10.748 -13.631  0.00  0.00     0.016 A 
ATOM     11  C   UNK d   1      -1.041  12.097 -13.391  0.00  0.00     0.034 A 
BRANCH  10  12
ATOM     12  C   UNK d   1      -2.302  10.025 -13.949  0.00  0.00     0.197 A 
ATOM     13  N   UNK d   1      -3.501  10.497 -14.303  0.00  0.00    -0.139 NA
ATOM     14  N   UNK d   1      -4.335   9.464 -14.502  0.00  0.00    -0.200 N 
ATOM     15  N   UNK d   1      -3.668   8.346 -14.275  0.00  0.00     0.022 NA
ATOM     16  H   UNK d   1      -5.341   9.513 -14.786  0.00  0.00     0.208 HD
ATOM     17  N   UNK d   1      -2.423   8.689 -13.938  0.00  0.00    -0.136 NA
ENDBRANCH  10  12
ENDBRANCH   1   5
BRANCH   3  18
ATOM     18  C   UNK d   1      -0.716  16.559 -13.600  0.00  0.00     0.130 C 
BRANCH  18  19
ATOM     19  C   UNK d   1      -1.999  17.169 -13.227  0.00  0.00     0.100 C 
BRANCH  19  20
ATOM     20  C   UNK d   1      -2.074  18.033 -12.052  0.00  0.00     0.136 A 
ATOM     21  N   UNK d   1      -3.080  18.835 -11.688  0.00  0.00    -0.292 N 
ATOM     22  C   UNK d   1      -2.761  19.408 -10.539  0.00  0.00     0.157 A 
ATOM     23  C   UNK d   1      -4.261  19.109 -12.277  0.00  0.00     0.100 A 
ATOM     24  N   UNK d   1      -1.549  18.962 -10.184  0.00  0.00    -0.130 NA
ATOM     25  C   UNK d   1      -3.597  20.296  -9.897  0.00  0.00     0.053 A 
ATOM     26  N   UNK d   1      -1.137  18.130 -11.102  0.00  0.00    -0.134 NA
ATOM     27  C   UNK d   1      -4.809  20.578 -10.501  0.00  0.00     0.005 A 
ATOM     28  C   UNK d   1      -5.129  19.981 -11.690  0.00  0.00     0.018 A 
ENDBRANCH  19  20
ENDBRANCH  18  19
ENDBRANCH   3  18
TORSDOF 5
ENDMDL
