MODEL 1
REMARK VINA RESULT:    -8.684      0.000      0.000
REMARK INTER + INTRA:         -10.591
REMARK INTER:                 -10.714
REMARK INTRA:                   0.123
REMARK UNBOUND:                 0.123
REMARK  4 active torsions:
REMARK  status: ('A' for Active; 'I' for Inactive)
REMARK    1  A    between atoms: S_1  and  N_4 
REMARK    2  A    between atoms: S_1  and  C_18 
REMARK    3  A    between atoms: C_6  and  C_10 
REMARK       I    between atoms: C_10  and  N_12 
REMARK    4  A    between atoms: C_22  and  C_24 
ROOT
ATOM      1  S   UNK d   1      -0.141   7.631 -13.161  0.00  0.00     0.245 S 
ATOM      2  O   UNK d   1       0.826   6.469 -13.400  0.00  0.00    -0.206 OA
ATOM      3  O   UNK d   1      -0.398   7.594 -11.650  0.00  0.00    -0.206 OA
ENDROOT
BRANCH   1   4
ATOM      4  N   UNK d   1       0.693   9.046 -13.576  0.00  0.00    -0.206 NA
ATOM      5  C   UNK d   1       1.473   9.650 -12.555  0.00  0.00     0.121 C 
ATOM      6  C   UNK d   1       2.208  10.886 -13.017  0.00  0.00     0.092 C 
ATOM      7  C   UNK d   1       3.053  10.576 -14.205  0.00  0.00     0.016 C 
ATOM      8  C   UNK d   1       2.267   9.843 -15.278  0.00  0.00     0.016 C 
ATOM      9  C   UNK d   1       1.609   8.655 -14.668  0.00  0.00     0.107 C 
BRANCH   6  10
ATOM     10  C   UNK d   1       1.354  12.083 -13.154  0.00  0.00     0.225 C 
ATOM     11  O   UNK d   1       0.201  11.871 -13.685  0.00  0.00    -0.273 OA
ATOM     12  N   UNK d   1       1.652  13.384 -12.776  0.00  0.00    -0.348 N 
ATOM     13  C   UNK d   1       0.712  14.449 -12.933  0.00  0.00     0.152 C 
ATOM     14  C   UNK d   1       2.934  13.741 -12.219  0.00  0.00     0.152 C 
ATOM     15  C   UNK d   1       0.759  15.465 -11.826  0.00  0.00     0.187 C 
ATOM     16  O   UNK d   1       1.938  15.547 -11.154  0.00  0.00    -0.388 OA
ATOM     17  C   UNK d   1       2.569  14.356 -10.858  0.00  0.00     0.187 C 
ENDBRANCH   6  10
ENDBRANCH   1   4
BRANCH   1  18
ATOM     18  C   UNK d   1      -1.627   7.325 -13.956  0.00  0.00     0.097 A 
ATOM     19  C   UNK d   1      -1.895   6.142 -14.601  0.00  0.00     0.057 A 
ATOM     20  C   UNK d   1      -3.142   5.930 -15.170  0.00  0.00     0.026 A 
ATOM     21 Cl   UNK d   1      -0.706   4.877 -14.827  0.00  0.00    -0.083 Cl
ATOM     22  C   UNK d   1      -4.145   6.901 -15.107  0.00  0.00     0.017 A 
ATOM     23  C   UNK d   1      -3.889   8.092 -14.467  0.00  0.00     0.016 A 
ATOM     24  C   UNK d   1      -2.647   8.283 -13.909  0.00  0.00     0.042 A 
BRANCH  23  25
ATOM     25  C   UNK d   1      -4.916   9.122 -14.389  0.00  0.00     0.189 A 
ATOM     26  N   UNK d   1      -4.818  10.292 -13.734  0.00  0.00    -0.106 NA
ATOM     27  O   UNK d   1      -5.922  10.972 -13.872  0.00  0.00    -0.196 OA
ATOM     28  C   UNK d   1      -6.757  10.284 -14.605  0.00  0.00     0.169 A 
ATOM     29  N   UNK d   1      -6.144   9.131 -14.932  0.00  0.00    -0.204 NA
ATOM     30  C   UNK d   1      -8.147  10.691 -15.012  0.00  0.00     0.102 C 
ENDBRANCH  23  25
ENDBRANCH   1  18
TORSDOF 4
ENDMDL
