MODEL 1
REMARK VINA RESULT:    -9.575      0.000      0.000
REMARK INTER + INTRA:         -13.924
REMARK INTER:                 -13.494
REMARK INTRA:                  -0.430
REMARK UNBOUND:                -0.430
REMARK  7 active torsions:
REMARK  status: ('A' for Active; 'I' for Inactive)
REMARK    1  A    between atoms: S_1  and  N_4 
REMARK    2  A    between atoms: S_1  and  C_21 
REMARK    3  A    between atoms: C_6  and  C_10 
REMARK       I    between atoms: C_10  and  N_12 
REMARK    4  A    between atoms: N_12  and  C_13 
REMARK    5  A    between atoms: C_13  and  C_14 
REMARK    6  A    between atoms: C_14  and  N_15 
REMARK       I    between atoms: N_30  and  C_31 
REMARK    7  A    between atoms: C_31  and  C_33 
ROOT
ATOM      1  N   UNK d   1      -0.681   7.426 -13.716  0.00  0.00    -0.306 N 
ATOM      2  C   UNK d   1      -1.516   8.550 -13.563  0.00  0.00     0.149 C 
ATOM      3  C   UNK d   1      -2.992   8.214 -13.564  0.00  0.00     0.096 C 
ATOM      4  C   UNK d   1      -3.335   6.992 -14.327  0.00  0.00     0.017 C 
ATOM      5  C   UNK d   1      -2.316   6.479 -15.277  0.00  0.00     0.021 C 
ATOM      6  C   UNK d   1      -0.883   6.605 -14.827  0.00  0.00     0.135 C 
ENDROOT
BRANCH   1   7
ATOM      7  S   UNK d   1       0.456   7.070 -12.557  0.00  0.00     0.262 S 
ATOM      8  O   UNK d   1       0.160   5.682 -11.993  0.00  0.00    -0.200 OA
ATOM      9  O   UNK d   1       0.233   7.992 -11.364  0.00  0.00    -0.200 OA
BRANCH   7  10
ATOM     10  C   UNK d   1       2.112   7.184 -13.027  0.00  0.00     0.099 A 
ATOM     11  C   UNK d   1       2.956   6.095 -12.876  0.00  0.00     0.057 A 
ATOM     12  C   UNK d   1       4.279   6.129 -13.247  0.00  0.00     0.045 A 
ATOM     13  C   UNK d   1       4.795   7.308 -13.797  0.00  0.00    -0.028 A 
ATOM     14  N   UNK d   1       5.363   5.211 -13.232  0.00  0.00    -0.317 N 
ATOM     15  C   UNK d   1       3.961   8.368 -13.940  0.00  0.00     0.030 A 
ATOM     16  C   UNK d   1       6.236   7.138 -14.128  0.00  0.00     0.061 C 
ATOM     17  C   UNK d   1       2.628   8.332 -13.566  0.00  0.00     0.035 A 
ATOM     18 Br   UNK d   1       1.539   9.906 -13.813  0.00  0.00    -0.049 Br
ATOM     19  C   UNK d   1       6.617   5.973 -13.236  0.00  0.00     0.137 C 
ATOM     20  C   UNK d   1       5.314   3.819 -13.219  0.00  0.00     0.224 C 
ATOM     21  O   UNK d   1       6.402   3.146 -13.255  0.00  0.00    -0.273 OA
BRANCH  20  22
ATOM     22  C   UNK d   1       4.076   3.043 -13.166  0.00  0.00     0.099 C 
ATOM     23  C   UNK d   1       4.207   1.707 -13.892  0.00  0.00     0.014 C 
ENDBRANCH  20  22
ENDBRANCH   7  10
ENDBRANCH   1   7
BRANCH   3  24
ATOM     24  C   UNK d   1      -3.797   9.363 -14.050  0.00  0.00     0.223 C 
ATOM     25  O   UNK d   1      -3.202  10.278 -14.671  0.00  0.00    -0.273 OA
ATOM     26  N   UNK d   1      -5.221   9.413 -13.810  0.00  0.00    -0.359 N 
ATOM     27  H   UNK d   1      -5.604   8.621 -13.287  0.00  0.00     0.162 HD
BRANCH  26  28
ATOM     28  C   UNK d   1      -5.927  10.539 -14.305  0.00  0.00     0.142 C 
BRANCH  28  29
ATOM     29  C   UNK d   1      -7.137  11.000 -13.586  0.00  0.00     0.136 C 
BRANCH  29  30
ATOM     30  N   UNK d   1      -8.376  11.035 -14.269  0.00  0.00    -0.407 N 
ATOM     31  C   UNK d   1      -8.385  10.789 -15.637  0.00  0.00     0.143 C 
ATOM     32  C   UNK d   1      -8.781  11.934 -16.524  0.00  0.00     0.187 C 
ATOM     33  O   UNK d   1      -9.823  12.682 -15.997  0.00  0.00    -0.388 OA
ATOM     34  C   UNK d   1      -9.346  13.241 -14.811  0.00  0.00     0.187 C 
ATOM     35  C   UNK d   1      -9.224  12.112 -13.813  0.00  0.00     0.143 C 
ENDBRANCH  29  30
ENDBRANCH  28  29
ENDBRANCH  26  28
ENDBRANCH   3  24
TORSDOF 7
ENDMDL
