MODEL 1
REMARK VINA RESULT:    -8.002      0.000      0.000
REMARK INTER + INTRA:          -9.525
REMARK INTER:                  -9.406
REMARK INTRA:                  -0.120
REMARK UNBOUND:                -0.120
REMARK  3 active torsions:
REMARK  status: ('A' for Active; 'I' for Inactive)
REMARK    1  A    between atoms: C_5  and  N_8 
REMARK    2  A    between atoms: C_10  and  C_14 
REMARK       I    between atoms: C_14  and  N_16 
REMARK    3  A    between atoms: N_19  and  C_22 
ROOT
ATOM      1  C   UNK d   1       1.714   7.227 -13.237  0.00  0.00     0.226 C 
ATOM      2  O   UNK d   1       2.145   6.720 -12.135  0.00  0.00    -0.273 OA
ATOM      3  N   UNK d   1       2.249   8.468 -13.597  0.00  0.00    -0.349 N 
ATOM      4  C   UNK d   1       3.226   9.121 -12.740  0.00  0.00     0.146 C 
ATOM      5  C   UNK d   1       2.740  10.510 -12.335  0.00  0.00     0.161 C 
ATOM      6  N   UNK d   1       2.002  11.081 -13.423  0.00  0.00    -0.213 N 
ATOM      7  C   UNK d   1       2.293  10.646 -14.755  0.00  0.00     0.161 C 
ATOM      8  C   UNK d   1       1.880   9.162 -14.808  0.00  0.00     0.146 C 
ENDROOT
BRANCH   1   9
ATOM      9  C   UNK d   1       0.716   6.446 -13.978  0.00  0.00     0.105 C 
ATOM     10  C   UNK d   1      -0.275   7.260 -14.762  0.00  0.00     0.146 C 
ATOM     11  N   UNK d   1      -1.570   7.059 -14.125  0.00  0.00    -0.317 N 
ATOM     12  C   UNK d   1      -1.480   5.770 -13.479  0.00  0.00     0.225 C 
ATOM     13  C   UNK d   1      -0.064   5.460 -13.173  0.00  0.00     0.119 C 
ATOM     14  O   UNK d   1      -2.528   5.081 -13.254  0.00  0.00    -0.273 OA
BRANCH  11  15
ATOM     15  C   UNK d   1      -2.697   7.929 -14.125  0.00  0.00     0.037 A 
ATOM     16  C   UNK d   1      -3.908   7.566 -14.674  0.00  0.00     0.031 A 
ATOM     17  C   UNK d   1      -5.002   8.410 -14.680  0.00  0.00     0.026 A 
ATOM     18  C   UNK d   1      -4.911   9.660 -14.127  0.00  0.00     0.034 A 
ATOM     19 Cl   UNK d   1      -6.297  10.750 -14.126  0.00  0.00    -0.084 Cl
ATOM     20  C   UNK d   1      -3.724  10.054 -13.573  0.00  0.00     0.026 A 
ATOM     21  C   UNK d   1      -2.620   9.190 -13.573  0.00  0.00     0.031 A 
ENDBRANCH  11  15
ENDBRANCH   1   9
BRANCH   6  22
ATOM     22  C   UNK d   1       1.000  12.047 -13.192  0.00  0.00     0.704 A 
ATOM     23  N   UNK d   1       1.176  13.296 -12.678  0.00  0.00    -0.195 N 
ATOM     24  C   UNK d   1      -0.012  13.913 -12.618  0.00  0.00     0.128 A 
ATOM     25  C   UNK d   1       2.461  13.869 -12.257  0.00  0.00     0.175 C 
ATOM     26  C   UNK d   1      -0.969  13.050 -13.097  0.00  0.00     0.154 A 
ATOM     27  N   UNK d   1      -0.323  11.947 -13.429  0.00  0.00    -0.075 NA
ENDBRANCH   6  22
TORSDOF 3
ENDMDL
