MODEL 1
REMARK VINA RESULT:    -7.086      0.000      0.000
REMARK INTER + INTRA:          -7.120
REMARK INTER:                  -7.500
REMARK INTRA:                   0.380
REMARK UNBOUND:                 0.380
REMARK  1 active torsions:
REMARK  status: ('A' for Active; 'I' for Inactive)
REMARK    1  A    between atoms: C_5  and  N_8 
ROOT
ATOM      1  N   UNK d   1       3.578   5.415 -12.813  0.00  0.00    -0.231 N 
ATOM      2  C   UNK d   1       2.578   4.694 -12.079  0.00  0.00     0.357 A 
ATOM      3  O   UNK d   1       2.790   3.482 -11.792  0.00  0.00    -0.244 OA
ATOM      4  N   UNK d   1       1.407   5.408 -11.723  0.00  0.00    -0.169 NA
ATOM      5  C   UNK d   1       1.175   6.613 -12.008  0.00  0.00     0.202 A 
ATOM      6  C   UNK d   1       2.087   7.522 -12.783  0.00  0.00     0.140 A 
ATOM      7  C   UNK d   1       1.339   7.813 -14.054  0.00  0.00     0.269 C 
ATOM      8  N   UNK d   1       1.662   9.003 -14.741  0.00  0.00    -0.043 N 
ATOM      9  C   UNK d   1       1.893  10.145 -13.938  0.00  0.00     0.140 A 
ATOM     10  C   UNK d   1       2.212  10.002 -12.626  0.00  0.00    -0.021 A 
ATOM     11  C   UNK d   1       2.434  11.149 -11.868  0.00  0.00     0.016 A 
ATOM     12  C   UNK d   1       2.328  12.393 -12.455  0.00  0.00    -0.061 A 
ATOM     13  C   UNK d   1       2.001  12.539 -13.795  0.00  0.00     0.009 A 
ATOM     14  C   UNK d   1       1.782  11.382 -14.541  0.00  0.00     0.038 A 
ATOM     15  C   UNK d   1       2.550  13.646 -11.664  0.00  0.00     0.048 C 
ATOM     16  C   UNK d   1       2.348   8.704 -11.930  0.00  0.00     0.070 C 
ATOM     17  C   UNK d   1       2.714   8.884 -15.738  0.00  0.00     0.276 C 
ATOM     18  C   UNK d   1       3.325   6.776 -13.115  0.00  0.00     0.251 A 
ATOM     19  O   UNK d   1       4.290   7.360 -13.726  0.00  0.00    -0.271 OA
ATOM     20  O   UNK d   1      -0.025   7.220 -11.594  0.00  0.00    -0.173 OA
ATOM     21  H   UNK d   1       0.799   9.264 -15.318  0.00  0.00     0.286 HD
ENDROOT
BRANCH   1  22
ATOM     22  C   UNK d   1       4.731   4.700 -13.209  0.00  0.00     0.047 A 
ATOM     23  C   UNK d   1       6.013   5.126 -12.859  0.00  0.00     0.032 A 
ATOM     24  C   UNK d   1       7.144   4.447 -13.225  0.00  0.00     0.026 A 
ATOM     25  C   UNK d   1       7.080   3.276 -13.980  0.00  0.00     0.034 A 
ATOM     26 Cl   UNK d   1       8.542   2.417 -14.429  0.00  0.00    -0.084 Cl
ATOM     27  C   UNK d   1       5.812   2.853 -14.328  0.00  0.00     0.026 A 
ATOM     28  C   UNK d   1       4.678   3.536 -13.960  0.00  0.00     0.032 A 
ENDBRANCH   1  22
TORSDOF 1
ENDMDL
