MODEL 1
REMARK VINA RESULT:    -8.543      0.000      0.000
REMARK INTER + INTRA:          -9.489
REMARK INTER:                  -9.542
REMARK INTRA:                   0.052
REMARK UNBOUND:                 0.052
REMARK  3 active torsions:
REMARK  status: ('A' for Active; 'I' for Inactive)
REMARK    1  A    between atoms: C_5  and  N_8 
REMARK    2  A    between atoms: C_13  and  O_21 
REMARK    3  A    between atoms: C_14  and  O_20 
ROOT
ATOM      1  N   UNK d   1       0.359   9.991 -13.672  0.00  0.00    -0.252 N 
ATOM      2  C   UNK d   1       1.087   8.970 -14.374  0.00  0.00     0.236 C 
ATOM      3  O   UNK d   1       2.195   9.172 -14.931  0.00  0.00    -0.272 OA
ATOM      4  C   UNK d   1       0.351   7.682 -14.340  0.00  0.00     0.099 C 
ATOM      5  C   UNK d   1       1.065   6.599 -13.598  0.00  0.00     0.031 C 
ATOM      6  C   UNK d   1       1.890   7.262 -12.515  0.00  0.00     0.152 C 
ATOM      7  C   UNK d   1       0.800   7.849 -11.620  0.00  0.00     0.152 C 
ATOM      8  C   UNK d   1      -0.512   7.355 -12.183  0.00  0.00     0.031 C 
ATOM      9  C   UNK d   1      -0.880   8.000 -13.482  0.00  0.00     0.099 C 
ATOM     10  C   UNK d   1      -0.943   9.481 -13.431  0.00  0.00     0.236 C 
ATOM     11  O   UNK d   1      -1.990  10.137 -13.211  0.00  0.00    -0.272 OA
ATOM     12  C   UNK d   1      -0.033   5.985 -12.713  0.00  0.00     0.016 C 
ENDROOT
BRANCH   1  13
ATOM     13  C   UNK d   1       0.801  11.278 -13.264  0.00  0.00     0.045 A 
ATOM     14  C   UNK d   1      -0.069  12.374 -13.301  0.00  0.00     0.032 A 
ATOM     15  C   UNK d   1       0.356  13.623 -12.916  0.00  0.00     0.026 A 
ATOM     16  C   UNK d   1       1.649  13.841 -12.480  0.00  0.00     0.034 A 
ATOM     17 Cl   UNK d   1       2.169  15.454 -11.995  0.00  0.00    -0.084 Cl
ATOM     18  C   UNK d   1       2.531  12.771 -12.435  0.00  0.00     0.026 A 
ATOM     19  C   UNK d   1       2.079  11.533 -12.826  0.00  0.00     0.032 A 
ENDBRANCH   1  13
BRANCH   6  20
ATOM     20  O   UNK d   1       2.526   6.270 -11.801  0.00  0.00    -0.393 OA
ATOM     21  H   UNK d   1       3.229   6.583 -11.186  0.00  0.00     0.210 HD
ENDBRANCH   6  20
BRANCH   7  22
ATOM     22  O   UNK d   1       0.884   7.333 -10.329  0.00  0.00    -0.393 OA
ATOM     23  H   UNK d   1      -0.014   6.943 -10.107  0.00  0.00     0.210 HD
ENDBRANCH   7  22
TORSDOF 3
ENDMDL
