MODEL 1
REMARK VINA RESULT:    -8.505      0.000      0.000
REMARK INTER + INTRA:         -11.368
REMARK INTER:                 -11.239
REMARK INTRA:                  -0.129
REMARK UNBOUND:                -0.129
REMARK  6 active torsions:
REMARK  status: ('A' for Active; 'I' for Inactive)
REMARK    1  A    between atoms: C_5  and  N_8 
REMARK    2  A    between atoms: C_14  and  C_17 
REMARK    3  A    between atoms: C_19  and  C_22 
REMARK    4  A    between atoms: C_24  and  O_31 
REMARK    5  A    between atoms: C_25  and  O_30 
REMARK    6  A    between atoms: C_26  and  O_28 
ROOT
ATOM      1  C   UNK d   1       3.209   9.075 -13.284  0.00  0.00     0.041 C 
ATOM      2  C   UNK d   1       4.478   9.283 -13.577  0.00  0.00     0.026 C 
ATOM      3  C   UNK d   1       4.898   8.382 -14.680  0.00  0.00     0.134 C 
ATOM      4  N   UNK d   1       3.646   7.993 -15.265  0.00  0.00    -0.228 NA
ATOM      5  N   UNK d   1       2.765   8.058 -14.175  0.00  0.00    -0.323 N 
ATOM      6  H   UNK d   1       3.649   7.096 -15.748  0.00  0.00     0.147 HD
ATOM      7  H   UNK d   1       1.928   7.454 -14.056  0.00  0.00     0.180 HD
ENDROOT
BRANCH   1   8
ATOM      8  C   UNK d   1       2.379   9.764 -12.236  0.00  0.00     0.221 C 
ATOM      9  C   UNK d   1       2.435  11.231 -12.417  0.00  0.00     0.244 C 
ATOM     10  N   UNK d   1       1.509  11.871 -13.273  0.00  0.00    -0.277 N 
ATOM     11  O   UNK d   1       3.301  11.892 -11.812  0.00  0.00    -0.272 OA
ATOM     12  C   UNK d   1       0.336  11.221 -13.670  0.00  0.00     0.336 C 
ATOM     13  H   UNK d   1       1.675  12.854 -13.634  0.00  0.00     0.173 HD
ATOM     14  N   UNK d   1       0.046   9.904 -13.225  0.00  0.00    -0.233 N 
ATOM     15  O   UNK d   1      -0.520  11.776 -14.444  0.00  0.00    -0.246 OA
ATOM     16  C   UNK d   1       0.985   9.275 -12.366  0.00  0.00     0.251 C 
ATOM     17  O   UNK d   1       0.636   8.285 -11.701  0.00  0.00    -0.271 OA
BRANCH  14  18
ATOM     18  C   UNK d   1      -1.151   9.261 -13.641  0.00  0.00     0.047 A 
ATOM     19  C   UNK d   1      -1.131   7.955 -14.060  0.00  0.00     0.032 A 
ATOM     20  C   UNK d   1      -2.277   7.302 -14.467  0.00  0.00     0.026 A 
ATOM     21  C   UNK d   1      -3.482   7.958 -14.460  0.00  0.00     0.034 A 
ATOM     22 Cl   UNK d   1      -4.964   7.141 -14.978  0.00  0.00    -0.084 Cl
ATOM     23  C   UNK d   1      -3.526   9.267 -14.045  0.00  0.00     0.026 A 
ATOM     24  C   UNK d   1      -2.352   9.913 -13.635  0.00  0.00     0.032 A 
ENDBRANCH  14  18
ENDBRANCH   1   8
BRANCH   3  25
ATOM     25  C   UNK d   1       5.676   7.285 -14.116  0.00  0.00    -0.030 A 
ATOM     26  C   UNK d   1       7.030   7.468 -13.928  0.00  0.00     0.049 A 
ATOM     27  C   UNK d   1       7.851   6.494 -13.399  0.00  0.00     0.104 A 
ATOM     28  C   UNK d   1       7.266   5.271 -13.045  0.00  0.00     0.133 A 
ATOM     29  C   UNK d   1       5.919   5.040 -13.214  0.00  0.00     0.104 A 
ATOM     30  C   UNK d   1       5.160   6.062 -13.749  0.00  0.00     0.049 A 
BRANCH  27  31
ATOM     31  O   UNK d   1       9.215   6.668 -13.205  0.00  0.00    -0.353 OA
ATOM     32  C   UNK d   1      10.042   6.550 -14.345  0.00  0.00     0.210 C 
ENDBRANCH  27  31
BRANCH  28  33
ATOM     33  O   UNK d   1       8.044   4.267 -12.513  0.00  0.00    -0.356 OA
ATOM     34  H   UNK d   1       8.649   3.727 -13.115  0.00  0.00     0.218 HD
ENDBRANCH  28  33
BRANCH  29  35
ATOM     35  O   UNK d   1       5.400   3.832 -12.854  0.00  0.00    -0.353 OA
ATOM     36  C   UNK d   1       4.154   3.315 -13.221  0.00  0.00     0.210 C 
ENDBRANCH  29  35
ENDBRANCH   3  25
TORSDOF 6
ENDMDL
