/Users/jonathanwahrer/Desktop/Msc/3_Semester/Drug_Design_Praktikum/waehrer_HTS_screening/HTS_experiment/out/docking_results/vina_output/6q9y/2357_docked.pdbqt
 OpenBabel03222220473D

 36 39  0  0  1  0  0  0  0  0999 V2000
    3.2090    9.0750  -13.2840 C   0  0  2  0  0  3  0  0  0  0  0  0
    4.4780    9.2830  -13.5770 C   0  0  0  0  0  2  0  0  0  0  0  0
    4.8980    8.3820  -14.6800 C   0  0  2  0  0  3  0  0  0  0  0  0
    3.6460    7.9930  -15.2650 N   0  0  0  0  0  0  0  0  0  0  0  0
    2.7650    8.0580  -14.1750 N   0  0  0  0  0  0  0  0  0  0  0  0
    3.6490    7.0960  -15.7480 H   0  0  0  0  0  0  0  0  0  0  0  0
    1.9280    7.4540  -14.0560 H   0  0  0  0  0  0  0  0  0  0  0  0
    2.3790    9.7640  -12.2360 C   0  0  1  0  0  3  0  0  0  0  0  0
    2.4350   11.2310  -12.4170 C   0  0  0  0  0  0  0  0  0  0  0  0
    1.5090   11.8710  -13.2730 N   0  0  0  0  0  0  0  0  0  0  0  0
    3.3010   11.8920  -11.8120 O   0  0  0  0  0  0  0  0  0  0  0  0
    0.3360   11.2210  -13.6700 C   0  0  0  0  0  0  0  0  0  0  0  0
    1.6750   12.8540  -13.6340 H   0  0  0  0  0  0  0  0  0  0  0  0
    0.0460    9.9040  -13.2250 N   0  0  0  0  0  0  0  0  0  0  0  0
   -0.5200   11.7760  -14.4440 O   0  0  0  0  0  0  0  0  0  0  0  0
    0.9850    9.2750  -12.3660 C   0  0  0  0  0  0  0  0  0  0  0  0
    0.6360    8.2850  -11.7010 O   0  0  0  0  0  0  0  0  0  0  0  0
   -1.1510    9.2610  -13.6410 C   0  0  0  0  0  0  0  0  0  0  0  0
   -1.1310    7.9550  -14.0600 C   0  0  0  0  0  3  0  0  0  0  0  0
   -2.2770    7.3020  -14.4670 C   0  0  0  0  0  3  0  0  0  0  0  0
   -3.4820    7.9580  -14.4600 C   0  0  0  0  0  0  0  0  0  0  0  0
   -4.9640    7.1410  -14.9780 Cl  0  0  0  0  0  0  0  0  0  0  0  0
   -3.5260    9.2670  -14.0450 C   0  0  0  0  0  3  0  0  0  0  0  0
   -2.3520    9.9130  -13.6350 C   0  0  0  0  0  3  0  0  0  0  0  0
    5.6760    7.2850  -14.1160 C   0  0  0  0  0  0  0  0  0  0  0  0
    7.0300    7.4680  -13.9280 C   0  0  0  0  0  3  0  0  0  0  0  0
    7.8510    6.4940  -13.3990 C   0  0  0  0  0  0  0  0  0  0  0  0
    7.2660    5.2710  -13.0450 C   0  0  0  0  0  0  0  0  0  0  0  0
    5.9190    5.0400  -13.2140 C   0  0  0  0  0  0  0  0  0  0  0  0
    5.1600    6.0620  -13.7490 C   0  0  0  0  0  3  0  0  0  0  0  0
    9.2150    6.6680  -13.2050 O   0  0  0  0  0  0  0  0  0  0  0  0
   10.0420    6.5500  -14.3450 C   0  0  0  0  0  1  0  0  0  0  0  0
    8.0440    4.2670  -12.5130 O   0  0  0  0  0  0  0  0  0  0  0  0
    8.6490    3.7270  -13.1150 H   0  0  0  0  0  0  0  0  0  0  0  0
    5.4000    3.8320  -12.8540 O   0  0  0  0  0  0  0  0  0  0  0  0
    4.1540    3.3150  -13.2210 C   0  0  0  0  0  1  0  0  0  0  0  0
  1  2  1  6  0  0  0
  1  8  1  0  0  0  0
  3 25  1  1  0  0  0
  3  2  1  0  0  0  0
  4  3  1  0  0  0  0
  4  5  1  0  0  0  0
  5  7  1  0  0  0  0
  5  1  1  0  0  0  0
  6  4  1  0  0  0  0
  8  9  1  6  0  0  0
  9 11  2  0  0  0  0
 10  9  1  0  0  0  0
 12 10  1  0  0  0  0
 12 14  1  0  0  0  0
 13 10  1  0  0  0  0
 14 16  1  0  0  0  0
 15 12  2  0  0  0  0
 16  8  1  0  0  0  0
 16 17  2  0  0  0  0
 18 24  1  0  0  0  0
 18 14  1  0  0  0  0
 19 18  2  0  0  0  0
 20 21  2  0  0  0  0
 20 19  1  0  0  0  0
 21 23  1  0  0  0  0
 22 21  1  0  0  0  0
 23 24  2  0  0  0  0
 25 26  2  0  0  0  0
 25 30  1  0  0  0  0
 26 27  1  0  0  0  0
 27 31  1  0  0  0  0
 27 28  2  0  0  0  0
 28 33  1  0  0  0  0
 29 28  1  0  0  0  0
 29 35  1  0  0  0  0
 30 29  2  0  0  0  0
 32 31  1  0  0  0  0
 34 33  1  0  0  0  0
 36 35  1  0  0  0  0
M  END
>  <Pose>
1

>  <Score>
-8.505

$$$$
