/Users/jonathanwahrer/Desktop/Msc/3_Semester/Drug_Design_Praktikum/waehrer_HTS_screening/HTS_experiment/out/docking_results/vina_output/6q9y/2358_docked.pdbqt
 OpenBabel03222220473D

 34 37  0  0  1  0  0  0  0  0999 V2000
    0.6040    7.3050  -13.8470 N   0  0  0  0  0  0  0  0  0  0  0  0
    1.1310    6.4530  -12.8390 C   0  0  0  0  0  0  0  0  0  0  0  0
    0.3190    5.7580  -12.1600 O   0  0  0  0  0  0  0  0  0  0  0  0
    2.5190    6.3720  -12.5900 N   0  0  0  0  0  0  0  0  0  0  0  0
    3.4320    7.1450  -13.3450 C   0  0  0  0  0  0  0  0  0  0  0  0
    4.6950    6.9550  -13.2610 O   0  0  0  0  0  0  0  0  0  0  0  0
    2.9750    8.1940  -14.2560 C   0  0  1  0  0  3  0  0  0  0  0  0
    1.5500    8.0670  -14.5840 C   0  0  0  0  0  0  0  0  0  0  0  0
    1.0880    8.6760  -15.6100 O   0  0  0  0  0  0  0  0  0  0  0  0
    2.8890    5.7340  -11.8380 H   0  0  0  0  0  0  0  0  0  0  0  0
    3.3090    9.5400  -13.7030 C   0  0  1  0  0  3  0  0  0  0  0  0
    3.5340   10.6490  -14.3560 C   0  0  0  0  0  2  0  0  0  0  0  0
    3.8210   11.7000  -13.3490 C   0  0  2  0  0  3  0  0  0  0  0  0
    4.1580   10.9560  -12.1540 N   0  0  0  0  0  0  0  0  0  0  0  0
    3.4250    9.7730  -12.3040 N   0  0  0  0  0  0  0  0  0  0  0  0
    5.1870   10.7680  -12.0970 H   0  0  0  0  0  0  0  0  0  0  0  0
    3.0560    9.2070  -11.4960 H   0  0  0  0  0  0  0  0  0  0  0  0
    2.6160   12.5410  -13.1110 C   0  0  0  0  0  0  0  0  0  0  0  0
    2.6720   13.7250  -12.4110 C   0  0  0  0  0  3  0  0  0  0  0  0
    1.5590   14.5130  -12.1830 C   0  0  0  0  0  0  0  0  0  0  0  0
    0.3300   14.1220  -12.6650 C   0  0  0  0  0  0  0  0  0  0  0  0
    0.2530   12.9450  -13.3660 C   0  0  0  0  0  3  0  0  0  0  0  0
    1.3680   12.1670  -13.5880 C   0  0  0  0  0  3  0  0  0  0  0  0
    1.6780   15.6920  -11.4730 O   0  0  0  0  0  0  0  0  0  0  0  0
    0.9900   16.4140  -11.5450 H   0  0  0  0  0  0  0  0  0  0  0  0
   -0.7950   14.8940  -12.4490 O   0  0  0  0  0  0  0  0  0  0  0  0
   -1.0300   16.0240  -13.2570 C   0  0  0  0  0  1  0  0  0  0  0  0
   -0.7860    7.4060  -14.1230 C   0  0  0  0  0  0  0  0  0  0  0  0
   -1.4630    6.4430  -14.8620 C   0  0  0  0  0  3  0  0  0  0  0  0
   -2.7960    6.5350  -15.1290 C   0  0  0  0  0  3  0  0  0  0  0  0
   -3.5180    7.6190  -14.6530 C   0  0  0  0  0  0  0  0  0  0  0  0
   -5.2360    7.7730  -14.9740 Cl  0  0  0  0  0  0  0  0  0  0  0  0
   -2.8750    8.5970  -13.9120 C   0  0  0  0  0  3  0  0  0  0  0  0
   -1.5070    8.4800  -13.6520 C   0  0  0  0  0  3  0  0  0  0  0  0
  1  2  1  0  0  0  0
  2  4  1  0  0  0  0
  2  3  2  0  0  0  0
  4 10  1  0  0  0  0
  5  6  2  0  0  0  0
  5  4  1  0  0  0  0
  7  8  1  1  0  0  0
  7 11  1  0  0  0  0
  7  5  1  0  0  0  0
  8  1  1  0  0  0  0
  9  8  2  0  0  0  0
 11 12  1  1  0  0  0
 11 15  1  0  0  0  0
 12 13  1  0  0  0  0
 13 18  1  1  0  0  0
 13 14  1  0  0  0  0
 14 16  1  0  0  0  0
 15 14  1  0  0  0  0
 15 17  1  0  0  0  0
 18 19  1  0  0  0  0
 19 20  2  0  0  0  0
 20 24  1  0  0  0  0
 21 26  1  0  0  0  0
 21 20  1  0  0  0  0
 22 21  2  0  0  0  0
 23 22  1  0  0  0  0
 23 18  2  0  0  0  0
 25 24  1  0  0  0  0
 27 26  1  0  0  0  0
 28  1  1  0  0  0  0
 28 34  1  0  0  0  0
 29 28  2  0  0  0  0
 30 29  1  0  0  0  0
 30 31  2  0  0  0  0
 31 33  1  0  0  0  0
 32 31  1  0  0  0  0
 33 34  2  0  0  0  0
M  END
>  <Pose>
1

>  <Score>
-8.328

$$$$
