MODEL 1
REMARK VINA RESULT:    -8.328      0.000      0.000
REMARK INTER + INTRA:         -11.450
REMARK INTER:                 -10.518
REMARK INTRA:                  -0.932
REMARK UNBOUND:                -0.932
REMARK  5 active torsions:
REMARK  status: ('A' for Active; 'I' for Inactive)
REMARK    1  A    between atoms: C_5  and  N_8 
REMARK    2  A    between atoms: C_14  and  C_17 
REMARK    3  A    between atoms: C_19  and  C_22 
REMARK    4  A    between atoms: C_24  and  O_30 
REMARK    5  A    between atoms: C_25  and  O_28 
ROOT
ATOM      1  N   UNK d   1       0.604   7.305 -13.847  0.00  0.00    -0.233 N 
ATOM      2  C   UNK d   1       1.131   6.453 -12.839  0.00  0.00     0.336 C 
ATOM      3  O   UNK d   1       0.319   5.758 -12.160  0.00  0.00    -0.246 OA
ATOM      4  N   UNK d   1       2.519   6.372 -12.590  0.00  0.00    -0.277 N 
ATOM      5  C   UNK d   1       3.432   7.145 -13.345  0.00  0.00     0.244 C 
ATOM      6  O   UNK d   1       4.695   6.955 -13.261  0.00  0.00    -0.272 OA
ATOM      7  C   UNK d   1       2.975   8.194 -14.256  0.00  0.00     0.221 C 
ATOM      8  C   UNK d   1       1.550   8.067 -14.584  0.00  0.00     0.251 C 
ATOM      9  O   UNK d   1       1.088   8.676 -15.610  0.00  0.00    -0.271 OA
ATOM     10  H   UNK d   1       2.889   5.734 -11.838  0.00  0.00     0.173 HD
ENDROOT
BRANCH   7  11
ATOM     11  C   UNK d   1       3.309   9.540 -13.703  0.00  0.00     0.041 C 
ATOM     12  C   UNK d   1       3.534  10.649 -14.356  0.00  0.00     0.026 C 
ATOM     13  C   UNK d   1       3.821  11.700 -13.349  0.00  0.00     0.134 C 
ATOM     14  N   UNK d   1       4.158  10.956 -12.154  0.00  0.00    -0.228 NA
ATOM     15  N   UNK d   1       3.425   9.773 -12.304  0.00  0.00    -0.323 N 
ATOM     16  H   UNK d   1       5.187  10.768 -12.097  0.00  0.00     0.147 HD
ATOM     17  H   UNK d   1       3.056   9.207 -11.496  0.00  0.00     0.180 HD
BRANCH  13  18
ATOM     18  C   UNK d   1       2.616  12.541 -13.111  0.00  0.00    -0.032 A 
ATOM     19  C   UNK d   1       2.672  13.725 -12.411  0.00  0.00     0.048 A 
ATOM     20  C   UNK d   1       1.559  14.513 -12.183  0.00  0.00     0.099 A 
ATOM     21  C   UNK d   1       0.330  14.122 -12.665  0.00  0.00     0.101 A 
ATOM     22  C   UNK d   1       0.253  12.945 -13.366  0.00  0.00     0.040 A 
ATOM     23  C   UNK d   1       1.368  12.167 -13.588  0.00  0.00     0.012 A 
BRANCH  20  24
ATOM     24  O   UNK d   1       1.678  15.692 -11.473  0.00  0.00    -0.358 OA
ATOM     25  H   UNK d   1       0.990  16.414 -11.545  0.00  0.00     0.217 HD
ENDBRANCH  20  24
BRANCH  21  26
ATOM     26  O   UNK d   1      -0.795  14.894 -12.449  0.00  0.00    -0.353 OA
ATOM     27  C   UNK d   1      -1.030  16.024 -13.257  0.00  0.00     0.210 C 
ENDBRANCH  21  26
ENDBRANCH  13  18
ENDBRANCH   7  11
BRANCH   1  28
ATOM     28  C   UNK d   1      -0.786   7.406 -14.123  0.00  0.00     0.047 A 
ATOM     29  C   UNK d   1      -1.463   6.443 -14.862  0.00  0.00     0.032 A 
ATOM     30  C   UNK d   1      -2.796   6.535 -15.129  0.00  0.00     0.026 A 
ATOM     31  C   UNK d   1      -3.518   7.619 -14.653  0.00  0.00     0.034 A 
ATOM     32 Cl   UNK d   1      -5.236   7.773 -14.974  0.00  0.00    -0.084 Cl
ATOM     33  C   UNK d   1      -2.875   8.597 -13.912  0.00  0.00     0.026 A 
ATOM     34  C   UNK d   1      -1.507   8.480 -13.652  0.00  0.00     0.032 A 
ENDBRANCH   1  28
TORSDOF 5
ENDMDL
