/Users/jonathanwahrer/Desktop/Msc/3_Semester/Drug_Design_Praktikum/waehrer_HTS_screening/HTS_experiment/out/docking_results/vina_output/6q9y/2361_docked.pdbqt
 OpenBabel03222220483D

 30 33  0  0  1  0  0  0  0  0999 V2000
    3.2940    7.5540  -13.5500 N   0  0  0  0  0  0  0  0  0  0  0  0
    2.2410    7.2120  -12.6670 C   0  0  0  0  0  0  0  0  0  0  0  0
    2.3780    6.2610  -11.8580 O   0  0  0  0  0  0  0  0  0  0  0  0
    1.0210    7.9710  -12.7150 N   0  0  0  0  0  0  0  0  0  0  0  0
    0.8630    9.0470  -13.6300 C   0  0  0  0  0  0  0  0  0  0  0  0
   -0.2900    9.4690  -13.8950 O   0  0  0  0  0  0  0  0  0  0  0  0
    2.0550    9.6480  -14.2510 C   0  0  2  0  0  3  0  0  0  0  0  0
    3.1030    8.6320  -14.4500 C   0  0  0  0  0  0  0  0  0  0  0  0
    3.8770    8.7120  -15.4650 O   0  0  0  0  0  0  0  0  0  0  0  0
    0.2200    7.7540  -12.0830 H   0  0  0  0  0  0  0  0  0  0  0  0
    2.5830   10.7760  -13.4140 C   0  0  1  0  0  3  0  0  0  0  0  0
    2.2040   11.1470  -12.2190 C   0  0  0  0  0  2  0  0  0  0  0  0
    3.0050   12.3060  -11.7950 C   0  0  1  0  0  3  0  0  0  0  0  0
    4.1050   12.3240  -12.7170 N   0  0  0  0  0  0  0  0  0  0  0  0
    3.6310   11.6300  -13.8410 N   0  0  0  0  0  0  0  0  0  0  0  0
    4.9510   11.8930  -12.3320 H   0  0  0  0  0  0  0  0  0  0  0  0
    4.0340   11.7730  -14.7960 H   0  0  0  0  0  0  0  0  0  0  0  0
    2.1590   13.5130  -11.9830 C   0  0  0  0  0  0  0  0  0  0  0  0
    2.5920   14.7390  -11.5380 C   0  0  0  0  0  3  0  0  0  0  0  0
    1.8210   15.8480  -11.7070 N   0  0  0  0  0  0  0  0  0  0  0  0
    0.6200   15.8080  -12.3050 C   0  0  0  0  0  3  0  0  0  0  0  0
    0.1550   14.5960  -12.7630 C   0  0  0  0  0  3  0  0  0  0  0  0
    0.9370   13.4430  -12.5970 C   0  0  0  0  0  3  0  0  0  0  0  0
    4.5380    6.8130  -13.5400 C   0  0  0  0  0  0  0  0  0  0  0  0
    4.5690    5.4360  -13.4940 C   0  0  0  0  0  3  0  0  0  0  0  0
    5.7710    4.7390  -13.4830 C   0  0  0  0  0  3  0  0  0  0  0  0
    6.9790    5.4030  -13.5190 C   0  0  0  0  0  0  0  0  0  0  0  0
    8.5000    4.5270  -13.5070 Cl  0  0  0  0  0  0  0  0  0  0  0  0
    6.9440    6.7800  -13.5630 C   0  0  0  0  0  3  0  0  0  0  0  0
    5.7470    7.4730  -13.5740 C   0  0  0  0  0  3  0  0  0  0  0  0
  1 24  1  0  0  0  0
  1  2  1  0  0  0  0
  2  3  2  0  0  0  0
  4  2  1  0  0  0  0
  4 10  1  0  0  0  0
  5  4  1  0  0  0  0
  6  5  2  0  0  0  0
  7  8  1  1  0  0  0
  7  5  1  0  0  0  0
  7 11  1  0  0  0  0
  8  1  1  0  0  0  0
  9  8  2  0  0  0  0
 11 12  1  1  0  0  0
 12 13  1  0  0  0  0
 13 18  1  6  0  0  0
 14 16  1  0  0  0  0
 14 13  1  0  0  0  0
 15 11  1  0  0  0  0
 15 14  1  0  0  0  0
 17 15  1  0  0  0  0
 18 19  1  0  0  0  0
 20 19  2  0  0  0  0
 21 20  1  0  0  0  0
 22 23  1  0  0  0  0
 22 21  2  0  0  0  0
 23 18  2  0  0  0  0
 24 25  1  0  0  0  0
 25 26  2  0  0  0  0
 27 28  1  0  0  0  0
 27 26  1  0  0  0  0
 29 27  2  0  0  0  0
 30 29  1  0  0  0  0
 30 24  2  0  0  0  0
M  END
>  <Pose>
1

>  <Score>
-8.772

$$$$
