MODEL 1
REMARK VINA RESULT:    -8.772      0.000      0.000
REMARK INTER + INTRA:         -10.277
REMARK INTER:                 -10.310
REMARK INTRA:                   0.034
REMARK UNBOUND:                 0.034
REMARK  3 active torsions:
REMARK  status: ('A' for Active; 'I' for Inactive)
REMARK    1  A    between atoms: C_5  and  N_8 
REMARK    2  A    between atoms: C_14  and  C_17 
REMARK    3  A    between atoms: C_19  and  C_22 
ROOT
ATOM      1  N   UNK d   1       3.294   7.554 -13.550  0.00  0.00    -0.233 N 
ATOM      2  C   UNK d   1       2.241   7.212 -12.667  0.00  0.00     0.336 C 
ATOM      3  O   UNK d   1       2.378   6.261 -11.858  0.00  0.00    -0.246 OA
ATOM      4  N   UNK d   1       1.021   7.971 -12.715  0.00  0.00    -0.277 N 
ATOM      5  C   UNK d   1       0.863   9.047 -13.630  0.00  0.00     0.244 C 
ATOM      6  O   UNK d   1      -0.290   9.469 -13.895  0.00  0.00    -0.272 OA
ATOM      7  C   UNK d   1       2.055   9.648 -14.251  0.00  0.00     0.221 C 
ATOM      8  C   UNK d   1       3.103   8.632 -14.450  0.00  0.00     0.251 C 
ATOM      9  O   UNK d   1       3.877   8.712 -15.465  0.00  0.00    -0.271 OA
ATOM     10  H   UNK d   1       0.220   7.754 -12.083  0.00  0.00     0.173 HD
ENDROOT
BRANCH   7  11
ATOM     11  C   UNK d   1       2.583  10.776 -13.414  0.00  0.00     0.041 C 
ATOM     12  C   UNK d   1       2.204  11.147 -12.219  0.00  0.00     0.026 C 
ATOM     13  C   UNK d   1       3.005  12.306 -11.795  0.00  0.00     0.135 C 
ATOM     14  N   UNK d   1       4.105  12.324 -12.717  0.00  0.00    -0.228 NA
ATOM     15  N   UNK d   1       3.631  11.630 -13.841  0.00  0.00    -0.323 N 
ATOM     16  H   UNK d   1       4.951  11.893 -12.332  0.00  0.00     0.147 HD
ATOM     17  H   UNK d   1       4.034  11.773 -14.796  0.00  0.00     0.180 HD
BRANCH  13  18
ATOM     18  C   UNK d   1       2.159  13.513 -11.983  0.00  0.00    -0.018 A 
ATOM     19  C   UNK d   1       2.592  14.739 -11.538  0.00  0.00     0.125 A 
ATOM     20  N   UNK d   1       1.821  15.848 -11.707  0.00  0.00    -0.273 NA
ATOM     21  C   UNK d   1       0.620  15.808 -12.305  0.00  0.00     0.116 A 
ATOM     22  C   UNK d   1       0.155  14.596 -12.763  0.00  0.00     0.020 A 
ATOM     23  C   UNK d   1       0.937  13.443 -12.597  0.00  0.00     0.012 A 
ENDBRANCH  13  18
ENDBRANCH   7  11
BRANCH   1  24
ATOM     24  C   UNK d   1       4.538   6.813 -13.540  0.00  0.00     0.047 A 
ATOM     25  C   UNK d   1       4.569   5.436 -13.494  0.00  0.00     0.032 A 
ATOM     26  C   UNK d   1       5.771   4.739 -13.483  0.00  0.00     0.026 A 
ATOM     27  C   UNK d   1       6.979   5.403 -13.519  0.00  0.00     0.034 A 
ATOM     28 Cl   UNK d   1       8.500   4.527 -13.507  0.00  0.00    -0.084 Cl
ATOM     29  C   UNK d   1       6.944   6.780 -13.563  0.00  0.00     0.026 A 
ATOM     30  C   UNK d   1       5.747   7.473 -13.574  0.00  0.00     0.032 A 
ENDBRANCH   1  24
TORSDOF 3
ENDMDL
