MODEL 1
REMARK VINA RESULT:    -8.504      0.000      0.000
REMARK INTER + INTRA:         -10.555
REMARK INTER:                 -11.238
REMARK INTRA:                   0.683
REMARK UNBOUND:                 0.683
REMARK  6 active torsions:
REMARK  status: ('A' for Active; 'I' for Inactive)
REMARK    1  A    between atoms: C_5  and  N_8 
REMARK    2  A    between atoms: C_9  and  O_19 
REMARK    3  A    between atoms: C_9  and  C_20 
REMARK       I    between atoms: C_20  and  N_22 
REMARK    4  A    between atoms: N_22  and  C_23 
REMARK    5  A    between atoms: C_23  and  C_24 
REMARK    6  A    between atoms: C_24  and  N_25 
ROOT
ATOM      1  N   UNK d   1       1.578   7.867 -13.613  0.00  0.00    -0.254 N 
ATOM      2  C   UNK d   1       1.426   9.273 -13.736  0.00  0.00     0.256 A 
ATOM      3  C   UNK d   1       0.052   9.746 -13.653  0.00  0.00     0.034 A 
ATOM      4  C   UNK d   1      -1.014   8.903 -13.562  0.00  0.00     0.048 A 
ATOM      5  C   UNK d   1      -2.318   9.430 -13.508  0.00  0.00     0.030 A 
ATOM      6  C   UNK d   1      -2.577  10.777 -13.541  0.00  0.00     0.002 A 
ATOM      7  C   UNK d   1      -1.482  11.619 -13.632  0.00  0.00     0.001 A 
ATOM      8  C   UNK d   1      -0.222  11.117 -13.685  0.00  0.00     0.015 A 
ATOM      9  N   UNK d   1      -0.855   7.476 -13.494  0.00  0.00    -0.308 N 
ATOM     10  C   UNK d   1       0.476   7.003 -13.525  0.00  0.00     0.330 A 
ATOM     11  O   UNK d   1       0.701   5.750 -13.471  0.00  0.00    -0.246 OA
ATOM     12  H   UNK d   1      -1.689   6.866 -13.429  0.00  0.00     0.170 HD
ENDROOT
BRANCH   2  13
ATOM     13  O   UNK d   1       1.887   9.563 -15.069  0.00  0.00    -0.359 OA
ATOM     14  H   UNK d   1       2.851   9.796 -15.041  0.00  0.00     0.213 HD
ENDBRANCH   2  13
BRANCH   2  15
ATOM     15  C   UNK d   1       2.342  10.022 -12.838  0.00  0.00     0.279 C 
ATOM     16  O   UNK d   1       2.273   9.868 -11.617  0.00  0.00    -0.268 OA
ATOM     17  N   UNK d   1       3.273  10.898 -13.427  0.00  0.00    -0.355 N 
ATOM     18  H   UNK d   1       3.338  11.037 -14.473  0.00  0.00     0.162 HD
BRANCH  17  19
ATOM     19  C   UNK d   1       4.222  11.685 -12.638  0.00  0.00     0.142 C 
BRANCH  19  20
ATOM     20  C   UNK d   1       4.142  13.134 -12.929  0.00  0.00     0.136 C 
BRANCH  20  21
ATOM     21  N   UNK d   1       3.025  13.839 -12.434  0.00  0.00    -0.407 N 
ATOM     22  C   UNK d   1       2.674  13.691 -11.082  0.00  0.00     0.143 C 
ATOM     23  C   UNK d   1       1.624  14.749 -10.731  0.00  0.00     0.187 C 
ATOM     24  O   UNK d   1       0.788  14.990 -11.836  0.00  0.00    -0.388 OA
ATOM     25  C   UNK d   1       1.463  15.683 -12.839  0.00  0.00     0.187 C 
ATOM     26  C   UNK d   1       2.880  15.179 -12.891  0.00  0.00     0.143 C 
ENDBRANCH  20  21
ENDBRANCH  19  20
ENDBRANCH  17  19
ENDBRANCH   2  15
BRANCH   1  27
ATOM     27  C   UNK d   1       2.926   7.286 -13.570  0.00  0.00     0.043 A 
ATOM     28  C   UNK d   1       3.207   6.181 -12.812  0.00  0.00     0.031 A 
ATOM     29  C   UNK d   1       4.490   5.641 -12.781  0.00  0.00     0.026 A 
ATOM     30  C   UNK d   1       5.488   6.229 -13.526  0.00  0.00     0.034 A 
ATOM     31 Cl   UNK d   1       7.114   5.537 -13.481  0.00  0.00    -0.084 Cl
ATOM     32  C   UNK d   1       5.232   7.341 -14.297  0.00  0.00     0.026 A 
ATOM     33  C   UNK d   1       3.946   7.852 -14.305  0.00  0.00     0.031 A 
ENDBRANCH   1  27
TORSDOF 6
ENDMDL
