MODEL 1
REMARK VINA RESULT:    -7.663      0.000      0.000
REMARK INTER + INTRA:         -10.814
REMARK INTER:                 -10.127
REMARK INTRA:                  -0.687
REMARK UNBOUND:                -0.687
REMARK  6 active torsions:
REMARK  status: ('A' for Active; 'I' for Inactive)
REMARK    1  A    between atoms: C_4  and  C_8 
REMARK    2  A    between atoms: C_8  and  N_9 
REMARK    3  A    between atoms: N_16  and  C_18 
REMARK    4  A    between atoms: C_18  and  C_19 
REMARK    5  A    between atoms: C_21  and  O_25 
REMARK    6  A    between atoms: C_30  and  O_32 
ROOT
ATOM      1  N   UNK d   1      -5.257   9.055 -13.565  0.00  0.00    -0.280 N 
ATOM      2  C   UNK d   1      -5.036   8.364 -14.788  0.00  0.00     0.260 C 
ATOM      3  O   UNK d   1      -6.015   7.791 -15.367  0.00  0.00    -0.270 OA
ATOM      4  C   UNK d   1      -3.724   8.271 -15.437  0.00  0.00     0.319 C 
ATOM      5  N   UNK d   1      -2.628   8.719 -14.644  0.00  0.00     0.127 N 
ATOM      6  C   UNK d   1      -2.893   9.789 -13.738  0.00  0.00     0.292 A 
ATOM      7  C   UNK d   1      -2.739  11.182 -14.298  0.00  0.00     0.326 A 
ATOM      8  N   UNK d   1      -1.592  11.382 -13.472  0.00  0.00     0.098 N 
ATOM      9  C   UNK d   1      -1.645  10.085 -12.923  0.00  0.00     0.326 A 
ATOM     10  C   UNK d   1      -4.113   9.592 -12.913  0.00  0.00     0.270 C 
ATOM     11  O   UNK d   1      -4.170   9.875 -11.689  0.00  0.00    -0.270 OA
ATOM     12  C   UNK d   1      -2.107   7.596 -13.920  0.00  0.00     0.307 C 
ATOM     13  C   UNK d   1      -2.879   6.375 -14.336  0.00  0.00     0.149 C 
ATOM     14  C   UNK d   1      -3.451   6.777 -15.665  0.00  0.00     0.079 C 
ENDROOT
BRANCH   8  15
ATOM     15  C   UNK d   1      -0.399  11.886 -14.047  0.00  0.00     0.311 C 
BRANCH  15  16
ATOM     16  C   UNK d   1       0.264  12.972 -13.316  0.00  0.00    -0.028 A 
ATOM     17  C   UNK d   1      -0.354  14.191 -13.188  0.00  0.00     0.045 A 
ATOM     18  C   UNK d   1       0.254  15.243 -12.497  0.00  0.00     0.068 A 
ATOM     19  C   UNK d   1       1.496  15.046 -11.938  0.00  0.00     0.037 A 
ATOM     20  C   UNK d   1       2.136  13.835 -12.051  0.00  0.00     0.003 A 
ATOM     21  C   UNK d   1       1.502  12.808 -12.746  0.00  0.00     0.009 A 
BRANCH  18  22
ATOM     22  O   UNK d   1      -0.364  16.471 -12.366  0.00  0.00    -0.356 OA
ATOM     23  C   UNK d   1      -1.495  16.747 -13.171  0.00  0.00     0.210 C 
ENDBRANCH  18  22
ENDBRANCH  15  16
ENDBRANCH   8  15
BRANCH   1  24
ATOM     24  C   UNK d   1      -6.583   9.211 -12.993  0.00  0.00     0.173 C 
BRANCH  24  25
ATOM     25  C   UNK d   1      -7.234  10.449 -13.545  0.00  0.00    -0.038 A 
ATOM     26  C   UNK d   1      -7.794  10.453 -14.803  0.00  0.00     0.032 A 
ATOM     27  C   UNK d   1      -8.396  11.576 -15.333  0.00  0.00     0.034 A 
ATOM     28 Cl   UNK d   1      -9.098  11.544 -16.935  0.00  0.00    -0.084 Cl
ATOM     29  C   UNK d   1      -8.449  12.737 -14.599  0.00  0.00     0.024 A 
ATOM     30  C   UNK d   1      -7.884  12.712 -13.344  0.00  0.00     0.002 A 
ATOM     31  C   UNK d   1      -7.287  11.613 -12.810  0.00  0.00     0.009 A 
ENDBRANCH  24  25
ENDBRANCH   1  24
BRANCH  13  32
ATOM     32  O   UNK d   1      -2.089   5.237 -14.418  0.00  0.00    -0.394 OA
ATOM     33  H   UNK d   1      -2.128   4.788 -13.539  0.00  0.00     0.210 HD
ENDBRANCH  13  32
TORSDOF 6
ENDMDL
