/Users/jonathanwahrer/Desktop/Msc/3_Semester/Drug_Design_Praktikum/waehrer_HTS_screening/HTS_experiment/out/docking_results/vina_output/6q9y/2364_docked.pdbqt
 OpenBabel03222220483D

 33 37  0  0  1  0  0  0  0  0999 V2000
   -5.2570    9.0550  -13.5650 N   0  0  0  0  0  0  0  0  0  0  0  0
   -5.0360    8.3640  -14.7880 C   0  0  0  0  0  0  0  0  0  0  0  0
   -6.0150    7.7910  -15.3670 O   0  0  0  0  0  0  0  0  0  0  0  0
   -3.7240    8.2710  -15.4370 C   0  0  1  0  0  3  0  0  0  0  0  0
   -2.6280    8.7190  -14.6440 N   0  0  1  0  0  0  0  0  0  0  0  0
   -2.8930    9.7890  -13.7380 C   0  0  2  0  0  0  0  0  0  0  0  0
   -2.7390   11.1820  -14.2980 C   0  0  0  0  0  2  0  0  0  0  0  0
   -1.5920   11.3820  -13.4720 N   0  0  0  0  0  0  0  0  0  0  0  0
   -1.6450   10.0850  -12.9230 C   0  0  0  0  0  2  0  0  0  0  0  0
   -4.1130    9.5920  -12.9130 C   0  0  0  0  0  0  0  0  0  0  0  0
   -4.1700    9.8750  -11.6890 O   0  0  0  0  0  0  0  0  0  0  0  0
   -2.1070    7.5960  -13.9200 C   0  0  0  0  0  2  0  0  0  0  0  0
   -2.8790    6.3750  -14.3360 C   0  0  1  0  0  3  0  0  0  0  0  0
   -3.4510    6.7770  -15.6650 C   0  0  0  0  0  2  0  0  0  0  0  0
   -0.3990   11.8860  -14.0470 C   0  0  0  0  0  2  0  0  0  0  0  0
    0.2640   12.9720  -13.3160 C   0  0  0  0  0  0  0  0  0  0  0  0
   -0.3540   14.1910  -13.1880 C   0  0  0  0  0  3  0  0  0  0  0  0
    0.2540   15.2430  -12.4970 C   0  0  0  0  0  0  0  0  0  0  0  0
    1.4960   15.0460  -11.9380 C   0  0  0  0  0  3  0  0  0  0  0  0
    2.1360   13.8350  -12.0510 C   0  0  0  0  0  3  0  0  0  0  0  0
    1.5020   12.8080  -12.7460 C   0  0  0  0  0  3  0  0  0  0  0  0
   -0.3640   16.4710  -12.3660 O   0  0  0  0  0  0  0  0  0  0  0  0
   -1.4950   16.7470  -13.1710 C   0  0  0  0  0  1  0  0  0  0  0  0
   -6.5830    9.2110  -12.9930 C   0  0  0  0  0  2  0  0  0  0  0  0
   -7.2340   10.4490  -13.5450 C   0  0  0  0  0  0  0  0  0  0  0  0
   -7.7940   10.4530  -14.8030 C   0  0  0  0  0  3  0  0  0  0  0  0
   -8.3960   11.5760  -15.3330 C   0  0  0  0  0  0  0  0  0  0  0  0
   -9.0980   11.5440  -16.9350 Cl  0  0  0  0  0  0  0  0  0  0  0  0
   -8.4490   12.7370  -14.5990 C   0  0  0  0  0  3  0  0  0  0  0  0
   -7.8840   12.7120  -13.3440 C   0  0  0  0  0  3  0  0  0  0  0  0
   -7.2870   11.6130  -12.8100 C   0  0  0  0  0  3  0  0  0  0  0  0
   -2.0890    5.2370  -14.4180 O   0  0  0  0  0  0  0  0  0  0  0  0
   -2.1280    4.7880  -13.5390 H   0  0  0  0  0  0  0  0  0  0  0  0
  1 24  1  0  0  0  0
  1 10  1  0  0  0  0
  2  1  1  0  0  0  0
  3  2  2  0  0  0  0
  4 14  1  1  0  0  0
  4  2  1  0  0  0  0
  4  5  1  0  0  0  0
  5 12  1  1  0  0  0
  5  6  1  0  0  0  0
  6  7  1  6  0  0  0
  6  9  1  0  0  0  0
  6 10  1  0  0  0  0
  7  8  1  0  0  0  0
  8  9  1  0  0  0  0
 10 11  2  0  0  0  0
 13 32  1  6  0  0  0
 13 12  1  0  0  0  0
 14 13  1  0  0  0  0
 15  8  1  0  0  0  0
 15 16  1  0  0  0  0
 16 17  2  0  0  0  0
 16 21  1  0  0  0  0
 17 18  1  0  0  0  0
 18 22  1  0  0  0  0
 18 19  2  0  0  0  0
 20 19  1  0  0  0  0
 21 20  2  0  0  0  0
 23 22  1  0  0  0  0
 25 24  1  0  0  0  0
 25 31  1  0  0  0  0
 26 25  2  0  0  0  0
 27 26  1  0  0  0  0
 27 29  2  0  0  0  0
 28 27  1  0  0  0  0
 29 30  1  0  0  0  0
 30 31  2  0  0  0  0
 32 33  1  0  0  0  0
M  END
>  <Pose>
1

>  <Score>
-7.663

$$$$
