MODEL 1
REMARK VINA RESULT:    -8.703      0.000      0.000
REMARK INTER + INTRA:         -12.595
REMARK INTER:                 -11.756
REMARK INTRA:                  -0.839
REMARK UNBOUND:                -0.839
REMARK  6 active torsions:
REMARK  status: ('A' for Active; 'I' for Inactive)
REMARK    1  A    between atoms: N_4  and  C_7 
REMARK    2  A    between atoms: C_7  and  C_8 
REMARK    3  A    between atoms: C_8  and  C_10 
REMARK       I    between atoms: C_10  and  N_12 
REMARK    4  A    between atoms: N_12  and  N_13 
REMARK       I    between atoms: N_13  and  C_14 
REMARK    5  A    between atoms: C_14  and  C_16 
REMARK    6  A    between atoms: C_18  and  N_26 
ROOT
ATOM      1  N   UNK d   1      -1.285   9.118 -13.744  0.00  0.00    -0.267 N 
ATOM      2  C   UNK d   1      -0.193   8.352 -14.178  0.00  0.00     0.245 C 
ATOM      3  O   UNK d   1      -0.421   7.209 -14.680  0.00  0.00    -0.271 OA
ATOM      4  H   UNK d   1      -1.112  10.065 -13.328  0.00  0.00     0.190 HD
ENDROOT
BRANCH   2   5
ATOM      5  C   UNK d   1       1.221   8.787 -14.091  0.00  0.00     0.045 C 
ATOM      6  C   UNK d   1       1.326  10.128 -13.393  0.00  0.00     0.054 C 
ATOM      7  C   UNK d   1       2.757  10.579 -13.313  0.00  0.00     0.078 C 
ATOM      8  C   UNK d   1       3.503   9.555 -12.456  0.00  0.00     0.039 C 
ATOM      9  C   UNK d   1       3.430  10.634 -14.649  0.00  0.00     0.039 C 
ATOM     10  C   UNK d   1       3.415   8.207 -13.096  0.00  0.00    -0.010 C 
ATOM     11  C   UNK d   1       1.973   7.782 -13.245  0.00  0.00     0.024 C 
ATOM     12  C   UNK d   1       4.065   8.265 -14.460  0.00  0.00     0.009 C 
ATOM     13  C   UNK d   1       3.309   9.276 -15.290  0.00  0.00    -0.010 C 
ATOM     14  C   UNK d   1       1.874   8.852 -15.454  0.00  0.00     0.024 C 
BRANCH   7  15
ATOM     15  N   UNK d   1       2.767  11.860 -12.634  0.00  0.00    -0.159 N 
ATOM     16  N   UNK d   1       3.677  12.393 -11.839  0.00  0.00    -0.046 NA
ATOM     17  N   UNK d   1       3.327  13.571 -11.418  0.00  0.00    -0.122 NA
ATOM     18  C   UNK d   1       2.145  13.853 -11.938  0.00  0.00     0.282 A 
ATOM     19  N   UNK d   1       1.792  12.781 -12.702  0.00  0.00    -0.144 NA
ENDBRANCH   7  15
ENDBRANCH   2   5
BRANCH   1  20
ATOM     20  N   UNK d   1      -2.577   8.654 -13.855  0.00  0.00    -0.267 N 
ATOM     21  C   UNK d   1      -3.671   9.418 -14.325  0.00  0.00     0.241 C 
ATOM     22  O   UNK d   1      -3.522  10.613 -14.687  0.00  0.00    -0.271 OA
ATOM     23  H   UNK d   1      -2.782   7.656 -13.569  0.00  0.00     0.190 HD
BRANCH  21  24
ATOM     24  C   UNK d   1      -5.050   8.858 -14.422  0.00  0.00     0.095 C 
ATOM     25  C   UNK d   1      -5.065   7.368 -14.362  0.00  0.00     0.022 C 
BRANCH  24  26
ATOM     26  C   UNK d   1      -5.911   9.471 -13.342  0.00  0.00     0.164 C 
BRANCH  26  27
ATOM     27  N   UNK d   1      -6.901  10.379 -13.871  0.00  0.00    -0.279 N 
ATOM     28  C   UNK d   1      -7.500  10.346 -15.089  0.00  0.00     0.133 A 
ATOM     29  C   UNK d   1      -8.389  11.397 -15.196  0.00  0.00     0.047 A 
ATOM     30 Br   UNK d   1      -9.520  11.876 -16.653  0.00  0.00    -0.048 Br
ATOM     31  C   UNK d   1      -8.296  12.069 -13.975  0.00  0.00     0.159 A 
ATOM     32  N   UNK d   1      -7.390  11.407 -13.232  0.00  0.00    -0.184 NA
ENDBRANCH  26  27
ENDBRANCH  24  26
ENDBRANCH  21  24
ENDBRANCH   1  20
TORSDOF 6
ENDMDL
