MODEL 1
REMARK VINA RESULT:   -10.800      0.000      0.000
REMARK INTER + INTRA:         -14.471
REMARK INTER:                 -13.957
REMARK INTRA:                  -0.515
REMARK UNBOUND:                -0.515
REMARK  5 active torsions:
REMARK  status: ('A' for Active; 'I' for Inactive)
REMARK    1  A    between atoms: C_5  and  C_8 
REMARK    2  A    between atoms: C_8  and  C_10 
REMARK    3  A    between atoms: C_10  and  N_11 
REMARK    4  A    between atoms: C_14  and  C_16 
REMARK    5  A    between atoms: C_19  and  O_22 
ROOT
ATOM      1  N   UNK d   1       0.351  13.974 -12.632  0.00  0.00    -0.337 N 
ATOM      2  C   UNK d   1       1.407  13.246 -12.952  0.00  0.00     0.086 A 
ATOM      3  N   UNK d   1       1.039  11.986 -13.308  0.00  0.00    -0.335 N 
ATOM      4  C   UNK d   1      -0.269  11.907 -13.208  0.00  0.00     0.061 A 
ATOM      5  C   UNK d   1      -0.706  13.178 -12.779  0.00  0.00     0.123 A 
ATOM      6  C   UNK d   1       1.963  10.981 -13.753  0.00  0.00     0.130 C 
ATOM      7  C   UNK d   1       2.759  10.428 -12.573  0.00  0.00     0.020 C 
ATOM      8  C   UNK d   1       2.975  11.633 -11.651  0.00  0.00     0.002 C 
ATOM      9  C   UNK d   1       3.753  12.668 -12.415  0.00  0.00     0.007 C 
ATOM     10  C   UNK d   1       2.803  13.779 -12.890  0.00  0.00     0.077 C 
ENDROOT
BRANCH   1  11
ATOM     11  C   UNK d   1       0.234  15.366 -12.187  0.00  0.00     0.213 C 
BRANCH  11  12
ATOM     12  C   UNK d   1      -0.544  16.110 -13.201  0.00  0.00     0.177 C 
ATOM     13  O   UNK d   1      -0.252  15.901 -14.426  0.00  0.00    -0.291 OA
BRANCH  12  14
ATOM     14  C   UNK d   1      -1.600  17.045 -12.883  0.00  0.00     0.011 A 
ATOM     15  C   UNK d   1      -1.557  17.715 -11.655  0.00  0.00     0.017 A 
ATOM     16  C   UNK d   1      -2.532  18.611 -11.294  0.00  0.00     0.025 A 
ATOM     17  C   UNK d   1      -3.593  18.891 -12.119  0.00  0.00     0.034 A 
ATOM     18 Cl   UNK d   1      -4.865  20.017 -11.722  0.00  0.00    -0.084 Cl
ATOM     19  C   UNK d   1      -3.626  18.223 -13.333  0.00  0.00     0.025 A 
ATOM     20  C   UNK d   1      -2.653  17.322 -13.703  0.00  0.00     0.017 A 
ENDBRANCH  12  14
ENDBRANCH  11  12
ENDBRANCH   1  11
BRANCH   4  21
ATOM     21  C   UNK d   1      -1.185  10.797 -13.487  0.00  0.00    -0.008 A 
ATOM     22  C   UNK d   1      -0.906   9.475 -13.352  0.00  0.00     0.016 A 
ATOM     23  C   UNK d   1      -1.800   8.464 -13.702  0.00  0.00     0.037 A 
ATOM     24  C   UNK d   1      -3.032   8.774 -14.209  0.00  0.00     0.068 A 
ATOM     25  C   UNK d   1      -3.346  10.104 -14.356  0.00  0.00     0.037 A 
ATOM     26  C   UNK d   1      -2.450  11.091 -14.007  0.00  0.00     0.016 A 
BRANCH  24  27
ATOM     27  O   UNK d   1      -3.953   7.775 -14.570  0.00  0.00    -0.356 OA
ATOM     28  C   UNK d   1      -4.511   7.688 -15.853  0.00  0.00     0.210 C 
ENDBRANCH  24  27
ENDBRANCH   4  21
TORSDOF 5
ENDMDL
