MODEL 1
REMARK VINA RESULT:   -11.507      0.000      0.000
REMARK INTER + INTRA:         -14.327
REMARK INTER:                 -14.534
REMARK INTRA:                   0.207
REMARK UNBOUND:                 0.207
REMARK  5 active torsions:
REMARK  status: ('A' for Active; 'I' for Inactive)
REMARK    1  A    between atoms: C_5  and  C_8 
REMARK    2  A    between atoms: C_8  and  O_33 
REMARK       I    between atoms: N_11  and  C_14 
REMARK    3  A    between atoms: C_14  and  C_16 
REMARK    4  A    between atoms: C_16  and  N_17 
REMARK       I    between atoms: N_17  and  C_18 
REMARK    5  A    between atoms: C_20  and  C_21 
ROOT
ATOM      1  C   UNK d   1      -0.362  15.445 -12.438  0.00  0.00     0.172 C 
ATOM      2  C   UNK d   1       0.931  15.518 -11.823  0.00  0.00     0.042 C 
ENDROOT
BRANCH   1   3
ATOM      3  C   UNK d   1      -0.774  16.564 -13.384  0.00  0.00     0.242 C 
ATOM      4  N   UNK d   1      -1.526  17.661 -12.901  0.00  0.00    -0.350 N 
ATOM      5  C   UNK d   1      -2.275  18.590 -13.683  0.00  0.00     0.129 C 
ATOM      6  C   UNK d   1      -1.306  18.091 -11.506  0.00  0.00     0.129 C 
ATOM      7  C   UNK d   1      -3.518  19.143 -13.032  0.00  0.00     0.062 C 
ATOM      8  C   UNK d   1      -3.747  18.811 -11.618  0.00  0.00     0.088 C 
ATOM      9  C   UNK d   1      -2.533  18.421 -10.811  0.00  0.00     0.062 C 
ATOM     10  O   UNK d   1      -0.436  16.495 -14.563  0.00  0.00    -0.271 OA
BRANCH   8  11
ATOM     11  C   UNK d   1      -4.392  19.892 -10.838  0.00  0.00    -0.024 A 
ATOM     12  C   UNK d   1      -5.666  20.264 -11.243  0.00  0.00     0.012 A 
ATOM     13  C   UNK d   1      -6.396  21.255 -10.570  0.00  0.00     0.024 A 
ATOM     14  C   UNK d   1      -5.851  21.881  -9.473  0.00  0.00     0.034 A 
ATOM     15 Cl   UNK d   1      -6.771  23.127  -8.595  0.00  0.00    -0.084 Cl
ATOM     16  C   UNK d   1      -4.581  21.510  -9.068  0.00  0.00     0.024 A 
ATOM     17  C   UNK d   1      -3.877  20.529  -9.755  0.00  0.00     0.012 A 
ENDBRANCH   8  11
BRANCH   8  18
ATOM     18  O   UNK d   1      -4.645  17.702 -11.591  0.00  0.00    -0.385 OA
ATOM     19  H   UNK d   1      -4.730  17.334 -10.695  0.00  0.00     0.211 HD
ENDBRANCH   8  18
ENDBRANCH   1   3
BRANCH   1  20
ATOM     20  N   UNK d   1      -0.940  14.199 -12.885  0.00  0.00    -0.356 N 
ATOM     21  C   UNK d   1      -0.241  13.006 -13.058  0.00  0.00     0.177 C 
ATOM     22  O   UNK d   1       1.099  13.220 -12.799  0.00  0.00    -0.172 OA
ATOM     23  C   UNK d   1      -0.475  11.678 -13.379  0.00  0.00     0.090 C 
ATOM     24  H   UNK d   1      -1.978  14.335 -13.131  0.00  0.00     0.162 HD
BRANCH  23  25
ATOM     25  C   UNK d   1      -1.310  10.707 -13.605  0.00  0.00     0.063 A 
ATOM     26  N   UNK d   1      -2.662  11.023 -14.084  0.00  0.00    -0.297 N 
ATOM     27  N   UNK d   1      -3.585  10.059 -14.438  0.00  0.00    -0.265 N 
ATOM     28  H   UNK d   1      -2.893  12.052 -14.147  0.00  0.00     0.187 HD
ATOM     29  C   UNK d   1      -3.301   8.705 -14.365  0.00  0.00     0.271 A 
ATOM     30  H   UNK d   1      -4.541  10.360 -14.775  0.00  0.00     0.190 HD
ATOM     31  O   UNK d   1      -4.112   7.794 -14.670  0.00  0.00    -0.266 OA
ATOM     32  C   UNK d   1      -1.960   8.287 -13.892  0.00  0.00     0.046 A 
ATOM     33  C   UNK d   1      -1.070   9.278 -13.553  0.00  0.00     0.008 A 
ATOM     34  C   UNK d   1      -1.655   6.947 -13.893  0.00  0.00     0.018 A 
ATOM     35  C   UNK d   1       0.213   8.839 -13.210  0.00  0.00     0.015 A 
ATOM     36  C   UNK d   1       0.536   7.490 -13.207  0.00  0.00     0.001 A 
ATOM     37  C   UNK d   1      -0.387   6.535 -13.543  0.00  0.00     0.001 A 
ENDBRANCH  23  25
ENDBRANCH   1  20
TORSDOF 5
ENDMDL
