MODEL 1
REMARK VINA RESULT:    -8.498      0.000      0.000
REMARK INTER + INTRA:         -11.969
REMARK INTER:                 -11.479
REMARK INTRA:                  -0.490
REMARK UNBOUND:                -0.490
REMARK  6 active torsions:
REMARK  status: ('A' for Active; 'I' for Inactive)
REMARK    1  A    between atoms: C_3  and  N_15 
REMARK    2  A    between atoms: N_6  and  C_9 
REMARK       I    between atoms: N_18  and  C_21 
REMARK    3  A    between atoms: C_21  and  C_23 
REMARK    4  A    between atoms: C_23  and  C_24 
REMARK    5  A    between atoms: C_24  and  C_25 
REMARK    6  A    between atoms: C_25  and  N_26 
ROOT
ATOM      1  N   UNK d   1       2.733  13.702 -12.310  0.00  0.00    -0.375 N 
ATOM      2  C   UNK d   1       3.009  12.922 -11.108  0.00  0.00     0.143 C 
ATOM      3  C   UNK d   1       2.976  11.434 -11.377  0.00  0.00     0.145 C 
ATOM      4  N   UNK d   1       3.107  11.238 -12.801  0.00  0.00    -0.349 N 
ATOM      5  C   UNK d   1       4.116  12.048 -13.460  0.00  0.00     0.145 C 
ATOM      6  C   UNK d   1       3.582  13.480 -13.489  0.00  0.00     0.143 C 
ATOM      7  C   UNK d   1       2.331  10.331 -13.551  0.00  0.00     0.219 C 
ATOM      8  O   UNK d   1       2.526  10.239 -14.783  0.00  0.00    -0.273 OA
ENDROOT
BRANCH   1   9
ATOM      9  C   UNK d   1       1.655  14.608 -12.332  0.00  0.00     0.077 A 
ATOM     10  C   UNK d   1       0.407  14.302 -12.831  0.00  0.00     0.131 A 
ATOM     11 Cl   UNK d   1       0.168  12.721 -13.531  0.00  0.00    -0.076 Cl
ATOM     12  C   UNK d   1      -0.630  15.238 -12.790  0.00  0.00     0.292 A 
ATOM     13  N   UNK d   1      -0.478  16.465 -12.276  0.00  0.00    -0.197 N 
ATOM     14  O   UNK d   1      -1.740  14.886 -13.263  0.00  0.00    -0.264 OA
ATOM     15  N   UNK d   1       0.717  16.750 -11.802  0.00  0.00    -0.174 NA
ATOM     16  C   UNK d   1       1.763  15.903 -11.806  0.00  0.00     0.170 A 
BRANCH  13  17
ATOM     17  C   UNK d   1      -1.530  17.424 -12.232  0.00  0.00     0.062 A 
ATOM     18  C   UNK d   1      -2.339  17.681 -13.329  0.00  0.00     0.032 A 
ATOM     19  C   UNK d   1      -3.362  18.606 -13.304  0.00  0.00     0.002 A 
ATOM     20  C   UNK d   1      -3.584  19.300 -12.132  0.00  0.00     0.000 A 
ATOM     21  C   UNK d   1      -2.796  19.069 -11.020  0.00  0.00     0.002 A 
ATOM     22  C   UNK d   1      -1.765  18.124 -11.077  0.00  0.00     0.032 A 
ENDBRANCH  13  17
ENDBRANCH   1   9
BRANCH   7  23
ATOM     23  C   UNK d   1       1.282   9.468 -12.956  0.00  0.00     0.104 C 
BRANCH  23  24
ATOM     24  C   UNK d   1       0.518   8.732 -14.031  0.00  0.00     0.029 C 
BRANCH  24  25
ATOM     25  C   UNK d   1      -0.564   7.857 -13.471  0.00  0.00     0.137 C 
BRANCH  25  26
ATOM     26  N   UNK d   1      -1.899   8.252 -13.860  0.00  0.00    -0.269 N 
ATOM     27  C   UNK d   1      -2.818   7.473 -14.605  0.00  0.00     0.327 A 
ATOM     28  O   UNK d   1      -2.622   6.295 -15.057  0.00  0.00    -0.247 OA
ATOM     29  N   UNK d   1      -4.032   8.162 -14.805  0.00  0.00    -0.329 N 
ATOM     30  C   UNK d   1      -3.923   9.462 -14.182  0.00  0.00     0.230 A 
ATOM     31  C   UNK d   1      -5.197   7.667 -15.510  0.00  0.00     0.155 C 
ATOM     32  C   UNK d   1      -2.570   9.486 -13.583  0.00  0.00     0.245 A 
ATOM     33  O   UNK d   1      -2.078  10.433 -12.933  0.00  0.00    -0.271 OA
ENDBRANCH  25  26
ENDBRANCH  24  25
ENDBRANCH  23  24
ENDBRANCH   7  23
TORSDOF 6
ENDMDL
