/Users/jonathanwahrer/Desktop/Msc/3_Semester/Drug_Design_Praktikum/waehrer_HTS_screening/HTS_experiment/out/docking_results/vina_output/6q9y/2377_docked.pdbqt
 OpenBabel03222220503D

 33 36  0  0  0  0  0  0  0  0999 V2000
    2.7330   13.7020  -12.3100 N   0  0  0  0  0  0  0  0  0  0  0  0
    3.0090   12.9220  -11.1080 C   0  0  0  0  0  2  0  0  0  0  0  0
    2.9760   11.4340  -11.3770 C   0  0  0  0  0  2  0  0  0  0  0  0
    3.1070   11.2380  -12.8010 N   0  0  0  0  0  0  0  0  0  0  0  0
    4.1160   12.0480  -13.4600 C   0  0  0  0  0  2  0  0  0  0  0  0
    3.5820   13.4800  -13.4890 C   0  0  0  0  0  2  0  0  0  0  0  0
    2.3310   10.3310  -13.5510 C   0  0  0  0  0  0  0  0  0  0  0  0
    2.5260   10.2390  -14.7830 O   0  0  0  0  0  0  0  0  0  0  0  0
    1.6550   14.6080  -12.3320 C   0  0  0  0  0  0  0  0  0  0  0  0
    0.4070   14.3020  -12.8310 C   0  0  0  0  0  0  0  0  0  0  0  0
    0.1680   12.7210  -13.5310 Cl  0  0  0  0  0  0  0  0  0  0  0  0
   -0.6300   15.2380  -12.7900 C   0  0  0  0  0  0  0  0  0  0  0  0
   -0.4780   16.4650  -12.2760 N   0  0  0  0  0  0  0  0  0  0  0  0
   -1.7400   14.8860  -13.2630 O   0  0  0  0  0  0  0  0  0  0  0  0
    0.7170   16.7500  -11.8020 N   0  0  0  0  0  0  0  0  0  0  0  0
    1.7630   15.9030  -11.8060 C   0  0  0  0  0  3  0  0  0  0  0  0
   -1.5300   17.4240  -12.2320 C   0  0  0  0  0  0  0  0  0  0  0  0
   -2.3390   17.6810  -13.3290 C   0  0  0  0  0  3  0  0  0  0  0  0
   -3.3620   18.6060  -13.3040 C   0  0  0  0  0  3  0  0  0  0  0  0
   -3.5840   19.3000  -12.1320 C   0  0  0  0  0  3  0  0  0  0  0  0
   -2.7960   19.0690  -11.0200 C   0  0  0  0  0  3  0  0  0  0  0  0
   -1.7650   18.1240  -11.0770 C   0  0  0  0  0  3  0  0  0  0  0  0
    1.2820    9.4680  -12.9560 C   0  0  0  0  0  2  0  0  0  0  0  0
    0.5180    8.7320  -14.0310 C   0  0  0  0  0  2  0  0  0  0  0  0
   -0.5640    7.8570  -13.4710 C   0  0  0  0  0  2  0  0  0  0  0  0
   -1.8990    8.2520  -13.8600 N   0  0  0  0  0  0  0  0  0  0  0  0
   -2.8180    7.4730  -14.6050 C   0  0  0  0  0  0  0  0  0  0  0  0
   -2.6220    6.2950  -15.0570 O   0  0  0  0  0  0  0  0  0  0  0  0
   -4.0320    8.1620  -14.8050 N   0  0  0  0  0  0  0  0  0  0  0  0
   -3.9230    9.4620  -14.1820 C   0  0  0  0  0  2  0  0  0  0  0  0
   -5.1970    7.6670  -15.5100 C   0  0  0  0  0  1  0  0  0  0  0  0
   -2.5700    9.4860  -13.5830 C   0  0  0  0  0  0  0  0  0  0  0  0
   -2.0780   10.4330  -12.9330 O   0  0  0  0  0  0  0  0  0  0  0  0
  1  2  1  0  0  0  0
  3  2  1  0  0  0  0
  4  3  1  0  0  0  0
  5  4  1  0  0  0  0
  6  5  1  0  0  0  0
  6  1  1  0  0  0  0
  7 23  1  0  0  0  0
  7  4  1  0  0  0  0
  8  7  2  0  0  0  0
  9  1  1  0  0  0  0
  9 16  1  0  0  0  0
 10 12  1  0  0  0  0
 10  9  2  0  0  0  0
 11 10  1  0  0  0  0
 12 13  1  0  0  0  0
 13 17  1  0  0  0  0
 13 15  1  0  0  0  0
 14 12  2  0  0  0  0
 16 15  2  0  0  0  0
 17 22  1  0  0  0  0
 18 19  1  0  0  0  0
 18 17  2  0  0  0  0
 19 20  2  0  0  0  0
 20 21  1  0  0  0  0
 22 21  2  0  0  0  0
 24 25  1  0  0  0  0
 24 23  1  0  0  0  0
 26 32  1  0  0  0  0
 26 25  1  0  0  0  0
 27 26  1  0  0  0  0
 28 27  2  0  0  0  0
 29 27  1  0  0  0  0
 29 30  1  0  0  0  0
 30 32  1  0  0  0  0
 31 29  1  0  0  0  0
 32 33  2  0  0  0  0
M  END
>  <Pose>
1

>  <Score>
-8.498

$$$$
