MODEL 1
REMARK VINA RESULT:    -8.243      0.000      0.000
REMARK INTER + INTRA:          -9.563
REMARK INTER:                  -9.689
REMARK INTRA:                   0.126
REMARK UNBOUND:                 0.126
REMARK  3 active torsions:
REMARK  status: ('A' for Active; 'I' for Inactive)
REMARK    1  A    between atoms: C_3  and  N_15 
REMARK    2  A    between atoms: N_6  and  C_9 
REMARK       I    between atoms: N_18  and  C_21 
REMARK    3  A    between atoms: C_21  and  C_23 
ROOT
ATOM      1 Cl   UNK d   1      -2.917   6.108 -14.966  0.00  0.00    -0.076 Cl
ATOM      2  C   UNK d   1      -3.327   7.754 -14.495  0.00  0.00     0.131 A 
ATOM      3  C   UNK d   1      -2.339   8.520 -13.924  0.00  0.00     0.077 A 
ATOM      4  C   UNK d   1      -2.694   9.810 -13.564  0.00  0.00     0.170 A 
ATOM      5  N   UNK d   1      -3.947  10.249 -13.778  0.00  0.00    -0.174 NA
ATOM      6  N   UNK d   1      -4.906   9.523 -14.326  0.00  0.00    -0.197 N 
ATOM      7  C   UNK d   1      -4.595   8.265 -14.687  0.00  0.00     0.292 A 
ATOM      8  O   UNK d   1      -5.461   7.512 -15.217  0.00  0.00    -0.264 OA
ENDROOT
BRANCH   3   9
ATOM      9  N   UNK d   1      -1.049   7.978 -13.735  0.00  0.00    -0.375 N 
ATOM     10  C   UNK d   1      -0.528   7.687 -12.405  0.00  0.00     0.143 C 
ATOM     11  C   UNK d   1       0.620   8.695 -12.201  0.00  0.00     0.145 C 
ATOM     12  N   UNK d   1       1.538   8.631 -13.295  0.00  0.00    -0.347 N 
ATOM     13  C   UNK d   1       1.292   7.593 -14.318  0.00  0.00     0.145 C 
ATOM     14  C   UNK d   1       2.652   9.499 -13.439  0.00  0.00     0.248 C 
ATOM     15  C   UNK d   1      -0.136   7.665 -14.820  0.00  0.00     0.143 C 
ATOM     16  O   UNK d   1       3.439   9.405 -14.428  0.00  0.00    -0.270 OA
BRANCH  14  17
ATOM     17  C   UNK d   1       2.971  10.557 -12.464  0.00  0.00     0.213 C 
ATOM     18  O   UNK d   1       4.308  10.808 -12.431  0.00  0.00    -0.376 OA
ATOM     19  C   UNK d   1       4.494  12.151 -12.129  0.00  0.00     0.168 C 
ATOM     20  C   UNK d   1       3.427  12.798 -13.000  0.00  0.00     0.029 C 
ATOM     21  C   UNK d   1       2.262  11.856 -12.775  0.00  0.00     0.043 C 
ENDBRANCH  14  17
ENDBRANCH   3   9
BRANCH   6  22
ATOM     22  C   UNK d   1      -6.226  10.050 -14.528  0.00  0.00     0.062 A 
ATOM     23  C   UNK d   1      -6.785  10.901 -13.597  0.00  0.00     0.032 A 
ATOM     24  C   UNK d   1      -8.069  11.422 -13.781  0.00  0.00     0.002 A 
ATOM     25  C   UNK d   1      -8.796  11.092 -14.897  0.00  0.00     0.000 A 
ATOM     26  C   UNK d   1      -8.254  10.247 -15.830  0.00  0.00     0.002 A 
ATOM     27  C   UNK d   1      -6.991   9.744 -15.635  0.00  0.00     0.032 A 
ENDBRANCH   6  22
TORSDOF 3
ENDMDL
