/Users/jonathanwahrer/Desktop/Msc/3_Semester/Drug_Design_Praktikum/waehrer_HTS_screening/HTS_experiment/out/docking_results/vina_output/6q9y/2380_docked.pdbqt
 OpenBabel03222220503D

 27 30  0  0  1  0  0  0  0  0999 V2000
   -2.9170    6.1080  -14.9660 Cl  0  0  0  0  0  0  0  0  0  0  0  0
   -3.3270    7.7540  -14.4950 C   0  0  0  0  0  0  0  0  0  0  0  0
   -2.3390    8.5200  -13.9240 C   0  0  0  0  0  0  0  0  0  0  0  0
   -2.6940    9.8100  -13.5640 C   0  0  0  0  0  3  0  0  0  0  0  0
   -3.9470   10.2490  -13.7780 N   0  0  0  0  0  0  0  0  0  0  0  0
   -4.9060    9.5230  -14.3260 N   0  0  0  0  0  0  0  0  0  0  0  0
   -4.5950    8.2650  -14.6870 C   0  0  0  0  0  0  0  0  0  0  0  0
   -5.4610    7.5120  -15.2170 O   0  0  0  0  0  0  0  0  0  0  0  0
   -1.0490    7.9780  -13.7350 N   0  0  0  0  0  0  0  0  0  0  0  0
   -0.5280    7.6870  -12.4050 C   0  0  0  0  0  2  0  0  0  0  0  0
    0.6200    8.6950  -12.2010 C   0  0  0  0  0  2  0  0  0  0  0  0
    1.5380    8.6310  -13.2950 N   0  0  0  0  0  0  0  0  0  0  0  0
    1.2920    7.5930  -14.3180 C   0  0  0  0  0  2  0  0  0  0  0  0
    2.6520    9.4990  -13.4390 C   0  0  0  0  0  0  0  0  0  0  0  0
   -0.1360    7.6650  -14.8200 C   0  0  0  0  0  2  0  0  0  0  0  0
    3.4390    9.4050  -14.4280 O   0  0  0  0  0  0  0  0  0  0  0  0
    2.9710   10.5570  -12.4640 C   0  0  1  0  0  3  0  0  0  0  0  0
    4.3080   10.8080  -12.4310 O   0  0  0  0  0  0  0  0  0  0  0  0
    4.4940   12.1510  -12.1290 C   0  0  0  0  0  2  0  0  0  0  0  0
    3.4270   12.7980  -13.0000 C   0  0  0  0  0  2  0  0  0  0  0  0
    2.2620   11.8560  -12.7750 C   0  0  0  0  0  2  0  0  0  0  0  0
   -6.2260   10.0500  -14.5280 C   0  0  0  0  0  0  0  0  0  0  0  0
   -6.7850   10.9010  -13.5970 C   0  0  0  0  0  3  0  0  0  0  0  0
   -8.0690   11.4220  -13.7810 C   0  0  0  0  0  3  0  0  0  0  0  0
   -8.7960   11.0920  -14.8970 C   0  0  0  0  0  3  0  0  0  0  0  0
   -8.2540   10.2470  -15.8300 C   0  0  0  0  0  3  0  0  0  0  0  0
   -6.9910    9.7440  -15.6350 C   0  0  0  0  0  3  0  0  0  0  0  0
  1  2  1  0  0  0  0
  2  3  2  0  0  0  0
  3  9  1  0  0  0  0
  3  4  1  0  0  0  0
  5  4  2  0  0  0  0
  6  5  1  0  0  0  0
  7  2  1  0  0  0  0
  7  6  1  0  0  0  0
  8  7  2  0  0  0  0
  9 10  1  0  0  0  0
 10 11  1  0  0  0  0
 12 11  1  0  0  0  0
 13 12  1  0  0  0  0
 14 12  1  0  0  0  0
 15 13  1  0  0  0  0
 15  9  1  0  0  0  0
 16 14  2  0  0  0  0
 17 14  1  6  0  0  0
 17 18  1  0  0  0  0
 18 19  1  0  0  0  0
 20 21  1  0  0  0  0
 20 19  1  0  0  0  0
 21 17  1  0  0  0  0
 22  6  1  0  0  0  0
 22 23  1  0  0  0  0
 24 23  2  0  0  0  0
 25 24  1  0  0  0  0
 26 27  1  0  0  0  0
 26 25  2  0  0  0  0
 27 22  2  0  0  0  0
M  END
>  <Pose>
1

>  <Score>
-8.243

$$$$
