MODEL 1
REMARK VINA RESULT:    -8.901      0.000      0.000
REMARK INTER + INTRA:         -11.916
REMARK INTER:                 -11.503
REMARK INTRA:                  -0.413
REMARK UNBOUND:                -0.413
REMARK  5 active torsions:
REMARK  status: ('A' for Active; 'I' for Inactive)
REMARK    1  A    between atoms: C_3  and  N_15 
REMARK    2  A    between atoms: N_6  and  C_9 
REMARK       I    between atoms: N_18  and  C_21 
REMARK    3  A    between atoms: C_21  and  C_23 
REMARK    4  A    between atoms: C_23  and  O_24 
REMARK    5  A    between atoms: O_24  and  C_25 
ROOT
ATOM      1  N   UNK d   1       2.389   7.168 -13.176  0.00  0.00    -0.375 N 
ATOM      2  C   UNK d   1       1.729   6.920 -11.924  0.00  0.00     0.143 C 
ATOM      3  C   UNK d   1       0.379   6.271 -12.129  0.00  0.00     0.145 C 
ATOM      4  N   UNK d   1      -0.263   6.730 -13.335  0.00  0.00    -0.347 N 
ATOM      5  C   UNK d   1       0.265   7.896 -14.000  0.00  0.00     0.145 C 
ATOM      6  C   UNK d   1       1.696   7.603 -14.372  0.00  0.00     0.143 C 
ATOM      7  C   UNK d   1      -1.391   6.042 -13.850  0.00  0.00     0.244 C 
ATOM      8  O   UNK d   1      -1.861   5.011 -13.269  0.00  0.00    -0.271 OA
ENDROOT
BRANCH   1   9
ATOM      9  C   UNK d   1       3.803   6.975 -13.248  0.00  0.00     0.077 A 
ATOM     10  C   UNK d   1       4.392   5.741 -13.061  0.00  0.00     0.131 A 
ATOM     11 Cl   UNK d   1       3.375   4.358 -12.727  0.00  0.00    -0.076 Cl
ATOM     12  C   UNK d   1       5.771   5.635 -13.147  0.00  0.00     0.292 A 
ATOM     13  N   UNK d   1       6.578   6.681 -13.404  0.00  0.00    -0.197 N 
ATOM     14  O   UNK d   1       6.312   4.522 -12.978  0.00  0.00    -0.264 OA
ATOM     15  N   UNK d   1       5.997   7.856 -13.581  0.00  0.00    -0.174 NA
ATOM     16  C   UNK d   1       4.663   8.027 -13.511  0.00  0.00     0.170 A 
BRANCH  13  17
ATOM     17  C   UNK d   1       7.996   6.509 -13.479  0.00  0.00     0.062 A 
ATOM     18  C   UNK d   1       8.752   6.356 -12.335  0.00  0.00     0.032 A 
ATOM     19  C   UNK d   1      10.120   6.190 -12.398  0.00  0.00     0.002 A 
ATOM     20  C   UNK d   1      10.796   6.171 -13.601  0.00  0.00     0.000 A 
ATOM     21  C   UNK d   1      10.047   6.323 -14.748  0.00  0.00     0.002 A 
ATOM     22  C   UNK d   1       8.682   6.488 -14.680  0.00  0.00     0.032 A 
ENDBRANCH  13  17
ENDBRANCH   1   9
BRANCH   7  23
ATOM     23  C   UNK d   1      -2.089   6.474 -15.089  0.00  0.00     0.280 C 
BRANCH  23  24
ATOM     24  O   UNK d   1      -3.462   6.666 -14.878  0.00  0.00    -0.324 OA
BRANCH  24  25
ATOM     25  C   UNK d   1      -3.957   7.919 -14.570  0.00  0.00     0.194 A 
ATOM     26  N   UNK d   1      -3.305   9.057 -14.306  0.00  0.00    -0.103 NA
ATOM     27  O   UNK d   1      -4.145  10.010 -14.066  0.00  0.00    -0.216 OA
ATOM     28  C   UNK d   1      -5.389   9.587 -14.151  0.00  0.00     0.079 A 
ATOM     29  C   UNK d   1      -5.301   8.248 -14.474  0.00  0.00     0.094 A 
ATOM     30  C   UNK d   1      -6.564  10.450 -13.929  0.00  0.00     0.079 C 
ENDBRANCH  24  25
ENDBRANCH  23  24
ENDBRANCH   7  23
TORSDOF 5
ENDMDL
