MODEL 1
REMARK VINA RESULT:    -9.016      0.000      0.000
REMARK INTER + INTRA:         -11.207
REMARK INTER:                 -11.124
REMARK INTRA:                  -0.083
REMARK UNBOUND:                -0.083
REMARK  4 active torsions:
REMARK  status: ('A' for Active; 'I' for Inactive)
REMARK       I    between atoms: N_11  and  C_13 
REMARK    1  A    between atoms: C_13  and  C_15 
REMARK    2  A    between atoms: C_15  and  C_16 
REMARK    3  A    between atoms: C_16  and  C_17 
REMARK    4  A    between atoms: C_17  and  N_18 
ROOT
ATOM      1 Cl   UNK d   1      -4.654   9.893 -13.858  0.00  0.00    -0.084 Cl
ATOM      2  C   UNK d   1      -2.909   9.879 -13.624  0.00  0.00     0.034 A 
ATOM      3  C   UNK d   1      -2.207  11.017 -14.014  0.00  0.00     0.035 A 
ATOM      4  C   UNK d   1      -0.842  11.022 -13.838  0.00  0.00    -0.005 A 
ATOM      5  C   UNK d   1      -0.202   9.919 -13.287  0.00  0.00     0.078 A 
ATOM      6  C   UNK d   1      -0.910   8.787 -12.901  0.00  0.00     0.039 A 
ATOM      7  C   UNK d   1      -2.282   8.783 -13.079  0.00  0.00     0.026 A 
ATOM      8  O   UNK d   1       1.165   9.847 -13.079  0.00  0.00    -0.338 OA
ATOM      9  C   UNK d   1       2.213  10.474 -13.765  0.00  0.00     0.088 C 
ATOM     10  C   UNK d   1       2.205  11.959 -13.756  0.00  0.00     0.164 C 
ATOM     11  N   UNK d   1       0.946  12.594 -13.536  0.00  0.00    -0.345 N 
ATOM     12  C   UNK d   1      -0.273  12.313 -14.307  0.00  0.00     0.167 C 
ATOM     13  C   UNK d   1       0.841  13.574 -12.512  0.00  0.00     0.220 C 
ATOM     14  O   UNK d   1       1.880  13.827 -11.861  0.00  0.00    -0.273 OA
ATOM     15  C   UNK d   1       3.540   9.985 -13.154  0.00  0.00     0.066 C 
ATOM     16  C   UNK d   1       3.462   8.482 -13.119  0.00  0.00     0.170 C 
ATOM     17  O   UNK d   1       2.334   7.991 -13.751  0.00  0.00    -0.391 OA
ATOM     18  C   UNK d   1       2.234   8.408 -15.067  0.00  0.00     0.170 C 
ATOM     19  C   UNK d   1       2.260   9.916 -15.196  0.00  0.00     0.066 C 
ENDROOT
BRANCH  13  20
ATOM     20  C   UNK d   1      -0.404  14.268 -12.218  0.00  0.00     0.104 C 
BRANCH  20  21
ATOM     21  C   UNK d   1      -0.460  15.725 -12.435  0.00  0.00     0.029 C 
BRANCH  21  22
ATOM     22  C   UNK d   1      -1.452  16.290 -13.365  0.00  0.00     0.137 C 
BRANCH  22  23
ATOM     23  N   UNK d   1      -2.315  17.331 -12.948  0.00  0.00    -0.269 N 
ATOM     24  C   UNK d   1      -3.488  17.750 -13.623  0.00  0.00     0.325 C 
ATOM     25  O   UNK d   1      -3.990  17.291 -14.692  0.00  0.00    -0.247 OA
ATOM     26  N   UNK d   1      -4.041  18.817 -12.873  0.00  0.00    -0.334 N 
ATOM     27  C   UNK d   1      -3.433  18.821 -11.544  0.00  0.00     0.227 C 
ATOM     28  H   UNK d   1      -4.759  19.504 -13.177  0.00  0.00     0.164 HD
ATOM     29  C   UNK d   1      -2.149  18.133 -11.796  0.00  0.00     0.245 C 
ATOM     30  O   UNK d   1      -1.091  18.262 -11.080  0.00  0.00    -0.271 OA
ENDBRANCH  22  23
ENDBRANCH  21  22
ENDBRANCH  20  21
ENDBRANCH  13  20
TORSDOF 4
ENDMDL
