MODEL 1
REMARK VINA RESULT:    -9.197      0.000      0.000
REMARK INTER + INTRA:         -12.733
REMARK INTER:                 -12.423
REMARK INTRA:                  -0.310
REMARK UNBOUND:                -0.310
REMARK  6 active torsions:
REMARK  status: ('A' for Active; 'I' for Inactive)
REMARK    1  A    between atoms: C_5  and  C_8 
REMARK    2  A    between atoms: N_9  and  C_28 
REMARK    3  A    between atoms: C_15  and  C_17 
REMARK    4  A    between atoms: C_25  and  O_26 
REMARK    5  A    between atoms: C_28  and  C_29 
REMARK    6  A    between atoms: C_29  and  N_30 
ROOT
ATOM      1  C   UNK d   1       1.500   8.848 -13.739  0.00  0.00     0.161 C 
ATOM      2  N   UNK d   1       0.372   8.191 -13.148  0.00  0.00    -0.331 N 
ATOM      3  C   UNK d   1       0.797   7.158 -12.273  0.00  0.00     0.295 C 
ATOM      4  O   UNK d   1       0.151   6.477 -11.440  0.00  0.00    -0.264 OA
ATOM      5  C   UNK d   1       2.250   6.950 -12.474  0.00  0.00     0.251 C 
ATOM      6  O   UNK d   1       2.983   6.121 -11.879  0.00  0.00    -0.282 OA
ATOM      7  C   UNK d   1       2.628   7.907 -13.497  0.00  0.00     0.064 C 
ATOM      8  C   UNK d   1       3.833   7.908 -14.081  0.00  0.00     0.153 C 
ATOM      9  O   UNK d   1       4.017   8.930 -15.021  0.00  0.00    -0.188 OA
ENDROOT
BRANCH   1  10
ATOM     10  C   UNK d   1       1.727  10.212 -13.291  0.00  0.00    -0.030 A 
ATOM     11  C   UNK d   1       0.854  11.209 -13.679  0.00  0.00     0.011 A 
ATOM     12  C   UNK d   1       0.977  12.516 -13.309  0.00  0.00     0.019 A 
ATOM     13  C   UNK d   1       2.015  12.894 -12.507  0.00  0.00     0.011 A 
ATOM     14 Br   UNK d   1       2.143  14.737 -12.016  0.00  0.00    -0.051 Br
ATOM     15  C   UNK d   1       2.919  11.948 -12.086  0.00  0.00     0.019 A 
ATOM     16  C   UNK d   1       2.766  10.620 -12.482  0.00  0.00     0.011 A 
ENDBRANCH   1  10
BRANCH   8  17
ATOM     17  C   UNK d   1       4.873   6.931 -13.781  0.00  0.00     0.114 A 
ATOM     18  O   UNK d   1       4.854   5.643 -13.804  0.00  0.00    -0.304 OA
ATOM     19  C   UNK d   1       5.975   5.077 -13.469  0.00  0.00     0.119 A 
ATOM     20  C   UNK d   1       6.883   6.084 -13.178  0.00  0.00     0.003 A 
ATOM     21  C   UNK d   1       6.391   3.762 -13.362  0.00  0.00     0.102 A 
ATOM     22  C   UNK d   1       6.155   7.258 -13.385  0.00  0.00     0.054 A 
ATOM     23  C   UNK d   1       8.162   5.759 -12.792  0.00  0.00     0.014 A 
ATOM     24  C   UNK d   1       8.555   4.445 -12.689  0.00  0.00     0.004 A 
ATOM     25  C   UNK d   1       7.652   3.430 -12.979  0.00  0.00     0.040 A 
BRANCH  21  26
ATOM     26  O   UNK d   1       5.471   2.778 -13.657  0.00  0.00    -0.353 OA
ATOM     27  C   UNK d   1       4.483   2.299 -12.754  0.00  0.00     0.210 C 
ENDBRANCH  21  26
ENDBRANCH   8  17
BRANCH   2  28
ATOM     28  C   UNK d   1      -1.010   8.507 -13.385  0.00  0.00     0.155 C 
BRANCH  28  29
ATOM     29  C   UNK d   1      -1.688   7.443 -14.229  0.00  0.00     0.254 C 
BRANCH  29  30
ATOM     30  N   UNK d   1      -3.087   7.647 -14.388  0.00  0.00    -0.077 N 
ATOM     31  C   UNK d   1      -3.517   9.011 -14.451  0.00  0.00     0.269 C 
ATOM     32  C   UNK d   1      -3.598   6.895 -15.526  0.00  0.00     0.269 C 
ATOM     33  H   UNK d   1      -3.565   7.228 -13.535  0.00  0.00     0.279 HD
ENDBRANCH  29  30
ENDBRANCH  28  29
ENDBRANCH   2  28
TORSDOF 6
ENDMDL
