MODEL 1
REMARK VINA RESULT:    -9.633      0.000      0.000
REMARK INTER + INTRA:         -10.386
REMARK INTER:                 -10.760
REMARK INTRA:                   0.374
REMARK UNBOUND:                 0.374
REMARK  2 active torsions:
REMARK  status: ('A' for Active; 'I' for Inactive)
REMARK    1  A    between atoms: C_7  and  C_11 
REMARK    2  A    between atoms: C_11  and  N_12 
ROOT
ATOM      1  N   UNK d   1       0.213  14.702 -12.789  0.00  0.00    -0.328 N 
ATOM      2  C   UNK d   1       1.033  13.641 -12.753  0.00  0.00     0.151 A 
ATOM      3  C   UNK d   1       0.352  12.477 -13.094  0.00  0.00     0.167 A 
ATOM      4  N   UNK d   1      -0.919  12.873 -13.339  0.00  0.00    -0.223 NA
ATOM      5  C   UNK d   1      -1.006  14.193 -13.159  0.00  0.00     0.213 A 
ATOM      6  N   UNK d   1       0.932  11.260 -13.135  0.00  0.00    -0.286 N 
ATOM      7  C   UNK d   1       2.240  11.212 -12.822  0.00  0.00     0.332 A 
ATOM      8  O   UNK d   1       2.799  10.081 -12.856  0.00  0.00    -0.246 OA
ATOM      9  N   UNK d   1       2.943  12.304 -12.486  0.00  0.00    -0.269 N 
ATOM     10  C   UNK d   1       2.365  13.523 -12.444  0.00  0.00     0.282 A 
ATOM     11  O   UNK d   1       3.001  14.549 -12.132  0.00  0.00    -0.265 OA
ATOM     12  C   UNK d   1       4.354  12.248 -12.148  0.00  0.00     0.164 C 
ATOM     13  C   UNK d   1       0.166  10.084 -13.500  0.00  0.00     0.163 C 
ENDROOT
BRANCH   1  14
ATOM     14  C   UNK d   1       0.482  16.104 -12.535  0.00  0.00     0.189 C 
BRANCH  14  15
ATOM     15  C   UNK d   1      -0.778  16.912 -12.414  0.00  0.00     0.060 A 
ATOM     16  N   UNK d   1      -0.941  17.703 -11.339  0.00  0.00    -0.233 NA
ATOM     17  C   UNK d   1      -2.064  18.463 -11.187  0.00  0.00     0.137 A 
ATOM     18  N   UNK d   1      -3.038  18.443 -12.109  0.00  0.00    -0.272 N 
ATOM     19  C   UNK d   1      -2.181  19.261 -10.060  0.00  0.00     0.052 A 
ATOM     20  C   UNK d   1      -4.149  19.195 -11.959  0.00  0.00     0.121 A 
ATOM     21  C   UNK d   1      -2.933  17.661 -13.222  0.00  0.00     0.255 A 
ATOM     22  C   UNK d   1      -4.274  19.985 -10.849  0.00  0.00     0.027 A 
ATOM     23 Br   UNK d   1      -5.853  21.035 -10.667  0.00  0.00    -0.050 Br
ATOM     24  C   UNK d   1      -3.299  20.036  -9.879  0.00  0.00     0.024 A 
ATOM     25  C   UNK d   1      -1.787  16.906 -13.345  0.00  0.00     0.103 A 
ATOM     26  O   UNK d   1      -3.857  17.672 -14.050  0.00  0.00    -0.268 OA
ENDBRANCH  14  15
ENDBRANCH   1  14
TORSDOF 2
ENDMDL
