MODEL 1
REMARK VINA RESULT:    -9.561      0.000      0.000
REMARK INTER + INTRA:         -12.434
REMARK INTER:                 -11.796
REMARK INTRA:                  -0.638
REMARK UNBOUND:                -0.638
REMARK  4 active torsions:
REMARK  status: ('A' for Active; 'I' for Inactive)
REMARK    1  A    between atoms: S_1  and  N_4 
REMARK    2  A    between atoms: S_1  and  C_26 
REMARK       I    between atoms: N_7  and  C_10 
REMARK    3  A    between atoms: C_10  and  C_12 
REMARK    4  A    between atoms: C_12  and  C_13 
ROOT
ATOM      1  N   UNK d   1       1.359   9.743 -13.144  0.00  0.00    -0.304 N 
ATOM      2  C   UNK d   1       2.518  10.063 -12.444  0.00  0.00     0.155 C 
ATOM      3  C   UNK d   1       2.925  11.503 -12.785  0.00  0.00     0.146 C 
ATOM      4  N   UNK d   1       1.729  12.345 -12.847  0.00  0.00    -0.349 N 
ATOM      5  C   UNK d   1       0.709  11.937 -13.792  0.00  0.00     0.146 C 
ATOM      6  C   UNK d   1       1.107  10.535 -14.275  0.00  0.00     0.155 C 
ATOM      7  C   UNK d   1       1.605  13.480 -11.997  0.00  0.00     0.222 C 
ATOM      8  O   UNK d   1       2.548  13.716 -11.207  0.00  0.00    -0.273 OA
ENDROOT
BRANCH   7   9
ATOM      9  C   UNK d   1       0.415  14.329 -12.053  0.00  0.00     0.138 C 
BRANCH   9  10
ATOM     10  C   UNK d   1       0.711  15.796 -12.327  0.00  0.00     0.186 C 
ATOM     11  N   UNK d   1       0.182  16.686 -11.327  0.00  0.00    -0.343 N 
ATOM     12  C   UNK d   1      -0.868  17.642 -11.355  0.00  0.00     0.254 C 
ATOM     13  H   UNK d   1       0.637  16.657 -10.361  0.00  0.00     0.163 HD
ATOM     14  O   UNK d   1      -0.898  18.572 -10.506  0.00  0.00    -0.268 OA
ATOM     15  C   UNK d   1      -2.000  17.695 -12.306  0.00  0.00     0.058 A 
ATOM     16  C   UNK d   1      -2.030  17.167 -13.602  0.00  0.00     0.050 A 
ATOM     17  C   UNK d   1      -3.114  18.327 -11.818  0.00  0.00     0.019 A 
ATOM     18  C   UNK d   1      -3.164  17.295 -14.353  0.00  0.00     0.030 A 
ATOM     19  N   UNK d   1      -0.966  16.485 -14.248  0.00  0.00    -0.324 N 
ATOM     20  C   UNK d   1      -4.312  17.934 -13.882  0.00  0.00     0.002 A 
ATOM     21  C   UNK d   1      -4.251  18.447 -12.586  0.00  0.00     0.001 A 
ATOM     22  C   UNK d   1       0.311  16.125 -13.712  0.00  0.00     0.245 C 
ATOM     23  H   UNK d   1      -1.148  16.223 -15.217  0.00  0.00     0.169 HD
ATOM     24  O   UNK d   1       1.224  16.094 -14.610  0.00  0.00    -0.271 OA
ENDBRANCH   9  10
ENDBRANCH   7   9
BRANCH   1  25
ATOM     25  S   UNK d   1       0.513   8.345 -12.867  0.00  0.00     0.260 S 
ATOM     26  O   UNK d   1       1.230   7.194 -13.549  0.00  0.00    -0.200 OA
ATOM     27  O   UNK d   1       0.423   7.955 -11.406  0.00  0.00    -0.200 OA
BRANCH  25  28
ATOM     28  C   UNK d   1      -1.130   8.359 -13.517  0.00  0.00     0.079 A 
ATOM     29  C   UNK d   1      -1.945   9.461 -13.392  0.00  0.00     0.027 A 
ATOM     30  C   UNK d   1      -3.221   9.423 -13.911  0.00  0.00     0.025 A 
ATOM     31  C   UNK d   1      -3.740   8.321 -14.564  0.00  0.00     0.034 A 
ATOM     32  C   UNK d   1      -2.915   7.210 -14.689  0.00  0.00     0.025 A 
ATOM     33 Cl   UNK d   1      -5.343   8.265 -15.222  0.00  0.00    -0.084 Cl
ATOM     34  C   UNK d   1      -1.642   7.253 -14.168  0.00  0.00     0.027 A 
ENDBRANCH  25  28
ENDBRANCH   1  25
TORSDOF 4
ENDMDL
