/Users/jonathanwahrer/Desktop/Msc/3_Semester/Drug_Design_Praktikum/waehrer_HTS_screening/HTS_experiment/out/docking_results/vina_output/6q9y/2417_docked.pdbqt
 OpenBabel03222220513D

 27 30  0  0  1  0  0  0  0  0999 V2000
    1.4770    8.4230  -13.7220 N   0  0  0  0  0  0  0  0  0  0  0  0
    0.5080    7.6280  -14.5110 C   0  0  0  0  0  2  0  0  0  0  0  0
   -0.7090    7.7210  -13.7110 C   0  0  2  0  0  3  0  0  0  0  0  0
   -0.1820    7.3080  -12.3460 C   0  0  2  0  0  3  0  0  0  0  0  0
    1.1060    8.2360  -12.3860 C   0  0  0  0  0  2  0  0  0  0  0  0
    1.4380    9.7820  -14.2840 C   0  0  0  0  0  2  0  0  0  0  0  0
    1.9890   10.8400  -13.4750 C   0  0  0  0  0  0  0  0  0  0  0  0
    1.4650   12.0570  -13.0990 C   0  0  0  0  0  0  0  0  0  0  0  0
    0.1890   12.5560  -13.1960 C   0  0  0  0  0  0  0  0  0  0  0  0
    2.3980   12.8250  -12.4410 C   0  0  0  0  0  0  0  0  0  0  0  0
   -0.9760   11.6390  -14.1450 Cl  0  0  0  0  0  0  0  0  0  0  0  0
   -0.1640   13.7620  -12.6530 C   0  0  0  0  0  3  0  0  0  0  0  0
    0.7950   14.5220  -11.9890 C   0  0  0  0  0  3  0  0  0  0  0  0
    2.1000   14.0310  -11.8860 C   0  0  0  0  0  3  0  0  0  0  0  0
    3.5210   12.0730  -12.4290 N   0  0  0  0  0  0  0  0  0  0  0  0
    3.2900   10.9290  -13.0150 N   0  0  0  0  0  0  0  0  0  0  0  0
    4.8250   12.5470  -11.9350 C   0  0  0  0  0  1  0  0  0  0  0  0
   -1.8430    6.8180  -14.1290 C   0  0  0  0  0  2  0  0  0  0  0  0
   -2.8360    7.6110  -14.7820 N   0  0  0  0  0  0  0  0  0  0  0  0
   -3.9590    6.8330  -15.2600 C   0  0  0  0  0  2  0  0  0  0  0  0
   -5.2870    7.2700  -14.6870 C   0  0  0  0  0  2  0  0  0  0  0  0
   -5.5530    8.6100  -14.8490 O   0  0  0  0  0  0  0  0  0  0  0  0
   -4.4140    9.4030  -14.7440 C   0  0  0  0  0  2  0  0  0  0  0  0
   -3.3700    8.6710  -13.9580 C   0  0  0  0  0  2  0  0  0  0  0  0
    0.3840    5.9180  -12.3710 C   0  0  0  0  0  2  0  0  0  0  0  0
    1.5610    5.8800  -11.5790 O   0  0  0  0  0  0  0  0  0  0  0  0
    1.3520    6.4700  -10.7570 H   0  0  0  0  0  0  0  0  0  0  0  0
  1  5  1  0  0  0  0
  2  1  1  0  0  0  0
  2  3  1  0  0  0  0
  3 18  1  6  0  0  0
  3  4  1  0  0  0  0
  4 25  1  6  0  0  0
  5  4  1  0  0  0  0
  6  1  1  0  0  0  0
  6  7  1  0  0  0  0
  7  8  1  0  0  0  0
  7 16  2  0  0  0  0
  8 10  1  0  0  0  0
  9  8  2  0  0  0  0
  9 12  1  0  0  0  0
 10 15  1  0  0  0  0
 10 14  2  0  0  0  0
 11  9  1  0  0  0  0
 12 13  2  0  0  0  0
 13 14  1  0  0  0  0
 15 17  1  0  0  0  0
 16 15  1  0  0  0  0
 19 18  1  0  0  0  0
 19 24  1  0  0  0  0
 20 19  1  0  0  0  0
 20 21  1  0  0  0  0
 22 23  1  0  0  0  0
 22 21  1  0  0  0  0
 23 24  1  0  0  0  0
 25 26  1  0  0  0  0
 26 27  1  0  0  0  0
M  END
>  <Pose>
1

>  <Score>
-7.649

$$$$
