MODEL 1
REMARK VINA RESULT:    -9.373      0.000      0.000
REMARK INTER + INTRA:         -13.496
REMARK INTER:                 -12.661
REMARK INTRA:                  -0.835
REMARK UNBOUND:                -0.835
REMARK  6 active torsions:
REMARK  status: ('A' for Active; 'I' for Inactive)
REMARK    1  A    between atoms: C_5  and  C_8 
REMARK    2  A    between atoms: N_15  and  C_16 
REMARK    3  A    between atoms: C_16  and  C_17 
REMARK    4  A    between atoms: C_17  and  C_18 
REMARK    5  A    between atoms: C_18  and  N_19 
REMARK    6  A    between atoms: N_19  and  C_20 
ROOT
ATOM      1  C   UNK d   1       1.909   7.731 -13.434  0.00  0.00     0.078 A 
ATOM      2  C   UNK d   1       0.735   7.141 -13.929  0.00  0.00     0.146 A 
ATOM      3  N   UNK d   1      -0.229   8.043 -13.799  0.00  0.00    -0.153 N 
ATOM      4  C   UNK d   1      -1.569   8.170 -14.045  0.00  0.00     0.083 A 
ATOM      5  C   UNK d   1      -1.896   9.434 -13.624  0.00  0.00     0.077 A 
ATOM      6  N   UNK d   1      -0.790   9.995 -13.161  0.00  0.00    -0.189 N 
ATOM      7  C   UNK d   1       0.264   9.135 -13.264  0.00  0.00     0.692 A 
ATOM      8  N   UNK d   1       1.598   8.967 -13.027  0.00  0.00    -0.180 N 
ATOM      9  C   UNK d   1      -3.204   9.919 -13.723  0.00  0.00     0.032 A 
ATOM     10  C   UNK d   1      -4.190   9.117 -14.255  0.00  0.00     0.002 A 
ATOM     11  C   UNK d   1      -3.836   7.853 -14.670  0.00  0.00     0.002 A 
ATOM     12  C   UNK d   1      -2.539   7.363 -14.574  0.00  0.00     0.033 A 
ATOM     13  H   UNK d   1      -0.767  10.955 -12.768  0.00  0.00     0.184 HD
ENDROOT
BRANCH   8  14
ATOM     14  C   UNK d   1       2.384  10.004 -12.431  0.00  0.00     0.149 C 
BRANCH  14  15
ATOM     15  C   UNK d   1       3.333  10.724 -13.301  0.00  0.00     0.048 C 
BRANCH  15  16
ATOM     16  C   UNK d   1       3.476  12.194 -13.145  0.00  0.00     0.234 C 
BRANCH  16  17
ATOM     17  N   UNK d   1       2.966  12.656 -11.873  0.00  0.00    -0.071 N 
ATOM     18  H   UNK d   1       2.773  11.942 -11.175  0.00  0.00     0.277 HD
ATOM     19  H   UNK d   1       3.780  13.224 -11.434  0.00  0.00     0.277 HD
BRANCH  17  20
ATOM     20  C   UNK d   1       1.894  13.598 -12.000  0.00  0.00     0.185 C 
ATOM     21  C   UNK d   1       2.314  14.997 -12.353  0.00  0.00     0.033 C 
ATOM     22  C   UNK d   1       1.139  15.906 -11.963  0.00  0.00     0.002 C 
ATOM     23  C   UNK d   1      -0.047  15.522 -12.778  0.00  0.00     0.000 C 
ATOM     24  C   UNK d   1      -0.384  14.051 -12.710  0.00  0.00     0.002 C 
ATOM     25  C   UNK d   1       0.850  13.201 -13.036  0.00  0.00     0.033 C 
ENDBRANCH  17  20
ENDBRANCH  16  17
ENDBRANCH  15  16
ENDBRANCH  14  15
ENDBRANCH   8  14
BRANCH   1  26
ATOM     26  C   UNK d   1       3.179   7.039 -13.397  0.00  0.00    -0.007 A 
ATOM     27  C   UNK d   1       3.238   5.798 -12.796  0.00  0.00     0.015 A 
ATOM     28  C   UNK d   1       4.396   5.078 -12.731  0.00  0.00     0.020 A 
ATOM     29  C   UNK d   1       5.558   5.554 -13.257  0.00  0.00     0.011 A 
ATOM     30 Br   UNK d   1       7.196   4.545 -13.168  0.00  0.00    -0.051 Br
ATOM     31  C   UNK d   1       5.543   6.780 -13.861  0.00  0.00     0.020 A 
ATOM     32  C   UNK d   1       4.333   7.514 -13.921  0.00  0.00     0.015 A 
ENDBRANCH   1  26
TORSDOF 6
ENDMDL
