MODEL 1
REMARK VINA RESULT:    -7.970      0.000      0.000
REMARK INTER + INTRA:         -11.114
REMARK INTER:                 -10.299
REMARK INTRA:                  -0.815
REMARK UNBOUND:                -0.815
REMARK  5 active torsions:
REMARK  status: ('A' for Active; 'I' for Inactive)
REMARK    1  A    between atoms: C_7  and  N_11 
REMARK    2  A    between atoms: C_13  and  C_17 
REMARK       I    between atoms: C_17  and  N_19 
REMARK    3  A    between atoms: N_19  and  C_20 
REMARK    4  A    between atoms: C_20  and  C_21 
REMARK    5  A    between atoms: C_21  and  N_22 
ROOT
ATOM      1  N   UNK d   1       2.162   9.831 -13.307  0.00  0.00    -0.299 N 
ATOM      2  C   UNK d   1       2.113   9.411 -14.706  0.00  0.00     0.148 C 
ATOM      3  C   UNK d   1       2.772   8.050 -14.675  0.00  0.00     0.105 C 
ATOM      4  C   UNK d   1       2.166   7.428 -13.423  0.00  0.00     0.119 C 
ATOM      5  C   UNK d   1       1.883   8.637 -12.571  0.00  0.00     0.226 C 
ATOM      6  O   UNK d   1       1.459   8.611 -11.377  0.00  0.00    -0.273 OA
ENDROOT
BRANCH   3   7
ATOM      7  C   UNK d   1       4.245   8.152 -14.537  0.00  0.00     0.223 C 
ATOM      8  O   UNK d   1       4.817   9.162 -15.017  0.00  0.00    -0.273 OA
ATOM      9  N   UNK d   1       5.020   7.161 -13.893  0.00  0.00    -0.359 N 
ATOM     10  H   UNK d   1       4.506   6.329 -13.505  0.00  0.00     0.162 HD
BRANCH   9  11
ATOM     11  C   UNK d   1       6.450   7.254 -13.755  0.00  0.00     0.152 C 
BRANCH  11  12
ATOM     12  C   UNK d   1       6.974   6.007 -13.075  0.00  0.00     0.292 C 
BRANCH  12  13
ATOM     13  N   UNK d   1       8.373   6.098 -12.734  0.00  0.00     0.094 N 
ATOM     14  C   UNK d   1       9.004   4.848 -13.144  0.00  0.00     0.298 C 
ATOM     15  C   UNK d   1       9.378   4.904 -14.623  0.00  0.00     0.198 C 
ATOM     16  O   UNK d   1      10.382   5.807 -14.882  0.00  0.00    -0.388 OA
ATOM     17  C   UNK d   1      10.424   6.747 -13.878  0.00  0.00     0.198 C 
ATOM     18  C   UNK d   1       9.040   7.173 -13.433  0.00  0.00     0.298 C 
ENDBRANCH  12  13
ENDBRANCH  11  12
ENDBRANCH   9  11
ENDBRANCH   3   7
BRANCH   1  19
ATOM     19  C   UNK d   1       2.427  11.133 -12.810  0.00  0.00     0.165 A 
ATOM     20  N   UNK d   1       3.499  11.618 -12.171  0.00  0.00    -0.155 NA
ATOM     21  N   UNK d   1       3.326  12.898 -11.880  0.00  0.00    -0.275 N 
ATOM     22  C   UNK d   1       2.105  13.305 -12.329  0.00  0.00     0.065 A 
ATOM     23  H   UNK d   1       3.958  13.578 -11.389  0.00  0.00     0.189 HD
ATOM     24  C   UNK d   1       1.410  14.478 -12.310  0.00  0.00     0.051 A 
ATOM     25  C   UNK d   1       1.540  12.198 -12.913  0.00  0.00     0.040 A 
ATOM     26  C   UNK d   1       0.154  14.582 -12.863  0.00  0.00     0.013 A 
ATOM     27 Br   UNK d   1      -0.796  16.230 -12.824  0.00  0.00    -0.051 Br
ATOM     28  C   UNK d   1      -0.427  13.460 -13.459  0.00  0.00     0.020 A 
ATOM     29  C   UNK d   1       0.273  12.275 -13.479  0.00  0.00     0.019 A 
ENDBRANCH   1  19
TORSDOF 5
ENDMDL
