MODEL 1
REMARK VINA RESULT:    -8.198      0.000      0.000
REMARK INTER + INTRA:          -9.403
REMARK INTER:                  -9.157
REMARK INTRA:                  -0.246
REMARK UNBOUND:                -0.246
REMARK  2 active torsions:
REMARK  status: ('A' for Active; 'I' for Inactive)
REMARK    1  A    between atoms: C_4  and  C_8 
REMARK       I    between atoms: C_8  and  N_10 
REMARK    2  A    between atoms: N_13  and  C_16 
ROOT
ATOM      1  C   UNK d   1      -0.197   8.056 -12.996  0.00  0.00     0.204 C 
ATOM      2  O   UNK d   1      -0.250   7.558 -11.775  0.00  0.00    -0.170 OA
ATOM      3  N   UNK d   1       1.062   8.331 -13.508  0.00  0.00    -0.355 N 
ATOM      4  C   UNK d   1       2.233   8.087 -12.631  0.00  0.00     0.145 C 
ATOM      5  C   UNK d   1       2.905   9.422 -12.456  0.00  0.00     0.144 C 
ATOM      6  N   UNK d   1       2.361  10.474 -13.255  0.00  0.00    -0.362 N 
ATOM      7  C   UNK d   1       1.775  10.282 -14.574  0.00  0.00     0.144 C 
ATOM      8  C   UNK d   1       1.429   8.817 -14.786  0.00  0.00     0.145 C 
ENDROOT
BRANCH   1   9
ATOM      9  C   UNK d   1      -1.504   8.222 -13.575  0.00  0.00     0.089 A 
ATOM     10  N   UNK d   1      -2.240   7.403 -14.328  0.00  0.00    -0.342 N 
ATOM     11  C   UNK d   1      -3.443   7.955 -14.651  0.00  0.00     0.126 A 
ATOM     12  H   UNK d   1      -2.018   6.454 -14.689  0.00  0.00     0.167 HD
ATOM     13 Cl   UNK d   1      -4.733   7.263 -15.611  0.00  0.00    -0.063 Cl
ATOM     14  C   UNK d   1      -3.508   9.199 -14.084  0.00  0.00     0.074 A 
ATOM     15  C   UNK d   1      -2.312   9.357 -13.425  0.00  0.00     0.061 A 
ATOM     16 Cl   UNK d   1      -4.840  10.329 -14.192  0.00  0.00    -0.081 Cl
ENDBRANCH   1   9
BRANCH   6  17
ATOM     17  C   UNK d   1       2.371  11.809 -12.767  0.00  0.00     0.142 A 
ATOM     18  N   UNK d   1       3.449  12.311 -12.134  0.00  0.00    -0.224 NA
ATOM     19  C   UNK d   1       3.475  13.579 -11.661  0.00  0.00     0.237 A 
ATOM     20  N   UNK d   1       2.409  14.384 -11.813  0.00  0.00    -0.222 NA
ATOM     21  C   UNK d   1       1.296  13.959 -12.433  0.00  0.00     0.162 A 
ATOM     22  N   UNK d   1       0.120  14.551 -12.710  0.00  0.00    -0.256 N 
ATOM     23  C   UNK d   1       1.286  12.646 -12.916  0.00  0.00     0.076 A 
ATOM     24  N   UNK d   1      -0.621  13.664 -13.343  0.00  0.00    -0.182 NA
ATOM     25  C   UNK d   1      -0.295  15.917 -12.386  0.00  0.00     0.182 C 
ATOM     26  C   UNK d   1       0.050  12.497 -13.488  0.00  0.00     0.158 A 
ENDBRANCH   6  17
TORSDOF 2
ENDMDL
