/Users/jonathanwahrer/Desktop/Msc/3_Semester/Drug_Design_Praktikum/waehrer_HTS_screening/HTS_experiment/out/docking_results/vina_output/6q9y/2439_docked.pdbqt
 OpenBabel03222220523D

 30 34  0  0  1  0  0  0  0  0999 V2000
    1.6500    7.9460  -13.4780 C   0  0  0  0  0  0  0  0  0  0  0  0
    0.4940    7.2870  -13.9360 C   0  0  0  0  0  3  0  0  0  0  0  0
   -0.5430    8.1160  -13.8430 N   0  0  0  0  0  0  0  0  0  0  0  0
   -1.8800    8.1990  -14.0660 C   0  0  0  0  0  0  0  0  0  0  0  0
   -2.2610    9.4430  -13.6930 C   0  0  0  0  0  0  0  0  0  0  0  0
   -1.1630   10.0790  -13.2590 N   0  0  0  0  0  0  0  0  0  0  0  0
   -0.0850    9.2670  -13.3470 C   0  0  1  0  0  3  0  0  0  0  0  0
    1.2660    9.1780  -13.1170 N   0  0  0  0  0  0  0  0  0  0  0  0
   -3.5820    9.8370  -13.8020 C   0  0  0  0  0  3  0  0  0  0  0  0
   -4.5420    8.9670  -14.2940 C   0  0  0  0  0  3  0  0  0  0  0  0
   -4.1520    7.6910  -14.6760 C   0  0  0  0  0  3  0  0  0  0  0  0
   -2.8280    7.3330  -14.5550 C   0  0  0  0  0  3  0  0  0  0  0  0
   -1.1340   11.0650  -12.8910 H   0  0  0  0  0  0  0  0  0  0  0  0
    2.0490   10.2350  -12.5650 C   0  0  0  0  0  2  0  0  0  0  0  0
    2.3120   11.3990  -13.4860 C   0  0  0  0  0  2  0  0  0  0  0  0
    2.4890   12.7120  -12.8640 C   0  0  0  0  0  2  0  0  0  0  0  0
    1.4500   13.2520  -12.0380 N   0  0  0  0  0  4  0  0  0  0  0  0
    1.8930   14.4030  -11.2710 C   0  0  0  0  0  3  0  0  0  0  0  0
    1.7630   15.7120  -11.9270 C   0  0  0  0  0  3  0  0  0  0  0  0
    0.9610   15.7590  -13.1740 C   0  0  0  0  0  2  0  0  0  0  0  0
   -0.1610   14.7830  -13.1300 C   0  0  0  0  0  3  0  0  0  0  0  0
    0.1920   13.4170  -12.6750 C   0  0  0  0  0  3  0  0  0  0  0  0
    1.3140   12.5350  -11.2900 H   0  0  0  0  0  0  0  0  0  0  0  0
    2.9550    7.2770  -13.4390 C   0  0  0  0  0  0  0  0  0  0  0  0
    3.0390    6.0270  -12.8240 C   0  0  0  0  0  3  0  0  0  0  0  0
    4.2060    5.2940  -12.7350 C   0  0  0  0  0  3  0  0  0  0  0  0
    5.3650    5.7820  -13.2640 C   0  0  0  0  0  0  0  0  0  0  0  0
    6.9930    4.8130  -13.1660 Br  0  0  0  0  0  0  0  0  0  0  0  0
    5.3160    7.0050  -13.8740 C   0  0  0  0  0  3  0  0  0  0  0  0
    4.1170    7.7520  -13.9620 C   0  0  0  0  0  3  0  0  0  0  0  0
  1 24  1  0  0  0  0
  1  8  1  0  0  0  0
  2  3  1  0  0  0  0
  2  1  2  0  0  0  0
  4  3  1  0  0  0  0
  4  5  1  0  0  0  0
  5  6  1  0  0  0  0
  6 13  1  0  0  0  0
  7  3  1  1  0  0  0
  7  6  1  0  0  0  0
  7  8  1  0  0  0  0
  8 14  1  0  0  0  0
  9  5  2  0  0  0  0
 10  9  1  0  0  0  0
 11 12  1  0  0  0  0
 11 10  2  0  0  0  0
 12  4  2  0  0  0  0
 15 16  1  0  0  0  0
 15 14  1  0  0  0  0
 16 17  1  0  0  0  0
 17 23  1  0  0  0  0
 17 18  1  0  0  0  0
 19 18  2  0  0  0  0
 20 21  1  0  0  0  0
 20 19  1  0  0  0  0
 21 22  2  0  0  0  0
 22 17  1  0  0  0  0
 24 25  1  0  0  0  0
 25 26  2  0  0  0  0
 27 28  1  0  0  0  0
 27 26  1  0  0  0  0
 29 27  2  0  0  0  0
 30 29  1  0  0  0  0
 30 24  2  0  0  0  0
M  END
>  <Pose>
1

>  <Score>
-9.062

$$$$
