MODEL 1
REMARK VINA RESULT:    -9.062      0.000      0.000
REMARK INTER + INTRA:         -12.638
REMARK INTER:                 -11.710
REMARK INTRA:                  -0.927
REMARK UNBOUND:                -0.927
REMARK  5 active torsions:
REMARK  status: ('A' for Active; 'I' for Inactive)
REMARK    1  A    between atoms: C_5  and  C_8 
REMARK    2  A    between atoms: N_15  and  C_16 
REMARK    3  A    between atoms: C_16  and  C_17 
REMARK    4  A    between atoms: C_17  and  C_18 
REMARK    5  A    between atoms: C_18  and  N_19 
ROOT
ATOM      1  C   UNK d   1       1.650   7.946 -13.478  0.00  0.00     0.078 A 
ATOM      2  C   UNK d   1       0.494   7.287 -13.936  0.00  0.00     0.146 A 
ATOM      3  N   UNK d   1      -0.543   8.116 -13.843  0.00  0.00    -0.153 N 
ATOM      4  C   UNK d   1      -1.880   8.199 -14.066  0.00  0.00     0.083 A 
ATOM      5  C   UNK d   1      -2.261   9.443 -13.693  0.00  0.00     0.077 A 
ATOM      6  N   UNK d   1      -1.163  10.079 -13.259  0.00  0.00    -0.189 N 
ATOM      7  C   UNK d   1      -0.085   9.267 -13.347  0.00  0.00     0.692 A 
ATOM      8  N   UNK d   1       1.266   9.178 -13.117  0.00  0.00    -0.180 N 
ATOM      9  C   UNK d   1      -3.582   9.837 -13.802  0.00  0.00     0.032 A 
ATOM     10  C   UNK d   1      -4.542   8.967 -14.294  0.00  0.00     0.002 A 
ATOM     11  C   UNK d   1      -4.152   7.691 -14.676  0.00  0.00     0.002 A 
ATOM     12  C   UNK d   1      -2.828   7.333 -14.555  0.00  0.00     0.033 A 
ATOM     13  H   UNK d   1      -1.134  11.065 -12.891  0.00  0.00     0.184 HD
ENDROOT
BRANCH   8  14
ATOM     14  C   UNK d   1       2.049  10.235 -12.565  0.00  0.00     0.149 C 
BRANCH  14  15
ATOM     15  C   UNK d   1       2.312  11.399 -13.486  0.00  0.00     0.048 C 
BRANCH  15  16
ATOM     16  C   UNK d   1       2.489  12.712 -12.864  0.00  0.00     0.236 C 
BRANCH  16  17
ATOM     17  N   UNK d   1       1.450  13.252 -12.038  0.00  0.00    -0.071 N 
ATOM     18  C   UNK d   1       1.893  14.403 -11.271  0.00  0.00     0.235 C 
ATOM     19  C   UNK d   1       1.763  15.712 -11.927  0.00  0.00     0.028 C 
ATOM     20  C   UNK d   1       0.961  15.759 -13.174  0.00  0.00     0.003 C 
ATOM     21  C   UNK d   1      -0.161  14.783 -13.130  0.00  0.00     0.028 C 
ATOM     22  C   UNK d   1       0.192  13.417 -12.675  0.00  0.00     0.235 C 
ATOM     23  H   UNK d   1       1.314  12.535 -11.290  0.00  0.00     0.279 HD
ENDBRANCH  16  17
ENDBRANCH  15  16
ENDBRANCH  14  15
ENDBRANCH   8  14
BRANCH   1  24
ATOM     24  C   UNK d   1       2.955   7.277 -13.439  0.00  0.00    -0.007 A 
ATOM     25  C   UNK d   1       3.039   6.027 -12.824  0.00  0.00     0.015 A 
ATOM     26  C   UNK d   1       4.206   5.294 -12.735  0.00  0.00     0.020 A 
ATOM     27  C   UNK d   1       5.365   5.782 -13.264  0.00  0.00     0.011 A 
ATOM     28 Br   UNK d   1       6.993   4.813 -13.166  0.00  0.00    -0.051 Br
ATOM     29  C   UNK d   1       5.316   7.005 -13.874  0.00  0.00     0.020 A 
ATOM     30  C   UNK d   1       4.117   7.752 -13.962  0.00  0.00     0.015 A 
ENDBRANCH   1  24
TORSDOF 5
ENDMDL
