/Users/jonathanwahrer/Desktop/Msc/3_Semester/Drug_Design_Praktikum/waehrer_HTS_screening/HTS_experiment/out/docking_results/vina_output/6q9y/2440_docked.pdbqt
 OpenBabel03222220533D

 33 36  0  0  1  0  0  0  0  0999 V2000
    4.5540   12.4900  -13.8070 Cl  0  0  0  0  0  0  0  0  0  0  0  0
    2.8740   12.5040  -13.2800 C   0  0  0  0  0  0  0  0  0  0  0  0
    2.0920   11.3840  -13.6000 C   0  0  0  0  0  0  0  0  0  0  0  0
    0.7880   11.3990  -13.1890 C   0  0  0  0  0  0  0  0  0  0  0  0
    0.2530   12.4930  -12.4760 C   0  0  0  0  0  3  0  0  0  0  0  0
    1.0270   13.5830  -12.1690 C   0  0  0  0  0  3  0  0  0  0  0  0
    2.3410   13.5620  -12.5850 C   0  0  0  0  0  3  0  0  0  0  0  0
    0.1670   10.1370  -13.6150 C   0  0  2  0  0  0  0  0  0  0  0  0
   -1.0400   10.2890  -14.3460 N   0  0  0  0  0  0  0  0  0  0  0  0
   -1.8900    9.1950  -14.1690 C   0  0  1  0  0  3  0  0  0  0  0  0
   -1.3780    8.4960  -12.9290 C   0  0  2  0  0  3  0  0  0  0  0  0
   -0.2330    9.2990  -12.4020 C   0  0  1  0  0  3  0  0  0  0  0  0
    0.8360    8.3470  -12.0000 C   0  0  0  0  0  0  0  0  0  0  0  0
    1.8940    8.6860  -11.4220 O   0  0  0  0  0  0  0  0  0  0  0  0
    0.4260    7.0360  -12.3920 N   0  0  0  0  0  0  0  0  0  0  0  0
   -0.7330    7.1980  -13.2230 C   0  0  0  0  0  0  0  0  0  0  0  0
   -1.1200    6.3620  -14.0560 O   0  0  0  0  0  0  0  0  0  0  0  0
    1.2150    9.4130  -14.3410 C   0  0  0  0  0  0  0  0  0  0  0  0
    1.1490    8.2860  -14.9230 O   0  0  0  0  0  0  0  0  0  0  0  0
    2.3980   10.1890  -14.3080 N   0  0  0  0  0  0  0  0  0  0  0  0
   -0.9480   10.6810  -15.2980 H   0  0  0  0  0  0  0  0  0  0  0  0
    3.3390    9.9680  -14.7100 H   0  0  0  0  0  0  0  0  0  0  0  0
   -3.3540    9.4110  -14.1570 C   0  0  0  0  0  2  0  0  0  0  0  0
   -4.2370    8.2410  -14.3340 C   0  0  0  0  0  2  0  0  0  0  0  0
   -4.1620    7.5210  -15.6100 C   0  0  0  0  0  0  0  0  0  0  0  0
   -4.8630    7.8710  -16.5770 O   0  0  0  0  0  0  0  0  0  0  0  0
   -3.3010    6.4040  -15.8180 N   0  0  0  0  0  0  0  0  0  0  0  0
   -2.2680    6.4750  -15.8430 H   0  0  0  0  0  0  0  0  0  0  0  0
   -3.7260    5.4710  -15.9500 H   0  0  0  0  0  0  0  0  0  0  0  0
    1.0210    5.7840  -12.0400 C   0  0  0  0  0  3  0  0  0  0  0  0
    2.4530    5.6170  -12.4010 C   0  0  0  0  0  3  0  0  0  0  0  0
    3.0070    4.2390  -12.3080 C   0  0  0  0  0  2  0  0  0  0  0  0
    4.2760    4.0810  -13.1380 C   0  0  0  0  0  1  0  0  0  0  0  0
  1  2  1  0  0  0  0
  2  7  1  0  0  0  0
  3  2  2  0  0  0  0
  3  4  1  0  0  0  0
  4  5  2  0  0  0  0
  5  6  1  0  0  0  0
  7  6  2  0  0  0  0
  8 18  1  6  0  0  0
  8  4  1  0  0  0  0
  8 12  1  0  0  0  0
  9 10  1  0  0  0  0
  9  8  1  0  0  0  0
 10 23  1  1  0  0  0
 10 11  1  0  0  0  0
 11 16  1  6  0  0  0
 11 12  1  0  0  0  0
 12 13  1  6  0  0  0
 13 14  2  0  0  0  0
 15 30  1  0  0  0  0
 15 13  1  0  0  0  0
 16 15  1  0  0  0  0
 17 16  2  0  0  0  0
 18 20  1  0  0  0  0
 19 18  2  0  0  0  0
 20  3  1  0  0  0  0
 21  9  1  0  0  0  0
 22 20  1  0  0  0  0
 24 23  1  0  0  0  0
 25 24  1  0  0  0  0
 26 25  2  0  0  0  0
 27 25  1  0  0  0  0
 28 27  1  0  0  0  0
 29 27  1  0  0  0  0
 31 32  1  0  0  0  0
 31 30  2  0  0  0  0
 33 32  1  0  0  0  0
M  END
>  <Pose>
1

>  <Score>
-6.715

$$$$
