MODEL 1
REMARK VINA RESULT:    -6.715      0.000      0.000
REMARK INTER + INTRA:          -9.949
REMARK INTER:                  -9.071
REMARK INTRA:                  -0.879
REMARK UNBOUND:                -0.879
REMARK  6 active torsions:
REMARK  status: ('A' for Active; 'I' for Inactive)
REMARK    1  A    between atoms: C_10  and  C_22 
REMARK    2  A    between atoms: N_15  and  C_18 
REMARK    3  A    between atoms: C_18  and  C_19 
REMARK    4  A    between atoms: C_19  and  C_20 
REMARK    5  A    between atoms: C_22  and  C_23 
REMARK    6  A    between atoms: C_23  and  C_24 
REMARK       I    between atoms: C_24  and  N_26 
ROOT
ATOM      1 Cl   UNK d   1       4.554  12.490 -13.807  0.00  0.00    -0.082 Cl
ATOM      2  C   UNK d   1       2.874  12.504 -13.280  0.00  0.00     0.061 A 
ATOM      3  C   UNK d   1       2.092  11.384 -13.600  0.00  0.00     0.066 A 
ATOM      4  C   UNK d   1       0.788  11.399 -13.189  0.00  0.00     0.008 A 
ATOM      5  C   UNK d   1       0.253  12.493 -12.476  0.00  0.00     0.012 A 
ATOM      6  C   UNK d   1       1.027  13.583 -12.169  0.00  0.00     0.002 A 
ATOM      7  C   UNK d   1       2.341  13.562 -12.585  0.00  0.00     0.026 A 
ATOM      8  C   UNK d   1       0.167  10.137 -13.615  0.00  0.00     0.151 A 
ATOM      9  N   UNK d   1      -1.040  10.289 -14.346  0.00  0.00    -0.395 N 
ATOM     10  C   UNK d   1      -1.890   9.195 -14.169  0.00  0.00     0.092 C 
ATOM     11  C   UNK d   1      -1.378   8.496 -12.929  0.00  0.00     0.117 C 
ATOM     12  C   UNK d   1      -0.233   9.299 -12.402  0.00  0.00     0.135 C 
ATOM     13  C   UNK d   1       0.836   8.347 -12.000  0.00  0.00     0.234 C 
ATOM     14  O   UNK d   1       1.894   8.686 -11.422  0.00  0.00    -0.272 OA
ATOM     15  N   UNK d   1       0.426   7.036 -12.392  0.00  0.00    -0.288 N 
ATOM     16  C   UNK d   1      -0.733   7.198 -13.223  0.00  0.00     0.233 C 
ATOM     17  O   UNK d   1      -1.120   6.362 -14.056  0.00  0.00    -0.272 OA
ATOM     18  C   UNK d   1       1.215   9.413 -14.341  0.00  0.00     0.256 A 
ATOM     19  O   UNK d   1       1.149   8.286 -14.923  0.00  0.00    -0.270 OA
ATOM     20  N   UNK d   1       2.398  10.189 -14.308  0.00  0.00    -0.323 N 
ATOM     21  H   UNK d   1      -0.948  10.681 -15.298  0.00  0.00     0.155 HD
ATOM     22  H   UNK d   1       3.339   9.968 -14.710  0.00  0.00     0.169 HD
ENDROOT
BRANCH  10  23
ATOM     23  C   UNK d   1      -3.354   9.411 -14.157  0.00  0.00     0.035 C 
BRANCH  23  24
ATOM     24  C   UNK d   1      -4.237   8.241 -14.334  0.00  0.00     0.104 C 
BRANCH  24  25
ATOM     25  C   UNK d   1      -4.162   7.521 -15.610  0.00  0.00     0.215 C 
ATOM     26  O   UNK d   1      -4.863   7.871 -16.577  0.00  0.00    -0.274 OA
ATOM     27  N   UNK d   1      -3.301   6.404 -15.818  0.00  0.00    -0.370 N 
ATOM     28  H   UNK d   1      -2.268   6.475 -15.843  0.00  0.00     0.159 HD
ATOM     29  H   UNK d   1      -3.726   5.471 -15.950  0.00  0.00     0.159 HD
ENDBRANCH  24  25
ENDBRANCH  23  24
ENDBRANCH  10  23
BRANCH  15  30
ATOM     30  C   UNK d   1       1.021   5.784 -12.040  0.00  0.00     0.135 C 
BRANCH  30  31
ATOM     31  C   UNK d   1       2.453   5.617 -12.401  0.00  0.00     0.020 C 
BRANCH  31  32
ATOM     32  C   UNK d   1       3.007   4.239 -12.308  0.00  0.00    -0.003 C 
ATOM     33  C   UNK d   1       4.276   4.081 -13.138  0.00  0.00     0.005 C 
ENDBRANCH  31  32
ENDBRANCH  30  31
ENDBRANCH  15  30
TORSDOF 6
ENDMDL
